MODEL 1
REMARK VINA RESULT:     -10.8      0.000      0.000
REMARK SMILES COc1ccc(C(=O)N[C@@H](C(=O)NCCCCCCNC(=O)c2ccc(-c3c4nc(c(-c5cccc(S(=O)(=O)[O-])c5F)c5ccc([nH]5)c(-c5cccc(S(=O)(=O)[O-])c5F)c5nc(c(-c6cccc(S(=O)(=O)[O-])c6F)c6ccc3[nH]6)C=C5)C=C4)cc2)C(C)C)cc1O
REMARK SMILES IDX 16 1 15 2 14 3 13 4 11 5 12 6 10 8 9 9 7 10 8 11 6 13 3 14
REMARK SMILES IDX 4 15 90 16 5 17 89 18 2 19 1 20 91 21 86 23 87 24 88 25
REMARK SMILES IDX 17 26 18 27 19 28 20 29 21 30 22 32 23 33 24 34 85 35 25 36
REMARK SMILES IDX 84 37 26 38 27 39 28 40 78 41 29 42 83 43 77 44 79 45 30 46
REMARK SMILES IDX 82 47 76 48 75 49 31 51 63 52 43 53 62 54 44 55 47 56 61 57
REMARK SMILES IDX 80 58 45 59 46 60 60 62 81 63 48 64 32 65 33 66 41 67 34 68
REMARK SMILES IDX 36 69 42 70 35 71 37 72 38 73 39 74 40 75 64 76 65 77 73 78
REMARK SMILES IDX 66 79 68 80 74 81 67 82 69 83 70 84 71 85 72 86 49 87 50 88
REMARK SMILES IDX 58 89 51 90 53 91 59 92 52 93 54 94 55 95 56 96 57 97
REMARK H PARENT 13 7 9 12 91 22 20 31 79 50 47 61
REMARK Flexibility Score: inf
ROOT
ATOM      1  C   UNL A   1      34.029  28.551  23.511  1.00  0.00     0.002 C 
ENDROOT
BRANCH   1   2
ATOM      2  C   UNL A   1      33.061  28.267  22.355  1.00  0.00     0.021 C 
BRANCH   2   3
ATOM      3  C   UNL A   1      32.561  26.826  22.343  1.00  0.00     0.116 C 
BRANCH   3   4
ATOM      4  N   UNL A   1      31.218  26.765  22.888  1.00  0.00    -0.354 N 
ATOM      5  C   UNL A   1      30.618  25.759  23.590  1.00  0.00     0.242 C 
ATOM      6  O   UNL A   1      29.414  25.868  23.828  1.00  0.00    -0.273 OA
ATOM      7  H   UNL A   1      30.660  27.561  22.730  1.00  0.00     0.163 HD
BRANCH   5   8
ATOM      8  C   UNL A   1      31.491  24.604  24.146  1.00  0.00     0.174 C 
BRANCH   8   9
ATOM      9  N   UNL A   1      31.407  23.410  23.296  1.00  0.00    -0.340 N 
ATOM     10  C   UNL A   1      32.251  22.349  23.065  1.00  0.00     0.252 C 
ATOM     11  O   UNL A   1      31.834  21.458  22.324  1.00  0.00    -0.269 OA
ATOM     12  H   UNL A   1      30.568  23.358  22.782  1.00  0.00     0.164 HD
BRANCH  10  13
ATOM     13  C   UNL A   1      33.658  22.263  23.572  1.00  0.00     0.043 A 
ATOM     14  C   UNL A   1      36.303  21.737  24.459  1.00  0.00     0.160 A 
ATOM     15  C   UNL A   1      35.208  21.140  25.087  1.00  0.00     0.051 A 
ATOM     16  C   UNL A   1      36.053  22.610  23.405  1.00  0.00     0.158 A 
ATOM     17  C   UNL A   1      33.903  21.383  24.639  1.00  0.00     0.018 A 
ATOM     18  C   UNL A   1      34.749  22.936  23.026  1.00  0.00     0.064 A 
BRANCH  14  19
ATOM     19  O   UNL A   1      37.519  21.351  24.940  1.00  0.00    -0.493 OA
ATOM     20  C   UNL A   1      37.897  19.987  24.798  1.00  0.00     0.278 C 
ENDBRANCH  14  19
BRANCH  16  21
ATOM     21  O   UNL A   1      37.035  23.120  22.601  1.00  0.00    -0.504 OA
ATOM     22  H   UNL A   1      37.522  22.551  22.037  1.00  0.00     0.293 HD
ENDBRANCH  16  21
ENDBRANCH  10  13
ENDBRANCH   8   9
BRANCH   8  23
ATOM     23  C   UNL A   1      31.103  24.264  25.612  1.00  0.00     0.015 C 
ATOM     24  C   UNL A   1      30.563  22.841  25.805  1.00  0.00     0.010 C 
ATOM     25  C   UNL A   1      32.306  24.468  26.542  1.00  0.00     0.010 C 
ENDBRANCH   8  23
ENDBRANCH   5   8
ENDBRANCH   3   4
ENDBRANCH   2   3
ENDBRANCH   1   2
BRANCH   1  26
ATOM     26  C   UNL A   1      33.346  28.977  24.815  1.00  0.00     0.002 C 
BRANCH  26  27
ATOM     27  C   UNL A   1      33.296  27.892  25.896  1.00  0.00     0.021 C 
BRANCH  27  28
ATOM     28  C   UNL A   1      33.457  28.414  27.321  1.00  0.00     0.116 C 
BRANCH  28  29
ATOM     29  N   UNL A   1      33.470  29.868  27.362  1.00  0.00    -0.352 N 
ATOM     30  C   UNL A   1      34.396  30.718  27.908  1.00  0.00     0.251 C 
ATOM     31  H   UNL A   1      32.700  30.305  26.934  1.00  0.00     0.163 HD
ATOM     32  O   UNL A   1      34.127  31.910  28.030  1.00  0.00    -0.269 OA
BRANCH  30  33
ATOM     33  C   UNL A   1      35.707  30.202  28.356  1.00  0.00     0.039 A 
ATOM     34  C   UNL A   1      36.788  30.270  27.475  1.00  0.00     0.014 A 
ATOM     35  C   UNL A   1      35.865  29.626  29.620  1.00  0.00     0.014 A 
ATOM     36  C   UNL A   1      38.035  29.788  27.875  1.00  0.00     0.010 A 
ATOM     37  C   UNL A   1      37.126  29.217  30.044  1.00  0.00     0.010 A 
ATOM     38  C   UNL A   1      38.220  29.274  29.170  1.00  0.00    -0.014 A 
BRANCH  38  39
ATOM     39  C   UNL A   1      39.558  28.809  29.611  1.00  0.00     0.031 A 
ATOM     40  C   UNL A   1      40.299  29.523  30.707  1.00  0.00     0.074 A 
ATOM     41  C   UNL A   1      40.133  27.769  28.978  1.00  0.00     0.049 A 
ATOM     42  N   UNL A   1      41.450  29.222  31.252  1.00  0.00    -0.248 NA
ATOM     43  C   UNL A   1      39.686  30.749  31.243  1.00  0.00     0.031 C 
ATOM     44  C   UNL A   1      39.565  27.067  27.826  1.00  0.00     0.029 A 
ATOM     45  N   UNL A   1      41.328  27.134  29.199  1.00  0.00    -0.354 N 
ATOM     46  C   UNL A   1      41.712  30.232  32.170  1.00  0.00     0.074 A 
ATOM     47  C   UNL A   1      40.622  31.178  32.077  1.00  0.00     0.031 C 
ATOM     48  C   UNL A   1      40.405  26.090  27.450  1.00  0.00     0.029 A 
ATOM     49  C   UNL A   1      41.577  26.107  28.321  1.00  0.00     0.049 A 
ATOM     50  H   UNL A   1      41.949  27.390  29.920  1.00  0.00     0.167 HD
ATOM     51  C   UNL A   1      42.747  30.344  33.037  1.00  0.00     0.034 A 
ATOM     52  C   UNL A   1      42.625  25.265  28.231  1.00  0.00     0.034 A 
ATOM     53  C   UNL A   1      43.809  29.381  33.147  1.00  0.00     0.049 A 
ATOM     54  C   UNL A   1      43.722  25.356  29.253  1.00  0.00     0.074 A 
ATOM     55  C   UNL A   1      44.850  29.345  34.059  1.00  0.00     0.029 A 
ATOM     56  N   UNL A   1      43.977  28.290  32.307  1.00  0.00    -0.354 N 
ATOM     57  N   UNL A   1      43.857  26.205  30.243  1.00  0.00    -0.248 NA
ATOM     58  C   UNL A   1      44.786  24.345  29.180  1.00  0.00     0.031 C 
ATOM     59  C   UNL A   1      45.659  28.245  33.753  1.00  0.00     0.029 A 
ATOM     60  C   UNL A   1      45.107  27.579  32.671  1.00  0.00     0.049 A 
ATOM     61  H   UNL A   1      43.379  28.055  31.561  1.00  0.00     0.167 HD
ATOM     62  C   UNL A   1      45.001  25.816  30.929  1.00  0.00     0.074 A 
ATOM     63  C   UNL A   1      45.509  24.639  30.252  1.00  0.00     0.031 C 
ATOM     64  C   UNL A   1      45.581  26.385  32.015  1.00  0.00     0.034 A 
BRANCH  51  65
ATOM     65  C   UNL A   1      42.745  31.529  33.970  1.00  0.00     0.023 A 
ATOM     66  C   UNL A   1      43.255  32.767  33.525  1.00  0.00     0.012 A 
ATOM     67  C   UNL A   1      42.218  31.431  35.273  1.00  0.00     0.148 A 
ATOM     68  C   UNL A   1      43.288  33.872  34.374  1.00  0.00     0.002 A 
ATOM     69  C   UNL A   1      42.208  32.552  36.098  1.00  0.00     0.091 A 
ATOM     70  F   UNL A   1      41.758  30.244  35.692  1.00  0.00    -0.205 F 
ATOM     71  C   UNL A   1      42.756  33.767  35.656  1.00  0.00     0.022 A 
BRANCH  69  72
ATOM     72  S   UNL A   1      41.470  32.535  37.734  1.00  0.00     0.127 S 
ATOM     73  O   UNL A   1      42.257  31.501  38.405  1.00  0.00    -0.237 OA
ATOM     74  O   UNL A   1      41.725  33.896  38.206  1.00  0.00    -0.237 OA
ATOM     75  O   UNL A   1      40.062  32.223  37.530  1.00  0.00    -0.744 OA
ENDBRANCH  69  72
ENDBRANCH  51  65
BRANCH  52  76
ATOM     76  C   UNL A   1      42.620  24.211  27.180  1.00  0.00     0.023 A 
ATOM     77  C   UNL A   1      43.298  24.437  25.967  1.00  0.00     0.012 A 
ATOM     78  C   UNL A   1      42.022  22.958  27.412  1.00  0.00     0.148 A 
ATOM     79  C   UNL A   1      43.366  23.438  24.994  1.00  0.00     0.002 A 
ATOM     80  C   UNL A   1      42.142  21.948  26.464  1.00  0.00     0.091 A 
ATOM     81  F   UNL A   1      41.379  22.767  28.573  1.00  0.00    -0.205 F 
ATOM     82  C   UNL A   1      42.800  22.191  25.248  1.00  0.00     0.022 A 
BRANCH  80  83
ATOM     83  S   UNL A   1      41.573  20.271  26.763  1.00  0.00     0.127 S 
ATOM     84  O   UNL A   1      40.181  20.490  27.147  1.00  0.00    -0.237 OA
ATOM     85  O   UNL A   1      41.761  19.653  25.450  1.00  0.00    -0.237 OA
ATOM     86  O   UNL A   1      42.438  19.738  27.807  1.00  0.00    -0.744 OA
ENDBRANCH  80  83
ENDBRANCH  52  76
BRANCH  64  87
ATOM     87  C   UNL A   1      46.825  25.734  32.564  1.00  0.00     0.023 A 
ATOM     88  C   UNL A   1      48.090  26.112  32.073  1.00  0.00     0.012 A 
ATOM     89  C   UNL A   1      46.742  24.803  33.619  1.00  0.00     0.148 A 
ATOM     90  C   UNL A   1      49.252  25.548  32.600  1.00  0.00     0.002 A 
ATOM     91  C   UNL A   1      47.905  24.283  34.172  1.00  0.00     0.091 A 
ATOM     92  F   UNL A   1      45.528  24.441  34.059  1.00  0.00    -0.205 F 
ATOM     93  C   UNL A   1      49.160  24.644  33.657  1.00  0.00     0.022 A 
BRANCH  91  94
ATOM     94  S   UNL A   1      47.883  23.188  35.597  1.00  0.00     0.127 S 
ATOM     95  O   UNL A   1      47.288  24.044  36.621  1.00  0.00    -0.237 OA
ATOM     96  O   UNL A   1      47.021  22.097  35.139  1.00  0.00    -0.237 OA
ATOM     97  O   UNL A   1      49.269  22.804  35.827  1.00  0.00    -0.744 OA
ENDBRANCH  91  94
ENDBRANCH  64  87
ENDBRANCH  38  39
ENDBRANCH  30  33
ENDBRANCH  28  29
ENDBRANCH  27  28
ENDBRANCH  26  27
ENDBRANCH   1  26
TORSDOF 21
ENDMDL
MODEL 2
REMARK VINA RESULT:     -10.8      1.476      2.279
REMARK SMILES COc1ccc(C(=O)N[C@@H](C(=O)NCCCCCCNC(=O)c2ccc(-c3c4nc(c(-c5cccc(S(=O)(=O)[O-])c5F)c5ccc([nH]5)c(-c5cccc(S(=O)(=O)[O-])c5F)c5nc(c(-c6cccc(S(=O)(=O)[O-])c6F)c6ccc3[nH]6)C=C5)C=C4)cc2)C(C)C)cc1O
REMARK SMILES IDX 16 1 15 2 14 3 13 4 11 5 12 6 10 8 9 9 7 10 8 11 6 13 3 14
REMARK SMILES IDX 4 15 90 16 5 17 89 18 2 19 1 20 91 21 86 23 87 24 88 25
REMARK SMILES IDX 17 26 18 27 19 28 20 29 21 30 22 32 23 33 24 34 85 35 25 36
REMARK SMILES IDX 84 37 26 38 27 39 28 40 78 41 29 42 83 43 77 44 79 45 30 46
REMARK SMILES IDX 82 47 76 48 75 49 31 51 63 52 43 53 62 54 44 55 47 56 61 57
REMARK SMILES IDX 80 58 45 59 46 60 60 62 81 63 48 64 32 65 33 66 41 67 34 68
REMARK SMILES IDX 36 69 42 70 35 71 37 72 38 73 39 74 40 75 64 76 65 77 73 78
REMARK SMILES IDX 66 79 68 80 74 81 67 82 69 83 70 84 71 85 72 86 49 87 50 88
REMARK SMILES IDX 58 89 51 90 53 91 59 92 52 93 54 94 55 95 56 96 57 97
REMARK H PARENT 13 7 9 12 91 22 20 31 79 50 47 61
REMARK Flexibility Score: inf
ROOT
ATOM      1  C   UNL A   1      31.012  27.375  24.856  1.00  0.00     0.002 C 
ENDROOT
BRANCH   1   2
ATOM      2  C   UNL A   1      30.792  26.590  23.558  1.00  0.00     0.021 C 
BRANCH   2   3
ATOM      3  C   UNL A   1      31.318  25.160  23.635  1.00  0.00     0.116 C 
BRANCH   3   4
ATOM      4  N   UNL A   1      31.924  24.788  22.370  1.00  0.00    -0.354 N 
ATOM      5  C   UNL A   1      32.974  23.948  22.132  1.00  0.00     0.242 C 
ATOM      6  O   UNL A   1      33.412  23.894  20.982  1.00  0.00    -0.273 OA
ATOM      7  H   UNL A   1      31.521  25.198  21.571  1.00  0.00     0.163 HD
BRANCH   5   8
ATOM      8  C   UNL A   1      33.479  23.030  23.276  1.00  0.00     0.174 C 
BRANCH   8   9
ATOM      9  N   UNL A   1      32.418  22.755  24.252  1.00  0.00    -0.340 N 
ATOM     10  C   UNL A   1      31.957  21.606  24.853  1.00  0.00     0.252 C 
ATOM     11  O   UNL A   1      31.072  21.739  25.699  1.00  0.00    -0.269 OA
ATOM     12  H   UNL A   1      31.933  23.563  24.536  1.00  0.00     0.164 HD
BRANCH  10  13
ATOM     13  C   UNL A   1      32.389  20.223  24.474  1.00  0.00     0.043 A 
ATOM     14  C   UNL A   1      32.984  17.484  24.027  1.00  0.00     0.160 A 
ATOM     15  C   UNL A   1      33.284  18.088  25.250  1.00  0.00     0.051 A 
ATOM     16  C   UNL A   1      32.407  18.270  23.035  1.00  0.00     0.158 A 
ATOM     17  C   UNL A   1      32.974  19.436  25.479  1.00  0.00     0.018 A 
ATOM     18  C   UNL A   1      32.195  19.637  23.224  1.00  0.00     0.064 A 
BRANCH  14  19
ATOM     19  O   UNL A   1      33.261  16.150  23.966  1.00  0.00    -0.493 OA
ATOM     20  C   UNL A   1      33.143  15.382  25.158  1.00  0.00     0.278 C 
ENDBRANCH  14  19
BRANCH  16  21
ATOM     21  O   UNL A   1      31.910  17.762  21.867  1.00  0.00    -0.504 OA
ATOM     22  H   UNL A   1      32.235  16.949  21.533  1.00  0.00     0.293 HD
ENDBRANCH  16  21
ENDBRANCH  10  13
ENDBRANCH   8   9
BRANCH   8  23
ATOM     23  C   UNL A   1      34.725  23.642  23.976  1.00  0.00     0.015 C 
ATOM     24  C   UNL A   1      34.734  23.472  25.501  1.00  0.00     0.010 C 
ATOM     25  C   UNL A   1      36.011  23.034  23.400  1.00  0.00     0.010 C 
ENDBRANCH   8  23
ENDBRANCH   5   8
ENDBRANCH   3   4
ENDBRANCH   2   3
ENDBRANCH   1   2
BRANCH   1  26
ATOM     26  C   UNL A   1      32.044  28.503  24.743  1.00  0.00     0.002 C 
BRANCH  26  27
ATOM     27  C   UNL A   1      33.479  28.097  25.094  1.00  0.00     0.021 C 
BRANCH  27  28
ATOM     28  C   UNL A   1      33.879  28.381  26.539  1.00  0.00     0.116 C 
BRANCH  28  29
ATOM     29  N   UNL A   1      33.677  29.779  26.888  1.00  0.00    -0.352 N 
ATOM     30  C   UNL A   1      34.428  30.595  27.693  1.00  0.00     0.251 C 
ATOM     31  H   UNL A   1      32.885  30.201  26.485  1.00  0.00     0.163 HD
ATOM     32  O   UNL A   1      33.981  31.686  28.035  1.00  0.00    -0.269 OA
BRANCH  30  33
ATOM     33  C   UNL A   1      35.764  30.161  28.154  1.00  0.00     0.039 A 
ATOM     34  C   UNL A   1      35.884  29.613  29.433  1.00  0.00     0.014 A 
ATOM     35  C   UNL A   1      36.896  30.322  27.349  1.00  0.00     0.014 A 
ATOM     36  C   UNL A   1      37.135  29.198  29.891  1.00  0.00     0.010 A 
ATOM     37  C   UNL A   1      38.128  29.836  27.777  1.00  0.00     0.010 A 
ATOM     38  C   UNL A   1      38.265  29.288  29.060  1.00  0.00    -0.014 A 
BRANCH  38  39
ATOM     39  C   UNL A   1      39.585  28.799  29.529  1.00  0.00     0.031 A 
ATOM     40  C   UNL A   1      40.311  29.493  30.648  1.00  0.00     0.074 A 
ATOM     41  C   UNL A   1      40.158  27.754  28.902  1.00  0.00     0.049 A 
ATOM     42  N   UNL A   1      41.444  29.171  31.217  1.00  0.00    -0.248 NA
ATOM     43  C   UNL A   1      39.704  30.725  31.177  1.00  0.00     0.031 C 
ATOM     44  C   UNL A   1      39.607  27.068  27.733  1.00  0.00     0.029 A 
ATOM     45  N   UNL A   1      41.338  27.099  29.147  1.00  0.00    -0.354 N 
ATOM     46  C   UNL A   1      41.700  30.170  32.148  1.00  0.00     0.074 A 
ATOM     47  C   UNL A   1      40.628  31.134  32.036  1.00  0.00     0.031 C 
ATOM     48  C   UNL A   1      40.441  26.081  27.370  1.00  0.00     0.029 A 
ATOM     49  C   UNL A   1      41.592  26.074  28.268  1.00  0.00     0.049 A 
ATOM     50  H   UNL A   1      41.946  27.340  29.884  1.00  0.00     0.167 HD
ATOM     51  C   UNL A   1      42.716  30.261  33.040  1.00  0.00     0.034 A 
ATOM     52  C   UNL A   1      42.628  25.216  28.197  1.00  0.00     0.034 A 
ATOM     53  C   UNL A   1      43.760  29.281  33.167  1.00  0.00     0.049 A 
ATOM     54  C   UNL A   1      43.703  25.283  29.245  1.00  0.00     0.074 A 
ATOM     55  C   UNL A   1      44.779  29.222  34.103  1.00  0.00     0.029 A 
ATOM     56  N   UNL A   1      43.930  28.192  32.324  1.00  0.00    -0.354 N 
ATOM     57  N   UNL A   1      43.828  26.124  30.244  1.00  0.00    -0.248 NA
ATOM     58  C   UNL A   1      44.752  24.256  29.190  1.00  0.00     0.031 C 
ATOM     59  C   UNL A   1      45.578  28.112  33.809  1.00  0.00     0.029 A 
ATOM     60  C   UNL A   1      45.041  27.461  32.710  1.00  0.00     0.049 A 
ATOM     61  H   UNL A   1      43.347  27.972  31.563  1.00  0.00     0.167 HD
ATOM     62  C   UNL A   1      44.948  25.712  30.954  1.00  0.00     0.074 A 
ATOM     63  C   UNL A   1      45.454  24.531  30.281  1.00  0.00     0.031 C 
ATOM     64  C   UNL A   1      45.512  26.265  32.056  1.00  0.00     0.034 A 
BRANCH  51  65
ATOM     65  C   UNL A   1      42.710  31.439  33.981  1.00  0.00     0.023 A 
ATOM     66  C   UNL A   1      43.313  32.652  33.582  1.00  0.00     0.012 A 
ATOM     67  C   UNL A   1      42.091  31.362  35.243  1.00  0.00     0.148 A 
ATOM     68  C   UNL A   1      43.343  33.749  34.441  1.00  0.00     0.002 A 
ATOM     69  C   UNL A   1      42.082  32.478  36.075  1.00  0.00     0.091 A 
ATOM     70  F   UNL A   1      41.542  30.199  35.619  1.00  0.00    -0.205 F 
ATOM     71  C   UNL A   1      42.720  33.666  35.683  1.00  0.00     0.022 A 
BRANCH  69  72
ATOM     72  S   UNL A   1      41.232  32.491  37.657  1.00  0.00     0.127 S 
ATOM     73  O   UNL A   1      39.923  31.950  37.295  1.00  0.00    -0.237 OA
ATOM     74  O   UNL A   1      42.060  31.593  38.463  1.00  0.00    -0.237 OA
ATOM     75  O   UNL A   1      41.241  33.878  38.100  1.00  0.00    -0.744 OA
ENDBRANCH  69  72
ENDBRANCH  51  65
BRANCH  52  76
ATOM     76  C   UNL A   1      42.632  24.169  27.139  1.00  0.00     0.023 A 
ATOM     77  C   UNL A   1      43.354  24.386  25.949  1.00  0.00     0.012 A 
ATOM     78  C   UNL A   1      41.997  22.929  27.342  1.00  0.00     0.148 A 
ATOM     79  C   UNL A   1      43.429  23.393  24.972  1.00  0.00     0.002 A 
ATOM     80  C   UNL A   1      42.123  21.923  26.392  1.00  0.00     0.091 A 
ATOM     81  F   UNL A   1      41.312  22.747  28.481  1.00  0.00    -0.205 F 
ATOM     82  C   UNL A   1      42.825  22.158  25.199  1.00  0.00     0.022 A 
BRANCH  80  83
ATOM     83  S   UNL A   1      41.505  20.258  26.661  1.00  0.00     0.127 S 
ATOM     84  O   UNL A   1      40.066  20.486  26.767  1.00  0.00    -0.237 OA
ATOM     85  O   UNL A   1      41.932  19.579  25.436  1.00  0.00    -0.237 OA
ATOM     86  O   UNL A   1      42.159  19.782  27.871  1.00  0.00    -0.744 OA
ENDBRANCH  80  83
ENDBRANCH  52  76
BRANCH  64  87
ATOM     87  C   UNL A   1      46.732  25.591  32.630  1.00  0.00     0.023 A 
ATOM     88  C   UNL A   1      48.016  25.973  32.194  1.00  0.00     0.012 A 
ATOM     89  C   UNL A   1      46.607  24.633  33.656  1.00  0.00     0.148 A 
ATOM     90  C   UNL A   1      49.155  25.388  32.745  1.00  0.00     0.002 A 
ATOM     91  C   UNL A   1      47.747  24.089  34.234  1.00  0.00     0.091 A 
ATOM     92  F   UNL A   1      45.376  24.267  34.043  1.00  0.00    -0.205 F 
ATOM     93  C   UNL A   1      49.021  24.456  33.773  1.00  0.00     0.022 A 
BRANCH  91  94
ATOM     94  S   UNL A   1      47.670  22.957  35.627  1.00  0.00     0.127 S 
ATOM     95  O   UNL A   1      47.147  21.745  34.997  1.00  0.00    -0.237 OA
ATOM     96  O   UNL A   1      49.072  22.873  36.039  1.00  0.00    -0.237 OA
ATOM     97  O   UNL A   1      46.791  23.584  36.605  1.00  0.00    -0.744 OA
ENDBRANCH  91  94
ENDBRANCH  64  87
ENDBRANCH  38  39
ENDBRANCH  30  33
ENDBRANCH  28  29
ENDBRANCH  27  28
ENDBRANCH  26  27
ENDBRANCH   1  26
TORSDOF 21
ENDMDL
MODEL 3
REMARK VINA RESULT:     -10.7      2.248      3.021
REMARK SMILES COc1ccc(C(=O)N[C@@H](C(=O)NCCCCCCNC(=O)c2ccc(-c3c4nc(c(-c5cccc(S(=O)(=O)[O-])c5F)c5ccc([nH]5)c(-c5cccc(S(=O)(=O)[O-])c5F)c5nc(c(-c6cccc(S(=O)(=O)[O-])c6F)c6ccc3[nH]6)C=C5)C=C4)cc2)C(C)C)cc1O
REMARK SMILES IDX 16 1 15 2 14 3 13 4 11 5 12 6 10 8 9 9 7 10 8 11 6 13 3 14
REMARK SMILES IDX 4 15 90 16 5 17 89 18 2 19 1 20 91 21 86 23 87 24 88 25
REMARK SMILES IDX 17 26 18 27 19 28 20 29 21 30 22 32 23 33 24 34 85 35 25 36
REMARK SMILES IDX 84 37 26 38 27 39 28 40 78 41 29 42 83 43 77 44 79 45 30 46
REMARK SMILES IDX 82 47 76 48 75 49 31 51 63 52 43 53 62 54 44 55 47 56 61 57
REMARK SMILES IDX 80 58 45 59 46 60 60 62 81 63 48 64 32 65 33 66 41 67 34 68
REMARK SMILES IDX 36 69 42 70 35 71 37 72 38 73 39 74 40 75 64 76 65 77 73 78
REMARK SMILES IDX 66 79 68 80 74 81 67 82 69 83 70 84 71 85 72 86 49 87 50 88
REMARK SMILES IDX 58 89 51 90 53 91 59 92 52 93 54 94 55 95 56 96 57 97
REMARK H PARENT 13 7 9 12 91 22 20 31 79 50 47 61
REMARK Flexibility Score: inf
ROOT
ATOM      1  C   UNL A   1      31.019  27.565  24.382  1.00  0.00     0.002 C 
ENDROOT
BRANCH   1   2
ATOM      2  C   UNL A   1      30.614  26.656  23.215  1.00  0.00     0.021 C 
BRANCH   2   3
ATOM      3  C   UNL A   1      31.165  25.241  23.349  1.00  0.00     0.116 C 
BRANCH   3   4
ATOM      4  N   UNL A   1      31.756  24.820  22.093  1.00  0.00    -0.354 N 
ATOM      5  C   UNL A   1      32.877  24.069  21.877  1.00  0.00     0.242 C 
ATOM      6  O   UNL A   1      33.274  23.957  20.716  1.00  0.00    -0.273 OA
ATOM      7  H   UNL A   1      31.283  25.116  21.282  1.00  0.00     0.163 HD
BRANCH   5   8
ATOM      8  C   UNL A   1      33.516  23.309  23.069  1.00  0.00     0.174 C 
BRANCH   8   9
ATOM      9  N   UNL A   1      32.512  22.949  24.078  1.00  0.00    -0.340 N 
ATOM     10  C   UNL A   1      32.141  21.762  24.665  1.00  0.00     0.252 C 
ATOM     11  O   UNL A   1      31.285  21.824  25.549  1.00  0.00    -0.269 OA
ATOM     12  H   UNL A   1      31.994  23.722  24.402  1.00  0.00     0.164 HD
BRANCH  10  13
ATOM     13  C   UNL A   1      32.635  20.416  24.234  1.00  0.00     0.043 A 
ATOM     14  C   UNL A   1      33.457  17.743  23.748  1.00  0.00     0.160 A 
ATOM     15  C   UNL A   1      34.013  18.480  24.795  1.00  0.00     0.051 A 
ATOM     16  C   UNL A   1      32.509  18.366  22.943  1.00  0.00     0.158 A 
ATOM     17  C   UNL A   1      33.595  19.794  25.048  1.00  0.00     0.018 A 
ATOM     18  C   UNL A   1      32.169  19.708  23.128  1.00  0.00     0.064 A 
BRANCH  14  19
ATOM     19  O   UNL A   1      33.891  16.453  23.664  1.00  0.00    -0.493 OA
ATOM     20  C   UNL A   1      33.832  15.645  24.833  1.00  0.00     0.278 C 
ENDBRANCH  14  19
BRANCH  16  21
ATOM     21  O   UNL A   1      31.768  17.705  22.002  1.00  0.00    -0.504 OA
ATOM     22  H   UNL A   1      31.720  18.036  21.126  1.00  0.00     0.293 HD
ENDBRANCH  16  21
ENDBRANCH  10  13
ENDBRANCH   8   9
BRANCH   8  23
ATOM     23  C   UNL A   1      34.666  24.137  23.708  1.00  0.00     0.015 C 
ATOM     24  C   UNL A   1      34.344  24.683  25.105  1.00  0.00     0.010 C 
ATOM     25  C   UNL A   1      35.947  23.296  23.787  1.00  0.00     0.010 C 
ENDBRANCH   8  23
ENDBRANCH   5   8
ENDBRANCH   3   4
ENDBRANCH   2   3
ENDBRANCH   1   2
BRANCH   1  26
ATOM     26  C   UNL A   1      31.521  28.950  23.957  1.00  0.00     0.002 C 
BRANCH  26  27
ATOM     27  C   UNL A   1      33.010  29.199  24.219  1.00  0.00     0.021 C 
BRANCH  27  28
ATOM     28  C   UNL A   1      33.369  29.384  25.691  1.00  0.00     0.116 C 
BRANCH  28  29
ATOM     29  N   UNL A   1      33.019  30.713  26.167  1.00  0.00    -0.352 N 
ATOM     30  C   UNL A   1      33.554  31.440  27.198  1.00  0.00     0.251 C 
ATOM     31  H   UNL A   1      32.293  31.156  25.674  1.00  0.00     0.163 HD
ATOM     32  O   UNL A   1      32.985  32.457  27.582  1.00  0.00    -0.269 OA
BRANCH  30  33
ATOM     33  C   UNL A   1      34.804  30.996  27.851  1.00  0.00     0.039 A 
ATOM     34  C   UNL A   1      35.877  31.888  27.918  1.00  0.00     0.014 A 
ATOM     35  C   UNL A   1      34.933  29.702  28.365  1.00  0.00     0.014 A 
ATOM     36  C   UNL A   1      37.067  31.491  28.528  1.00  0.00     0.010 A 
ATOM     37  C   UNL A   1      36.094  29.335  29.041  1.00  0.00     0.010 A 
ATOM     38  C   UNL A   1      37.180  30.218  29.112  1.00  0.00    -0.014 A 
BRANCH  38  39
ATOM     39  C   UNL A   1      38.429  29.816  29.805  1.00  0.00     0.031 A 
ATOM     40  C   UNL A   1      38.746  30.331  31.182  1.00  0.00     0.074 A 
ATOM     41  C   UNL A   1      39.310  29.026  29.163  1.00  0.00     0.049 A 
ATOM     42  N   UNL A   1      39.763  30.043  31.953  1.00  0.00    -0.248 NA
ATOM     43  C   UNL A   1      37.820  31.319  31.758  1.00  0.00     0.031 C 
ATOM     44  C   UNL A   1      39.170  28.555  27.785  1.00  0.00     0.029 A 
ATOM     45  N   UNL A   1      40.506  28.496  29.577  1.00  0.00    -0.354 N 
ATOM     46  C   UNL A   1      39.616  30.830  33.088  1.00  0.00     0.074 A 
ATOM     47  C   UNL A   1      38.436  31.643  32.885  1.00  0.00     0.031 C 
ATOM     48  C   UNL A   1      40.231  27.796  27.471  1.00  0.00     0.029 A 
ATOM     49  C   UNL A   1      41.134  27.739  28.617  1.00  0.00     0.049 A 
ATOM     50  H   UNL A   1      40.879  28.644  30.477  1.00  0.00     0.167 HD
ATOM     51  C   UNL A   1      40.372  30.852  34.212  1.00  0.00     0.034 A 
ATOM     52  C   UNL A   1      42.300  27.066  28.657  1.00  0.00     0.034 A 
ATOM     53  C   UNL A   1      41.524  30.016  34.419  1.00  0.00     0.049 A 
ATOM     54  C   UNL A   1      43.082  27.037  29.939  1.00  0.00     0.074 A 
ATOM     55  C   UNL A   1      42.300  29.884  35.557  1.00  0.00     0.029 A 
ATOM     56  N   UNL A   1      42.076  29.179  33.460  1.00  0.00    -0.354 N 
ATOM     57  N   UNL A   1      42.824  27.639  31.075  1.00  0.00    -0.248 NA
ATOM     58  C   UNL A   1      44.288  26.198  29.965  1.00  0.00     0.031 C 
ATOM     59  C   UNL A   1      43.336  28.985  35.277  1.00  0.00     0.029 A 
ATOM     60  C   UNL A   1      43.188  28.535  33.975  1.00  0.00     0.049 A 
ATOM     61  H   UNL A   1      41.728  29.061  32.547  1.00  0.00     0.167 HD
ATOM     62  C   UNL A   1      43.814  27.230  31.959  1.00  0.00     0.074 A 
ATOM     63  C   UNL A   1      44.666  26.311  31.231  1.00  0.00     0.031 C 
ATOM     64  C   UNL A   1      44.005  27.590  33.253  1.00  0.00     0.034 A 
BRANCH  51  65
ATOM     65  C   UNL A   1      39.939  31.775  35.322  1.00  0.00     0.023 A 
ATOM     66  C   UNL A   1      40.440  33.094  35.367  1.00  0.00     0.012 A 
ATOM     67  C   UNL A   1      39.021  31.356  36.305  1.00  0.00     0.148 A 
ATOM     68  C   UNL A   1      40.076  33.962  36.395  1.00  0.00     0.002 A 
ATOM     69  C   UNL A   1      38.624  32.244  37.300  1.00  0.00     0.091 A 
ATOM     70  F   UNL A   1      38.570  30.095  36.265  1.00  0.00    -0.205 F 
ATOM     71  C   UNL A   1      39.161  33.540  37.356  1.00  0.00     0.022 A 
BRANCH  69  72
ATOM     72  S   UNL A   1      37.388  31.818  38.531  1.00  0.00     0.127 S 
ATOM     73  O   UNL A   1      37.040  30.452  38.142  1.00  0.00    -0.237 OA
ATOM     74  O   UNL A   1      38.143  31.922  39.780  1.00  0.00    -0.237 OA
ATOM     75  O   UNL A   1      36.327  32.805  38.384  1.00  0.00    -0.744 OA
ENDBRANCH  69  72
ENDBRANCH  51  65
BRANCH  52  76
ATOM     76  C   UNL A   1      42.733  26.295  27.459  1.00  0.00     0.023 A 
ATOM     77  C   UNL A   1      43.634  26.877  26.547  1.00  0.00     0.012 A 
ATOM     78  C   UNL A   1      42.324  24.962  27.267  1.00  0.00     0.148 A 
ATOM     79  C   UNL A   1      44.108  26.150  25.454  1.00  0.00     0.002 A 
ATOM     80  C   UNL A   1      42.843  24.224  26.210  1.00  0.00     0.091 A 
ATOM     81  F   UNL A   1      41.462  24.430  28.146  1.00  0.00    -0.205 F 
ATOM     82  C   UNL A   1      43.723  24.821  25.293  1.00  0.00     0.022 A 
BRANCH  80  83
ATOM     83  S   UNL A   1      42.519  22.469  26.006  1.00  0.00     0.127 S 
ATOM     84  O   UNL A   1      41.064  22.417  26.122  1.00  0.00    -0.237 OA
ATOM     85  O   UNL A   1      43.040  22.223  24.660  1.00  0.00    -0.237 OA
ATOM     86  O   UNL A   1      43.260  21.803  27.068  1.00  0.00    -0.744 OA
ENDBRANCH  80  83
ENDBRANCH  52  76
BRANCH  64  87
ATOM     87  C   UNL A   1      45.169  26.973  33.986  1.00  0.00     0.023 A 
ATOM     88  C   UNL A   1      46.406  27.646  34.032  1.00  0.00     0.012 A 
ATOM     89  C   UNL A   1      45.013  25.763  34.690  1.00  0.00     0.148 A 
ATOM     90  C   UNL A   1      47.480  27.106  34.739  1.00  0.00     0.002 A 
ATOM     91  C   UNL A   1      46.072  25.257  35.433  1.00  0.00     0.091 A 
ATOM     92  F   UNL A   1      43.834  25.127  34.618  1.00  0.00    -0.205 F 
ATOM     93  C   UNL A   1      47.309  25.919  35.450  1.00  0.00     0.022 A 
BRANCH  91  94
ATOM     94  S   UNL A   1      45.911  23.787  36.455  1.00  0.00     0.127 S 
ATOM     95  O   UNL A   1      47.234  23.708  37.073  1.00  0.00    -0.237 OA
ATOM     96  O   UNL A   1      44.832  24.159  37.370  1.00  0.00    -0.237 OA
ATOM     97  O   UNL A   1      45.579  22.701  35.543  1.00  0.00    -0.744 OA
ENDBRANCH  91  94
ENDBRANCH  64  87
ENDBRANCH  38  39
ENDBRANCH  30  33
ENDBRANCH  28  29
ENDBRANCH  27  28
ENDBRANCH  26  27
ENDBRANCH   1  26
TORSDOF 21
ENDMDL
