MODEL 1
REMARK VINA RESULT:     -12.0      0.000      0.000
REMARK SMILES Cc1ccc(C)c(-c2csc(C(=O)NCCCCCCNC(=O)c3ccc(-c4c5nc(c(-c6cccc(S(=O)(=O)[O-])c6F)c6ccc([nH]6)c(-c6cccc(S(=O)(=O)[O-])c6F)c6nc(c(-c7cccc(S(=O)(=O)[O-])c7F)c7ccc4[nH]7)C=C6)C=C5)cc3)n2)c1
REMARK SMILES IDX 18 1 17 2 16 3 15 4 14 5 12 6 13 7 11 9 8 10 9 11 87 12
REMARK SMILES IDX 10 13 7 14 1 15 2 16 3 17 88 18 4 19 5 20 6 21 19 22 20 23
REMARK SMILES IDX 21 24 22 25 23 27 24 28 25 29 86 30 26 31 85 32 27 33 28 34
REMARK SMILES IDX 29 35 79 36 30 37 84 38 78 39 80 40 31 41 83 42 77 43 76 44
REMARK SMILES IDX 32 46 64 47 44 48 63 49 45 50 48 51 62 52 81 53 46 54 47 55
REMARK SMILES IDX 61 57 82 58 49 59 33 60 34 61 42 62 35 63 37 64 43 65 36 66
REMARK SMILES IDX 38 67 39 68 40 69 41 70 65 71 66 72 74 73 67 74 69 75 75 76
REMARK SMILES IDX 68 77 70 78 71 79 72 80 73 81 50 82 51 83 59 84 52 85 54 86
REMARK SMILES IDX 60 87 53 88 55 89 56 90 57 91 58 92
REMARK H PARENT 14 8 21 26 80 45 48 56
REMARK Flexibility Score: inf
ROOT
ATOM      1  C   UNL A   1      37.534  21.977  25.155  1.00  0.00     0.002 C 
ENDROOT
BRANCH   1   2
ATOM      2  C   UNL A   1      36.138  21.699  25.726  1.00  0.00     0.002 C 
BRANCH   2   3
ATOM      3  C   UNL A   1      35.006  21.386  24.746  1.00  0.00     0.021 C 
BRANCH   3   4
ATOM      4  C   UNL A   1      33.680  20.928  25.354  1.00  0.00     0.116 C 
BRANCH   4   5
ATOM      5  N   UNL A   1      33.545  21.276  26.759  1.00  0.00    -0.350 N 
ATOM      6  C   UNL A   1      32.939  22.381  27.333  1.00  0.00     0.280 C 
ATOM      7  O   UNL A   1      32.961  22.412  28.570  1.00  0.00    -0.267 OA
ATOM      8  H   UNL A   1      33.940  20.634  27.393  1.00  0.00     0.163 HD
BRANCH   6   9
ATOM      9  C   UNL A   1      32.311  23.408  26.500  1.00  0.00     0.182 A 
ATOM     10  C   UNL A   1      31.968  25.356  25.504  1.00  0.00     0.082 A 
ATOM     11  C   UNL A   1      30.731  24.782  25.286  1.00  0.00     0.096 A 
ATOM     12  N   UNL A   1      32.909  24.499  26.060  1.00  0.00    -0.231 NA
ATOM     13  S   UNL A   1      30.687  23.206  25.966  1.00  0.00    -0.117 S 
BRANCH  10  14
ATOM     14  C   UNL A   1      32.330  26.730  25.157  1.00  0.00     0.004 A 
ATOM     15  C   UNL A   1      34.142  28.415  22.233  1.00  0.00     0.044 C 
ATOM     16  C   UNL A   1      33.430  28.207  23.533  1.00  0.00    -0.050 A 
ATOM     17  C   UNL A   1      33.242  29.288  24.393  1.00  0.00     0.004 A 
ATOM     18  C   UNL A   1      32.975  26.939  23.921  1.00  0.00     0.014 A 
ATOM     19  C   UNL A   1      32.608  29.101  25.617  1.00  0.00     0.004 A 
ATOM     20  C   UNL A   1      32.152  27.831  26.019  1.00  0.00    -0.042 A 
ATOM     21  C   UNL A   1      31.542  27.762  27.391  1.00  0.00     0.045 C 
ENDBRANCH  10  14
ENDBRANCH   6   9
ENDBRANCH   4   5
ENDBRANCH   3   4
ENDBRANCH   2   3
ENDBRANCH   1   2
BRANCH   1  22
ATOM     22  C   UNL A   1      38.732  21.099  25.548  1.00  0.00     0.021 C 
BRANCH  22  23
ATOM     23  C   UNL A   1      38.692  19.590  25.289  1.00  0.00     0.116 C 
BRANCH  23  24
ATOM     24  N   UNL A   1      39.904  18.867  25.709  1.00  0.00    -0.352 N 
ATOM     25  C   UNL A   1      41.188  19.278  26.036  1.00  0.00     0.251 C 
ATOM     26  H   UNL A   1      39.778  17.893  25.769  1.00  0.00     0.163 HD
ATOM     27  O   UNL A   1      42.103  18.447  26.012  1.00  0.00    -0.269 OA
BRANCH  25  28
ATOM     28  C   UNL A   1      41.487  20.674  26.424  1.00  0.00     0.039 A 
ATOM     29  C   UNL A   1      42.164  21.597  25.617  1.00  0.00     0.014 A 
ATOM     30  C   UNL A   1      41.109  21.074  27.689  1.00  0.00     0.014 A 
ATOM     31  C   UNL A   1      42.479  22.855  26.152  1.00  0.00     0.010 A 
ATOM     32  C   UNL A   1      41.068  22.379  28.046  1.00  0.00     0.010 A 
ATOM     33  C   UNL A   1      41.951  23.208  27.401  1.00  0.00    -0.014 A 
BRANCH  33  34
ATOM     34  C   UNL A   1      42.226  24.433  28.129  1.00  0.00     0.031 A 
ATOM     35  C   UNL A   1      41.137  25.416  28.028  1.00  0.00     0.074 A 
ATOM     36  C   UNL A   1      43.152  24.505  29.116  1.00  0.00     0.049 A 
ATOM     37  N   UNL A   1      41.113  26.488  27.311  1.00  0.00    -0.248 NA
ATOM     38  C   UNL A   1      39.841  25.055  28.628  1.00  0.00     0.031 C 
ATOM     39  C   UNL A   1      44.009  23.424  29.637  1.00  0.00     0.029 A 
ATOM     40  N   UNL A   1      43.423  25.535  29.969  1.00  0.00    -0.354 N 
ATOM     41  C   UNL A   1      39.888  27.070  27.611  1.00  0.00     0.074 A 
ATOM     42  C   UNL A   1      39.063  26.011  28.121  1.00  0.00     0.031 C 
ATOM     43  C   UNL A   1      44.552  23.802  30.816  1.00  0.00     0.029 A 
ATOM     44  C   UNL A   1      44.200  25.186  31.073  1.00  0.00     0.049 A 
ATOM     45  H   UNL A   1      43.096  26.451  29.817  1.00  0.00     0.167 HD
ATOM     46  C   UNL A   1      39.779  28.416  27.779  1.00  0.00     0.034 A 
ATOM     47  C   UNL A   1      44.505  25.973  32.136  1.00  0.00     0.034 A 
ATOM     48  C   UNL A   1      40.980  29.089  27.328  1.00  0.00     0.049 A 
ATOM     49  C   UNL A   1      44.233  27.369  31.742  1.00  0.00     0.074 A 
ATOM     50  C   UNL A   1      41.697  29.157  26.151  1.00  0.00     0.029 A 
ATOM     51  N   UNL A   1      41.822  29.526  28.323  1.00  0.00    -0.354 N 
ATOM     52  N   UNL A   1      44.952  28.025  30.878  1.00  0.00    -0.248 NA
ATOM     53  C   UNL A   1      42.936  27.953  32.050  1.00  0.00     0.031 C 
ATOM     54  C   UNL A   1      43.064  29.285  26.544  1.00  0.00     0.029 A 
ATOM     55  C   UNL A   1      43.118  29.327  27.938  1.00  0.00     0.049 A 
ATOM     56  H   UNL A   1      41.535  29.920  29.179  1.00  0.00     0.167 HD
ATOM     57  C   UNL A   1      44.033  28.810  30.201  1.00  0.00     0.074 A 
ATOM     58  C   UNL A   1      42.868  28.865  31.076  1.00  0.00     0.031 C 
ATOM     59  C   UNL A   1      44.195  29.061  28.868  1.00  0.00     0.034 A 
BRANCH  46  60
ATOM     60  C   UNL A   1      38.816  29.107  28.732  1.00  0.00     0.023 A 
ATOM     61  C   UNL A   1      38.061  30.172  28.188  1.00  0.00     0.012 A 
ATOM     62  C   UNL A   1      38.792  28.977  30.142  1.00  0.00     0.148 A 
ATOM     63  C   UNL A   1      37.397  31.099  28.998  1.00  0.00     0.002 A 
ATOM     64  C   UNL A   1      38.066  29.855  30.941  1.00  0.00     0.091 A 
ATOM     65  F   UNL A   1      39.567  28.087  30.761  1.00  0.00    -0.205 F 
ATOM     66  C   UNL A   1      37.397  30.940  30.377  1.00  0.00     0.022 A 
BRANCH  64  67
ATOM     67  S   UNL A   1      38.002  29.661  32.729  1.00  0.00     0.127 S 
ATOM     68  O   UNL A   1      37.135  30.772  33.111  1.00  0.00    -0.237 OA
ATOM     69  O   UNL A   1      37.405  28.331  32.865  1.00  0.00    -0.237 OA
ATOM     70  O   UNL A   1      39.385  29.739  33.183  1.00  0.00    -0.744 OA
ENDBRANCH  64  67
ENDBRANCH  46  60
BRANCH  47  71
ATOM     71  C   UNL A   1      44.906  25.654  33.523  1.00  0.00     0.023 A 
ATOM     72  C   UNL A   1      46.274  25.607  33.868  1.00  0.00     0.012 A 
ATOM     73  C   UNL A   1      43.960  25.695  34.564  1.00  0.00     0.148 A 
ATOM     74  C   UNL A   1      46.689  25.651  35.204  1.00  0.00     0.002 A 
ATOM     75  C   UNL A   1      44.379  25.744  35.889  1.00  0.00     0.091 A 
ATOM     76  F   UNL A   1      42.662  25.775  34.247  1.00  0.00    -0.205 F 
ATOM     77  C   UNL A   1      45.740  25.737  36.216  1.00  0.00     0.022 A 
BRANCH  75  78
ATOM     78  S   UNL A   1      43.227  25.961  37.239  1.00  0.00     0.127 S 
ATOM     79  O   UNL A   1      42.208  24.955  36.949  1.00  0.00    -0.237 OA
ATOM     80  O   UNL A   1      44.068  25.658  38.396  1.00  0.00    -0.237 OA
ATOM     81  O   UNL A   1      42.764  27.339  37.147  1.00  0.00    -0.744 OA
ENDBRANCH  75  78
ENDBRANCH  47  71
BRANCH  59  82
ATOM     82  C   UNL A   1      45.552  28.766  28.275  1.00  0.00     0.023 A 
ATOM     83  C   UNL A   1      46.638  29.658  28.403  1.00  0.00     0.012 A 
ATOM     84  C   UNL A   1      45.771  27.511  27.687  1.00  0.00     0.148 A 
ATOM     85  C   UNL A   1      47.906  29.319  27.926  1.00  0.00     0.002 A 
ATOM     86  C   UNL A   1      47.045  27.157  27.259  1.00  0.00     0.091 A 
ATOM     87  F   UNL A   1      44.729  26.672  27.575  1.00  0.00    -0.205 F 
ATOM     88  C   UNL A   1      48.113  28.064  27.365  1.00  0.00     0.022 A 
BRANCH  86  89
ATOM     89  S   UNL A   1      47.410  25.513  26.642  1.00  0.00     0.127 S 
ATOM     90  O   UNL A   1      46.635  25.471  25.404  1.00  0.00    -0.237 OA
ATOM     91  O   UNL A   1      48.862  25.565  26.454  1.00  0.00    -0.237 OA
ATOM     92  O   UNL A   1      46.979  24.589  27.684  1.00  0.00    -0.744 OA
ENDBRANCH  86  89
ENDBRANCH  59  82
ENDBRANCH  33  34
ENDBRANCH  25  28
ENDBRANCH  23  24
ENDBRANCH  22  23
ENDBRANCH   1  22
TORSDOF 17
ENDMDL
MODEL 2
REMARK VINA RESULT:     -11.9      1.841      3.856
REMARK SMILES Cc1ccc(C)c(-c2csc(C(=O)NCCCCCCNC(=O)c3ccc(-c4c5nc(c(-c6cccc(S(=O)(=O)[O-])c6F)c6ccc([nH]6)c(-c6cccc(S(=O)(=O)[O-])c6F)c6nc(c(-c7cccc(S(=O)(=O)[O-])c7F)c7ccc4[nH]7)C=C6)C=C5)cc3)n2)c1
REMARK SMILES IDX 18 1 17 2 16 3 15 4 14 5 12 6 13 7 11 9 8 10 9 11 87 12
REMARK SMILES IDX 10 13 7 14 1 15 2 16 3 17 88 18 4 19 5 20 6 21 19 22 20 23
REMARK SMILES IDX 21 24 22 25 23 27 24 28 25 29 86 30 26 31 85 32 27 33 28 34
REMARK SMILES IDX 29 35 79 36 30 37 84 38 78 39 80 40 31 41 83 42 77 43 76 44
REMARK SMILES IDX 32 46 64 47 44 48 63 49 45 50 48 51 62 52 81 53 46 54 47 55
REMARK SMILES IDX 61 57 82 58 49 59 33 60 34 61 42 62 35 63 37 64 43 65 36 66
REMARK SMILES IDX 38 67 39 68 40 69 41 70 65 71 66 72 74 73 67 74 69 75 75 76
REMARK SMILES IDX 68 77 70 78 71 79 72 80 73 81 50 82 51 83 59 84 52 85 54 86
REMARK SMILES IDX 60 87 53 88 55 89 56 90 57 91 58 92
REMARK H PARENT 14 8 21 26 80 45 48 56
REMARK Flexibility Score: inf
ROOT
ATOM      1  C   UNL A   1      38.697  21.811  25.780  1.00  0.00     0.002 C 
ENDROOT
BRANCH   1   2
ATOM      2  C   UNL A   1      37.364  22.492  25.449  1.00  0.00     0.002 C 
BRANCH   2   3
ATOM      3  C   UNL A   1      36.768  22.277  24.057  1.00  0.00     0.021 C 
BRANCH   3   4
ATOM      4  C   UNL A   1      35.707  23.280  23.602  1.00  0.00     0.116 C 
BRANCH   4   5
ATOM      5  N   UNL A   1      34.846  23.732  24.683  1.00  0.00    -0.350 N 
ATOM      6  C   UNL A   1      33.737  23.112  25.235  1.00  0.00     0.280 C 
ATOM      7  O   UNL A   1      33.198  23.726  26.166  1.00  0.00    -0.267 OA
ATOM      8  H   UNL A   1      35.086  24.600  25.079  1.00  0.00     0.163 HD
BRANCH   6   9
ATOM      9  C   UNL A   1      33.279  21.814  24.738  1.00  0.00     0.182 A 
ATOM     10  C   UNL A   1      33.167  19.622  24.439  1.00  0.00     0.082 A 
ATOM     11  C   UNL A   1      32.358  20.024  23.395  1.00  0.00     0.096 A 
ATOM     12  N   UNL A   1      33.557  20.648  25.291  1.00  0.00    -0.231 NA
ATOM     13  S   UNL A   1      32.245  21.737  23.365  1.00  0.00    -0.117 S 
BRANCH  10  14
ATOM     14  C   UNL A   1      33.574  18.243  24.705  1.00  0.00     0.004 A 
ATOM     15  C   UNL A   1      31.780  15.031  25.774  1.00  0.00     0.044 C 
ATOM     16  C   UNL A   1      32.858  15.995  25.388  1.00  0.00    -0.050 A 
ATOM     17  C   UNL A   1      34.188  15.580  25.404  1.00  0.00     0.004 A 
ATOM     18  C   UNL A   1      32.561  17.321  25.041  1.00  0.00     0.014 A 
ATOM     19  C   UNL A   1      35.201  16.475  25.075  1.00  0.00     0.004 A 
ATOM     20  C   UNL A   1      34.915  17.810  24.731  1.00  0.00    -0.042 A 
ATOM     21  C   UNL A   1      36.108  18.683  24.460  1.00  0.00     0.045 C 
ENDBRANCH  10  14
ENDBRANCH   6   9
ENDBRANCH   4   5
ENDBRANCH   3   4
ENDBRANCH   2   3
ENDBRANCH   1   2
BRANCH   1  22
ATOM     22  C   UNL A   1      39.074  20.469  25.133  1.00  0.00     0.021 C 
BRANCH  22  23
ATOM     23  C   UNL A   1      39.358  19.249  26.014  1.00  0.00     0.116 C 
BRANCH  23  24
ATOM     24  N   UNL A   1      40.750  18.771  25.962  1.00  0.00    -0.352 N 
ATOM     25  C   UNL A   1      41.975  19.420  25.923  1.00  0.00     0.251 C 
ATOM     26  H   UNL A   1      40.827  17.789  25.951  1.00  0.00     0.163 HD
ATOM     27  O   UNL A   1      42.968  18.795  25.531  1.00  0.00    -0.269 OA
BRANCH  25  28
ATOM     28  C   UNL A   1      42.128  20.828  26.351  1.00  0.00     0.039 A 
ATOM     29  C   UNL A   1      42.648  21.852  25.549  1.00  0.00     0.014 A 
ATOM     30  C   UNL A   1      41.773  21.137  27.647  1.00  0.00     0.014 A 
ATOM     31  C   UNL A   1      42.840  23.120  26.117  1.00  0.00     0.010 A 
ATOM     32  C   UNL A   1      41.598  22.415  28.057  1.00  0.00     0.010 A 
ATOM     33  C   UNL A   1      42.341  23.365  27.403  1.00  0.00    -0.014 A 
BRANCH  33  34
ATOM     34  C   UNL A   1      42.508  24.590  28.165  1.00  0.00     0.031 A 
ATOM     35  C   UNL A   1      41.384  25.524  28.001  1.00  0.00     0.074 A 
ATOM     36  C   UNL A   1      43.361  24.688  29.214  1.00  0.00     0.049 A 
ATOM     37  N   UNL A   1      41.359  26.604  27.298  1.00  0.00    -0.248 NA
ATOM     38  C   UNL A   1      40.069  25.094  28.506  1.00  0.00     0.031 C 
ATOM     39  C   UNL A   1      44.229  23.639  29.778  1.00  0.00     0.029 A 
ATOM     40  N   UNL A   1      43.524  25.715  30.097  1.00  0.00    -0.354 N 
ATOM     41  C   UNL A   1      40.090  27.125  27.521  1.00  0.00     0.074 A 
ATOM     42  C   UNL A   1      39.283  26.021  27.959  1.00  0.00     0.031 C 
ATOM     43  C   UNL A   1      44.672  24.022  30.997  1.00  0.00     0.029 A 
ATOM     44  C   UNL A   1      44.239  25.384  31.247  1.00  0.00     0.049 A 
ATOM     45  H   UNL A   1      43.166  26.617  29.935  1.00  0.00     0.167 HD
ATOM     46  C   UNL A   1      39.907  28.461  27.698  1.00  0.00     0.034 A 
ATOM     47  C   UNL A   1      44.434  26.166  32.339  1.00  0.00     0.034 A 
ATOM     48  C   UNL A   1      41.103  29.196  27.341  1.00  0.00     0.049 A 
ATOM     49  C   UNL A   1      44.124  27.555  31.945  1.00  0.00     0.074 A 
ATOM     50  C   UNL A   1      41.896  29.316  26.217  1.00  0.00     0.029 A 
ATOM     51  N   UNL A   1      41.854  29.654  28.397  1.00  0.00    -0.354 N 
ATOM     52  N   UNL A   1      44.869  28.258  31.143  1.00  0.00    -0.248 NA
ATOM     53  C   UNL A   1      42.783  28.074  32.171  1.00  0.00     0.031 C 
ATOM     54  C   UNL A   1      43.225  29.500  26.705  1.00  0.00     0.029 A 
ATOM     55  C   UNL A   1      43.182  29.522  28.100  1.00  0.00     0.049 A 
ATOM     56  H   UNL A   1      41.491  30.021  29.236  1.00  0.00     0.167 HD
ATOM     57  C   UNL A   1      43.963  29.011  30.414  1.00  0.00     0.074 A 
ATOM     58  C   UNL A   1      42.739  28.997  31.207  1.00  0.00     0.031 C 
ATOM     59  C   UNL A   1      44.204  29.290  29.099  1.00  0.00     0.034 A 
BRANCH  46  60
ATOM     60  C   UNL A   1      38.850  29.092  28.592  1.00  0.00     0.023 A 
ATOM     61  C   UNL A   1      38.033  30.076  27.987  1.00  0.00     0.012 A 
ATOM     62  C   UNL A   1      38.778  28.996  30.003  1.00  0.00     0.148 A 
ATOM     63  C   UNL A   1      37.259  30.963  28.743  1.00  0.00     0.002 A 
ATOM     64  C   UNL A   1      37.947  29.829  30.746  1.00  0.00     0.091 A 
ATOM     65  F   UNL A   1      39.597  28.191  30.678  1.00  0.00    -0.205 F 
ATOM     66  C   UNL A   1      37.214  30.839  30.125  1.00  0.00     0.022 A 
BRANCH  64  67
ATOM     67  S   UNL A   1      37.823  29.675  32.535  1.00  0.00     0.127 S 
ATOM     68  O   UNL A   1      39.159  30.085  32.955  1.00  0.00    -0.237 OA
ATOM     69  O   UNL A   1      36.754  30.625  32.844  1.00  0.00    -0.237 OA
ATOM     70  O   UNL A   1      37.469  28.283  32.786  1.00  0.00    -0.744 OA
ENDBRANCH  64  67
ENDBRANCH  46  60
BRANCH  47  71
ATOM     71  C   UNL A   1      44.752  25.844  33.746  1.00  0.00     0.023 A 
ATOM     72  C   UNL A   1      46.100  25.753  34.160  1.00  0.00     0.012 A 
ATOM     73  C   UNL A   1      43.758  25.923  34.738  1.00  0.00     0.148 A 
ATOM     74  C   UNL A   1      46.448  25.791  35.515  1.00  0.00     0.002 A 
ATOM     75  C   UNL A   1      44.111  25.968  36.082  1.00  0.00     0.091 A 
ATOM     76  F   UNL A   1      42.480  26.046  34.356  1.00  0.00    -0.205 F 
ATOM     77  C   UNL A   1      45.453  25.916  36.477  1.00  0.00     0.022 A 
BRANCH  75  78
ATOM     78  S   UNL A   1      42.901  26.233  37.372  1.00  0.00     0.127 S 
ATOM     79  O   UNL A   1      43.722  26.222  38.581  1.00  0.00    -0.237 OA
ATOM     80  O   UNL A   1      42.368  27.545  37.011  1.00  0.00    -0.237 OA
ATOM     81  O   UNL A   1      41.961  25.126  37.267  1.00  0.00    -0.744 OA
ENDBRANCH  75  78
ENDBRANCH  47  71
BRANCH  59  82
ATOM     82  C   UNL A   1      45.610  29.067  28.597  1.00  0.00     0.023 A 
ATOM     83  C   UNL A   1      46.640  30.010  28.804  1.00  0.00     0.012 A 
ATOM     84  C   UNL A   1      45.930  27.830  28.016  1.00  0.00     0.148 A 
ATOM     85  C   UNL A   1      47.952  29.738  28.412  1.00  0.00     0.002 A 
ATOM     86  C   UNL A   1      47.246  27.543  27.673  1.00  0.00     0.091 A 
ATOM     87  F   UNL A   1      44.940  26.943  27.828  1.00  0.00    -0.205 F 
ATOM     88  C   UNL A   1      48.258  28.500  27.858  1.00  0.00     0.022 A 
BRANCH  86  89
ATOM     89  S   UNL A   1      47.732  25.925  27.072  1.00  0.00     0.127 S 
ATOM     90  O   UNL A   1      47.254  25.046  28.136  1.00  0.00    -0.237 OA
ATOM     91  O   UNL A   1      46.989  25.824  25.814  1.00  0.00    -0.237 OA
ATOM     92  O   UNL A   1      49.179  25.977  26.904  1.00  0.00    -0.744 OA
ENDBRANCH  86  89
ENDBRANCH  59  82
ENDBRANCH  33  34
ENDBRANCH  25  28
ENDBRANCH  23  24
ENDBRANCH  22  23
ENDBRANCH   1  22
TORSDOF 17
ENDMDL
MODEL 3
REMARK VINA RESULT:     -11.9      3.204      8.054
REMARK SMILES Cc1ccc(C)c(-c2csc(C(=O)NCCCCCCNC(=O)c3ccc(-c4c5nc(c(-c6cccc(S(=O)(=O)[O-])c6F)c6ccc([nH]6)c(-c6cccc(S(=O)(=O)[O-])c6F)c6nc(c(-c7cccc(S(=O)(=O)[O-])c7F)c7ccc4[nH]7)C=C6)C=C5)cc3)n2)c1
REMARK SMILES IDX 18 1 17 2 16 3 15 4 14 5 12 6 13 7 11 9 8 10 9 11 87 12
REMARK SMILES IDX 10 13 7 14 1 15 2 16 3 17 88 18 4 19 5 20 6 21 19 22 20 23
REMARK SMILES IDX 21 24 22 25 23 27 24 28 25 29 86 30 26 31 85 32 27 33 28 34
REMARK SMILES IDX 29 35 79 36 30 37 84 38 78 39 80 40 31 41 83 42 77 43 76 44
REMARK SMILES IDX 32 46 64 47 44 48 63 49 45 50 48 51 62 52 81 53 46 54 47 55
REMARK SMILES IDX 61 57 82 58 49 59 33 60 34 61 42 62 35 63 37 64 43 65 36 66
REMARK SMILES IDX 38 67 39 68 40 69 41 70 65 71 66 72 74 73 67 74 69 75 75 76
REMARK SMILES IDX 68 77 70 78 71 79 72 80 73 81 50 82 51 83 59 84 52 85 54 86
REMARK SMILES IDX 60 87 53 88 55 89 56 90 57 91 58 92
REMARK H PARENT 14 8 21 26 80 45 48 56
REMARK Flexibility Score: inf
ROOT
ATOM      1  C   UNL A   1      31.963  29.249  26.923  1.00  0.00     0.002 C 
ENDROOT
BRANCH   1   2
ATOM      2  C   UNL A   1      32.926  28.078  27.153  1.00  0.00     0.002 C 
BRANCH   2   3
ATOM      3  C   UNL A   1      33.603  27.449  25.934  1.00  0.00     0.021 C 
BRANCH   3   4
ATOM      4  C   UNL A   1      32.982  26.160  25.394  1.00  0.00     0.116 C 
BRANCH   4   5
ATOM      5  N   UNL A   1      32.170  25.461  26.377  1.00  0.00    -0.350 N 
ATOM      6  C   UNL A   1      32.110  24.106  26.658  1.00  0.00     0.280 C 
ATOM      7  O   UNL A   1      31.330  23.790  27.566  1.00  0.00    -0.267 OA
ATOM      8  H   UNL A   1      31.579  26.032  26.920  1.00  0.00     0.163 HD
BRANCH   6   9
ATOM      9  C   UNL A   1      32.940  23.151  25.923  1.00  0.00     0.182 A 
ATOM     10  C   UNL A   1      33.530  21.321  24.822  1.00  0.00     0.082 A 
ATOM     11  C   UNL A   1      34.786  21.838  25.071  1.00  0.00     0.096 A 
ATOM     12  N   UNL A   1      32.482  22.163  25.177  1.00  0.00    -0.231 NA
ATOM     13  S   UNL A   1      34.654  23.312  25.941  1.00  0.00    -0.117 S 
BRANCH  10  14
ATOM     14  C   UNL A   1      33.261  20.027  24.198  1.00  0.00     0.004 A 
ATOM     15  C   UNL A   1      34.407  16.421  24.799  1.00  0.00     0.044 C 
ATOM     16  C   UNL A   1      33.734  17.617  24.202  1.00  0.00    -0.050 A 
ATOM     17  C   UNL A   1      32.983  17.471  23.036  1.00  0.00     0.004 A 
ATOM     18  C   UNL A   1      33.868  18.891  24.772  1.00  0.00     0.014 A 
ATOM     19  C   UNL A   1      32.377  18.581  22.456  1.00  0.00     0.004 A 
ATOM     20  C   UNL A   1      32.510  19.865  23.016  1.00  0.00    -0.042 A 
ATOM     21  C   UNL A   1      31.855  20.981  22.251  1.00  0.00     0.045 C 
ENDBRANCH  10  14
ENDBRANCH   6   9
ENDBRANCH   4   5
ENDBRANCH   3   4
ENDBRANCH   2   3
ENDBRANCH   1   2
BRANCH   1  22
ATOM     22  C   UNL A   1      32.434  30.700  27.102  1.00  0.00     0.021 C 
BRANCH  22  23
ATOM     23  C   UNL A   1      33.906  30.993  27.411  1.00  0.00     0.116 C 
BRANCH  23  24
ATOM     24  N   UNL A   1      34.122  31.831  28.602  1.00  0.00    -0.352 N 
ATOM     25  C   UNL A   1      35.019  31.765  29.658  1.00  0.00     0.251 C 
ATOM     26  H   UNL A   1      33.503  32.595  28.662  1.00  0.00     0.163 HD
ATOM     27  O   UNL A   1      34.761  32.383  30.698  1.00  0.00    -0.269 OA
BRANCH  25  28
ATOM     28  C   UNL A   1      36.277  30.991  29.568  1.00  0.00     0.039 A 
ATOM     29  C   UNL A   1      36.358  29.594  29.639  1.00  0.00     0.014 A 
ATOM     30  C   UNL A   1      37.451  31.703  29.452  1.00  0.00     0.014 A 
ATOM     31  C   UNL A   1      37.625  28.994  29.652  1.00  0.00     0.010 A 
ATOM     32  C   UNL A   1      38.612  31.115  29.079  1.00  0.00     0.010 A 
ATOM     33  C   UNL A   1      38.752  29.791  29.412  1.00  0.00    -0.014 A 
BRANCH  33  34
ATOM     34  C   UNL A   1      40.135  29.352  29.454  1.00  0.00     0.031 A 
ATOM     35  C   UNL A   1      40.648  29.207  30.824  1.00  0.00     0.074 A 
ATOM     36  C   UNL A   1      40.742  28.746  28.404  1.00  0.00     0.049 A 
ATOM     37  N   UNL A   1      41.448  30.003  31.449  1.00  0.00    -0.248 NA
ATOM     38  C   UNL A   1      40.033  28.172  31.671  1.00  0.00     0.031 C 
ATOM     39  C   UNL A   1      40.162  28.410  27.091  1.00  0.00     0.029 A 
ATOM     40  N   UNL A   1      41.975  28.166  28.341  1.00  0.00    -0.354 N 
ATOM     41  C   UNL A   1      41.646  29.387  32.679  1.00  0.00     0.074 A 
ATOM     42  C   UNL A   1      40.527  28.506  32.863  1.00  0.00     0.031 C 
ATOM     43  C   UNL A   1      40.968  27.534  26.449  1.00  0.00     0.029 A 
ATOM     44  C   UNL A   1      42.176  27.347  27.231  1.00  0.00     0.049 A 
ATOM     45  H   UNL A   1      42.667  28.312  29.026  1.00  0.00     0.167 HD
ATOM     46  C   UNL A   1      42.879  29.360  33.254  1.00  0.00     0.034 A 
ATOM     47  C   UNL A   1      43.248  26.552  26.988  1.00  0.00     0.034 A 
ATOM     48  C   UNL A   1      43.784  30.263  32.572  1.00  0.00     0.049 A 
ATOM     49  C   UNL A   1      44.339  27.002  27.874  1.00  0.00     0.074 A 
ATOM     50  C   UNL A   1      43.804  31.611  32.273  1.00  0.00     0.029 A 
ATOM     51  N   UNL A   1      44.698  29.666  31.737  1.00  0.00    -0.354 N 
ATOM     52  N   UNL A   1      44.971  28.129  27.719  1.00  0.00    -0.248 NA
ATOM     53  C   UNL A   1      44.517  26.356  29.165  1.00  0.00     0.031 C 
ATOM     54  C   UNL A   1      44.466  31.712  31.013  1.00  0.00     0.029 A 
ATOM     55  C   UNL A   1      44.854  30.432  30.616  1.00  0.00     0.049 A 
ATOM     56  H   UNL A   1      45.167  28.819  31.919  1.00  0.00     0.167 HD
ATOM     57  C   UNL A   1      45.223  28.555  29.013  1.00  0.00     0.074 A 
ATOM     58  C   UNL A   1      45.095  27.357  29.835  1.00  0.00     0.031 C 
ATOM     59  C   UNL A   1      45.188  29.886  29.317  1.00  0.00     0.034 A 
BRANCH  46  60
ATOM     60  C   UNL A   1      43.419  28.235  34.123  1.00  0.00     0.023 A 
ATOM     61  C   UNL A   1      43.930  28.616  35.386  1.00  0.00     0.012 A 
ATOM     62  C   UNL A   1      43.704  26.913  33.703  1.00  0.00     0.148 A 
ATOM     63  C   UNL A   1      44.745  27.767  36.142  1.00  0.00     0.002 A 
ATOM     64  C   UNL A   1      44.450  26.044  34.494  1.00  0.00     0.091 A 
ATOM     65  F   UNL A   1      43.378  26.497  32.480  1.00  0.00    -0.205 F 
ATOM     66  C   UNL A   1      45.005  26.478  35.697  1.00  0.00     0.022 A 
BRANCH  64  67
ATOM     67  S   UNL A   1      44.774  24.351  33.978  1.00  0.00     0.127 S 
ATOM     68  O   UNL A   1      43.433  23.775  34.011  1.00  0.00    -0.237 OA
ATOM     69  O   UNL A   1      45.334  24.547  32.640  1.00  0.00    -0.237 OA
ATOM     70  O   UNL A   1      45.726  23.820  34.947  1.00  0.00    -0.744 OA
ENDBRANCH  64  67
ENDBRANCH  46  60
BRANCH  47  71
ATOM     71  C   UNL A   1      43.420  25.348  26.147  1.00  0.00     0.023 A 
ATOM     72  C   UNL A   1      44.543  25.236  25.298  1.00  0.00     0.012 A 
ATOM     73  C   UNL A   1      42.658  24.192  26.395  1.00  0.00     0.148 A 
ATOM     74  C   UNL A   1      44.924  24.003  24.756  1.00  0.00     0.002 A 
ATOM     75  C   UNL A   1      43.046  22.969  25.858  1.00  0.00     0.091 A 
ATOM     76  F   UNL A   1      41.612  24.280  27.226  1.00  0.00    -0.205 F 
ATOM     77  C   UNL A   1      44.185  22.864  25.050  1.00  0.00     0.022 A 
BRANCH  75  78
ATOM     78  S   UNL A   1      42.210  21.444  26.274  1.00  0.00     0.127 S 
ATOM     79  O   UNL A   1      40.835  21.715  25.862  1.00  0.00    -0.237 OA
ATOM     80  O   UNL A   1      42.918  20.480  25.432  1.00  0.00    -0.237 OA
ATOM     81  O   UNL A   1      42.391  21.271  27.708  1.00  0.00    -0.744 OA
ENDBRANCH  75  78
ENDBRANCH  47  71
BRANCH  59  82
ATOM     82  C   UNL A   1      45.227  30.854  28.159  1.00  0.00     0.023 A 
ATOM     83  C   UNL A   1      44.062  31.238  27.461  1.00  0.00     0.012 A 
ATOM     84  C   UNL A   1      46.441  31.485  27.849  1.00  0.00     0.148 A 
ATOM     85  C   UNL A   1      44.112  32.206  26.456  1.00  0.00     0.002 A 
ATOM     86  C   UNL A   1      46.479  32.484  26.883  1.00  0.00     0.091 A 
ATOM     87  F   UNL A   1      47.541  31.112  28.523  1.00  0.00    -0.205 F 
ATOM     88  C   UNL A   1      45.318  32.838  26.175  1.00  0.00     0.022 A 
BRANCH  86  89
ATOM     89  S   UNL A   1      47.970  33.426  26.558  1.00  0.00     0.127 S 
ATOM     90  O   UNL A   1      47.592  34.201  25.379  1.00  0.00    -0.237 OA
ATOM     91  O   UNL A   1      48.118  34.210  27.786  1.00  0.00    -0.237 OA
ATOM     92  O   UNL A   1      49.028  32.443  26.350  1.00  0.00    -0.744 OA
ENDBRANCH  86  89
ENDBRANCH  59  82
ENDBRANCH  33  34
ENDBRANCH  25  28
ENDBRANCH  23  24
ENDBRANCH  22  23
ENDBRANCH   1  22
TORSDOF 17
ENDMDL
