MODEL 1
REMARK VINA RESULT:     -11.6      0.000      0.000
REMARK SMILES Cc1ccc(C)c(NC(=O)/C=C/C(=O)NCCCCCCNC(=O)c2ccc(-c3c4nc(c(-c5cccc(S(=O)(=O)[O-])c5F)c5ccc([nH]5)c(-c5cccc(S(=O)(=O)[O-])c5F)c5nc(c(-c6cccc(S(=O)(=O)[O-])c6F)c6ccc3[nH]6)C=C5)C=C4)cc2)c1
REMARK SMILES IDX 19 1 18 2 17 3 16 4 15 5 13 6 14 7 12 9 11 10 9 11 8 12
REMARK SMILES IDX 10 14 7 15 1 16 2 17 3 18 88 19 4 20 5 21 6 22 20 23 21 24
REMARK SMILES IDX 22 25 23 26 24 28 25 29 26 30 87 31 27 32 86 33 28 34 29 35
REMARK SMILES IDX 30 36 80 37 31 38 85 39 79 40 81 41 32 42 84 43 78 44 77 45
REMARK SMILES IDX 33 47 65 48 45 49 64 50 46 51 49 52 63 53 82 54 47 55 48 56
REMARK SMILES IDX 62 58 83 59 50 60 34 61 35 62 43 63 36 64 38 65 44 66 37 67
REMARK SMILES IDX 39 68 40 69 41 70 42 71 66 72 67 73 75 74 68 75 70 76 76 77
REMARK SMILES IDX 69 78 71 79 72 80 73 81 74 82 51 83 52 84 60 85 53 86 55 87
REMARK SMILES IDX 61 88 54 89 56 90 57 91 58 92 59 93
REMARK H PARENT 15 8 8 13 22 27 81 46 49 57
REMARK Flexibility Score: inf
ROOT
ATOM      1  C   UNL A   1      31.981  28.381  27.593  1.00  0.00     0.002 C 
ENDROOT
BRANCH   1   2
ATOM      2  C   UNL A   1      31.491  27.079  26.949  1.00  0.00     0.002 C 
BRANCH   2   3
ATOM      3  C   UNL A   1      30.723  27.161  25.626  1.00  0.00     0.021 C 
BRANCH   3   4
ATOM      4  C   UNL A   1      30.116  25.858  25.115  1.00  0.00     0.116 C 
BRANCH   4   5
ATOM      5  N   UNL A   1      29.794  24.925  26.176  1.00  0.00    -0.353 N 
ATOM      6  C   UNL A   1      30.296  23.682  26.404  1.00  0.00     0.244 C 
ATOM      7  O   UNL A   1      30.215  23.203  27.536  1.00  0.00    -0.270 OA
ATOM      8  H   UNL A   1      29.118  25.233  26.822  1.00  0.00     0.163 HD
BRANCH   6   9
ATOM      9  C   UNL A   1      30.945  22.893  25.337  1.00  0.00     0.077 C 
ATOM     10  C   UNL A   1      31.685  21.809  25.600  1.00  0.00     0.077 C 
BRANCH  10  11
ATOM     11  C   UNL A   1      32.559  21.242  24.569  1.00  0.00     0.248 C 
ATOM     12  N   UNL A   1      33.593  21.976  24.063  1.00  0.00    -0.322 N 
ATOM     13  H   UNL A   1      34.232  21.442  23.539  1.00  0.00     0.170 HD
ATOM     14  O   UNL A   1      32.282  20.140  24.092  1.00  0.00    -0.270 OA
BRANCH  12  15
ATOM     15  C   UNL A   1      33.935  23.345  24.139  1.00  0.00     0.044 A 
ATOM     16  C   UNL A   1      33.168  26.314  21.851  1.00  0.00     0.044 C 
ATOM     17  C   UNL A   1      33.539  25.514  23.061  1.00  0.00    -0.049 A 
ATOM     18  C   UNL A   1      33.949  26.160  24.225  1.00  0.00     0.004 A 
ATOM     19  C   UNL A   1      33.492  24.113  23.046  1.00  0.00     0.029 A 
ATOM     20  C   UNL A   1      34.491  25.416  25.267  1.00  0.00     0.006 A 
ATOM     21  C   UNL A   1      34.599  24.015  25.175  1.00  0.00    -0.027 A 
ATOM     22  C   UNL A   1      35.637  23.387  26.066  1.00  0.00     0.046 C 
ENDBRANCH  12  15
ENDBRANCH  10  11
ENDBRANCH   6   9
ENDBRANCH   4   5
ENDBRANCH   3   4
ENDBRANCH   2   3
ENDBRANCH   1   2
BRANCH   1  23
ATOM     23  C   UNL A   1      32.078  29.689  26.790  1.00  0.00     0.021 C 
BRANCH  23  24
ATOM     24  C   UNL A   1      33.414  30.418  26.647  1.00  0.00     0.116 C 
BRANCH  24  25
ATOM     25  N   UNL A   1      33.607  31.503  27.611  1.00  0.00    -0.352 N 
ATOM     26  C   UNL A   1      34.529  31.739  28.620  1.00  0.00     0.251 C 
ATOM     27  H   UNL A   1      32.937  32.220  27.525  1.00  0.00     0.163 HD
ATOM     28  O   UNL A   1      34.263  32.570  29.474  1.00  0.00    -0.269 OA
BRANCH  26  29
ATOM     29  C   UNL A   1      35.826  31.023  28.670  1.00  0.00     0.039 A 
ATOM     30  C   UNL A   1      35.927  29.629  28.587  1.00  0.00     0.014 A 
ATOM     31  C   UNL A   1      36.980  31.750  28.888  1.00  0.00     0.014 A 
ATOM     32  C   UNL A   1      37.174  29.033  28.805  1.00  0.00     0.010 A 
ATOM     33  C   UNL A   1      38.217  31.213  28.769  1.00  0.00     0.010 A 
ATOM     34  C   UNL A   1      38.302  29.855  28.942  1.00  0.00    -0.014 A 
BRANCH  34  35
ATOM     35  C   UNL A   1      39.625  29.382  29.287  1.00  0.00     0.031 A 
ATOM     36  C   UNL A   1      39.946  29.522  30.712  1.00  0.00     0.074 A 
ATOM     37  C   UNL A   1      40.369  28.593  28.477  1.00  0.00     0.049 A 
ATOM     38  N   UNL A   1      40.733  30.393  31.240  1.00  0.00    -0.248 NA
ATOM     39  C   UNL A   1      39.189  28.706  31.670  1.00  0.00     0.031 C 
ATOM     40  C   UNL A   1      39.997  27.997  27.181  1.00  0.00     0.029 A 
ATOM     41  N   UNL A   1      41.581  28.031  28.728  1.00  0.00    -0.354 N 
ATOM     42  C   UNL A   1      40.769  30.055  32.583  1.00  0.00     0.074 A 
ATOM     43  C   UNL A   1      39.638  29.196  32.827  1.00  0.00     0.031 C 
ATOM     44  C   UNL A   1      40.857  26.997  26.886  1.00  0.00     0.029 A 
ATOM     45  C   UNL A   1      41.920  26.990  27.872  1.00  0.00     0.049 A 
ATOM     46  H   UNL A   1      42.170  28.337  29.455  1.00  0.00     0.167 HD
ATOM     47  C   UNL A   1      41.890  30.253  33.324  1.00  0.00     0.034 A 
ATOM     48  C   UNL A   1      42.980  26.158  28.003  1.00  0.00     0.034 A 
ATOM     49  C   UNL A   1      42.872  31.048  32.632  1.00  0.00     0.049 A 
ATOM     50  C   UNL A   1      43.955  26.831  28.890  1.00  0.00     0.074 A 
ATOM     51  C   UNL A   1      42.877  32.294  32.037  1.00  0.00     0.029 A 
ATOM     52  N   UNL A   1      43.952  30.375  32.114  1.00  0.00    -0.354 N 
ATOM     53  N   UNL A   1      44.597  27.921  28.570  1.00  0.00    -0.248 NA
ATOM     54  C   UNL A   1      43.941  26.512  30.308  1.00  0.00     0.031 C 
ATOM     55  C   UNL A   1      43.686  32.146  30.871  1.00  0.00     0.029 A 
ATOM     56  C   UNL A   1      44.164  30.834  30.839  1.00  0.00     0.049 A 
ATOM     57  H   UNL A   1      44.479  29.683  32.575  1.00  0.00     0.167 HD
ATOM     58  C   UNL A   1      44.665  28.645  29.754  1.00  0.00     0.074 A 
ATOM     59  C   UNL A   1      44.381  27.672  30.804  1.00  0.00     0.031 C 
ATOM     60  C   UNL A   1      44.649  30.012  29.746  1.00  0.00     0.034 A 
BRANCH  47  61
ATOM     61  C   UNL A   1      42.240  29.424  34.522  1.00  0.00     0.023 A 
ATOM     62  C   UNL A   1      42.655  30.095  35.686  1.00  0.00     0.012 A 
ATOM     63  C   UNL A   1      42.380  28.019  34.493  1.00  0.00     0.148 A 
ATOM     64  C   UNL A   1      43.175  29.395  36.778  1.00  0.00     0.002 A 
ATOM     65  C   UNL A   1      42.795  27.321  35.617  1.00  0.00     0.091 A 
ATOM     66  F   UNL A   1      42.246  27.355  33.337  1.00  0.00    -0.205 F 
ATOM     67  C   UNL A   1      43.220  28.005  36.756  1.00  0.00     0.022 A 
BRANCH  65  68
ATOM     68  S   UNL A   1      42.753  25.527  35.644  1.00  0.00     0.127 S 
ATOM     69  O   UNL A   1      43.089  25.245  37.035  1.00  0.00    -0.237 OA
ATOM     70  O   UNL A   1      41.366  25.247  35.269  1.00  0.00    -0.237 OA
ATOM     71  O   UNL A   1      43.729  25.121  34.639  1.00  0.00    -0.744 OA
ENDBRANCH  65  68
ENDBRANCH  47  61
BRANCH  48  72
ATOM     72  C   UNL A   1      43.145  24.750  27.575  1.00  0.00     0.023 A 
ATOM     73  C   UNL A   1      42.292  23.755  28.093  1.00  0.00     0.012 A 
ATOM     74  C   UNL A   1      43.955  24.422  26.466  1.00  0.00     0.148 A 
ATOM     75  C   UNL A   1      42.219  22.489  27.500  1.00  0.00     0.002 A 
ATOM     76  C   UNL A   1      43.890  23.156  25.889  1.00  0.00     0.091 A 
ATOM     77  F   UNL A   1      44.719  25.377  25.916  1.00  0.00    -0.205 F 
ATOM     78  C   UNL A   1      43.012  22.190  26.394  1.00  0.00     0.022 A 
BRANCH  76  79
ATOM     79  S   UNL A   1      44.896  22.720  24.464  1.00  0.00     0.127 S 
ATOM     80  O   UNL A   1      45.718  23.917  24.285  1.00  0.00    -0.237 OA
ATOM     81  O   UNL A   1      45.619  21.548  24.952  1.00  0.00    -0.237 OA
ATOM     82  O   UNL A   1      43.948  22.489  23.379  1.00  0.00    -0.744 OA
ENDBRANCH  76  79
ENDBRANCH  48  72
BRANCH  60  83
ATOM     83  C   UNL A   1      44.871  30.716  28.426  1.00  0.00     0.023 A 
ATOM     84  C   UNL A   1      43.833  30.893  27.485  1.00  0.00     0.012 A 
ATOM     85  C   UNL A   1      46.103  31.352  28.195  1.00  0.00     0.148 A 
ATOM     86  C   UNL A   1      44.029  31.656  26.331  1.00  0.00     0.002 A 
ATOM     87  C   UNL A   1      46.279  32.151  27.070  1.00  0.00     0.091 A 
ATOM     88  F   UNL A   1      47.083  31.185  29.098  1.00  0.00    -0.205 F 
ATOM     89  C   UNL A   1      45.248  32.296  26.129  1.00  0.00     0.022 A 
BRANCH  87  90
ATOM     90  S   UNL A   1      47.780  33.103  26.817  1.00  0.00     0.127 S 
ATOM     91  O   UNL A   1      47.968  33.732  28.122  1.00  0.00    -0.237 OA
ATOM     92  O   UNL A   1      48.761  32.067  26.490  1.00  0.00    -0.237 OA
ATOM     93  O   UNL A   1      47.492  34.014  25.715  1.00  0.00    -0.744 OA
ENDBRANCH  87  90
ENDBRANCH  60  83
ENDBRANCH  34  35
ENDBRANCH  26  29
ENDBRANCH  24  25
ENDBRANCH  23  24
ENDBRANCH   1  23
TORSDOF 18
ENDMDL
MODEL 2
REMARK VINA RESULT:     -11.6      1.820      2.620
REMARK SMILES Cc1ccc(C)c(NC(=O)/C=C/C(=O)NCCCCCCNC(=O)c2ccc(-c3c4nc(c(-c5cccc(S(=O)(=O)[O-])c5F)c5ccc([nH]5)c(-c5cccc(S(=O)(=O)[O-])c5F)c5nc(c(-c6cccc(S(=O)(=O)[O-])c6F)c6ccc3[nH]6)C=C5)C=C4)cc2)c1
REMARK SMILES IDX 19 1 18 2 17 3 16 4 15 5 13 6 14 7 12 9 11 10 9 11 8 12
REMARK SMILES IDX 10 14 7 15 1 16 2 17 3 18 88 19 4 20 5 21 6 22 20 23 21 24
REMARK SMILES IDX 22 25 23 26 24 28 25 29 26 30 87 31 27 32 86 33 28 34 29 35
REMARK SMILES IDX 30 36 80 37 31 38 85 39 79 40 81 41 32 42 84 43 78 44 77 45
REMARK SMILES IDX 33 47 65 48 45 49 64 50 46 51 49 52 63 53 82 54 47 55 48 56
REMARK SMILES IDX 62 58 83 59 50 60 34 61 35 62 43 63 36 64 38 65 44 66 37 67
REMARK SMILES IDX 39 68 40 69 41 70 42 71 66 72 67 73 75 74 68 75 70 76 76 77
REMARK SMILES IDX 69 78 71 79 72 80 73 81 74 82 51 83 52 84 60 85 53 86 55 87
REMARK SMILES IDX 61 88 54 89 56 90 57 91 58 92 59 93
REMARK H PARENT 15 8 8 13 22 27 81 46 49 57
REMARK Flexibility Score: inf
ROOT
ATOM      1  C   UNL A   1      31.734  28.064  26.358  1.00  0.00     0.002 C 
ENDROOT
BRANCH   1   2
ATOM      2  C   UNL A   1      31.573  28.706  24.976  1.00  0.00     0.002 C 
BRANCH   2   3
ATOM      3  C   UNL A   1      31.834  27.848  23.735  1.00  0.00     0.021 C 
BRANCH   3   4
ATOM      4  C   UNL A   1      33.294  27.526  23.429  1.00  0.00     0.116 C 
BRANCH   4   5
ATOM      5  N   UNL A   1      33.491  26.990  22.097  1.00  0.00    -0.353 N 
ATOM      6  C   UNL A   1      33.140  25.773  21.603  1.00  0.00     0.244 C 
ATOM      7  O   UNL A   1      33.023  25.633  20.385  1.00  0.00    -0.270 OA
ATOM      8  H   UNL A   1      33.944  27.590  21.460  1.00  0.00     0.163 HD
BRANCH   6   9
ATOM      9  C   UNL A   1      32.885  24.616  22.485  1.00  0.00     0.077 C 
ATOM     10  C   UNL A   1      33.223  23.367  22.141  1.00  0.00     0.077 C 
BRANCH  10  11
ATOM     11  C   UNL A   1      32.683  22.224  22.881  1.00  0.00     0.248 C 
ATOM     12  N   UNL A   1      33.243  21.846  24.068  1.00  0.00    -0.322 N 
ATOM     13  H   UNL A   1      32.689  21.211  24.577  1.00  0.00     0.170 HD
ATOM     14  O   UNL A   1      31.790  21.547  22.367  1.00  0.00    -0.270 OA
BRANCH  12  15
ATOM     15  C   UNL A   1      34.453  22.180  24.717  1.00  0.00     0.044 A 
ATOM     16  C   UNL A   1      37.787  20.332  25.042  1.00  0.00     0.044 C 
ATOM     17  C   UNL A   1      36.770  21.430  25.023  1.00  0.00    -0.049 A 
ATOM     18  C   UNL A   1      37.131  22.722  25.398  1.00  0.00     0.004 A 
ATOM     19  C   UNL A   1      35.444  21.183  24.641  1.00  0.00     0.029 A 
ATOM     20  C   UNL A   1      36.144  23.684  25.583  1.00  0.00     0.006 A 
ATOM     21  C   UNL A   1      34.787  23.378  25.360  1.00  0.00    -0.027 A 
ATOM     22  C   UNL A   1      33.801  24.267  26.070  1.00  0.00     0.046 C 
ENDBRANCH  12  15
ENDBRANCH  10  11
ENDBRANCH   6   9
ENDBRANCH   4   5
ENDBRANCH   3   4
ENDBRANCH   2   3
ENDBRANCH   1   2
BRANCH   1  23
ATOM     23  C   UNL A   1      33.002  28.278  27.202  1.00  0.00     0.021 C 
BRANCH  23  24
ATOM     24  C   UNL A   1      34.193  29.051  26.636  1.00  0.00     0.116 C 
BRANCH  24  25
ATOM     25  N   UNL A   1      34.169  30.484  26.935  1.00  0.00    -0.352 N 
ATOM     26  C   UNL A   1      34.932  31.309  27.748  1.00  0.00     0.251 C 
ATOM     27  H   UNL A   1      33.458  30.968  26.455  1.00  0.00     0.163 HD
ATOM     28  O   UNL A   1      34.491  32.407  28.049  1.00  0.00    -0.269 OA
BRANCH  26  29
ATOM     29  C   UNL A   1      36.269  30.894  28.240  1.00  0.00     0.039 A 
ATOM     30  C   UNL A   1      37.150  31.776  28.877  1.00  0.00     0.014 A 
ATOM     31  C   UNL A   1      36.699  29.606  27.989  1.00  0.00     0.014 A 
ATOM     32  C   UNL A   1      38.448  31.338  29.160  1.00  0.00     0.010 A 
ATOM     33  C   UNL A   1      37.816  29.086  28.551  1.00  0.00     0.010 A 
ATOM     34  C   UNL A   1      38.770  29.991  28.941  1.00  0.00    -0.014 A 
BRANCH  34  35
ATOM     35  C   UNL A   1      40.098  29.433  29.078  1.00  0.00     0.031 A 
ATOM     36  C   UNL A   1      40.508  29.222  30.470  1.00  0.00     0.074 A 
ATOM     37  C   UNL A   1      40.770  28.854  28.056  1.00  0.00     0.049 A 
ATOM     38  N   UNL A   1      41.348  29.931  31.140  1.00  0.00    -0.248 NA
ATOM     39  C   UNL A   1      39.788  28.209  31.252  1.00  0.00     0.031 C 
ATOM     40  C   UNL A   1      40.306  28.591  26.682  1.00  0.00     0.029 A 
ATOM     41  N   UNL A   1      41.980  28.233  28.086  1.00  0.00    -0.354 N 
ATOM     42  C   UNL A   1      41.456  29.280  32.357  1.00  0.00     0.074 A 
ATOM     43  C   UNL A   1      40.318  28.401  32.461  1.00  0.00     0.031 C 
ATOM     44  C   UNL A   1      41.119  27.681  26.100  1.00  0.00     0.029 A 
ATOM     45  C   UNL A   1      42.238  27.424  26.986  1.00  0.00     0.049 A 
ATOM     46  H   UNL A   1      42.619  28.348  28.826  1.00  0.00     0.167 HD
ATOM     47  C   UNL A   1      42.624  29.280  33.050  1.00  0.00     0.034 A 
ATOM     48  C   UNL A   1      43.281  26.572  26.845  1.00  0.00     0.034 A 
ATOM     49  C   UNL A   1      43.584  30.206  32.507  1.00  0.00     0.049 A 
ATOM     50  C   UNL A   1      44.326  27.000  27.803  1.00  0.00     0.074 A 
ATOM     51  C   UNL A   1      43.587  31.559  32.228  1.00  0.00     0.029 A 
ATOM     52  N   UNL A   1      44.612  29.664  31.774  1.00  0.00    -0.354 N 
ATOM     53  N   UNL A   1      44.977  28.128  27.712  1.00  0.00    -0.248 NA
ATOM     54  C   UNL A   1      44.388  26.350  29.101  1.00  0.00     0.031 C 
ATOM     55  C   UNL A   1      44.321  31.686  31.012  1.00  0.00     0.029 A 
ATOM     56  C   UNL A   1      44.760  30.414  30.636  1.00  0.00     0.049 A 
ATOM     57  H   UNL A   1      45.147  28.876  32.021  1.00  0.00     0.167 HD
ATOM     58  C   UNL A   1      45.135  28.545  29.027  1.00  0.00     0.074 A 
ATOM     59  C   UNL A   1      44.888  27.351  29.830  1.00  0.00     0.031 C 
ATOM     60  C   UNL A   1      45.156  29.873  29.349  1.00  0.00     0.034 A 
BRANCH  47  61
ATOM     61  C   UNL A   1      43.022  28.183  33.990  1.00  0.00     0.023 A 
ATOM     62  C   UNL A   1      43.226  28.518  35.340  1.00  0.00     0.012 A 
ATOM     63  C   UNL A   1      43.407  26.890  33.573  1.00  0.00     0.148 A 
ATOM     64  C   UNL A   1      43.777  27.599  36.238  1.00  0.00     0.002 A 
ATOM     65  C   UNL A   1      43.852  25.948  34.488  1.00  0.00     0.091 A 
ATOM     66  F   UNL A   1      43.477  26.600  32.266  1.00  0.00    -0.205 F 
ATOM     67  C   UNL A   1      44.064  26.304  35.819  1.00  0.00     0.022 A 
BRANCH  65  68
ATOM     68  S   UNL A   1      44.120  24.245  33.987  1.00  0.00     0.127 S 
ATOM     69  O   UNL A   1      45.310  23.897  34.755  1.00  0.00    -0.237 OA
ATOM     70  O   UNL A   1      42.883  23.598  34.427  1.00  0.00    -0.237 OA
ATOM     71  O   UNL A   1      44.271  24.308  32.538  1.00  0.00    -0.744 OA
ENDBRANCH  65  68
ENDBRANCH  47  61
BRANCH  48  72
ATOM     72  C   UNL A   1      43.383  25.307  26.082  1.00  0.00     0.023 A 
ATOM     73  C   UNL A   1      44.409  25.143  25.130  1.00  0.00     0.012 A 
ATOM     74  C   UNL A   1      42.647  24.167  26.473  1.00  0.00     0.148 A 
ATOM     75  C   UNL A   1      44.718  23.878  24.614  1.00  0.00     0.002 A 
ATOM     76  C   UNL A   1      42.949  22.913  25.946  1.00  0.00     0.091 A 
ATOM     77  F   UNL A   1      41.717  24.292  27.429  1.00  0.00    -0.205 F 
ATOM     78  C   UNL A   1      43.994  22.762  25.027  1.00  0.00     0.022 A 
BRANCH  76  79
ATOM     79  S   UNL A   1      42.040  21.443  26.441  1.00  0.00     0.127 S 
ATOM     80  O   UNL A   1      40.657  21.815  26.140  1.00  0.00    -0.237 OA
ATOM     81  O   UNL A   1      42.607  20.427  25.559  1.00  0.00    -0.237 OA
ATOM     82  O   UNL A   1      42.310  21.286  27.867  1.00  0.00    -0.744 OA
ENDBRANCH  76  79
ENDBRANCH  48  72
BRANCH  60  83
ATOM     83  C   UNL A   1      45.317  30.872  28.224  1.00  0.00     0.023 A 
ATOM     84  C   UNL A   1      44.213  31.388  27.513  1.00  0.00     0.012 A 
ATOM     85  C   UNL A   1      46.589  31.422  27.983  1.00  0.00     0.148 A 
ATOM     86  C   UNL A   1      44.375  32.402  26.565  1.00  0.00     0.002 A 
ATOM     87  C   UNL A   1      46.739  32.465  27.074  1.00  0.00     0.091 A 
ATOM     88  F   UNL A   1      47.634  30.931  28.667  1.00  0.00    -0.205 F 
ATOM     89  C   UNL A   1      45.637  32.950  26.355  1.00  0.00     0.022 A 
BRANCH  87  90
ATOM     90  S   UNL A   1      48.314  33.299  26.851  1.00  0.00     0.127 S 
ATOM     91  O   UNL A   1      48.600  33.781  28.201  1.00  0.00    -0.237 OA
ATOM     92  O   UNL A   1      49.184  32.215  26.392  1.00  0.00    -0.237 OA
ATOM     93  O   UNL A   1      48.078  34.333  25.851  1.00  0.00    -0.744 OA
ENDBRANCH  87  90
ENDBRANCH  60  83
ENDBRANCH  34  35
ENDBRANCH  26  29
ENDBRANCH  24  25
ENDBRANCH  23  24
ENDBRANCH   1  23
TORSDOF 18
ENDMDL
MODEL 3
REMARK VINA RESULT:     -11.4      3.429      8.710
REMARK SMILES Cc1ccc(C)c(NC(=O)/C=C/C(=O)NCCCCCCNC(=O)c2ccc(-c3c4nc(c(-c5cccc(S(=O)(=O)[O-])c5F)c5ccc([nH]5)c(-c5cccc(S(=O)(=O)[O-])c5F)c5nc(c(-c6cccc(S(=O)(=O)[O-])c6F)c6ccc3[nH]6)C=C5)C=C4)cc2)c1
REMARK SMILES IDX 19 1 18 2 17 3 16 4 15 5 13 6 14 7 12 9 11 10 9 11 8 12
REMARK SMILES IDX 10 14 7 15 1 16 2 17 3 18 88 19 4 20 5 21 6 22 20 23 21 24
REMARK SMILES IDX 22 25 23 26 24 28 25 29 26 30 87 31 27 32 86 33 28 34 29 35
REMARK SMILES IDX 30 36 80 37 31 38 85 39 79 40 81 41 32 42 84 43 78 44 77 45
REMARK SMILES IDX 33 47 65 48 45 49 64 50 46 51 49 52 63 53 82 54 47 55 48 56
REMARK SMILES IDX 62 58 83 59 50 60 34 61 35 62 43 63 36 64 38 65 44 66 37 67
REMARK SMILES IDX 39 68 40 69 41 70 42 71 66 72 67 73 75 74 68 75 70 76 76 77
REMARK SMILES IDX 69 78 71 79 72 80 73 81 74 82 51 83 52 84 60 85 53 86 55 87
REMARK SMILES IDX 61 88 54 89 56 90 57 91 58 92 59 93
REMARK H PARENT 15 8 8 13 22 27 81 46 49 57
REMARK Flexibility Score: inf
ROOT
ATOM      1  C   UNL A   1      35.379  23.341  24.419  1.00  0.00     0.002 C 
ENDROOT
BRANCH   1   2
ATOM      2  C   UNL A   1      34.895  24.543  25.238  1.00  0.00     0.002 C 
BRANCH   2   3
ATOM      3  C   UNL A   1      33.692  25.340  24.727  1.00  0.00     0.021 C 
BRANCH   3   4
ATOM      4  C   UNL A   1      32.633  24.551  23.961  1.00  0.00     0.116 C 
BRANCH   4   5
ATOM      5  N   UNL A   1      32.864  24.529  22.531  1.00  0.00    -0.353 N 
ATOM      6  C   UNL A   1      32.541  25.464  21.598  1.00  0.00     0.244 C 
ATOM      7  O   UNL A   1      33.145  25.471  20.525  1.00  0.00    -0.270 OA
ATOM      8  H   UNL A   1      33.316  23.726  22.185  1.00  0.00     0.163 HD
BRANCH   6   9
ATOM      9  C   UNL A   1      31.493  26.478  21.837  1.00  0.00     0.077 C 
ATOM     10  C   UNL A   1      31.778  27.776  21.996  1.00  0.00     0.077 C 
BRANCH  10  11
ATOM     11  C   UNL A   1      30.772  28.694  22.536  1.00  0.00     0.248 C 
ATOM     12  N   UNL A   1      30.769  29.008  23.865  1.00  0.00    -0.322 N 
ATOM     13  H   UNL A   1      30.194  29.777  24.083  1.00  0.00     0.170 HD
ATOM     14  O   UNL A   1      29.869  29.091  21.797  1.00  0.00    -0.270 OA
BRANCH  12  15
ATOM     15  C   UNL A   1      31.421  28.457  24.990  1.00  0.00     0.044 A 
ATOM     16  C   UNL A   1      34.689  29.359  26.763  1.00  0.00     0.044 C 
ATOM     17  C   UNL A   1      33.326  28.799  26.499  1.00  0.00    -0.049 A 
ATOM     18  C   UNL A   1      32.705  27.998  27.454  1.00  0.00     0.004 A 
ATOM     19  C   UNL A   1      32.656  29.058  25.295  1.00  0.00     0.029 A 
ATOM     20  C   UNL A   1      31.542  27.311  27.122  1.00  0.00     0.006 A 
ATOM     21  C   UNL A   1      30.964  27.445  25.845  1.00  0.00    -0.027 A 
ATOM     22  C   UNL A   1      30.071  26.310  25.419  1.00  0.00     0.046 C 
ENDBRANCH  12  15
ENDBRANCH  10  11
ENDBRANCH   6   9
ENDBRANCH   4   5
ENDBRANCH   3   4
ENDBRANCH   2   3
ENDBRANCH   1   2
BRANCH   1  23
ATOM     23  C   UNL A   1      36.582  22.493  24.869  1.00  0.00     0.021 C 
BRANCH  23  24
ATOM     24  C   UNL A   1      37.822  23.158  25.467  1.00  0.00     0.116 C 
BRANCH  24  25
ATOM     25  N   UNL A   1      38.601  22.282  26.344  1.00  0.00    -0.352 N 
ATOM     26  C   UNL A   1      39.716  22.471  27.147  1.00  0.00     0.251 C 
ATOM     27  H   UNL A   1      38.260  21.358  26.370  1.00  0.00     0.163 HD
ATOM     28  O   UNL A   1      40.343  21.492  27.521  1.00  0.00    -0.269 OA
BRANCH  26  29
ATOM     29  C   UNL A   1      40.147  23.826  27.570  1.00  0.00     0.039 A 
ATOM     30  C   UNL A   1      41.462  24.118  27.951  1.00  0.00     0.014 A 
ATOM     31  C   UNL A   1      39.199  24.824  27.671  1.00  0.00     0.014 A 
ATOM     32  C   UNL A   1      41.739  25.381  28.488  1.00  0.00     0.010 A 
ATOM     33  C   UNL A   1      39.523  26.124  27.872  1.00  0.00     0.010 A 
ATOM     34  C   UNL A   1      40.731  26.355  28.480  1.00  0.00    -0.014 A 
BRANCH  34  35
ATOM     35  C   UNL A   1      40.841  27.655  29.106  1.00  0.00     0.031 A 
ATOM     36  C   UNL A   1      41.784  28.554  28.433  1.00  0.00     0.074 A 
ATOM     37  C   UNL A   1      39.946  28.126  30.005  1.00  0.00     0.049 A 
ATOM     38  N   UNL A   1      42.960  28.881  28.842  1.00  0.00    -0.248 NA
ATOM     39  C   UNL A   1      41.447  29.016  27.080  1.00  0.00     0.031 C 
ATOM     40  C   UNL A   1      38.687  27.509  30.459  1.00  0.00     0.029 A 
ATOM     41  N   UNL A   1      39.908  29.351  30.595  1.00  0.00    -0.354 N 
ATOM     42  C   UNL A   1      43.403  29.808  27.914  1.00  0.00     0.074 A 
ATOM     43  C   UNL A   1      42.564  29.666  26.750  1.00  0.00     0.031 C 
ATOM     44  C   UNL A   1      37.919  28.446  31.057  1.00  0.00     0.029 A 
ATOM     45  C   UNL A   1      38.686  29.671  31.176  1.00  0.00     0.049 A 
ATOM     46  H   UNL A   1      40.680  29.960  30.608  1.00  0.00     0.167 HD
ATOM     47  C   UNL A   1      44.221  30.829  28.279  1.00  0.00     0.034 A 
ATOM     48  C   UNL A   1      38.328  30.877  31.676  1.00  0.00     0.034 A 
ATOM     49  C   UNL A   1      44.736  30.667  29.615  1.00  0.00     0.049 A 
ATOM     50  C   UNL A   1      39.577  31.627  31.943  1.00  0.00     0.074 A 
ATOM     51  C   UNL A   1      45.438  29.681  30.279  1.00  0.00     0.029 A 
ATOM     52  N   UNL A   1      44.169  31.452  30.589  1.00  0.00    -0.354 N 
ATOM     53  N   UNL A   1      40.448  31.285  32.852  1.00  0.00    -0.248 NA
ATOM     54  C   UNL A   1      40.063  32.551  30.932  1.00  0.00     0.031 C 
ATOM     55  C   UNL A   1      44.893  29.660  31.597  1.00  0.00     0.029 A 
ATOM     56  C   UNL A   1      43.920  30.659  31.680  1.00  0.00     0.049 A 
ATOM     57  H   UNL A   1      43.974  32.415  30.518  1.00  0.00     0.167 HD
ATOM     58  C   UNL A   1      41.680  31.577  32.280  1.00  0.00     0.074 A 
ATOM     59  C   UNL A   1      41.375  32.480  31.175  1.00  0.00     0.031 C 
ATOM     60  C   UNL A   1      42.787  30.828  32.570  1.00  0.00     0.034 A 
BRANCH  47  61
ATOM     61  C   UNL A   1      44.262  32.145  27.565  1.00  0.00     0.023 A 
ATOM     62  C   UNL A   1      45.171  32.287  26.502  1.00  0.00     0.012 A 
ATOM     63  C   UNL A   1      43.604  33.309  28.022  1.00  0.00     0.148 A 
ATOM     64  C   UNL A   1      45.403  33.532  25.910  1.00  0.00     0.002 A 
ATOM     65  C   UNL A   1      43.757  34.519  27.363  1.00  0.00     0.091 A 
ATOM     66  F   UNL A   1      42.931  33.288  29.180  1.00  0.00    -0.205 F 
ATOM     67  C   UNL A   1      44.676  34.644  26.321  1.00  0.00     0.022 A 
BRANCH  65  68
ATOM     68  S   UNL A   1      42.746  35.934  27.807  1.00  0.00     0.127 S 
ATOM     69  O   UNL A   1      43.004  36.841  26.695  1.00  0.00    -0.237 OA
ATOM     70  O   UNL A   1      41.403  35.353  27.838  1.00  0.00    -0.237 OA
ATOM     71  O   UNL A   1      43.243  36.343  29.116  1.00  0.00    -0.744 OA
ENDBRANCH  65  68
ENDBRANCH  47  61
BRANCH  48  72
ATOM     72  C   UNL A   1      36.993  31.511  31.772  1.00  0.00     0.023 A 
ATOM     73  C   UNL A   1      36.466  31.845  33.036  1.00  0.00     0.012 A 
ATOM     74  C   UNL A   1      36.356  32.031  30.625  1.00  0.00     0.148 A 
ATOM     75  C   UNL A   1      35.364  32.701  33.153  1.00  0.00     0.002 A 
ATOM     76  C   UNL A   1      35.251  32.871  30.747  1.00  0.00     0.091 A 
ATOM     77  F   UNL A   1      36.886  31.783  29.420  1.00  0.00    -0.205 F 
ATOM     78  C   UNL A   1      34.761  33.221  32.010  1.00  0.00     0.022 A 
BRANCH  76  79
ATOM     79  S   UNL A   1      34.433  33.562  29.302  1.00  0.00     0.127 S 
ATOM     80  O   UNL A   1      34.031  32.362  28.568  1.00  0.00    -0.237 OA
ATOM     81  O   UNL A   1      33.332  34.307  29.907  1.00  0.00    -0.237 OA
ATOM     82  O   UNL A   1      35.454  34.354  28.624  1.00  0.00    -0.744 OA
ENDBRANCH  76  79
ENDBRANCH  48  72
BRANCH  60  83
ATOM     83  C   UNL A   1      42.715  29.884  33.749  1.00  0.00     0.023 A 
ATOM     84  C   UNL A   1      42.112  28.611  33.658  1.00  0.00     0.012 A 
ATOM     85  C   UNL A   1      43.408  30.217  34.927  1.00  0.00     0.148 A 
ATOM     86  C   UNL A   1      42.170  27.708  34.722  1.00  0.00     0.002 A 
ATOM     87  C   UNL A   1      43.504  29.296  35.966  1.00  0.00     0.091 A 
ATOM     88  F   UNL A   1      43.984  31.427  35.005  1.00  0.00    -0.205 F 
ATOM     89  C   UNL A   1      42.877  28.045  35.872  1.00  0.00     0.022 A 
BRANCH  87  90
ATOM     90  S   UNL A   1      44.507  29.621  37.420  1.00  0.00     0.127 S 
ATOM     91  O   UNL A   1      43.743  30.668  38.093  1.00  0.00    -0.237 OA
ATOM     92  O   UNL A   1      44.503  28.326  38.102  1.00  0.00    -0.237 OA
ATOM     93  O   UNL A   1      45.817  30.021  36.918  1.00  0.00    -0.744 OA
ENDBRANCH  87  90
ENDBRANCH  60  83
ENDBRANCH  34  35
ENDBRANCH  26  29
ENDBRANCH  24  25
ENDBRANCH  23  24
ENDBRANCH   1  23
TORSDOF 18
ENDMDL
