MODEL 1
REMARK VINA RESULT:     -10.4      0.000      0.000
REMARK SMILES CN(CC(C)(C)O)C(=O)N[C@H]1CC[C@H](C(=O)NCCCCCCNC(=O)c2ccc(-c3c4nc(c(-c5cccc(S(=O)(=O)[O-])c5F)c5ccc([nH]5)c(-c5cccc(S(=O)(=O)[O-])c5F)c5nc(c(-c6cccc(S(=O)(=O)[O-])c6F)c6ccc3[nH]6)C=C5)C=C4)cc2)C1
REMARK SMILES IDX 19 1 18 2 17 3 15 4 16 5 14 7 11 8 12 9 90 10 13 11 10 12
REMARK SMILES IDX 8 13 9 14 2 16 1 17 3 18 4 19 5 20 6 21 7 22 20 24 21 25
REMARK SMILES IDX 22 26 23 27 24 28 25 29 26 31 27 32 28 33 89 34 29 35 88 36
REMARK SMILES IDX 30 37 31 38 32 39 82 40 33 41 87 42 81 43 83 44 34 45 86 46
REMARK SMILES IDX 80 47 79 48 35 50 67 51 47 52 66 53 48 54 51 55 65 56 84 57
REMARK SMILES IDX 49 58 50 59 64 61 85 62 52 63 36 64 37 65 45 66 38 67 40 68
REMARK SMILES IDX 46 69 39 70 41 71 42 72 43 73 44 74 68 75 69 76 77 77 70 78
REMARK SMILES IDX 72 79 78 80 71 81 73 82 74 83 75 84 76 85 53 86 54 87 62 88
REMARK SMILES IDX 55 89 57 90 63 91 56 92 58 93 59 94 60 95 61 96
REMARK H PARENT 17 6 10 15 7 23 24 30 83 49 51 60
REMARK Flexibility Score: inf
ROOT
ATOM      1  C   UNL A   1      31.820  22.771  25.596  1.00  0.00     0.021 C 
ENDROOT
BRANCH   1   2
ATOM      2  C   UNL A   1      30.681  23.632  26.158  1.00  0.00     0.116 C 
BRANCH   2   3
ATOM      3  N   UNL A   1      31.156  24.778  26.904  1.00  0.00    -0.356 N 
ATOM      4  C   UNL A   1      31.421  26.051  26.516  1.00  0.00     0.223 C 
ATOM      5  O   UNL A   1      31.698  26.857  27.411  1.00  0.00    -0.275 OA
ATOM      6  H   UNL A   1      31.316  24.602  27.859  1.00  0.00     0.163 HD
BRANCH   4   7
ATOM      7  C   UNL A   1      31.383  26.524  25.065  1.00  0.00     0.080 C 
ATOM      8  C   UNL A   1      30.423  26.351  22.830  1.00  0.00     0.084 C 
ATOM      9  C   UNL A   1      31.586  25.390  22.918  1.00  0.00     0.026 C 
ATOM     10  C   UNL A   1      30.035  26.417  24.338  1.00  0.00     0.038 C 
ATOM     11  C   UNL A   1      32.388  25.915  24.095  1.00  0.00     0.015 C 
BRANCH   8  12
ATOM     12  N   UNL A   1      30.576  27.734  22.317  1.00  0.00    -0.335 N 
ATOM     13  C   UNL A   1      30.068  28.964  22.195  1.00  0.00     0.317 C 
ATOM     14  O   UNL A   1      30.961  29.826  22.135  1.00  0.00    -0.249 OA
ATOM     15  H   UNL A   1      31.446  27.755  21.858  1.00  0.00     0.165 HD
BRANCH  13  16
ATOM     16  N   UNL A   1      28.768  29.334  22.049  1.00  0.00    -0.325 N 
ATOM     17  C   UNL A   1      27.835  28.710  22.984  1.00  0.00     0.148 C 
BRANCH  16  18
ATOM     18  C   UNL A   1      28.169  30.396  21.250  1.00  0.00     0.155 C 
BRANCH  18  19
ATOM     19  C   UNL A   1      28.258  31.839  21.837  1.00  0.00     0.077 C 
ATOM     20  C   UNL A   1      27.688  32.922  20.906  1.00  0.00     0.043 C 
ATOM     21  C   UNL A   1      27.630  31.850  23.249  1.00  0.00     0.043 C 
BRANCH  19  22
ATOM     22  O   UNL A   1      29.643  32.186  22.028  1.00  0.00    -0.389 OA
ATOM     23  H   UNL A   1      29.893  32.880  21.398  1.00  0.00     0.211 HD
ENDBRANCH  19  22
ENDBRANCH  18  19
ENDBRANCH  16  18
ENDBRANCH  13  16
ENDBRANCH   8  12
ENDBRANCH   4   7
ENDBRANCH   2   3
ENDBRANCH   1   2
BRANCH   1  24
ATOM     24  C   UNL A   1      33.085  22.711  26.451  1.00  0.00     0.002 C 
BRANCH  24  25
ATOM     25  C   UNL A   1      34.342  23.282  25.796  1.00  0.00     0.002 C 
BRANCH  25  26
ATOM     26  C   UNL A   1      35.599  22.418  25.941  1.00  0.00     0.021 C 
BRANCH  26  27
ATOM     27  C   UNL A   1      36.902  23.210  26.010  1.00  0.00     0.116 C 
BRANCH  27  28
ATOM     28  N   UNL A   1      38.044  22.326  26.182  1.00  0.00    -0.352 N 
ATOM     29  C   UNL A   1      39.360  22.654  26.376  1.00  0.00     0.251 C 
ATOM     30  H   UNL A   1      37.845  21.363  26.155  1.00  0.00     0.163 HD
ATOM     31  O   UNL A   1      40.241  21.817  26.173  1.00  0.00    -0.269 OA
BRANCH  29  32
ATOM     32  C   UNL A   1      39.714  24.009  26.842  1.00  0.00     0.039 A 
ATOM     33  C   UNL A   1      39.639  24.311  28.204  1.00  0.00     0.014 A 
ATOM     34  C   UNL A   1      40.097  24.988  25.920  1.00  0.00     0.014 A 
ATOM     35  C   UNL A   1      39.989  25.589  28.646  1.00  0.00     0.010 A 
ATOM     36  C   UNL A   1      40.508  26.237  26.368  1.00  0.00     0.010 A 
ATOM     37  C   UNL A   1      40.447  26.554  27.733  1.00  0.00    -0.014 A 
BRANCH  37  38
ATOM     38  C   UNL A   1      40.873  27.902  28.183  1.00  0.00     0.031 A 
ATOM     39  C   UNL A   1      42.335  28.253  28.234  1.00  0.00     0.074 A 
ATOM     40  C   UNL A   1      39.949  28.769  28.641  1.00  0.00     0.049 A 
ATOM     41  N   UNL A   1      42.905  29.347  28.668  1.00  0.00    -0.248 NA
ATOM     42  C   UNL A   1      43.283  27.231  27.760  1.00  0.00     0.031 C 
ATOM     43  C   UNL A   1      38.511  28.508  28.718  1.00  0.00     0.029 A 
ATOM     44  N   UNL A   1      40.086  30.032  29.160  1.00  0.00    -0.354 N 
ATOM     45  C   UNL A   1      44.273  29.133  28.556  1.00  0.00     0.074 A 
ATOM     46  C   UNL A   1      44.451  27.792  28.042  1.00  0.00     0.031 C 
ATOM     47  C   UNL A   1      37.898  29.575  29.255  1.00  0.00     0.029 A 
ATOM     48  C   UNL A   1      38.901  30.583  29.586  1.00  0.00     0.049 A 
ATOM     49  H   UNL A   1      40.951  30.499  29.222  1.00  0.00     0.167 HD
ATOM     50  C   UNL A   1      45.290  29.985  28.828  1.00  0.00     0.034 A 
ATOM     51  C   UNL A   1      38.651  31.765  30.183  1.00  0.00     0.034 A 
ATOM     52  C   UNL A   1      45.104  31.333  29.296  1.00  0.00     0.049 A 
ATOM     53  C   UNL A   1      39.793  32.711  30.430  1.00  0.00     0.074 A 
ATOM     54  C   UNL A   1      46.060  32.308  29.511  1.00  0.00     0.029 A 
ATOM     55  N   UNL A   1      43.879  31.893  29.625  1.00  0.00    -0.354 N 
ATOM     56  N   UNL A   1      41.067  32.553  30.165  1.00  0.00    -0.248 NA
ATOM     57  C   UNL A   1      39.461  34.013  31.026  1.00  0.00     0.031 C 
ATOM     58  C   UNL A   1      45.415  33.454  29.990  1.00  0.00     0.029 A 
ATOM     59  C   UNL A   1      44.055  33.198  30.050  1.00  0.00     0.049 A 
ATOM     60  H   UNL A   1      43.012  31.431  29.564  1.00  0.00     0.167 HD
ATOM     61  C   UNL A   1      41.683  33.745  30.528  1.00  0.00     0.074 A 
ATOM     62  C   UNL A   1      40.638  34.623  31.012  1.00  0.00     0.031 C 
ATOM     63  C   UNL A   1      42.997  34.077  30.481  1.00  0.00     0.034 A 
BRANCH  50  64
ATOM     64  C   UNL A   1      46.695  29.505  28.575  1.00  0.00     0.023 A 
ATOM     65  C   UNL A   1      47.278  29.710  27.307  1.00  0.00     0.012 A 
ATOM     66  C   UNL A   1      47.457  28.909  29.597  1.00  0.00     0.148 A 
ATOM     67  C   UNL A   1      48.586  29.298  27.051  1.00  0.00     0.002 A 
ATOM     68  C   UNL A   1      48.775  28.541  29.348  1.00  0.00     0.091 A 
ATOM     69  F   UNL A   1      46.879  28.702  30.789  1.00  0.00    -0.205 F 
ATOM     70  C   UNL A   1      49.336  28.724  28.073  1.00  0.00     0.022 A 
BRANCH  68  71
ATOM     71  S   UNL A   1      49.848  27.864  30.619  1.00  0.00     0.127 S 
ATOM     72  O   UNL A   1      51.130  28.484  30.284  1.00  0.00    -0.237 OA
ATOM     73  O   UNL A   1      49.229  28.370  31.846  1.00  0.00    -0.237 OA
ATOM     74  O   UNL A   1      49.792  26.419  30.463  1.00  0.00    -0.744 OA
ENDBRANCH  68  71
ENDBRANCH  50  64
BRANCH  51  75
ATOM     75  C   UNL A   1      37.250  32.142  30.522  1.00  0.00     0.023 A 
ATOM     76  C   UNL A   1      36.766  31.900  31.823  1.00  0.00     0.012 A 
ATOM     77  C   UNL A   1      36.411  32.773  29.583  1.00  0.00     0.148 A 
ATOM     78  C   UNL A   1      35.462  32.253  32.174  1.00  0.00     0.002 A 
ATOM     79  C   UNL A   1      35.132  33.172  29.956  1.00  0.00     0.091 A 
ATOM     80  F   UNL A   1      36.886  32.984  28.347  1.00  0.00    -0.205 F 
ATOM     81  C   UNL A   1      34.650  32.898  31.244  1.00  0.00     0.022 A 
BRANCH  79  82
ATOM     82  S   UNL A   1      34.074  34.132  28.867  1.00  0.00     0.127 S 
ATOM     83  O   UNL A   1      33.665  33.128  27.886  1.00  0.00    -0.237 OA
ATOM     84  O   UNL A   1      33.015  34.568  29.780  1.00  0.00    -0.237 OA
ATOM     85  O   UNL A   1      34.906  35.212  28.362  1.00  0.00    -0.744 OA
ENDBRANCH  79  82
ENDBRANCH  51  75
BRANCH  63  86
ATOM     86  C   UNL A   1      43.382  35.459  30.936  1.00  0.00     0.023 A 
ATOM     87  C   UNL A   1      43.578  36.479  29.983  1.00  0.00     0.012 A 
ATOM     88  C   UNL A   1      43.477  35.765  32.307  1.00  0.00     0.148 A 
ATOM     89  C   UNL A   1      43.893  37.776  30.389  1.00  0.00     0.002 A 
ATOM     90  C   UNL A   1      43.743  37.070  32.706  1.00  0.00     0.091 A 
ATOM     91  F   UNL A   1      43.306  34.776  33.198  1.00  0.00    -0.205 F 
ATOM     92  C   UNL A   1      43.963  38.074  31.748  1.00  0.00     0.022 A 
BRANCH  90  93
ATOM     93  S   UNL A   1      43.757  37.564  34.433  1.00  0.00     0.127 S 
ATOM     94  O   UNL A   1      42.403  37.210  34.855  1.00  0.00    -0.237 OA
ATOM     95  O   UNL A   1      44.811  36.716  34.990  1.00  0.00    -0.237 OA
ATOM     96  O   UNL A   1      44.063  38.988  34.439  1.00  0.00    -0.744 OA
ENDBRANCH  90  93
ENDBRANCH  63  86
ENDBRANCH  37  38
ENDBRANCH  29  32
ENDBRANCH  27  28
ENDBRANCH  26  27
ENDBRANCH  25  26
ENDBRANCH  24  25
ENDBRANCH   1  24
TORSDOF 21
ENDMDL
MODEL 2
REMARK VINA RESULT:     -10.4      3.713      8.580
REMARK SMILES CN(CC(C)(C)O)C(=O)N[C@H]1CC[C@H](C(=O)NCCCCCCNC(=O)c2ccc(-c3c4nc(c(-c5cccc(S(=O)(=O)[O-])c5F)c5ccc([nH]5)c(-c5cccc(S(=O)(=O)[O-])c5F)c5nc(c(-c6cccc(S(=O)(=O)[O-])c6F)c6ccc3[nH]6)C=C5)C=C4)cc2)C1
REMARK SMILES IDX 19 1 18 2 17 3 15 4 16 5 14 7 11 8 12 9 90 10 13 11 10 12
REMARK SMILES IDX 8 13 9 14 2 16 1 17 3 18 4 19 5 20 6 21 7 22 20 24 21 25
REMARK SMILES IDX 22 26 23 27 24 28 25 29 26 31 27 32 28 33 89 34 29 35 88 36
REMARK SMILES IDX 30 37 31 38 32 39 82 40 33 41 87 42 81 43 83 44 34 45 86 46
REMARK SMILES IDX 80 47 79 48 35 50 67 51 47 52 66 53 48 54 51 55 65 56 84 57
REMARK SMILES IDX 49 58 50 59 64 61 85 62 52 63 36 64 37 65 45 66 38 67 40 68
REMARK SMILES IDX 46 69 39 70 41 71 42 72 43 73 44 74 68 75 69 76 77 77 70 78
REMARK SMILES IDX 72 79 78 80 71 81 73 82 74 83 75 84 76 85 53 86 54 87 62 88
REMARK SMILES IDX 55 89 57 90 63 91 56 92 58 93 59 94 60 95 61 96
REMARK H PARENT 17 6 10 15 7 23 24 30 83 49 51 60
REMARK Flexibility Score: inf
ROOT
ATOM      1  C   UNL A   1      34.765  20.143  25.013  1.00  0.00     0.021 C 
ENDROOT
BRANCH   1   2
ATOM      2  C   UNL A   1      33.358  20.751  25.093  1.00  0.00     0.116 C 
BRANCH   2   3
ATOM      3  N   UNL A   1      33.032  21.242  26.415  1.00  0.00    -0.356 N 
ATOM      4  C   UNL A   1      32.781  22.496  26.867  1.00  0.00     0.223 C 
ATOM      5  O   UNL A   1      32.401  22.598  28.039  1.00  0.00    -0.275 OA
ATOM      6  H   UNL A   1      32.984  20.543  27.107  1.00  0.00     0.163 HD
BRANCH   4   7
ATOM      7  C   UNL A   1      32.933  23.754  26.016  1.00  0.00     0.080 C 
ATOM      8  C   UNL A   1      31.906  25.503  24.661  1.00  0.00     0.084 C 
ATOM      9  C   UNL A   1      32.252  24.347  23.752  1.00  0.00     0.026 C 
ATOM     10  C   UNL A   1      31.747  24.728  26.004  1.00  0.00     0.038 C 
ATOM     11  C   UNL A   1      33.291  23.575  24.546  1.00  0.00     0.015 C 
BRANCH   8  12
ATOM     12  N   UNL A   1      32.826  26.645  24.877  1.00  0.00    -0.335 N 
ATOM     13  C   UNL A   1      33.023  27.966  24.859  1.00  0.00     0.317 C 
ATOM     14  O   UNL A   1      33.866  28.318  25.701  1.00  0.00    -0.249 OA
ATOM     15  H   UNL A   1      33.682  26.250  25.163  1.00  0.00     0.165 HD
BRANCH  13  16
ATOM     16  N   UNL A   1      32.497  28.890  24.011  1.00  0.00    -0.325 N 
ATOM     17  C   UNL A   1      33.206  29.044  22.742  1.00  0.00     0.148 C 
BRANCH  16  18
ATOM     18  C   UNL A   1      31.233  29.614  24.063  1.00  0.00     0.155 C 
BRANCH  18  19
ATOM     19  C   UNL A   1      30.207  29.299  22.932  1.00  0.00     0.077 C 
ATOM     20  C   UNL A   1      29.901  27.799  22.775  1.00  0.00     0.043 C 
ATOM     21  C   UNL A   1      28.943  30.165  23.137  1.00  0.00     0.043 C 
BRANCH  19  22
ATOM     22  O   UNL A   1      30.757  29.714  21.667  1.00  0.00    -0.389 OA
ATOM     23  H   UNL A   1      31.713  29.850  21.759  1.00  0.00     0.211 HD
ENDBRANCH  19  22
ENDBRANCH  18  19
ENDBRANCH  16  18
ENDBRANCH  13  16
ENDBRANCH   8  12
ENDBRANCH   4   7
ENDBRANCH   2   3
ENDBRANCH   1   2
BRANCH   1  24
ATOM     24  C   UNL A   1      35.917  21.109  25.285  1.00  0.00     0.002 C 
BRANCH  24  25
ATOM     25  C   UNL A   1      37.187  20.853  24.473  1.00  0.00     0.002 C 
BRANCH  25  26
ATOM     26  C   UNL A   1      38.077  19.722  24.999  1.00  0.00     0.021 C 
BRANCH  26  27
ATOM     27  C   UNL A   1      39.057  20.147  26.087  1.00  0.00     0.116 C 
BRANCH  27  28
ATOM     28  N   UNL A   1      40.169  19.214  26.184  1.00  0.00    -0.352 N 
ATOM     29  C   UNL A   1      41.513  19.478  26.150  1.00  0.00     0.251 C 
ATOM     30  H   UNL A   1      39.923  18.268  26.287  1.00  0.00     0.163 HD
ATOM     31  O   UNL A   1      42.314  18.571  25.910  1.00  0.00    -0.269 OA
BRANCH  29  32
ATOM     32  C   UNL A   1      41.998  20.846  26.415  1.00  0.00     0.039 A 
ATOM     33  C   UNL A   1      42.025  21.780  25.377  1.00  0.00     0.014 A 
ATOM     34  C   UNL A   1      42.450  21.193  27.692  1.00  0.00     0.014 A 
ATOM     35  C   UNL A   1      42.468  23.080  25.631  1.00  0.00     0.010 A 
ATOM     36  C   UNL A   1      42.828  22.503  27.959  1.00  0.00     0.010 A 
ATOM     37  C   UNL A   1      42.853  23.456  26.930  1.00  0.00    -0.014 A 
BRANCH  37  38
ATOM     38  C   UNL A   1      43.280  24.842  27.238  1.00  0.00     0.031 A 
ATOM     39  C   UNL A   1      42.329  25.793  27.913  1.00  0.00     0.074 A 
ATOM     40  C   UNL A   1      44.486  25.272  26.817  1.00  0.00     0.049 A 
ATOM     41  N   UNL A   1      42.491  27.060  28.194  1.00  0.00    -0.248 NA
ATOM     42  C   UNL A   1      41.012  25.258  28.297  1.00  0.00     0.031 C 
ATOM     43  C   UNL A   1      45.459  24.466  26.079  1.00  0.00     0.029 A 
ATOM     44  N   UNL A   1      45.084  26.503  26.919  1.00  0.00    -0.354 N 
ATOM     45  C   UNL A   1      41.291  27.482  28.753  1.00  0.00     0.074 A 
ATOM     46  C   UNL A   1      40.397  26.344  28.742  1.00  0.00     0.031 C 
ATOM     47  C   UNL A   1      46.531  25.222  25.793  1.00  0.00     0.029 A 
ATOM     48  C   UNL A   1      46.309  26.572  26.300  1.00  0.00     0.049 A 
ATOM     49  H   UNL A   1      44.674  27.264  27.390  1.00  0.00     0.167 HD
ATOM     50  C   UNL A   1      40.971  28.697  29.256  1.00  0.00     0.034 A 
ATOM     51  C   UNL A   1      47.156  27.610  26.152  1.00  0.00     0.034 A 
ATOM     52  C   UNL A   1      41.881  29.810  29.305  1.00  0.00     0.049 A 
ATOM     53  C   UNL A   1      46.796  28.936  26.762  1.00  0.00     0.074 A 
ATOM     54  C   UNL A   1      41.688  31.054  29.879  1.00  0.00     0.029 A 
ATOM     55  N   UNL A   1      43.153  29.815  28.755  1.00  0.00    -0.354 N 
ATOM     56  N   UNL A   1      45.720  29.271  27.433  1.00  0.00    -0.248 NA
ATOM     57  C   UNL A   1      47.781  30.019  26.628  1.00  0.00     0.031 C 
ATOM     58  C   UNL A   1      42.839  31.819  29.657  1.00  0.00     0.029 A 
ATOM     59  C   UNL A   1      43.755  31.043  28.967  1.00  0.00     0.049 A 
ATOM     60  H   UNL A   1      43.568  29.057  28.283  1.00  0.00     0.167 HD
ATOM     61  C   UNL A   1      45.912  30.589  27.829  1.00  0.00     0.074 A 
ATOM     62  C   UNL A   1      47.217  30.984  27.342  1.00  0.00     0.031 C 
ATOM     63  C   UNL A   1      45.077  31.404  28.520  1.00  0.00     0.034 A 
BRANCH  50  64
ATOM     64  C   UNL A   1      39.596  28.873  29.846  1.00  0.00     0.023 A 
ATOM     65  C   UNL A   1      39.337  28.402  31.150  1.00  0.00     0.012 A 
ATOM     66  C   UNL A   1      38.582  29.550  29.142  1.00  0.00     0.148 A 
ATOM     67  C   UNL A   1      38.080  28.573  31.731  1.00  0.00     0.002 A 
ATOM     68  C   UNL A   1      37.345  29.755  29.745  1.00  0.00     0.091 A 
ATOM     69  F   UNL A   1      38.839  29.970  27.895  1.00  0.00    -0.205 F 
ATOM     70  C   UNL A   1      37.090  29.258  31.034  1.00  0.00     0.022 A 
BRANCH  68  71
ATOM     71  S   UNL A   1      36.029  30.690  28.959  1.00  0.00     0.127 S 
ATOM     72  O   UNL A   1      35.465  31.419  30.096  1.00  0.00    -0.237 OA
ATOM     73  O   UNL A   1      36.769  31.523  28.008  1.00  0.00    -0.237 OA
ATOM     74  O   UNL A   1      35.148  29.707  28.347  1.00  0.00    -0.744 OA
ENDBRANCH  68  71
ENDBRANCH  50  64
BRANCH  51  75
ATOM     75  C   UNL A   1      48.457  27.411  25.454  1.00  0.00     0.023 A 
ATOM     76  C   UNL A   1      49.594  27.051  26.204  1.00  0.00     0.012 A 
ATOM     77  C   UNL A   1      48.567  27.534  24.055  1.00  0.00     0.148 A 
ATOM     78  C   UNL A   1      50.825  26.847  25.576  1.00  0.00     0.002 A 
ATOM     79  C   UNL A   1      49.782  27.274  23.431  1.00  0.00     0.091 A 
ATOM     80  F   UNL A   1      47.476  27.888  23.361  1.00  0.00    -0.205 F 
ATOM     81  C   UNL A   1      50.915  26.948  24.191  1.00  0.00     0.022 A 
BRANCH  79  82
ATOM     82  S   UNL A   1      49.952  27.243  21.643  1.00  0.00     0.127 S 
ATOM     83  O   UNL A   1      48.897  26.306  21.259  1.00  0.00    -0.237 OA
ATOM     84  O   UNL A   1      49.691  28.641  21.290  1.00  0.00    -0.237 OA
ATOM     85  O   UNL A   1      51.314  26.807  21.385  1.00  0.00    -0.744 OA
ENDBRANCH  79  82
ENDBRANCH  51  75
BRANCH  63  86
ATOM     86  C   UNL A   1      45.556  32.799  28.820  1.00  0.00     0.023 A 
ATOM     87  C   UNL A   1      46.329  33.039  29.973  1.00  0.00     0.012 A 
ATOM     88  C   UNL A   1      45.305  33.855  27.923  1.00  0.00     0.148 A 
ATOM     89  C   UNL A   1      46.819  34.316  30.245  1.00  0.00     0.002 A 
ATOM     90  C   UNL A   1      45.837  35.115  28.174  1.00  0.00     0.091 A 
ATOM     91  F   UNL A   1      44.551  33.611  26.840  1.00  0.00    -0.205 F 
ATOM     92  C   UNL A   1      46.584  35.350  29.341  1.00  0.00     0.022 A 
BRANCH  90  93
ATOM     93  S   UNL A   1      45.665  36.479  27.019  1.00  0.00     0.127 S 
ATOM     94  O   UNL A   1      46.401  37.542  27.702  1.00  0.00    -0.237 OA
ATOM     95  O   UNL A   1      46.320  35.956  25.820  1.00  0.00    -0.237 OA
ATOM     96  O   UNL A   1      44.233  36.703  26.874  1.00  0.00    -0.744 OA
ENDBRANCH  90  93
ENDBRANCH  63  86
ENDBRANCH  37  38
ENDBRANCH  29  32
ENDBRANCH  27  28
ENDBRANCH  26  27
ENDBRANCH  25  26
ENDBRANCH  24  25
ENDBRANCH   1  24
TORSDOF 21
ENDMDL
MODEL 3
REMARK VINA RESULT:     -10.3      4.801     10.119
REMARK SMILES CN(CC(C)(C)O)C(=O)N[C@H]1CC[C@H](C(=O)NCCCCCCNC(=O)c2ccc(-c3c4nc(c(-c5cccc(S(=O)(=O)[O-])c5F)c5ccc([nH]5)c(-c5cccc(S(=O)(=O)[O-])c5F)c5nc(c(-c6cccc(S(=O)(=O)[O-])c6F)c6ccc3[nH]6)C=C5)C=C4)cc2)C1
REMARK SMILES IDX 19 1 18 2 17 3 15 4 16 5 14 7 11 8 12 9 90 10 13 11 10 12
REMARK SMILES IDX 8 13 9 14 2 16 1 17 3 18 4 19 5 20 6 21 7 22 20 24 21 25
REMARK SMILES IDX 22 26 23 27 24 28 25 29 26 31 27 32 28 33 89 34 29 35 88 36
REMARK SMILES IDX 30 37 31 38 32 39 82 40 33 41 87 42 81 43 83 44 34 45 86 46
REMARK SMILES IDX 80 47 79 48 35 50 67 51 47 52 66 53 48 54 51 55 65 56 84 57
REMARK SMILES IDX 49 58 50 59 64 61 85 62 52 63 36 64 37 65 45 66 38 67 40 68
REMARK SMILES IDX 46 69 39 70 41 71 42 72 43 73 44 74 68 75 69 76 77 77 70 78
REMARK SMILES IDX 72 79 78 80 71 81 73 82 74 83 75 84 76 85 53 86 54 87 62 88
REMARK SMILES IDX 55 89 57 90 63 91 56 92 58 93 59 94 60 95 61 96
REMARK H PARENT 17 6 10 15 7 23 24 30 83 49 51 60
REMARK Flexibility Score: inf
ROOT
ATOM      1  C   UNL A   1      30.458  25.627  24.738  1.00  0.00     0.021 C 
ENDROOT
BRANCH   1   2
ATOM      2  C   UNL A   1      30.319  24.733  23.499  1.00  0.00     0.116 C 
BRANCH   2   3
ATOM      3  N   UNL A   1      31.409  24.896  22.562  1.00  0.00    -0.356 N 
ATOM      4  C   UNL A   1      32.637  24.320  22.508  1.00  0.00     0.223 C 
ATOM      5  O   UNL A   1      33.319  24.561  21.506  1.00  0.00    -0.275 OA
ATOM      6  H   UNL A   1      31.228  25.537  21.837  1.00  0.00     0.163 HD
BRANCH   4   7
ATOM      7  C   UNL A   1      33.196  23.404  23.594  1.00  0.00     0.080 C 
ATOM      8  C   UNL A   1      32.862  22.171  25.671  1.00  0.00     0.084 C 
ATOM      9  C   UNL A   1      33.339  23.562  26.021  1.00  0.00     0.026 C 
ATOM     10  C   UNL A   1      32.197  22.472  24.294  1.00  0.00     0.038 C 
ATOM     11  C   UNL A   1      33.976  24.049  24.732  1.00  0.00     0.015 C 
BRANCH   8  12
ATOM     12  N   UNL A   1      33.795  21.031  25.511  1.00  0.00    -0.335 N 
ATOM     13  C   UNL A   1      34.039  19.826  24.987  1.00  0.00     0.317 C 
ATOM     14  O   UNL A   1      35.250  19.656  24.767  1.00  0.00    -0.249 OA
ATOM     15  H   UNL A   1      34.601  21.269  26.023  1.00  0.00     0.165 HD
BRANCH  13  16
ATOM     16  N   UNL A   1      33.169  18.805  24.769  1.00  0.00    -0.325 N 
ATOM     17  C   UNL A   1      32.276  18.981  23.625  1.00  0.00     0.148 C 
BRANCH  16  18
ATOM     18  C   UNL A   1      33.104  17.473  25.358  1.00  0.00     0.155 C 
BRANCH  18  19
ATOM     19  C   UNL A   1      33.926  16.357  24.641  1.00  0.00     0.077 C 
ATOM     20  C   UNL A   1      34.121  16.604  23.135  1.00  0.00     0.043 C 
ATOM     21  C   UNL A   1      35.252  16.134  25.404  1.00  0.00     0.043 C 
BRANCH  19  22
ATOM     22  O   UNL A   1      33.212  15.109  24.737  1.00  0.00    -0.389 OA
ATOM     23  H   UNL A   1      32.442  15.221  25.317  1.00  0.00     0.211 HD
ENDBRANCH  19  22
ENDBRANCH  18  19
ENDBRANCH  16  18
ENDBRANCH  13  16
ENDBRANCH   8  12
ENDBRANCH   4   7
ENDBRANCH   2   3
ENDBRANCH   1   2
BRANCH   1  24
ATOM     24  C   UNL A   1      31.064  27.008  24.490  1.00  0.00     0.002 C 
BRANCH  24  25
ATOM     25  C   UNL A   1      31.774  27.633  25.691  1.00  0.00     0.002 C 
BRANCH  25  26
ATOM     26  C   UNL A   1      33.138  28.261  25.384  1.00  0.00     0.021 C 
BRANCH  26  27
ATOM     27  C   UNL A   1      33.819  28.903  26.589  1.00  0.00     0.116 C 
BRANCH  27  28
ATOM     28  N   UNL A   1      33.735  30.355  26.526  1.00  0.00    -0.352 N 
ATOM     29  C   UNL A   1      34.339  31.283  27.332  1.00  0.00     0.251 C 
ATOM     30  H   UNL A   1      33.167  30.717  25.809  1.00  0.00     0.163 HD
ATOM     31  O   UNL A   1      33.915  32.440  27.366  1.00  0.00    -0.269 OA
BRANCH  29  32
ATOM     32  C   UNL A   1      35.506  30.895  28.147  1.00  0.00     0.039 A 
ATOM     33  C   UNL A   1      36.617  31.740  28.205  1.00  0.00     0.014 A 
ATOM     34  C   UNL A   1      35.506  29.677  28.834  1.00  0.00     0.014 A 
ATOM     35  C   UNL A   1      37.715  31.380  28.990  1.00  0.00     0.010 A 
ATOM     36  C   UNL A   1      36.570  29.352  29.665  1.00  0.00     0.010 A 
ATOM     37  C   UNL A   1      37.690  30.193  29.742  1.00  0.00    -0.014 A 
BRANCH  37  38
ATOM     38  C   UNL A   1      38.822  29.812  30.622  1.00  0.00     0.031 A 
ATOM     39  C   UNL A   1      38.979  30.458  31.972  1.00  0.00     0.074 A 
ATOM     40  C   UNL A   1      39.762  28.964  30.161  1.00  0.00     0.049 A 
ATOM     41  N   UNL A   1      39.940  30.314  32.847  1.00  0.00    -0.248 NA
ATOM     42  C   UNL A   1      37.934  31.412  32.381  1.00  0.00     0.031 C 
ATOM     43  C   UNL A   1      39.759  28.340  28.837  1.00  0.00     0.029 A 
ATOM     44  N   UNL A   1      40.917  28.506  30.742  1.00  0.00    -0.354 N 
ATOM     45  C   UNL A   1      39.637  31.181  33.890  1.00  0.00     0.074 A 
ATOM     46  C   UNL A   1      38.419  31.872  33.525  1.00  0.00     0.031 C 
ATOM     47  C   UNL A   1      40.861  27.584  28.705  1.00  0.00     0.029 A 
ATOM     48  C   UNL A   1      41.660  27.691  29.921  1.00  0.00     0.049 A 
ATOM     49  H   UNL A   1      41.189  28.739  31.659  1.00  0.00     0.167 HD
ATOM     50  C   UNL A   1      40.296  31.365  35.058  1.00  0.00     0.034 A 
ATOM     51  C   UNL A   1      42.855  27.102  30.124  1.00  0.00     0.034 A 
ATOM     52  C   UNL A   1      41.480  30.641  35.434  1.00  0.00     0.049 A 
ATOM     53  C   UNL A   1      43.542  27.285  31.448  1.00  0.00     0.074 A 
ATOM     54  C   UNL A   1      42.171  30.682  36.632  1.00  0.00     0.029 A 
ATOM     55  N   UNL A   1      42.153  29.747  34.615  1.00  0.00    -0.354 N 
ATOM     56  N   UNL A   1      43.155  27.983  32.488  1.00  0.00    -0.248 NA
ATOM     57  C   UNL A   1      44.812  26.572  31.643  1.00  0.00     0.031 C 
ATOM     58  C   UNL A   1      43.274  29.828  36.530  1.00  0.00     0.029 A 
ATOM     59  C   UNL A   1      43.257  29.237  35.277  1.00  0.00     0.049 A 
ATOM     60  H   UNL A   1      41.886  29.510  33.698  1.00  0.00     0.167 HD
ATOM     61  C   UNL A   1      44.113  27.767  33.471  1.00  0.00     0.074 A 
ATOM     62  C   UNL A   1      45.088  26.855  32.909  1.00  0.00     0.031 C 
ATOM     63  C   UNL A   1      44.189  28.289  34.721  1.00  0.00     0.034 A 
BRANCH  50  64
ATOM     64  C   UNL A   1      39.720  32.350  36.042  1.00  0.00     0.023 A 
ATOM     65  C   UNL A   1      38.786  31.906  37.000  1.00  0.00     0.012 A 
ATOM     66  C   UNL A   1      40.140  33.693  36.059  1.00  0.00     0.148 A 
ATOM     67  C   UNL A   1      38.254  32.790  37.939  1.00  0.00     0.002 A 
ATOM     68  C   UNL A   1      39.639  34.559  37.025  1.00  0.00     0.091 A 
ATOM     69  F   UNL A   1      41.012  34.104  35.126  1.00  0.00    -0.205 F 
ATOM     70  C   UNL A   1      38.689  34.112  37.958  1.00  0.00     0.022 A 
BRANCH  68  71
ATOM     71  S   UNL A   1      40.192  36.261  37.181  1.00  0.00     0.127 S 
ATOM     72  O   UNL A   1      39.316  36.760  38.241  1.00  0.00    -0.237 OA
ATOM     73  O   UNL A   1      41.592  36.094  37.577  1.00  0.00    -0.237 OA
ATOM     74  O   UNL A   1      40.001  36.866  35.872  1.00  0.00    -0.744 OA
ENDBRANCH  68  71
ENDBRANCH  50  64
BRANCH  51  75
ATOM     75  C   UNL A   1      43.439  26.228  29.067  1.00  0.00     0.023 A 
ATOM     76  C   UNL A   1      43.130  24.854  29.061  1.00  0.00     0.012 A 
ATOM     77  C   UNL A   1      44.261  26.753  28.051  1.00  0.00     0.148 A 
ATOM     78  C   UNL A   1      43.653  24.012  28.078  1.00  0.00     0.002 A 
ATOM     79  C   UNL A   1      44.732  25.919  27.043  1.00  0.00     0.091 A 
ATOM     80  F   UNL A   1      44.552  28.061  28.081  1.00  0.00    -0.205 F 
ATOM     81  C   UNL A   1      44.444  24.546  27.064  1.00  0.00     0.022 A 
BRANCH  79  82
ATOM     82  S   UNL A   1      45.638  26.549  25.626  1.00  0.00     0.127 S 
ATOM     83  O   UNL A   1      44.830  27.707  25.245  1.00  0.00    -0.237 OA
ATOM     84  O   UNL A   1      46.938  26.874  26.217  1.00  0.00    -0.237 OA
ATOM     85  O   UNL A   1      45.676  25.457  24.667  1.00  0.00    -0.744 OA
ENDBRANCH  79  82
ENDBRANCH  51  75
BRANCH  63  86
ATOM     86  C   UNL A   1      45.349  27.866  35.583  1.00  0.00     0.023 A 
ATOM     87  C   UNL A   1      46.518  28.652  35.615  1.00  0.00     0.012 A 
ATOM     88  C   UNL A   1      45.252  26.735  36.415  1.00  0.00     0.148 A 
ATOM     89  C   UNL A   1      47.585  28.300  36.441  1.00  0.00     0.002 A 
ATOM     90  C   UNL A   1      46.299  26.417  37.271  1.00  0.00     0.091 A 
ATOM     91  F   UNL A   1      44.138  25.989  36.355  1.00  0.00    -0.205 F 
ATOM     92  C   UNL A   1      47.472  27.191  37.277  1.00  0.00     0.022 A 
BRANCH  90  93
ATOM     93  S   UNL A   1      46.202  25.065  38.449  1.00  0.00     0.127 S 
ATOM     94  O   UNL A   1      46.921  25.617  39.597  1.00  0.00    -0.237 OA
ATOM     95  O   UNL A   1      44.759  24.924  38.643  1.00  0.00    -0.237 OA
ATOM     96  O   UNL A   1      46.838  23.924  37.803  1.00  0.00    -0.744 OA
ENDBRANCH  90  93
ENDBRANCH  63  86
ENDBRANCH  37  38
ENDBRANCH  29  32
ENDBRANCH  27  28
ENDBRANCH  26  27
ENDBRANCH  25  26
ENDBRANCH  24  25
ENDBRANCH   1  24
TORSDOF 21
ENDMDL
