MODEL 1
REMARK VINA RESULT:     -11.3      0.000      0.000
REMARK SMILES O=C(/C=C/c1ccccc1Oc1cccc(Cl)c1)NCCCCCCNC(=O)c1ccc(-c2c3nc(c(-c4cccc(S(=O)(=O)[O-])c4F)c4ccc([nH]4)c(-c4cccc(S(=O)(=O)[O-])c4F)c4nc(c(-c5cccc(S(=O)(=O)[O-])c5F)c5ccc2[nH]5)C=C4)C=C3)cc1
REMARK SMILES IDX 22 1 21 2 20 3 19 4 1 5 2 6 3 8 4 9 5 10 6 11 10 12 7 13
REMARK SMILES IDX 9 14 8 15 11 16 12 17 13 18 18 19 14 20 16 21 15 22 17 23
REMARK SMILES IDX 23 24 24 25 25 26 26 27 27 28 28 30 29 31 30 32 91 33 31 34
REMARK SMILES IDX 90 35 32 36 33 37 34 38 84 39 35 40 89 41 83 42 85 43 36 44
REMARK SMILES IDX 88 45 82 46 81 47 37 49 69 50 49 51 68 52 50 53 53 54 67 55
REMARK SMILES IDX 86 56 51 57 52 58 66 60 87 61 54 62 38 63 39 64 47 65 40 66
REMARK SMILES IDX 42 67 48 68 41 69 43 70 44 71 45 72 46 73 70 74 71 75 79 76
REMARK SMILES IDX 72 77 74 78 80 79 73 80 75 81 76 82 77 83 78 84 55 85 56 86
REMARK SMILES IDX 64 87 57 88 59 89 65 90 58 91 60 92 61 93 62 94 63 95
REMARK H PARENT 19 7 26 29 85 48 53 59
REMARK Flexibility Score: inf
ROOT
ATOM      1  C   UNL A   1      33.287  28.369  23.155  1.00  0.00     0.002 C 
ENDROOT
BRANCH   1   2
ATOM      2  C   UNL A   1      33.584  26.877  23.356  1.00  0.00     0.021 C 
BRANCH   2   3
ATOM      3  C   UNL A   1      32.365  25.968  23.212  1.00  0.00     0.116 C 
BRANCH   3   4
ATOM      4  N   UNL A   1      32.752  24.578  23.101  1.00  0.00    -0.353 N 
ATOM      5  O   UNL A   1      30.635  23.705  23.289  1.00  0.00    -0.270 OA
ATOM      6  C   UNL A   1      31.848  23.554  23.186  1.00  0.00     0.244 C 
ATOM      7  H   UNL A   1      33.702  24.361  22.958  1.00  0.00     0.163 HD
BRANCH   6   8
ATOM      8  C   UNL A   1      32.405  22.181  23.076  1.00  0.00     0.072 C 
ATOM      9  C   UNL A   1      32.188  21.188  23.951  1.00  0.00     0.017 C 
BRANCH   9  10
ATOM     10  C   UNL A   1      32.840  19.877  23.853  1.00  0.00     0.017 A 
ATOM     11  C   UNL A   1      32.252  18.997  22.922  1.00  0.00     0.012 A 
ATOM     12  C   UNL A   1      33.945  19.428  24.605  1.00  0.00     0.134 A 
ATOM     13  C   UNL A   1      32.756  17.713  22.713  1.00  0.00     0.001 A 
ATOM     14  C   UNL A   1      34.446  18.133  24.372  1.00  0.00     0.048 A 
ATOM     15  C   UNL A   1      33.859  17.281  23.437  1.00  0.00     0.004 A 
BRANCH  12  16
ATOM     16  O   UNL A   1      34.703  20.097  25.547  1.00  0.00    -0.457 OA
BRANCH  16  17
ATOM     17  C   UNL A   1      35.239  21.333  25.304  1.00  0.00     0.128 A 
ATOM     18  C   UNL A   1      36.391  21.369  24.512  1.00  0.00     0.047 A 
ATOM     19  C   UNL A   1      34.725  22.505  25.855  1.00  0.00     0.067 A 
ATOM     20  C   UNL A   1      36.979  22.591  24.189  1.00  0.00     0.005 A 
ATOM     21  C   UNL A   1      35.310  23.724  25.515  1.00  0.00     0.044 A 
ATOM     22  C   UNL A   1      36.428  23.774  24.679  1.00  0.00     0.021 A 
ATOM     23  Cl  UNL A   1      34.603  25.190  26.075  1.00  0.00    -0.084 Cl
ENDBRANCH  16  17
ENDBRANCH  12  16
ENDBRANCH   9  10
ENDBRANCH   6   8
ENDBRANCH   3   4
ENDBRANCH   2   3
ENDBRANCH   1   2
BRANCH   1  24
ATOM     24  C   UNL A   1      33.071  29.174  24.440  1.00  0.00     0.002 C 
BRANCH  24  25
ATOM     25  C   UNL A   1      33.915  28.733  25.638  1.00  0.00     0.021 C 
BRANCH  25  26
ATOM     26  C   UNL A   1      33.342  29.095  27.005  1.00  0.00     0.116 C 
BRANCH  26  27
ATOM     27  N   UNL A   1      33.388  30.525  27.268  1.00  0.00    -0.352 N 
ATOM     28  C   UNL A   1      34.344  31.260  27.921  1.00  0.00     0.251 C 
ATOM     29  H   UNL A   1      32.622  31.041  26.927  1.00  0.00     0.163 HD
ATOM     30  O   UNL A   1      34.128  32.443  28.188  1.00  0.00    -0.269 OA
BRANCH  28  31
ATOM     31  C   UNL A   1      35.623  30.634  28.326  1.00  0.00     0.039 A 
ATOM     32  C   UNL A   1      36.799  31.026  27.680  1.00  0.00     0.014 A 
ATOM     33  C   UNL A   1      35.669  29.661  29.328  1.00  0.00     0.014 A 
ATOM     34  C   UNL A   1      38.023  30.483  28.076  1.00  0.00     0.010 A 
ATOM     35  C   UNL A   1      36.898  29.180  29.776  1.00  0.00     0.010 A 
ATOM     36  C   UNL A   1      38.089  29.580  29.151  1.00  0.00    -0.014 A 
BRANCH  36  37
ATOM     37  C   UNL A   1      39.398  29.073  29.639  1.00  0.00     0.031 A 
ATOM     38  C   UNL A   1      40.103  29.734  30.793  1.00  0.00     0.074 A 
ATOM     39  C   UNL A   1      39.988  28.044  28.998  1.00  0.00     0.049 A 
ATOM     40  N   UNL A   1      41.231  29.404  31.368  1.00  0.00    -0.248 NA
ATOM     41  C   UNL A   1      39.475  30.939  31.360  1.00  0.00     0.031 C 
ATOM     42  C   UNL A   1      39.451  27.369  27.813  1.00  0.00     0.029 A 
ATOM     43  N   UNL A   1      41.170  27.391  29.243  1.00  0.00    -0.354 N 
ATOM     44  C   UNL A   1      41.467  30.373  32.335  1.00  0.00     0.074 A 
ATOM     45  C   UNL A   1      40.380  31.324  32.247  1.00  0.00     0.031 C 
ATOM     46  C   UNL A   1      40.285  26.381  27.454  1.00  0.00     0.029 A 
ATOM     47  C   UNL A   1      41.429  26.369  28.360  1.00  0.00     0.049 A 
ATOM     48  H   UNL A   1      41.775  27.632  29.982  1.00  0.00     0.167 HD
ATOM     49  C   UNL A   1      42.480  30.455  33.231  1.00  0.00     0.034 A 
ATOM     50  C   UNL A   1      42.467  25.513  28.291  1.00  0.00     0.034 A 
ATOM     51  C   UNL A   1      43.543  29.489  33.336  1.00  0.00     0.049 A 
ATOM     52  C   UNL A   1      43.558  25.601  29.322  1.00  0.00     0.074 A 
ATOM     53  C   UNL A   1      44.555  29.422  34.278  1.00  0.00     0.029 A 
ATOM     54  N   UNL A   1      43.745  28.434  32.460  1.00  0.00    -0.354 N 
ATOM     55  N   UNL A   1      43.667  26.415  30.344  1.00  0.00    -0.248 NA
ATOM     56  C   UNL A   1      44.651  24.624  29.212  1.00  0.00     0.031 C 
ATOM     57  C   UNL A   1      45.394  28.352  33.945  1.00  0.00     0.029 A 
ATOM     58  C   UNL A   1      44.879  27.725  32.821  1.00  0.00     0.049 A 
ATOM     59  H   UNL A   1      43.167  28.219  31.693  1.00  0.00     0.167 HD
ATOM     60  C   UNL A   1      44.820  26.027  31.018  1.00  0.00     0.074 A 
ATOM     61  C   UNL A   1      45.357  24.887  30.302  1.00  0.00     0.031 C 
ATOM     62  C   UNL A   1      45.390  26.572  32.123  1.00  0.00     0.034 A 
BRANCH  49  63
ATOM     63  C   UNL A   1      42.474  31.617  34.192  1.00  0.00     0.023 A 
ATOM     64  C   UNL A   1      43.096  32.831  33.834  1.00  0.00     0.012 A 
ATOM     65  C   UNL A   1      41.814  31.523  35.434  1.00  0.00     0.148 A 
ATOM     66  C   UNL A   1      43.103  33.915  34.712  1.00  0.00     0.002 A 
ATOM     67  C   UNL A   1      41.781  32.624  36.283  1.00  0.00     0.091 A 
ATOM     68  F   UNL A   1      41.244  30.357  35.769  1.00  0.00    -0.205 F 
ATOM     69  C   UNL A   1      42.437  33.815  35.930  1.00  0.00     0.022 A 
BRANCH  67  70
ATOM     70  S   UNL A   1      40.877  32.622  37.835  1.00  0.00     0.127 S 
ATOM     71  O   UNL A   1      41.748  31.808  38.681  1.00  0.00    -0.237 OA
ATOM     72  O   UNL A   1      40.850  34.043  38.178  1.00  0.00    -0.237 OA
ATOM     73  O   UNL A   1      39.573  32.045  37.539  1.00  0.00    -0.744 OA
ENDBRANCH  67  70
ENDBRANCH  49  63
BRANCH  50  74
ATOM     74  C   UNL A   1      42.481  24.442  27.254  1.00  0.00     0.023 A 
ATOM     75  C   UNL A   1      43.314  24.587  26.127  1.00  0.00     0.012 A 
ATOM     76  C   UNL A   1      41.700  23.278  27.386  1.00  0.00     0.148 A 
ATOM     77  C   UNL A   1      43.347  23.606  25.134  1.00  0.00     0.002 A 
ATOM     78  C   UNL A   1      41.780  22.280  26.423  1.00  0.00     0.091 A 
ATOM     79  F   UNL A   1      40.909  23.164  28.462  1.00  0.00    -0.205 F 
ATOM     80  C   UNL A   1      42.587  22.449  25.287  1.00  0.00     0.022 A 
BRANCH  78  81
ATOM     81  S   UNL A   1      40.939  20.702  26.594  1.00  0.00     0.127 S 
ATOM     82  O   UNL A   1      39.609  21.014  26.076  1.00  0.00    -0.237 OA
ATOM     83  O   UNL A   1      41.748  19.837  25.736  1.00  0.00    -0.237 OA
ATOM     84  O   UNL A   1      41.000  20.373  28.012  1.00  0.00    -0.744 OA
ENDBRANCH  78  81
ENDBRANCH  50  74
BRANCH  62  85
ATOM     85  C   UNL A   1      46.647  25.924  32.646  1.00  0.00     0.023 A 
ATOM     86  C   UNL A   1      47.909  26.379  32.210  1.00  0.00     0.012 A 
ATOM     87  C   UNL A   1      46.581  24.887  33.597  1.00  0.00     0.148 A 
ATOM     88  C   UNL A   1      49.079  25.780  32.674  1.00  0.00     0.002 A 
ATOM     89  C   UNL A   1      47.753  24.332  34.097  1.00  0.00     0.091 A 
ATOM     90  F   UNL A   1      45.374  24.452  33.988  1.00  0.00    -0.205 F 
ATOM     91  C   UNL A   1      49.002  24.765  33.624  1.00  0.00     0.022 A 
BRANCH  89  92
ATOM     92  S   UNL A   1      47.750  23.091  35.396  1.00  0.00     0.127 S 
ATOM     93  O   UNL A   1      46.963  23.751  36.436  1.00  0.00    -0.237 OA
ATOM     94  O   UNL A   1      47.080  21.963  34.747  1.00  0.00    -0.237 OA
ATOM     95  O   UNL A   1      49.148  22.853  35.724  1.00  0.00    -0.744 OA
ENDBRANCH  89  92
ENDBRANCH  62  85
ENDBRANCH  36  37
ENDBRANCH  28  31
ENDBRANCH  26  27
ENDBRANCH  25  26
ENDBRANCH  24  25
ENDBRANCH   1  24
TORSDOF 19
ENDMDL
MODEL 2
REMARK VINA RESULT:     -11.2      1.521      1.874
REMARK SMILES O=C(/C=C/c1ccccc1Oc1cccc(Cl)c1)NCCCCCCNC(=O)c1ccc(-c2c3nc(c(-c4cccc(S(=O)(=O)[O-])c4F)c4ccc([nH]4)c(-c4cccc(S(=O)(=O)[O-])c4F)c4nc(c(-c5cccc(S(=O)(=O)[O-])c5F)c5ccc2[nH]5)C=C4)C=C3)cc1
REMARK SMILES IDX 22 1 21 2 20 3 19 4 1 5 2 6 3 8 4 9 5 10 6 11 10 12 7 13
REMARK SMILES IDX 9 14 8 15 11 16 12 17 13 18 18 19 14 20 16 21 15 22 17 23
REMARK SMILES IDX 23 24 24 25 25 26 26 27 27 28 28 30 29 31 30 32 91 33 31 34
REMARK SMILES IDX 90 35 32 36 33 37 34 38 84 39 35 40 89 41 83 42 85 43 36 44
REMARK SMILES IDX 88 45 82 46 81 47 37 49 69 50 49 51 68 52 50 53 53 54 67 55
REMARK SMILES IDX 86 56 51 57 52 58 66 60 87 61 54 62 38 63 39 64 47 65 40 66
REMARK SMILES IDX 42 67 48 68 41 69 43 70 44 71 45 72 46 73 70 74 71 75 79 76
REMARK SMILES IDX 72 77 74 78 80 79 73 80 75 81 76 82 77 83 78 84 55 85 56 86
REMARK SMILES IDX 64 87 57 88 59 89 65 90 58 91 60 92 61 93 62 94 63 95
REMARK H PARENT 19 7 26 29 85 48 53 59
REMARK Flexibility Score: inf
ROOT
ATOM      1  C   UNL A   1      33.107  28.256  22.904  1.00  0.00     0.002 C 
ENDROOT
BRANCH   1   2
ATOM      2  C   UNL A   1      33.402  26.844  23.428  1.00  0.00     0.021 C 
BRANCH   2   3
ATOM      3  C   UNL A   1      32.215  25.887  23.354  1.00  0.00     0.116 C 
BRANCH   3   4
ATOM      4  N   UNL A   1      32.651  24.511  23.244  1.00  0.00    -0.353 N 
ATOM      5  O   UNL A   1      30.552  23.582  23.137  1.00  0.00    -0.270 OA
ATOM      6  C   UNL A   1      31.773  23.463  23.181  1.00  0.00     0.244 C 
ATOM      7  H   UNL A   1      33.617  24.322  23.213  1.00  0.00     0.163 HD
BRANCH   6   8
ATOM      8  C   UNL A   1      32.377  22.109  23.093  1.00  0.00     0.072 C 
ATOM      9  C   UNL A   1      32.141  21.102  23.946  1.00  0.00     0.017 C 
BRANCH   9  10
ATOM     10  C   UNL A   1      32.837  19.812  23.878  1.00  0.00     0.017 A 
ATOM     11  C   UNL A   1      32.314  18.913  22.926  1.00  0.00     0.012 A 
ATOM     12  C   UNL A   1      33.926  19.400  24.673  1.00  0.00     0.134 A 
ATOM     13  C   UNL A   1      32.867  17.645  22.740  1.00  0.00     0.001 A 
ATOM     14  C   UNL A   1      34.476  18.121  24.463  1.00  0.00     0.048 A 
ATOM     15  C   UNL A   1      33.954  17.250  23.508  1.00  0.00     0.004 A 
BRANCH  12  16
ATOM     16  O   UNL A   1      34.624  20.094  25.643  1.00  0.00    -0.457 OA
BRANCH  16  17
ATOM     17  C   UNL A   1      35.234  21.291  25.382  1.00  0.00     0.128 A 
ATOM     18  C   UNL A   1      36.436  21.238  24.669  1.00  0.00     0.047 A 
ATOM     19  C   UNL A   1      34.741  22.511  25.843  1.00  0.00     0.067 A 
ATOM     20  C   UNL A   1      37.102  22.415  24.332  1.00  0.00     0.005 A 
ATOM     21  C   UNL A   1      35.405  23.684  25.489  1.00  0.00     0.044 A 
ATOM     22  C   UNL A   1      36.578  23.643  24.731  1.00  0.00     0.021 A 
ATOM     23  Cl  UNL A   1      34.735  25.206  25.934  1.00  0.00    -0.084 Cl
ENDBRANCH  16  17
ENDBRANCH  12  16
ENDBRANCH   9  10
ENDBRANCH   6   8
ENDBRANCH   3   4
ENDBRANCH   2   3
ENDBRANCH   1   2
BRANCH   1  24
ATOM     24  C   UNL A   1      32.901  29.326  23.981  1.00  0.00     0.002 C 
BRANCH  24  25
ATOM     25  C   UNL A   1      33.581  29.042  25.323  1.00  0.00     0.021 C 
BRANCH  25  26
ATOM     26  C   UNL A   1      32.783  29.459  26.556  1.00  0.00     0.116 C 
BRANCH  26  27
ATOM     27  N   UNL A   1      32.735  30.903  26.726  1.00  0.00    -0.352 N 
ATOM     28  C   UNL A   1      33.585  31.728  27.417  1.00  0.00     0.251 C 
ATOM     29  H   UNL A   1      31.982  31.355  26.281  1.00  0.00     0.163 HD
ATOM     30  O   UNL A   1      33.287  32.911  27.583  1.00  0.00    -0.269 OA
BRANCH  28  31
ATOM     31  C   UNL A   1      34.847  31.198  27.983  1.00  0.00     0.039 A 
ATOM     32  C   UNL A   1      35.946  32.054  28.094  1.00  0.00     0.014 A 
ATOM     33  C   UNL A   1      34.955  29.866  28.393  1.00  0.00     0.014 A 
ATOM     34  C   UNL A   1      37.132  31.590  28.667  1.00  0.00     0.010 A 
ATOM     35  C   UNL A   1      36.111  29.428  29.036  1.00  0.00     0.010 A 
ATOM     36  C   UNL A   1      37.216  30.282  29.173  1.00  0.00    -0.014 A 
BRANCH  36  37
ATOM     37  C   UNL A   1      38.443  29.813  29.870  1.00  0.00     0.031 A 
ATOM     38  C   UNL A   1      38.794  30.318  31.244  1.00  0.00     0.074 A 
ATOM     39  C   UNL A   1      39.281  28.970  29.234  1.00  0.00     0.049 A 
ATOM     40  N   UNL A   1      39.804  29.990  32.009  1.00  0.00    -0.248 NA
ATOM     41  C   UNL A   1      37.912  31.342  31.827  1.00  0.00     0.031 C 
ATOM     42  C   UNL A   1      39.102  28.473  27.867  1.00  0.00     0.029 A 
ATOM     43  N   UNL A   1      40.456  28.390  29.645  1.00  0.00    -0.354 N 
ATOM     44  C   UNL A   1      39.702  30.789  33.141  1.00  0.00     0.074 A 
ATOM     45  C   UNL A   1      38.549  31.641  32.949  1.00  0.00     0.031 C 
ATOM     46  C   UNL A   1      40.110  27.642  27.565  1.00  0.00     0.029 A 
ATOM     47  C   UNL A   1      41.025  27.569  28.701  1.00  0.00     0.049 A 
ATOM     48  H   UNL A   1      40.852  28.549  30.532  1.00  0.00     0.167 HD
ATOM     49  C   UNL A   1      40.481  30.798  34.250  1.00  0.00     0.034 A 
ATOM     50  C   UNL A   1      42.153  26.833  28.744  1.00  0.00     0.034 A 
ATOM     51  C   UNL A   1      41.608  29.926  34.451  1.00  0.00     0.049 A 
ATOM     52  C   UNL A   1      42.976  26.832  30.003  1.00  0.00     0.074 A 
ATOM     53  C   UNL A   1      42.395  29.782  35.581  1.00  0.00     0.029 A 
ATOM     54  N   UNL A   1      42.125  29.066  33.495  1.00  0.00    -0.354 N 
ATOM     55  N   UNL A   1      42.760  27.457  31.135  1.00  0.00    -0.248 NA
ATOM     56  C   UNL A   1      44.182  25.990  30.002  1.00  0.00     0.031 C 
ATOM     57  C   UNL A   1      43.413  28.866  35.292  1.00  0.00     0.029 A 
ATOM     58  C   UNL A   1      43.235  28.406  33.997  1.00  0.00     0.049 A 
ATOM     59  H   UNL A   1      41.758  28.942  32.590  1.00  0.00     0.167 HD
ATOM     60  C   UNL A   1      43.780  27.058  31.991  1.00  0.00     0.074 A 
ATOM     61  C   UNL A   1      44.598  26.116  31.254  1.00  0.00     0.031 C 
ATOM     62  C   UNL A   1      44.025  27.445  33.268  1.00  0.00     0.034 A 
BRANCH  49  63
ATOM     63  C   UNL A   1      40.121  31.766  35.350  1.00  0.00     0.023 A 
ATOM     64  C   UNL A   1      40.794  33.001  35.450  1.00  0.00     0.012 A 
ATOM     65  C   UNL A   1      39.087  31.471  36.261  1.00  0.00     0.148 A 
ATOM     66  C   UNL A   1      40.477  33.906  36.463  1.00  0.00     0.002 A 
ATOM     67  C   UNL A   1      38.742  32.399  37.237  1.00  0.00     0.091 A 
ATOM     68  F   UNL A   1      38.470  30.285  36.167  1.00  0.00    -0.205 F 
ATOM     69  C   UNL A   1      39.445  33.610  37.348  1.00  0.00     0.022 A 
BRANCH  67  70
ATOM     70  S   UNL A   1      37.371  32.148  38.370  1.00  0.00     0.127 S 
ATOM     71  O   UNL A   1      36.365  33.057  37.821  1.00  0.00    -0.237 OA
ATOM     72  O   UNL A   1      37.074  30.728  38.183  1.00  0.00    -0.237 OA
ATOM     73  O   UNL A   1      37.874  32.493  39.692  1.00  0.00    -0.744 OA
ENDBRANCH  67  70
ENDBRANCH  49  63
BRANCH  50  74
ATOM     74  C   UNL A   1      42.524  25.970  27.588  1.00  0.00     0.023 A 
ATOM     75  C   UNL A   1      43.366  26.489  26.585  1.00  0.00     0.012 A 
ATOM     76  C   UNL A   1      42.074  24.640  27.486  1.00  0.00     0.148 A 
ATOM     77  C   UNL A   1      43.728  25.709  25.485  1.00  0.00     0.002 A 
ATOM     78  C   UNL A   1      42.483  23.852  26.418  1.00  0.00     0.091 A 
ATOM     79  F   UNL A   1      41.268  24.169  28.448  1.00  0.00    -0.205 F 
ATOM     80  C   UNL A   1      43.295  24.389  25.407  1.00  0.00     0.022 A 
BRANCH  78  81
ATOM     81  S   UNL A   1      42.082  22.105  26.297  1.00  0.00     0.127 S 
ATOM     82  O   UNL A   1      40.623  22.138  26.220  1.00  0.00    -0.237 OA
ATOM     83  O   UNL A   1      42.757  21.729  25.054  1.00  0.00    -0.237 OA
ATOM     84  O   UNL A   1      42.636  21.487  27.494  1.00  0.00    -0.744 OA
ENDBRANCH  78  81
ENDBRANCH  50  74
BRANCH  62  85
ATOM     85  C   UNL A   1      45.212  26.828  33.964  1.00  0.00     0.023 A 
ATOM     86  C   UNL A   1      46.472  27.459  33.905  1.00  0.00     0.012 A 
ATOM     87  C   UNL A   1      45.073  25.639  34.708  1.00  0.00     0.148 A 
ATOM     88  C   UNL A   1      47.581  26.891  34.532  1.00  0.00     0.002 A 
ATOM     89  C   UNL A   1      46.170  25.110  35.376  1.00  0.00     0.091 A 
ATOM     90  F   UNL A   1      43.872  25.041  34.741  1.00  0.00    -0.205 F 
ATOM     91  C   UNL A   1      47.428  25.724  35.275  1.00  0.00     0.022 A 
BRANCH  89  92
ATOM     92  S   UNL A   1      46.043  23.666  36.439  1.00  0.00     0.127 S 
ATOM     93  O   UNL A   1      44.861  23.988  37.237  1.00  0.00    -0.237 OA
ATOM     94  O   UNL A   1      45.850  22.585  35.472  1.00  0.00    -0.237 OA
ATOM     95  O   UNL A   1      47.298  23.600  37.174  1.00  0.00    -0.744 OA
ENDBRANCH  89  92
ENDBRANCH  62  85
ENDBRANCH  36  37
ENDBRANCH  28  31
ENDBRANCH  26  27
ENDBRANCH  25  26
ENDBRANCH  24  25
ENDBRANCH   1  24
TORSDOF 19
ENDMDL
MODEL 3
REMARK VINA RESULT:     -11.0      2.179      3.421
REMARK SMILES O=C(/C=C/c1ccccc1Oc1cccc(Cl)c1)NCCCCCCNC(=O)c1ccc(-c2c3nc(c(-c4cccc(S(=O)(=O)[O-])c4F)c4ccc([nH]4)c(-c4cccc(S(=O)(=O)[O-])c4F)c4nc(c(-c5cccc(S(=O)(=O)[O-])c5F)c5ccc2[nH]5)C=C4)C=C3)cc1
REMARK SMILES IDX 22 1 21 2 20 3 19 4 1 5 2 6 3 8 4 9 5 10 6 11 10 12 7 13
REMARK SMILES IDX 9 14 8 15 11 16 12 17 13 18 18 19 14 20 16 21 15 22 17 23
REMARK SMILES IDX 23 24 24 25 25 26 26 27 27 28 28 30 29 31 30 32 91 33 31 34
REMARK SMILES IDX 90 35 32 36 33 37 34 38 84 39 35 40 89 41 83 42 85 43 36 44
REMARK SMILES IDX 88 45 82 46 81 47 37 49 69 50 49 51 68 52 50 53 53 54 67 55
REMARK SMILES IDX 86 56 51 57 52 58 66 60 87 61 54 62 38 63 39 64 47 65 40 66
REMARK SMILES IDX 42 67 48 68 41 69 43 70 44 71 45 72 46 73 70 74 71 75 79 76
REMARK SMILES IDX 72 77 74 78 80 79 73 80 75 81 76 82 77 83 78 84 55 85 56 86
REMARK SMILES IDX 64 87 57 88 59 89 65 90 58 91 60 92 61 93 62 94 63 95
REMARK H PARENT 19 7 26 29 85 48 53 59
REMARK Flexibility Score: inf
ROOT
ATOM      1  C   UNL A   1      30.575  26.357  25.674  1.00  0.00     0.002 C 
ENDROOT
BRANCH   1   2
ATOM      2  C   UNL A   1      29.832  26.654  24.364  1.00  0.00     0.021 C 
BRANCH   2   3
ATOM      3  C   UNL A   1      30.028  25.598  23.278  1.00  0.00     0.116 C 
BRANCH   3   4
ATOM      4  N   UNL A   1      31.184  24.769  23.550  1.00  0.00    -0.353 N 
ATOM      5  O   UNL A   1      32.617  25.845  22.111  1.00  0.00    -0.270 OA
ATOM      6  C   UNL A   1      32.381  24.944  22.909  1.00  0.00     0.244 C 
ATOM      7  H   UNL A   1      31.107  24.053  24.221  1.00  0.00     0.163 HD
BRANCH   6   8
ATOM      8  C   UNL A   1      33.464  23.998  23.281  1.00  0.00     0.072 C 
ATOM      9  C   UNL A   1      34.032  23.915  24.493  1.00  0.00     0.017 C 
BRANCH   9  10
ATOM     10  C   UNL A   1      35.168  23.032  24.788  1.00  0.00     0.017 A 
ATOM     11  C   UNL A   1      36.433  23.628  24.613  1.00  0.00     0.012 A 
ATOM     12  C   UNL A   1      35.103  21.682  25.186  1.00  0.00     0.134 A 
ATOM     13  C   UNL A   1      37.612  22.919  24.854  1.00  0.00     0.001 A 
ATOM     14  C   UNL A   1      36.302  20.987  25.434  1.00  0.00     0.048 A 
ATOM     15  C   UNL A   1      37.546  21.596  25.270  1.00  0.00     0.004 A 
BRANCH  12  16
ATOM     16  O   UNL A   1      34.001  20.889  25.446  1.00  0.00    -0.457 OA
BRANCH  16  17
ATOM     17  C   UNL A   1      33.556  19.950  24.556  1.00  0.00     0.128 A 
ATOM     18  C   UNL A   1      32.625  20.382  23.606  1.00  0.00     0.047 A 
ATOM     19  C   UNL A   1      33.942  18.612  24.608  1.00  0.00     0.067 A 
ATOM     20  C   UNL A   1      32.148  19.496  22.642  1.00  0.00     0.005 A 
ATOM     21  C   UNL A   1      33.472  17.736  23.630  1.00  0.00     0.044 A 
ATOM     22  C   UNL A   1      32.584  18.172  22.644  1.00  0.00     0.021 A 
ATOM     23  Cl  UNL A   1      34.047  16.114  23.597  1.00  0.00    -0.084 Cl
ENDBRANCH  16  17
ENDBRANCH  12  16
ENDBRANCH   9  10
ENDBRANCH   6   8
ENDBRANCH   3   4
ENDBRANCH   2   3
ENDBRANCH   1   2
BRANCH   1  24
ATOM     24  C   UNL A   1      31.534  27.454  26.147  1.00  0.00     0.002 C 
BRANCH  24  25
ATOM     25  C   UNL A   1      32.088  28.359  25.045  1.00  0.00     0.021 C 
BRANCH  25  26
ATOM     26  C   UNL A   1      33.193  29.316  25.484  1.00  0.00     0.116 C 
BRANCH  26  27
ATOM     27  N   UNL A   1      32.681  30.628  25.850  1.00  0.00    -0.352 N 
ATOM     28  C   UNL A   1      33.057  31.454  26.878  1.00  0.00     0.251 C 
ATOM     29  H   UNL A   1      31.959  30.973  25.276  1.00  0.00     0.163 HD
ATOM     30  O   UNL A   1      32.393  32.460  27.126  1.00  0.00    -0.269 OA
BRANCH  28  31
ATOM     31  C   UNL A   1      34.243  31.130  27.703  1.00  0.00     0.039 A 
ATOM     32  C   UNL A   1      34.345  29.854  28.263  1.00  0.00     0.014 A 
ATOM     33  C   UNL A   1      35.246  32.076  27.934  1.00  0.00     0.014 A 
ATOM     34  C   UNL A   1      35.476  29.511  29.006  1.00  0.00     0.010 A 
ATOM     35  C   UNL A   1      36.409  31.707  28.608  1.00  0.00     0.010 A 
ATOM     36  C   UNL A   1      36.535  30.423  29.158  1.00  0.00    -0.014 A 
BRANCH  36  37
ATOM     37  C   UNL A   1      37.782  30.030  29.866  1.00  0.00     0.031 A 
ATOM     38  C   UNL A   1      38.074  30.528  31.256  1.00  0.00     0.074 A 
ATOM     39  C   UNL A   1      38.689  29.264  29.227  1.00  0.00     0.049 A 
ATOM     40  N   UNL A   1      39.093  30.258  32.031  1.00  0.00    -0.248 NA
ATOM     41  C   UNL A   1      37.110  31.473  31.844  1.00  0.00     0.031 C 
ATOM     42  C   UNL A   1      38.567  28.785  27.847  1.00  0.00     0.029 A 
ATOM     43  N   UNL A   1      39.896  28.762  29.646  1.00  0.00    -0.354 N 
ATOM     44  C   UNL A   1      38.916  31.022  33.177  1.00  0.00     0.074 A 
ATOM     45  C   UNL A   1      37.707  31.793  32.984  1.00  0.00     0.031 C 
ATOM     46  C   UNL A   1      39.638  28.035  27.546  1.00  0.00     0.029 A 
ATOM     47  C   UNL A   1      40.538  28.004  28.695  1.00  0.00     0.049 A 
ATOM     48  H   UNL A   1      40.266  28.929  30.543  1.00  0.00     0.167 HD
ATOM     49  C   UNL A   1      39.674  31.064  34.300  1.00  0.00     0.034 A 
ATOM     50  C   UNL A   1      41.716  27.352  28.742  1.00  0.00     0.034 A 
ATOM     51  C   UNL A   1      40.859  30.272  34.501  1.00  0.00     0.049 A 
ATOM     52  C   UNL A   1      42.518  27.383  30.015  1.00  0.00     0.074 A 
ATOM     53  C   UNL A   1      41.636  30.161  35.641  1.00  0.00     0.029 A 
ATOM     54  N   UNL A   1      41.452  29.472  33.537  1.00  0.00    -0.354 N 
ATOM     55  N   UNL A   1      42.239  27.966  31.155  1.00  0.00    -0.248 NA
ATOM     56  C   UNL A   1      43.781  26.631  30.017  1.00  0.00     0.031 C 
ATOM     57  C   UNL A   1      42.723  29.327  35.351  1.00  0.00     0.029 A 
ATOM     58  C   UNL A   1      42.599  28.885  34.044  1.00  0.00     0.049 A 
ATOM     59  H   UNL A   1      41.109  29.342  32.623  1.00  0.00     0.167 HD
ATOM     60  C   UNL A   1      43.272  27.623  32.020  1.00  0.00     0.074 A 
ATOM     61  C   UNL A   1      44.168  26.759  31.278  1.00  0.00     0.031 C 
ATOM     62  C   UNL A   1      43.469  27.999  33.309  1.00  0.00     0.034 A 
BRANCH  49  63
ATOM     63  C   UNL A   1      39.228  31.979  35.413  1.00  0.00     0.023 A 
ATOM     64  C   UNL A   1      38.296  31.525  36.368  1.00  0.00     0.012 A 
ATOM     65  C   UNL A   1      39.764  33.277  35.539  1.00  0.00     0.148 A 
ATOM     66  C   UNL A   1      37.870  32.358  37.401  1.00  0.00     0.002 A 
ATOM     67  C   UNL A   1      39.373  34.084  36.601  1.00  0.00     0.091 A 
ATOM     68  F   UNL A   1      40.635  33.703  34.612  1.00  0.00    -0.205 F 
ATOM     69  C   UNL A   1      38.416  33.632  37.524  1.00  0.00     0.022 A 
BRANCH  67  70
ATOM     70  S   UNL A   1      40.083  35.708  36.894  1.00  0.00     0.127 S 
ATOM     71  O   UNL A   1      39.652  36.436  35.700  1.00  0.00    -0.237 OA
ATOM     72  O   UNL A   1      39.416  36.118  38.130  1.00  0.00    -0.237 OA
ATOM     73  O   UNL A   1      41.519  35.503  37.019  1.00  0.00    -0.744 OA
ENDBRANCH  67  70
ENDBRANCH  49  63
BRANCH  50  74
ATOM     74  C   UNL A   1      42.167  26.543  27.575  1.00  0.00     0.023 A 
ATOM     75  C   UNL A   1      42.913  27.165  26.555  1.00  0.00     0.012 A 
ATOM     76  C   UNL A   1      41.886  25.167  27.479  1.00  0.00     0.148 A 
ATOM     77  C   UNL A   1      43.346  26.438  25.444  1.00  0.00     0.002 A 
ATOM     78  C   UNL A   1      42.368  24.437  26.399  1.00  0.00     0.091 A 
ATOM     79  F   UNL A   1      41.168  24.597  28.457  1.00  0.00    -0.205 F 
ATOM     80  C   UNL A   1      43.082  25.074  25.371  1.00  0.00     0.022 A 
BRANCH  78  81
ATOM     81  S   UNL A   1      42.188  22.654  26.281  1.00  0.00     0.127 S 
ATOM     82  O   UNL A   1      42.882  22.203  27.486  1.00  0.00    -0.237 OA
ATOM     83  O   UNL A   1      40.734  22.497  26.312  1.00  0.00    -0.237 OA
ATOM     84  O   UNL A   1      42.809  22.276  25.019  1.00  0.00    -0.744 OA
ENDBRANCH  78  81
ENDBRANCH  50  74
BRANCH  62  85
ATOM     85  C   UNL A   1      44.686  27.455  34.012  1.00  0.00     0.023 A 
ATOM     86  C   UNL A   1      45.883  28.200  34.031  1.00  0.00     0.012 A 
ATOM     87  C   UNL A   1      44.636  26.219  34.687  1.00  0.00     0.148 A 
ATOM     88  C   UNL A   1      47.021  27.702  34.664  1.00  0.00     0.002 A 
ATOM     89  C   UNL A   1      45.757  25.755  35.364  1.00  0.00     0.091 A 
ATOM     90  F   UNL A   1      43.496  25.513  34.646  1.00  0.00    -0.205 F 
ATOM     91  C   UNL A   1      46.955  26.486  35.339  1.00  0.00     0.022 A 
BRANCH  89  92
ATOM     92  S   UNL A   1      45.733  24.249  36.344  1.00  0.00     0.127 S 
ATOM     93  O   UNL A   1      44.444  24.358  37.025  1.00  0.00    -0.237 OA
ATOM     94  O   UNL A   1      45.794  23.209  35.316  1.00  0.00    -0.237 OA
ATOM     95  O   UNL A   1      46.905  24.314  37.205  1.00  0.00    -0.744 OA
ENDBRANCH  89  92
ENDBRANCH  62  85
ENDBRANCH  36  37
ENDBRANCH  28  31
ENDBRANCH  26  27
ENDBRANCH  25  26
ENDBRANCH  24  25
ENDBRANCH   1  24
TORSDOF 19
ENDMDL
