MODEL 1
REMARK VINA RESULT:     -11.6      0.000      0.000
REMARK SMILES Cc1cc(C(F)(F)CC(C)(C)CC(=O)NCCCCCCNC(=O)c2ccc(-c3c4nc(c(-c5cccc(S(=O)(=O)[O-])c5F)c5ccc([nH]5)c(-c5cccc(S(=O)(=O)[O-])c5F)c5nc(c(-c6cccc(S(=O)(=O)[O-])c6F)c6ccc3[nH]6)C=C5)C=C4)cc2)sc1Br
REMARK SMILES IDX 18 1 17 2 16 3 15 4 13 5 14 6 12 8 9 9 10 10 11 11 8 12 5 13
REMARK SMILES IDX 6 14 7 15 4 16 1 17 2 18 3 19 89 20 88 21 90 22 19 23 20 24
REMARK SMILES IDX 21 25 22 26 23 27 24 29 25 30 26 31 87 32 27 33 86 34 28 35
REMARK SMILES IDX 29 36 30 37 80 38 31 39 85 40 79 41 81 42 32 43 84 44 78 45
REMARK SMILES IDX 77 46 33 48 65 49 45 50 64 51 46 52 49 53 63 54 82 55 47 56
REMARK SMILES IDX 48 57 62 59 83 60 50 61 34 62 35 63 43 64 36 65 38 66 44 67
REMARK SMILES IDX 37 68 39 69 40 70 41 71 42 72 66 73 67 74 75 75 68 76 70 77
REMARK SMILES IDX 76 78 69 79 71 80 72 81 73 82 74 83 51 84 52 85 60 86 53 87
REMARK SMILES IDX 55 88 61 89 54 90 56 91 57 92 58 93 59 94
REMARK H PARENT 15 7 22 28 81 47 49 58
REMARK Flexibility Score: inf
ROOT
ATOM      1  C   UNL A   1      34.779  20.487  24.722  1.00  0.00     0.002 C 
ENDROOT
BRANCH   1   2
ATOM      2  C   UNL A   1      33.665  20.487  25.766  1.00  0.00     0.021 C 
BRANCH   2   3
ATOM      3  C   UNL A   1      32.369  21.143  25.290  1.00  0.00     0.116 C 
BRANCH   3   4
ATOM      4  N   UNL A   1      31.870  22.053  26.294  1.00  0.00    -0.356 N 
ATOM      5  C   UNL A   1      31.844  23.412  26.287  1.00  0.00     0.220 C 
ATOM      6  O   UNL A   1      31.447  23.989  27.300  1.00  0.00    -0.275 OA
ATOM      7  H   UNL A   1      31.495  21.628  27.099  1.00  0.00     0.163 HD
BRANCH   5   8
ATOM      8  C   UNL A   1      32.212  24.180  25.030  1.00  0.00     0.106 C 
BRANCH   8   9
ATOM      9  C   UNL A   1      33.448  25.123  25.034  1.00  0.00    -0.021 C 
ATOM     10  C   UNL A   1      34.647  24.188  25.311  1.00  0.00     0.012 C 
ATOM     11  C   UNL A   1      33.468  26.122  26.208  1.00  0.00     0.012 C 
BRANCH   9  12
ATOM     12  C   UNL A   1      33.537  25.997  23.734  1.00  0.00     0.090 C 
BRANCH  12  13
ATOM     13  C   UNL A   1      32.265  26.339  22.947  1.00  0.00     0.282 C 
ATOM     14  F   UNL A   1      31.493  25.217  22.880  1.00  0.00    -0.200 F 
ATOM     15  F   UNL A   1      32.623  26.613  21.660  1.00  0.00    -0.200 F 
BRANCH  13  16
ATOM     16  C   UNL A   1      31.470  27.467  23.539  1.00  0.00     0.075 A 
ATOM     17  C   UNL A   1      31.449  30.568  25.605  1.00  0.00     0.046 C 
ATOM     18  C   UNL A   1      31.041  29.455  24.696  1.00  0.00    -0.025 A 
ATOM     19  C   UNL A   1      31.696  28.178  24.707  1.00  0.00     0.026 A 
ATOM     20  C   UNL A   1      30.086  29.477  23.703  1.00  0.00     0.073 A 
ATOM     21  S   UNL A   1      30.101  28.094  22.719  1.00  0.00    -0.127 S 
ATOM     22  Br  UNL A   1      28.912  30.903  23.367  1.00  0.00    -0.039 Br
ENDBRANCH  13  16
ENDBRANCH  12  13
ENDBRANCH   9  12
ENDBRANCH   8   9
ENDBRANCH   5   8
ENDBRANCH   3   4
ENDBRANCH   2   3
ENDBRANCH   1   2
BRANCH   1  23
ATOM     23  C   UNL A   1      36.151  20.931  25.242  1.00  0.00     0.002 C 
BRANCH  23  24
ATOM     24  C   UNL A   1      37.311  19.967  24.957  1.00  0.00     0.021 C 
BRANCH  24  25
ATOM     25  C   UNL A   1      38.648  20.455  25.497  1.00  0.00     0.116 C 
BRANCH  25  26
ATOM     26  N   UNL A   1      39.601  19.357  25.623  1.00  0.00    -0.352 N 
ATOM     27  C   UNL A   1      40.939  19.419  25.943  1.00  0.00     0.251 C 
ATOM     28  H   UNL A   1      39.240  18.456  25.458  1.00  0.00     0.163 HD
ATOM     29  O   UNL A   1      41.686  18.491  25.690  1.00  0.00    -0.269 OA
BRANCH  27  30
ATOM     30  C   UNL A   1      41.448  20.637  26.596  1.00  0.00     0.039 A 
ATOM     31  C   UNL A   1      42.024  21.650  25.830  1.00  0.00     0.014 A 
ATOM     32  C   UNL A   1      41.311  20.764  27.979  1.00  0.00     0.014 A 
ATOM     33  C   UNL A   1      42.395  22.835  26.456  1.00  0.00     0.010 A 
ATOM     34  C   UNL A   1      41.583  21.973  28.580  1.00  0.00     0.010 A 
ATOM     35  C   UNL A   1      42.149  23.001  27.828  1.00  0.00    -0.014 A 
BRANCH  35  36
ATOM     36  C   UNL A   1      42.298  24.327  28.431  1.00  0.00     0.031 A 
ATOM     37  C   UNL A   1      41.146  25.232  28.153  1.00  0.00     0.074 A 
ATOM     38  C   UNL A   1      43.251  24.631  29.340  1.00  0.00     0.049 A 
ATOM     39  N   UNL A   1      41.139  26.308  27.437  1.00  0.00    -0.248 NA
ATOM     40  C   UNL A   1      39.804  24.799  28.583  1.00  0.00     0.031 C 
ATOM     41  C   UNL A   1      44.219  23.699  29.934  1.00  0.00     0.029 A 
ATOM     42  N   UNL A   1      43.464  25.779  30.051  1.00  0.00    -0.354 N 
ATOM     43  C   UNL A   1      39.856  26.836  27.588  1.00  0.00     0.074 A 
ATOM     44  C   UNL A   1      39.033  25.764  28.074  1.00  0.00     0.031 C 
ATOM     45  C   UNL A   1      44.704  24.223  31.078  1.00  0.00     0.029 A 
ATOM     46  C   UNL A   1      44.232  25.589  31.198  1.00  0.00     0.049 A 
ATOM     47  H   UNL A   1      43.109  26.656  29.778  1.00  0.00     0.167 HD
ATOM     48  C   UNL A   1      39.671  28.184  27.653  1.00  0.00     0.034 A 
ATOM     49  C   UNL A   1      44.452  26.472  32.201  1.00  0.00     0.034 A 
ATOM     50  C   UNL A   1      40.856  28.882  27.227  1.00  0.00     0.049 A 
ATOM     51  C   UNL A   1      44.197  27.825  31.672  1.00  0.00     0.074 A 
ATOM     52  C   UNL A   1      41.508  29.158  26.048  1.00  0.00     0.029 A 
ATOM     53  N   UNL A   1      41.736  29.102  28.251  1.00  0.00    -0.354 N 
ATOM     54  N   UNL A   1      44.934  28.381  30.751  1.00  0.00    -0.248 NA
ATOM     55  C   UNL A   1      42.920  28.477  31.937  1.00  0.00     0.031 C 
ATOM     56  C   UNL A   1      42.866  29.423  26.401  1.00  0.00     0.029 A 
ATOM     57  C   UNL A   1      42.996  29.338  27.786  1.00  0.00     0.049 A 
ATOM     58  H   UNL A   1      41.489  29.090  29.204  1.00  0.00     0.167 HD
ATOM     59  C   UNL A   1      44.032  29.132  30.024  1.00  0.00     0.074 A 
ATOM     60  C   UNL A   1      42.884  29.317  30.901  1.00  0.00     0.031 C 
ATOM     61  C   UNL A   1      44.136  29.224  28.670  1.00  0.00     0.034 A 
BRANCH  48  62
ATOM     62  C   UNL A   1      38.687  28.899  28.571  1.00  0.00     0.023 A 
ATOM     63  C   UNL A   1      37.942  29.960  28.002  1.00  0.00     0.012 A 
ATOM     64  C   UNL A   1      38.689  28.817  29.983  1.00  0.00     0.148 A 
ATOM     65  C   UNL A   1      37.286  30.912  28.792  1.00  0.00     0.002 A 
ATOM     66  C   UNL A   1      37.975  29.723  30.762  1.00  0.00     0.091 A 
ATOM     67  F   UNL A   1      39.490  27.951  30.605  1.00  0.00    -0.205 F 
ATOM     68  C   UNL A   1      37.297  30.792  30.174  1.00  0.00     0.022 A 
BRANCH  66  69
ATOM     69  S   UNL A   1      37.937  29.593  32.556  1.00  0.00     0.127 S 
ATOM     70  O   UNL A   1      39.330  29.858  32.898  1.00  0.00    -0.237 OA
ATOM     71  O   UNL A   1      36.995  30.654  32.910  1.00  0.00    -0.237 OA
ATOM     72  O   UNL A   1      37.453  28.247  32.843  1.00  0.00    -0.744 OA
ENDBRANCH  66  69
ENDBRANCH  48  62
BRANCH  49  73
ATOM     73  C   UNL A   1      44.742  26.246  33.633  1.00  0.00     0.023 A 
ATOM     74  C   UNL A   1      46.063  26.376  34.108  1.00  0.00     0.012 A 
ATOM     75  C   UNL A   1      43.693  26.188  34.575  1.00  0.00     0.148 A 
ATOM     76  C   UNL A   1      46.327  26.491  35.476  1.00  0.00     0.002 A 
ATOM     77  C   UNL A   1      43.960  26.306  35.936  1.00  0.00     0.091 A 
ATOM     78  F   UNL A   1      42.433  26.105  34.128  1.00  0.00    -0.205 F 
ATOM     79  C   UNL A   1      45.276  26.470  36.389  1.00  0.00     0.022 A 
BRANCH  77  80
ATOM     80  S   UNL A   1      42.658  26.329  37.177  1.00  0.00     0.127 S 
ATOM     81  O   UNL A   1      43.428  26.443  38.416  1.00  0.00    -0.237 OA
ATOM     82  O   UNL A   1      41.910  27.528  36.809  1.00  0.00    -0.237 OA
ATOM     83  O   UNL A   1      41.936  25.072  37.027  1.00  0.00    -0.744 OA
ENDBRANCH  77  80
ENDBRANCH  49  73
BRANCH  61  84
ATOM     84  C   UNL A   1      45.484  29.022  28.052  1.00  0.00     0.023 A 
ATOM     85  C   UNL A   1      46.495  30.002  28.059  1.00  0.00     0.012 A 
ATOM     86  C   UNL A   1      45.764  27.748  27.533  1.00  0.00     0.148 A 
ATOM     87  C   UNL A   1      47.761  29.712  27.540  1.00  0.00     0.002 A 
ATOM     88  C   UNL A   1      47.033  27.450  27.064  1.00  0.00     0.091 A 
ATOM     89  F   UNL A   1      44.777  26.838  27.523  1.00  0.00    -0.205 F 
ATOM     90  C   UNL A   1      48.034  28.432  27.057  1.00  0.00     0.022 A 
BRANCH  88  91
ATOM     91  S   UNL A   1      47.462  25.789  26.545  1.00  0.00     0.127 S 
ATOM     92  O   UNL A   1      47.079  24.996  27.711  1.00  0.00    -0.237 OA
ATOM     93  O   UNL A   1      46.612  25.599  25.368  1.00  0.00    -0.237 OA
ATOM     94  O   UNL A   1      48.889  25.819  26.247  1.00  0.00    -0.744 OA
ENDBRANCH  88  91
ENDBRANCH  61  84
ENDBRANCH  35  36
ENDBRANCH  27  30
ENDBRANCH  25  26
ENDBRANCH  24  25
ENDBRANCH  23  24
ENDBRANCH   1  23
TORSDOF 20
ENDMDL
MODEL 2
REMARK VINA RESULT:     -11.0      1.831      2.329
REMARK SMILES Cc1cc(C(F)(F)CC(C)(C)CC(=O)NCCCCCCNC(=O)c2ccc(-c3c4nc(c(-c5cccc(S(=O)(=O)[O-])c5F)c5ccc([nH]5)c(-c5cccc(S(=O)(=O)[O-])c5F)c5nc(c(-c6cccc(S(=O)(=O)[O-])c6F)c6ccc3[nH]6)C=C5)C=C4)cc2)sc1Br
REMARK SMILES IDX 18 1 17 2 16 3 15 4 13 5 14 6 12 8 9 9 10 10 11 11 8 12 5 13
REMARK SMILES IDX 6 14 7 15 4 16 1 17 2 18 3 19 89 20 88 21 90 22 19 23 20 24
REMARK SMILES IDX 21 25 22 26 23 27 24 29 25 30 26 31 87 32 27 33 86 34 28 35
REMARK SMILES IDX 29 36 30 37 80 38 31 39 85 40 79 41 81 42 32 43 84 44 78 45
REMARK SMILES IDX 77 46 33 48 65 49 45 50 64 51 46 52 49 53 63 54 82 55 47 56
REMARK SMILES IDX 48 57 62 59 83 60 50 61 34 62 35 63 43 64 36 65 38 66 44 67
REMARK SMILES IDX 37 68 39 69 40 70 41 71 42 72 66 73 67 74 75 75 68 76 70 77
REMARK SMILES IDX 76 78 69 79 71 80 72 81 73 82 74 83 51 84 52 85 60 86 53 87
REMARK SMILES IDX 55 88 61 89 54 90 56 91 57 92 58 93 59 94
REMARK H PARENT 15 7 22 28 81 47 49 58
REMARK Flexibility Score: inf
ROOT
ATOM      1  C   UNL A   1      36.661  21.688  24.345  1.00  0.00     0.002 C 
ENDROOT
BRANCH   1   2
ATOM      2  C   UNL A   1      37.143  23.074  24.769  1.00  0.00     0.021 C 
BRANCH   2   3
ATOM      3  C   UNL A   1      36.196  23.792  25.729  1.00  0.00     0.116 C 
BRANCH   3   4
ATOM      4  N   UNL A   1      35.613  22.850  26.656  1.00  0.00    -0.356 N 
ATOM      5  C   UNL A   1      34.324  22.741  27.075  1.00  0.00     0.220 C 
ATOM      6  O   UNL A   1      34.068  21.907  27.946  1.00  0.00    -0.275 OA
ATOM      7  H   UNL A   1      36.238  22.193  27.038  1.00  0.00     0.163 HD
BRANCH   5   8
ATOM      8  C   UNL A   1      33.231  23.563  26.419  1.00  0.00     0.106 C 
BRANCH   8   9
ATOM      9  C   UNL A   1      32.444  22.980  25.211  1.00  0.00    -0.021 C 
ATOM     10  C   UNL A   1      31.004  22.795  25.741  1.00  0.00     0.012 C 
ATOM     11  C   UNL A   1      32.883  21.558  24.808  1.00  0.00     0.012 C 
BRANCH   9  12
ATOM     12  C   UNL A   1      32.600  23.854  23.918  1.00  0.00     0.090 C 
BRANCH  12  13
ATOM     13  C   UNL A   1      31.645  25.027  23.662  1.00  0.00     0.282 C 
ATOM     14  F   UNL A   1      30.370  24.593  23.874  1.00  0.00    -0.200 F 
ATOM     15  F   UNL A   1      31.706  25.342  22.336  1.00  0.00    -0.200 F 
BRANCH  13  16
ATOM     16  C   UNL A   1      31.920  26.231  24.517  1.00  0.00     0.075 A 
ATOM     17  C   UNL A   1      31.362  27.997  27.750  1.00  0.00     0.046 C 
ATOM     18  C   UNL A   1      31.882  27.616  26.404  1.00  0.00    -0.025 A 
ATOM     19  C   UNL A   1      31.120  26.817  25.486  1.00  0.00     0.026 A 
ATOM     20  C   UNL A   1      33.125  27.874  25.869  1.00  0.00     0.073 A 
ATOM     21  S   UNL A   1      33.423  27.048  24.416  1.00  0.00    -0.127 S 
ATOM     22  Br  UNL A   1      34.437  28.957  26.665  1.00  0.00    -0.039 Br
ENDBRANCH  13  16
ENDBRANCH  12  13
ENDBRANCH   9  12
ENDBRANCH   8   9
ENDBRANCH   5   8
ENDBRANCH   3   4
ENDBRANCH   2   3
ENDBRANCH   1   2
BRANCH   1  23
ATOM     23  C   UNL A   1      37.572  20.531  24.768  1.00  0.00     0.002 C 
BRANCH  23  24
ATOM     24  C   UNL A   1      38.931  20.938  25.355  1.00  0.00     0.021 C 
BRANCH  24  25
ATOM     25  C   UNL A   1      39.462  19.954  26.388  1.00  0.00     0.116 C 
BRANCH  25  26
ATOM     26  N   UNL A   1      40.647  19.259  25.898  1.00  0.00    -0.352 N 
ATOM     27  C   UNL A   1      41.926  19.748  25.750  1.00  0.00     0.251 C 
ATOM     28  H   UNL A   1      40.515  18.318  25.639  1.00  0.00     0.163 HD
ATOM     29  O   UNL A   1      42.731  19.187  25.029  1.00  0.00    -0.269 OA
BRANCH  27  30
ATOM     30  C   UNL A   1      42.297  20.971  26.482  1.00  0.00     0.039 A 
ATOM     31  C   UNL A   1      42.769  22.084  25.786  1.00  0.00     0.014 A 
ATOM     32  C   UNL A   1      42.135  20.999  27.868  1.00  0.00     0.014 A 
ATOM     33  C   UNL A   1      43.007  23.261  26.487  1.00  0.00     0.010 A 
ATOM     34  C   UNL A   1      42.273  22.191  28.544  1.00  0.00     0.010 A 
ATOM     35  C   UNL A   1      42.733  23.317  27.863  1.00  0.00    -0.014 A 
BRANCH  35  36
ATOM     36  C   UNL A   1      42.735  24.612  28.546  1.00  0.00     0.031 A 
ATOM     37  C   UNL A   1      41.573  25.472  28.180  1.00  0.00     0.074 A 
ATOM     38  C   UNL A   1      43.558  24.912  29.576  1.00  0.00     0.049 A 
ATOM     39  N   UNL A   1      41.587  26.585  27.524  1.00  0.00    -0.248 NA
ATOM     40  C   UNL A   1      40.218  24.947  28.427  1.00  0.00     0.031 C 
ATOM     41  C   UNL A   1      44.504  23.998  30.231  1.00  0.00     0.029 A 
ATOM     42  N   UNL A   1      43.622  26.027  30.363  1.00  0.00    -0.354 N 
ATOM     43  C   UNL A   1      40.267  27.037  27.549  1.00  0.00     0.074 A 
ATOM     44  C   UNL A   1      39.457  25.899  27.880  1.00  0.00     0.031 C 
ATOM     45  C   UNL A   1      44.823  24.479  31.450  1.00  0.00     0.029 A 
ATOM     46  C   UNL A   1      44.263  25.810  31.582  1.00  0.00     0.049 A 
ATOM     47  H   UNL A   1      43.251  26.899  30.096  1.00  0.00     0.167 HD
ATOM     48  C   UNL A   1      39.999  28.368  27.660  1.00  0.00     0.034 A 
ATOM     49  C   UNL A   1      44.314  26.645  32.647  1.00  0.00     0.034 A 
ATOM     50  C   UNL A   1      41.183  29.149  27.413  1.00  0.00     0.049 A 
ATOM     51  C   UNL A   1      44.045  28.011  32.162  1.00  0.00     0.074 A 
ATOM     52  C   UNL A   1      41.950  29.524  26.335  1.00  0.00     0.029 A 
ATOM     53  N   UNL A   1      41.925  29.354  28.544  1.00  0.00    -0.354 N 
ATOM     54  N   UNL A   1      44.851  28.656  31.364  1.00  0.00    -0.248 NA
ATOM     55  C   UNL A   1      42.711  28.581  32.307  1.00  0.00     0.031 C 
ATOM     56  C   UNL A   1      43.240  29.838  26.859  1.00  0.00     0.029 A 
ATOM     57  C   UNL A   1      43.215  29.681  28.243  1.00  0.00     0.049 A 
ATOM     58  H   UNL A   1      41.572  29.276  29.459  1.00  0.00     0.167 HD
ATOM     59  C   UNL A   1      43.996  29.401  30.575  1.00  0.00     0.074 A 
ATOM     60  C   UNL A   1      42.747  29.476  31.318  1.00  0.00     0.031 C 
ATOM     61  C   UNL A   1      44.250  29.575  29.248  1.00  0.00     0.034 A 
BRANCH  48  62
ATOM     62  C   UNL A   1      38.877  28.978  28.491  1.00  0.00     0.023 A 
ATOM     63  C   UNL A   1      38.023  29.896  27.831  1.00  0.00     0.012 A 
ATOM     64  C   UNL A   1      38.813  28.963  29.903  1.00  0.00     0.148 A 
ATOM     65  C   UNL A   1      37.199  30.781  28.537  1.00  0.00     0.002 A 
ATOM     66  C   UNL A   1      37.939  29.794  30.599  1.00  0.00     0.091 A 
ATOM     67  F   UNL A   1      39.692  28.249  30.608  1.00  0.00    -0.205 F 
ATOM     68  C   UNL A   1      37.152  30.728  29.922  1.00  0.00     0.022 A 
BRANCH  66  69
ATOM     69  S   UNL A   1      37.821  29.744  32.393  1.00  0.00     0.127 S 
ATOM     70  O   UNL A   1      36.932  30.869  32.659  1.00  0.00    -0.237 OA
ATOM     71  O   UNL A   1      37.236  28.421  32.615  1.00  0.00    -0.237 OA
ATOM     72  O   UNL A   1      39.188  29.880  32.881  1.00  0.00    -0.744 OA
ENDBRANCH  66  69
ENDBRANCH  48  62
BRANCH  49  73
ATOM     73  C   UNL A   1      44.450  26.353  34.091  1.00  0.00     0.023 A 
ATOM     74  C   UNL A   1      43.328  25.920  34.825  1.00  0.00     0.012 A 
ATOM     75  C   UNL A   1      45.727  26.223  34.677  1.00  0.00     0.148 A 
ATOM     76  C   UNL A   1      43.477  25.332  36.086  1.00  0.00     0.002 A 
ATOM     77  C   UNL A   1      45.871  25.635  35.930  1.00  0.00     0.091 A 
ATOM     78  F   UNL A   1      46.800  26.596  33.967  1.00  0.00    -0.205 F 
ATOM     79  C   UNL A   1      44.747  25.177  36.633  1.00  0.00     0.022 A 
BRANCH  77  80
ATOM     80  S   UNL A   1      47.478  25.360  36.690  1.00  0.00     0.127 S 
ATOM     81  O   UNL A   1      48.006  26.722  36.772  1.00  0.00    -0.237 OA
ATOM     82  O   UNL A   1      47.110  24.766  37.972  1.00  0.00    -0.237 OA
ATOM     83  O   UNL A   1      48.207  24.483  35.782  1.00  0.00    -0.744 OA
ENDBRANCH  77  80
ENDBRANCH  49  73
BRANCH  61  84
ATOM     84  C   UNL A   1      45.669  29.477  28.785  1.00  0.00     0.023 A 
ATOM     85  C   UNL A   1      46.613  30.509  28.953  1.00  0.00     0.012 A 
ATOM     86  C   UNL A   1      46.082  28.248  28.246  1.00  0.00     0.148 A 
ATOM     87  C   UNL A   1      47.945  30.314  28.574  1.00  0.00     0.002 A 
ATOM     88  C   UNL A   1      47.412  28.044  27.917  1.00  0.00     0.091 A 
ATOM     89  F   UNL A   1      45.159  27.288  28.081  1.00  0.00    -0.205 F 
ATOM     90  C   UNL A   1      48.347  29.077  28.070  1.00  0.00     0.022 A 
BRANCH  88  91
ATOM     91  S   UNL A   1      47.996  26.436  27.379  1.00  0.00     0.127 S 
ATOM     92  O   UNL A   1      49.412  26.693  27.128  1.00  0.00    -0.237 OA
ATOM     93  O   UNL A   1      47.723  25.597  28.547  1.00  0.00    -0.237 OA
ATOM     94  O   UNL A   1      47.202  26.094  26.206  1.00  0.00    -0.744 OA
ENDBRANCH  88  91
ENDBRANCH  61  84
ENDBRANCH  35  36
ENDBRANCH  27  30
ENDBRANCH  25  26
ENDBRANCH  24  25
ENDBRANCH  23  24
ENDBRANCH   1  23
TORSDOF 20
ENDMDL
MODEL 3
REMARK VINA RESULT:     -10.9      2.291      2.838
REMARK SMILES Cc1cc(C(F)(F)CC(C)(C)CC(=O)NCCCCCCNC(=O)c2ccc(-c3c4nc(c(-c5cccc(S(=O)(=O)[O-])c5F)c5ccc([nH]5)c(-c5cccc(S(=O)(=O)[O-])c5F)c5nc(c(-c6cccc(S(=O)(=O)[O-])c6F)c6ccc3[nH]6)C=C5)C=C4)cc2)sc1Br
REMARK SMILES IDX 18 1 17 2 16 3 15 4 13 5 14 6 12 8 9 9 10 10 11 11 8 12 5 13
REMARK SMILES IDX 6 14 7 15 4 16 1 17 2 18 3 19 89 20 88 21 90 22 19 23 20 24
REMARK SMILES IDX 21 25 22 26 23 27 24 29 25 30 26 31 87 32 27 33 86 34 28 35
REMARK SMILES IDX 29 36 30 37 80 38 31 39 85 40 79 41 81 42 32 43 84 44 78 45
REMARK SMILES IDX 77 46 33 48 65 49 45 50 64 51 46 52 49 53 63 54 82 55 47 56
REMARK SMILES IDX 48 57 62 59 83 60 50 61 34 62 35 63 43 64 36 65 38 66 44 67
REMARK SMILES IDX 37 68 39 69 40 70 41 71 42 72 66 73 67 74 75 75 68 76 70 77
REMARK SMILES IDX 76 78 69 79 71 80 72 81 73 82 74 83 51 84 52 85 60 86 53 87
REMARK SMILES IDX 55 88 61 89 54 90 56 91 57 92 58 93 59 94
REMARK H PARENT 15 7 22 28 81 47 49 58
REMARK Flexibility Score: inf
ROOT
ATOM      1  C   UNL A   1      37.050  22.141  24.204  1.00  0.00     0.002 C 
ENDROOT
BRANCH   1   2
ATOM      2  C   UNL A   1      36.632  23.327  25.071  1.00  0.00     0.021 C 
BRANCH   2   3
ATOM      3  C   UNL A   1      35.241  23.871  24.745  1.00  0.00     0.116 C 
BRANCH   3   4
ATOM      4  N   UNL A   1      34.881  23.545  23.385  1.00  0.00    -0.356 N 
ATOM      5  C   UNL A   1      33.699  23.731  22.740  1.00  0.00     0.220 C 
ATOM      6  O   UNL A   1      33.591  23.292  21.594  1.00  0.00    -0.275 OA
ATOM      7  H   UNL A   1      35.594  23.129  22.848  1.00  0.00     0.163 HD
BRANCH   5   8
ATOM      8  C   UNL A   1      32.588  24.534  23.389  1.00  0.00     0.106 C 
BRANCH   8   9
ATOM      9  C   UNL A   1      32.505  26.069  23.157  1.00  0.00    -0.021 C 
ATOM     10  C   UNL A   1      31.031  26.323  22.772  1.00  0.00     0.012 C 
ATOM     11  C   UNL A   1      33.305  26.559  21.934  1.00  0.00     0.012 C 
BRANCH   9  12
ATOM     12  C   UNL A   1      33.054  26.889  24.377  1.00  0.00     0.090 C 
BRANCH  12  13
ATOM     13  C   UNL A   1      32.323  28.154  24.846  1.00  0.00     0.282 C 
ATOM     14  F   UNL A   1      31.053  27.805  25.200  1.00  0.00    -0.200 F 
ATOM     15  F   UNL A   1      32.187  28.987  23.775  1.00  0.00    -0.200 F 
BRANCH  13  16
ATOM     16  C   UNL A   1      32.995  28.853  25.993  1.00  0.00     0.075 A 
ATOM     17  C   UNL A   1      36.110  29.409  27.961  1.00  0.00     0.046 C 
ATOM     18  C   UNL A   1      34.721  29.524  27.424  1.00  0.00    -0.025 A 
ATOM     19  C   UNL A   1      34.057  28.429  26.775  1.00  0.00     0.026 A 
ATOM     20  C   UNL A   1      33.915  30.641  27.385  1.00  0.00     0.073 A 
ATOM     21  S   UNL A   1      32.508  30.430  26.459  1.00  0.00    -0.127 S 
ATOM     22  Br  UNL A   1      34.320  32.291  28.186  1.00  0.00    -0.039 Br
ENDBRANCH  13  16
ENDBRANCH  12  13
ENDBRANCH   9  12
ENDBRANCH   8   9
ENDBRANCH   5   8
ENDBRANCH   3   4
ENDBRANCH   2   3
ENDBRANCH   1   2
BRANCH   1  23
ATOM     23  C   UNL A   1      37.110  20.796  24.936  1.00  0.00     0.002 C 
BRANCH  23  24
ATOM     24  C   UNL A   1      38.368  19.955  24.677  1.00  0.00     0.021 C 
BRANCH  24  25
ATOM     25  C   UNL A   1      38.977  19.373  25.945  1.00  0.00     0.116 C 
BRANCH  25  26
ATOM     26  N   UNL A   1      40.327  18.874  25.703  1.00  0.00    -0.352 N 
ATOM     27  C   UNL A   1      41.511  19.578  25.703  1.00  0.00     0.251 C 
ATOM     28  H   UNL A   1      40.400  17.910  25.516  1.00  0.00     0.163 HD
ATOM     29  O   UNL A   1      42.507  19.126  25.166  1.00  0.00    -0.269 OA
BRANCH  27  30
ATOM     30  C   UNL A   1      41.545  20.892  26.366  1.00  0.00     0.039 A 
ATOM     31  C   UNL A   1      40.972  21.051  27.629  1.00  0.00     0.014 A 
ATOM     32  C   UNL A   1      42.184  21.953  25.723  1.00  0.00     0.014 A 
ATOM     33  C   UNL A   1      41.114  22.271  28.280  1.00  0.00     0.010 A 
ATOM     34  C   UNL A   1      42.412  23.125  26.408  1.00  0.00     0.010 A 
ATOM     35  C   UNL A   1      41.858  23.298  27.676  1.00  0.00    -0.014 A 
BRANCH  35  36
ATOM     36  C   UNL A   1      42.224  24.478  28.460  1.00  0.00     0.031 A 
ATOM     37  C   UNL A   1      41.264  25.608  28.306  1.00  0.00     0.074 A 
ATOM     38  C   UNL A   1      43.189  24.475  29.407  1.00  0.00     0.049 A 
ATOM     39  N   UNL A   1      41.472  26.756  27.749  1.00  0.00    -0.248 NA
ATOM     40  C   UNL A   1      39.853  25.373  28.665  1.00  0.00     0.031 C 
ATOM     41  C   UNL A   1      43.955  23.310  29.868  1.00  0.00     0.029 A 
ATOM     42  N   UNL A   1      43.584  25.457  30.273  1.00  0.00    -0.354 N 
ATOM     43  C   UNL A   1      40.301  27.482  27.967  1.00  0.00     0.074 A 
ATOM     44  C   UNL A   1      39.284  26.522  28.293  1.00  0.00     0.031 C 
ATOM     45  C   UNL A   1      44.492  23.574  31.077  1.00  0.00     0.029 A 
ATOM     46  C   UNL A   1      44.270  24.974  31.386  1.00  0.00     0.049 A 
ATOM     47  H   UNL A   1      43.400  26.413  30.125  1.00  0.00     0.167 HD
ATOM     48  C   UNL A   1      40.360  28.819  28.220  1.00  0.00     0.034 A 
ATOM     49  C   UNL A   1      44.614  25.656  32.503  1.00  0.00     0.034 A 
ATOM     50  C   UNL A   1      41.663  29.341  27.902  1.00  0.00     0.049 A 
ATOM     51  C   UNL A   1      44.623  27.092  32.169  1.00  0.00     0.074 A 
ATOM     52  C   UNL A   1      42.390  29.653  26.776  1.00  0.00     0.029 A 
ATOM     53  N   UNL A   1      42.537  29.254  28.951  1.00  0.00    -0.354 N 
ATOM     54  N   UNL A   1      45.477  27.625  31.339  1.00  0.00    -0.248 NA
ATOM     55  C   UNL A   1      43.478  27.923  32.517  1.00  0.00     0.031 C 
ATOM     56  C   UNL A   1      43.761  29.616  27.170  1.00  0.00     0.029 A 
ATOM     57  C   UNL A   1      43.833  29.318  28.529  1.00  0.00     0.049 A 
ATOM     58  H   UNL A   1      42.264  29.157  29.892  1.00  0.00     0.167 HD
ATOM     59  C   UNL A   1      44.746  28.621  30.721  1.00  0.00     0.074 A 
ATOM     60  C   UNL A   1      43.625  28.890  31.610  1.00  0.00     0.031 C 
ATOM     61  C   UNL A   1      44.906  28.878  29.394  1.00  0.00     0.034 A 
BRANCH  48  62
ATOM     62  C   UNL A   1      39.493  29.569  29.224  1.00  0.00     0.023 A 
ATOM     63  C   UNL A   1      39.163  30.909  28.906  1.00  0.00     0.012 A 
ATOM     64  C   UNL A   1      39.270  29.166  30.562  1.00  0.00     0.148 A 
ATOM     65  C   UNL A   1      38.693  31.806  29.872  1.00  0.00     0.002 A 
ATOM     66  C   UNL A   1      38.733  30.041  31.502  1.00  0.00     0.091 A 
ATOM     67  F   UNL A   1      39.700  27.977  30.987  1.00  0.00    -0.205 F 
ATOM     68  C   UNL A   1      38.471  31.372  31.172  1.00  0.00     0.022 A 
BRANCH  66  69
ATOM     69  S   UNL A   1      38.403  29.518  33.191  1.00  0.00     0.127 S 
ATOM     70  O   UNL A   1      39.719  29.054  33.616  1.00  0.00    -0.237 OA
ATOM     71  O   UNL A   1      37.953  30.767  33.806  1.00  0.00    -0.237 OA
ATOM     72  O   UNL A   1      37.366  28.497  33.092  1.00  0.00    -0.744 OA
ENDBRANCH  66  69
ENDBRANCH  48  62
BRANCH  49  73
ATOM     73  C   UNL A   1      44.816  25.186  33.891  1.00  0.00     0.023 A 
ATOM     74  C   UNL A   1      43.717  25.109  34.770  1.00  0.00     0.012 A 
ATOM     75  C   UNL A   1      46.018  24.547  34.263  1.00  0.00     0.148 A 
ATOM     76  C   UNL A   1      43.797  24.380  35.961  1.00  0.00     0.002 A 
ATOM     77  C   UNL A   1      46.094  23.820  35.447  1.00  0.00     0.091 A 
ATOM     78  F   UNL A   1      47.053  24.584  33.413  1.00  0.00    -0.205 F 
ATOM     79  C   UNL A   1      44.980  23.724  36.293  1.00  0.00     0.022 A 
BRANCH  77  80
ATOM     80  S   UNL A   1      47.568  22.911  35.930  1.00  0.00     0.127 S 
ATOM     81  O   UNL A   1      48.437  23.985  36.413  1.00  0.00    -0.237 OA
ATOM     82  O   UNL A   1      47.052  22.026  36.971  1.00  0.00    -0.237 OA
ATOM     83  O   UNL A   1      48.044  22.245  34.724  1.00  0.00    -0.744 OA
ENDBRANCH  77  80
ENDBRANCH  49  73
BRANCH  61  84
ATOM     84  C   UNL A   1      46.213  28.520  28.760  1.00  0.00     0.023 A 
ATOM     85  C   UNL A   1      47.405  29.238  28.981  1.00  0.00     0.012 A 
ATOM     86  C   UNL A   1      46.249  27.348  27.988  1.00  0.00     0.148 A 
ATOM     87  C   UNL A   1      48.609  28.794  28.425  1.00  0.00     0.002 A 
ATOM     88  C   UNL A   1      47.452  26.886  27.479  1.00  0.00     0.091 A 
ATOM     89  F   UNL A   1      45.096  26.693  27.779  1.00  0.00    -0.205 F 
ATOM     90  C   UNL A   1      48.635  27.610  27.687  1.00  0.00     0.022 A 
BRANCH  88  91
ATOM     91  S   UNL A   1      47.553  25.312  26.628  1.00  0.00     0.127 S 
ATOM     92  O   UNL A   1      48.741  25.489  25.796  1.00  0.00    -0.237 OA
ATOM     93  O   UNL A   1      47.714  24.367  27.734  1.00  0.00    -0.237 OA
ATOM     94  O   UNL A   1      46.296  25.167  25.903  1.00  0.00    -0.744 OA
ENDBRANCH  88  91
ENDBRANCH  61  84
ENDBRANCH  35  36
ENDBRANCH  27  30
ENDBRANCH  25  26
ENDBRANCH  24  25
ENDBRANCH  23  24
ENDBRANCH   1  23
TORSDOF 20
ENDMDL
