MODEL 1
REMARK VINA RESULT:     -10.9      0.000      0.000
REMARK SMILES CC(C)CCn1cc(C(=O)NCCCCCCNC(=O)c2ccc(-c3c4nc(c(-c5cccc(S(=O)(=O)[O-])c5F)c5ccc([nH]5)c(-c5cccc(S(=O)(=O)[O-])c5F)c5nc(c(-c6cccc(S(=O)(=O)[O-])c6F)c6ccc3[nH]6)C=C5)C=C4)cc2)c(-c2ccoc2)n1
REMARK SMILES IDX 14 1 13 2 12 3 11 4 9 5 10 6 8 8 6 9 7 10 90 11 84 12 5 13
REMARK SMILES IDX 4 14 2 15 1 16 3 17 85 18 86 19 89 20 87 21 88 22 15 23
REMARK SMILES IDX 16 24 17 25 18 26 19 27 20 29 21 30 22 31 83 32 23 33 82 34
REMARK SMILES IDX 24 35 25 36 26 37 76 38 27 39 81 40 75 41 77 42 28 43 80 44
REMARK SMILES IDX 74 45 73 46 29 48 61 49 41 50 60 51 42 52 45 53 59 54 78 55
REMARK SMILES IDX 43 56 44 57 58 59 79 60 46 61 30 62 31 63 39 64 32 65 34 66
REMARK SMILES IDX 40 67 33 68 35 69 36 70 37 71 38 72 62 73 63 74 71 75 64 76
REMARK SMILES IDX 66 77 72 78 65 79 67 80 68 81 69 82 70 83 47 84 48 85 56 86
REMARK SMILES IDX 49 87 51 88 57 89 50 90 52 91 53 92 54 93 55 94
REMARK H PARENT 11 7 18 28 77 47 45 58
REMARK Flexibility Score: inf
ROOT
ATOM      1  C   UNL A   1      37.214  22.410  24.314  1.00  0.00     0.002 C 
ENDROOT
BRANCH   1   2
ATOM      2  C   UNL A   1      36.086  23.296  24.860  1.00  0.00     0.021 C 
BRANCH   2   3
ATOM      3  C   UNL A   1      35.721  22.979  26.307  1.00  0.00     0.116 C 
BRANCH   3   4
ATOM      4  N   UNL A   1      34.385  23.443  26.603  1.00  0.00    -0.352 N 
ATOM      5  C   UNL A   1      33.145  23.092  26.140  1.00  0.00     0.255 C 
ATOM      6  O   UNL A   1      32.205  23.699  26.658  1.00  0.00    -0.269 OA
ATOM      7  H   UNL A   1      34.361  24.160  27.277  1.00  0.00     0.163 HD
BRANCH   5   8
ATOM      8  C   UNL A   1      32.950  21.995  25.206  1.00  0.00     0.085 A 
ATOM      9  N   UNL A   1      32.575  20.023  24.278  1.00  0.00    -0.271 N 
ATOM     10  C   UNL A   1      33.107  20.632  25.380  1.00  0.00     0.123 A 
ATOM     11  N   UNL A   1      32.184  20.896  23.334  1.00  0.00    -0.172 NA
ATOM     12  C   UNL A   1      32.573  22.079  23.833  1.00  0.00     0.108 A 
BRANCH   9  13
ATOM     13  C   UNL A   1      32.327  18.598  24.157  1.00  0.00     0.144 C 
BRANCH  13  14
ATOM     14  C   UNL A   1      33.105  17.697  25.115  1.00  0.00     0.027 C 
BRANCH  14  15
ATOM     15  C   UNL A   1      34.395  17.096  24.531  1.00  0.00    -0.016 C 
ATOM     16  C   UNL A   1      34.839  15.838  25.277  1.00  0.00     0.007 C 
ATOM     17  C   UNL A   1      34.184  16.787  23.048  1.00  0.00     0.007 C 
ENDBRANCH  14  15
ENDBRANCH  13  14
ENDBRANCH   9  13
BRANCH  12  18
ATOM     18  C   UNL A   1      32.594  23.286  23.014  1.00  0.00     0.041 A 
ATOM     19  C   UNL A   1      31.558  24.242  22.905  1.00  0.00     0.052 A 
ATOM     20  C   UNL A   1      33.587  23.689  22.149  1.00  0.00     0.205 A 
ATOM     21  C   UNL A   1      32.010  25.186  22.010  1.00  0.00     0.195 A 
ATOM     22  O   UNL A   1      33.242  24.855  21.542  1.00  0.00    -0.472 OA
ENDBRANCH  12  18
ENDBRANCH   5   8
ENDBRANCH   3   4
ENDBRANCH   2   3
ENDBRANCH   1   2
BRANCH   1  23
ATOM     23  C   UNL A   1      38.142  21.787  25.370  1.00  0.00     0.002 C 
BRANCH  23  24
ATOM     24  C   UNL A   1      38.676  20.375  25.075  1.00  0.00     0.021 C 
BRANCH  24  25
ATOM     25  C   UNL A   1      39.348  19.708  26.262  1.00  0.00     0.116 C 
BRANCH  25  26
ATOM     26  N   UNL A   1      40.621  19.079  25.891  1.00  0.00    -0.352 N 
ATOM     27  C   UNL A   1      41.865  19.652  25.687  1.00  0.00     0.251 C 
ATOM     28  H   UNL A   1      40.585  18.102  25.768  1.00  0.00     0.163 HD
ATOM     29  O   UNL A   1      42.721  19.071  25.044  1.00  0.00    -0.269 OA
BRANCH  27  30
ATOM     30  C   UNL A   1      42.138  20.973  26.280  1.00  0.00     0.039 A 
ATOM     31  C   UNL A   1      42.490  22.088  25.512  1.00  0.00     0.014 A 
ATOM     32  C   UNL A   1      42.029  21.073  27.659  1.00  0.00     0.014 A 
ATOM     33  C   UNL A   1      42.686  23.306  26.159  1.00  0.00     0.010 A 
ATOM     34  C   UNL A   1      41.954  22.298  28.245  1.00  0.00     0.010 A 
ATOM     35  C   UNL A   1      42.416  23.390  27.529  1.00  0.00    -0.014 A 
BRANCH  35  36
ATOM     36  C   UNL A   1      42.573  24.609  28.298  1.00  0.00     0.031 A 
ATOM     37  C   UNL A   1      41.442  25.558  28.167  1.00  0.00     0.074 A 
ATOM     38  C   UNL A   1      43.487  24.690  29.291  1.00  0.00     0.049 A 
ATOM     39  N   UNL A   1      41.433  26.693  27.553  1.00  0.00    -0.248 NA
ATOM     40  C   UNL A   1      40.114  25.112  28.615  1.00  0.00     0.031 C 
ATOM     41  C   UNL A   1      44.375  23.630  29.795  1.00  0.00     0.029 A 
ATOM     42  N   UNL A   1      43.671  25.682  30.197  1.00  0.00    -0.354 N 
ATOM     43  C   UNL A   1      40.163  27.218  27.781  1.00  0.00     0.074 A 
ATOM     44  C   UNL A   1      39.342  26.104  28.166  1.00  0.00     0.031 C 
ATOM     45  C   UNL A   1      44.770  23.937  31.049  1.00  0.00     0.029 A 
ATOM     46  C   UNL A   1      44.303  25.273  31.368  1.00  0.00     0.049 A 
ATOM     47  H   UNL A   1      43.384  26.611  30.041  1.00  0.00     0.167 HD
ATOM     48  C   UNL A   1      39.973  28.559  27.940  1.00  0.00     0.034 A 
ATOM     49  C   UNL A   1      44.351  25.961  32.535  1.00  0.00     0.034 A 
ATOM     50  C   UNL A   1      41.162  29.295  27.572  1.00  0.00     0.049 A 
ATOM     51  C   UNL A   1      44.014  27.372  32.217  1.00  0.00     0.074 A 
ATOM     52  C   UNL A   1      41.970  29.351  26.452  1.00  0.00     0.029 A 
ATOM     53  N   UNL A   1      41.917  29.814  28.601  1.00  0.00    -0.354 N 
ATOM     54  N   UNL A   1      44.762  28.144  31.477  1.00  0.00    -0.248 NA
ATOM     55  C   UNL A   1      42.620  27.773  32.330  1.00  0.00     0.031 C 
ATOM     56  C   UNL A   1      43.300  29.409  26.967  1.00  0.00     0.029 A 
ATOM     57  C   UNL A   1      43.221  29.477  28.360  1.00  0.00     0.049 A 
ATOM     58  H   UNL A   1      41.580  30.331  29.367  1.00  0.00     0.167 HD
ATOM     59  C   UNL A   1      43.858  28.831  30.674  1.00  0.00     0.074 A 
ATOM     60  C   UNL A   1      42.558  28.642  31.318  1.00  0.00     0.031 C 
ATOM     61  C   UNL A   1      44.187  29.219  29.405  1.00  0.00     0.034 A 
BRANCH  48  62
ATOM     62  C   UNL A   1      38.900  29.208  28.797  1.00  0.00     0.023 A 
ATOM     63  C   UNL A   1      38.147  30.239  28.188  1.00  0.00     0.012 A 
ATOM     64  C   UNL A   1      38.770  29.076  30.199  1.00  0.00     0.148 A 
ATOM     65  C   UNL A   1      37.388  31.144  28.937  1.00  0.00     0.002 A 
ATOM     66  C   UNL A   1      37.951  29.928  30.932  1.00  0.00     0.091 A 
ATOM     67  F   UNL A   1      39.529  28.212  30.873  1.00  0.00    -0.205 F 
ATOM     68  C   UNL A   1      37.290  30.989  30.313  1.00  0.00     0.022 A 
BRANCH  66  69
ATOM     69  S   UNL A   1      37.750  29.738  32.710  1.00  0.00     0.127 S 
ATOM     70  O   UNL A   1      39.087  30.074  33.191  1.00  0.00    -0.237 OA
ATOM     71  O   UNL A   1      36.717  30.731  33.001  1.00  0.00    -0.237 OA
ATOM     72  O   UNL A   1      37.325  28.358  32.912  1.00  0.00    -0.744 OA
ENDBRANCH  66  69
ENDBRANCH  48  62
BRANCH  49  73
ATOM     73  C   UNL A   1      44.392  25.460  33.931  1.00  0.00     0.023 A 
ATOM     74  C   UNL A   1      43.298  24.731  34.438  1.00  0.00     0.012 A 
ATOM     75  C   UNL A   1      45.594  25.453  34.674  1.00  0.00     0.148 A 
ATOM     76  C   UNL A   1      43.406  23.992  35.624  1.00  0.00     0.002 A 
ATOM     77  C   UNL A   1      45.696  24.724  35.858  1.00  0.00     0.091 A 
ATOM     78  F   UNL A   1      46.669  26.075  34.174  1.00  0.00    -0.205 F 
ATOM     79  C   UNL A   1      44.607  23.983  36.330  1.00  0.00     0.022 A 
BRANCH  77  80
ATOM     80  S   UNL A   1      47.227  24.654  36.801  1.00  0.00     0.127 S 
ATOM     81  O   UNL A   1      48.137  24.005  35.858  1.00  0.00    -0.237 OA
ATOM     82  O   UNL A   1      47.499  26.069  37.043  1.00  0.00    -0.237 OA
ATOM     83  O   UNL A   1      46.924  23.859  37.986  1.00  0.00    -0.744 OA
ENDBRANCH  77  80
ENDBRANCH  49  73
BRANCH  61  84
ATOM     84  C   UNL A   1      45.626  29.127  28.965  1.00  0.00     0.023 A 
ATOM     85  C   UNL A   1      46.593  30.093  29.316  1.00  0.00     0.012 A 
ATOM     86  C   UNL A   1      46.052  27.936  28.352  1.00  0.00     0.148 A 
ATOM     87  C   UNL A   1      47.949  29.881  29.046  1.00  0.00     0.002 A 
ATOM     88  C   UNL A   1      47.403  27.708  28.129  1.00  0.00     0.091 A 
ATOM     89  F   UNL A   1      45.123  27.025  28.023  1.00  0.00    -0.205 F 
ATOM     90  C   UNL A   1      48.356  28.682  28.467  1.00  0.00     0.022 A 
BRANCH  88  91
ATOM     91  S   UNL A   1      47.988  26.129  27.512  1.00  0.00     0.127 S 
ATOM     92  O   UNL A   1      49.432  26.345  27.442  1.00  0.00    -0.237 OA
ATOM     93  O   UNL A   1      47.558  25.198  28.556  1.00  0.00    -0.237 OA
ATOM     94  O   UNL A   1      47.317  25.931  26.232  1.00  0.00    -0.744 OA
ENDBRANCH  88  91
ENDBRANCH  61  84
ENDBRANCH  35  36
ENDBRANCH  27  30
ENDBRANCH  25  26
ENDBRANCH  24  25
ENDBRANCH  23  24
ENDBRANCH   1  23
TORSDOF 20
ENDMDL
MODEL 2
REMARK VINA RESULT:     -10.8      3.549      8.427
REMARK SMILES CC(C)CCn1cc(C(=O)NCCCCCCNC(=O)c2ccc(-c3c4nc(c(-c5cccc(S(=O)(=O)[O-])c5F)c5ccc([nH]5)c(-c5cccc(S(=O)(=O)[O-])c5F)c5nc(c(-c6cccc(S(=O)(=O)[O-])c6F)c6ccc3[nH]6)C=C5)C=C4)cc2)c(-c2ccoc2)n1
REMARK SMILES IDX 14 1 13 2 12 3 11 4 9 5 10 6 8 8 6 9 7 10 90 11 84 12 5 13
REMARK SMILES IDX 4 14 2 15 1 16 3 17 85 18 86 19 89 20 87 21 88 22 15 23
REMARK SMILES IDX 16 24 17 25 18 26 19 27 20 29 21 30 22 31 83 32 23 33 82 34
REMARK SMILES IDX 24 35 25 36 26 37 76 38 27 39 81 40 75 41 77 42 28 43 80 44
REMARK SMILES IDX 74 45 73 46 29 48 61 49 41 50 60 51 42 52 45 53 59 54 78 55
REMARK SMILES IDX 43 56 44 57 58 59 79 60 46 61 30 62 31 63 39 64 32 65 34 66
REMARK SMILES IDX 40 67 33 68 35 69 36 70 37 71 38 72 62 73 63 74 71 75 64 76
REMARK SMILES IDX 66 77 72 78 65 79 67 80 68 81 69 82 70 83 47 84 48 85 56 86
REMARK SMILES IDX 49 87 51 88 57 89 50 90 52 91 53 92 54 93 55 94
REMARK H PARENT 11 7 18 28 77 47 45 58
REMARK Flexibility Score: inf
ROOT
ATOM      1  C   UNL A   1      34.152  28.651  26.806  1.00  0.00     0.002 C 
ENDROOT
BRANCH   1   2
ATOM      2  C   UNL A   1      33.256  27.457  26.453  1.00  0.00     0.021 C 
BRANCH   2   3
ATOM      3  C   UNL A   1      31.804  27.650  26.877  1.00  0.00     0.116 C 
BRANCH   3   4
ATOM      4  N   UNL A   1      31.011  26.500  26.502  1.00  0.00    -0.352 N 
ATOM      5  C   UNL A   1      30.354  26.147  25.354  1.00  0.00     0.255 C 
ATOM      6  O   UNL A   1      29.796  25.049  25.391  1.00  0.00    -0.269 OA
ATOM      7  H   UNL A   1      30.926  25.834  27.221  1.00  0.00     0.163 HD
BRANCH   5   8
ATOM      8  C   UNL A   1      30.427  26.949  24.143  1.00  0.00     0.085 A 
ATOM      9  N   UNL A   1      30.225  28.544  22.624  1.00  0.00    -0.271 N 
ATOM     10  C   UNL A   1      29.595  27.954  23.683  1.00  0.00     0.123 A 
ATOM     11  N   UNL A   1      31.364  27.920  22.278  1.00  0.00    -0.172 NA
ATOM     12  C   UNL A   1      31.388  26.855  23.093  1.00  0.00     0.108 A 
BRANCH   9  13
ATOM     13  C   UNL A   1      29.808  29.784  21.997  1.00  0.00     0.144 C 
BRANCH  13  14
ATOM     14  C   UNL A   1      28.315  29.918  21.702  1.00  0.00     0.027 C 
BRANCH  14  15
ATOM     15  C   UNL A   1      27.666  31.209  22.231  1.00  0.00    -0.016 C 
ATOM     16  C   UNL A   1      27.728  31.307  23.755  1.00  0.00     0.007 C 
ATOM     17  C   UNL A   1      28.349  32.419  21.593  1.00  0.00     0.007 C 
ENDBRANCH  14  15
ENDBRANCH  13  14
ENDBRANCH   9  13
BRANCH  12  18
ATOM     18  C   UNL A   1      32.312  25.747  22.880  1.00  0.00     0.041 A 
ATOM     19  C   UNL A   1      31.966  24.386  22.715  1.00  0.00     0.052 A 
ATOM     20  C   UNL A   1      33.689  25.801  22.866  1.00  0.00     0.205 A 
ATOM     21  C   UNL A   1      33.156  23.710  22.569  1.00  0.00     0.195 A 
ATOM     22  O   UNL A   1      34.210  24.562  22.664  1.00  0.00    -0.472 OA
ENDBRANCH  12  18
ENDBRANCH   5   8
ENDBRANCH   3   4
ENDBRANCH   2   3
ENDBRANCH   1   2
BRANCH   1  23
ATOM     23  C   UNL A   1      33.641  30.027  26.346  1.00  0.00     0.002 C 
BRANCH  23  24
ATOM     24  C   UNL A   1      33.403  31.078  27.442  1.00  0.00     0.021 C 
BRANCH  24  25
ATOM     25  C   UNL A   1      34.674  31.738  27.951  1.00  0.00     0.116 C 
BRANCH  25  26
ATOM     26  N   UNL A   1      34.465  32.413  29.237  1.00  0.00    -0.352 N 
ATOM     27  C   UNL A   1      35.001  32.131  30.483  1.00  0.00     0.251 C 
ATOM     28  H   UNL A   1      33.850  33.183  29.211  1.00  0.00     0.163 HD
ATOM     29  O   UNL A   1      34.467  32.538  31.499  1.00  0.00    -0.269 OA
BRANCH  27  30
ATOM     30  C   UNL A   1      36.242  31.340  30.552  1.00  0.00     0.039 A 
ATOM     31  C   UNL A   1      36.248  29.941  30.551  1.00  0.00     0.014 A 
ATOM     32  C   UNL A   1      37.432  32.049  30.618  1.00  0.00     0.014 A 
ATOM     33  C   UNL A   1      37.474  29.280  30.575  1.00  0.00     0.010 A 
ATOM     34  C   UNL A   1      38.611  31.418  30.370  1.00  0.00     0.010 A 
ATOM     35  C   UNL A   1      38.647  30.039  30.488  1.00  0.00    -0.014 A 
BRANCH  35  36
ATOM     36  C   UNL A   1      39.974  29.454  30.490  1.00  0.00     0.031 A 
ATOM     37  C   UNL A   1      40.597  29.368  31.832  1.00  0.00     0.074 A 
ATOM     38  C   UNL A   1      40.422  28.748  29.428  1.00  0.00     0.049 A 
ATOM     39  N   UNL A   1      41.587  30.060  32.286  1.00  0.00    -0.248 NA
ATOM     40  C   UNL A   1      39.926  28.547  32.852  1.00  0.00     0.031 C 
ATOM     41  C   UNL A   1      39.693  28.401  28.196  1.00  0.00     0.029 A 
ATOM     42  N   UNL A   1      41.558  28.018  29.311  1.00  0.00    -0.354 N 
ATOM     43  C   UNL A   1      41.828  29.555  33.561  1.00  0.00     0.074 A 
ATOM     44  C   UNL A   1      40.626  28.866  33.943  1.00  0.00     0.031 C 
ATOM     45  C   UNL A   1      40.277  27.329  27.619  1.00  0.00     0.029 A 
ATOM     46  C   UNL A   1      41.498  27.022  28.339  1.00  0.00     0.049 A 
ATOM     47  H   UNL A   1      42.357  28.178  29.864  1.00  0.00     0.167 HD
ATOM     48  C   UNL A   1      43.094  29.475  34.061  1.00  0.00     0.034 A 
ATOM     49  C   UNL A   1      42.352  25.978  28.209  1.00  0.00     0.034 A 
ATOM     50  C   UNL A   1      44.022  30.210  33.231  1.00  0.00     0.049 A 
ATOM     51  C   UNL A   1      43.576  26.323  28.975  1.00  0.00     0.074 A 
ATOM     52  C   UNL A   1      44.091  31.503  32.749  1.00  0.00     0.029 A 
ATOM     53  N   UNL A   1      44.858  29.468  32.426  1.00  0.00    -0.354 N 
ATOM     54  N   UNL A   1      44.377  27.302  28.653  1.00  0.00    -0.248 NA
ATOM     55  C   UNL A   1      43.650  25.884  30.361  1.00  0.00     0.031 C 
ATOM     56  C   UNL A   1      44.541  31.364  31.401  1.00  0.00     0.029 A 
ATOM     57  C   UNL A   1      44.805  30.012  31.171  1.00  0.00     0.049 A 
ATOM     58  H   UNL A   1      45.395  28.691  32.702  1.00  0.00     0.167 HD
ATOM     59  C   UNL A   1      44.698  27.898  29.868  1.00  0.00     0.074 A 
ATOM     60  C   UNL A   1      44.311  26.920  30.885  1.00  0.00     0.031 C 
ATOM     61  C   UNL A   1      44.948  29.239  29.958  1.00  0.00     0.034 A 
BRANCH  48  62
ATOM     62  C   UNL A   1      43.598  28.429  35.041  1.00  0.00     0.023 A 
ATOM     63  C   UNL A   1      44.419  28.897  36.093  1.00  0.00     0.012 A 
ATOM     64  C   UNL A   1      43.554  27.029  34.849  1.00  0.00     0.148 A 
ATOM     65  C   UNL A   1      45.224  28.033  36.844  1.00  0.00     0.002 A 
ATOM     66  C   UNL A   1      44.295  26.166  35.650  1.00  0.00     0.091 A 
ATOM     67  F   UNL A   1      42.903  26.505  33.810  1.00  0.00    -0.205 F 
ATOM     68  C   UNL A   1      45.161  26.665  36.622  1.00  0.00     0.022 A 
BRANCH  66  69
ATOM     69  S   UNL A   1      44.211  24.382  35.437  1.00  0.00     0.127 S 
ATOM     70  O   UNL A   1      44.867  24.212  34.143  1.00  0.00    -0.237 OA
ATOM     71  O   UNL A   1      44.977  23.907  36.589  1.00  0.00    -0.237 OA
ATOM     72  O   UNL A   1      42.793  24.045  35.484  1.00  0.00    -0.744 OA
ENDBRANCH  66  69
ENDBRANCH  48  62
BRANCH  49  73
ATOM     73  C   UNL A   1      42.099  24.602  27.714  1.00  0.00     0.023 A 
ATOM     74  C   UNL A   1      40.800  24.063  27.797  1.00  0.00     0.012 A 
ATOM     75  C   UNL A   1      43.049  23.921  26.919  1.00  0.00     0.148 A 
ATOM     76  C   UNL A   1      40.448  22.908  27.086  1.00  0.00     0.002 A 
ATOM     77  C   UNL A   1      42.698  22.767  26.221  1.00  0.00     0.091 A 
ATOM     78  F   UNL A   1      44.268  24.455  26.765  1.00  0.00    -0.205 F 
ATOM     79  C   UNL A   1      41.395  22.263  26.294  1.00  0.00     0.022 A 
BRANCH  77  80
ATOM     80  S   UNL A   1      43.870  21.905  25.162  1.00  0.00     0.127 S 
ATOM     81  O   UNL A   1      43.311  20.553  25.126  1.00  0.00    -0.237 OA
ATOM     82  O   UNL A   1      43.755  22.651  23.912  1.00  0.00    -0.237 OA
ATOM     83  O   UNL A   1      45.158  22.002  25.838  1.00  0.00    -0.744 OA
ENDBRANCH  77  80
ENDBRANCH  49  73
BRANCH  61  84
ATOM     84  C   UNL A   1      45.131  30.033  28.688  1.00  0.00     0.023 A 
ATOM     85  C   UNL A   1      44.044  30.495  27.916  1.00  0.00     0.012 A 
ATOM     86  C   UNL A   1      46.423  30.490  28.379  1.00  0.00     0.148 A 
ATOM     87  C   UNL A   1      44.245  31.379  26.851  1.00  0.00     0.002 A 
ATOM     88  C   UNL A   1      46.613  31.406  27.352  1.00  0.00     0.091 A 
ATOM     89  F   UNL A   1      47.449  30.044  29.120  1.00  0.00    -0.205 F 
ATOM     90  C   UNL A   1      45.529  31.847  26.579  1.00  0.00     0.022 A 
BRANCH  88  91
ATOM     91  S   UNL A   1      48.223  32.139  27.050  1.00  0.00     0.127 S 
ATOM     92  O   UNL A   1      49.010  30.983  26.630  1.00  0.00    -0.237 OA
ATOM     93  O   UNL A   1      47.939  33.105  25.988  1.00  0.00    -0.237 OA
ATOM     94  O   UNL A   1      48.622  32.750  28.313  1.00  0.00    -0.744 OA
ENDBRANCH  88  91
ENDBRANCH  61  84
ENDBRANCH  35  36
ENDBRANCH  27  30
ENDBRANCH  25  26
ENDBRANCH  24  25
ENDBRANCH  23  24
ENDBRANCH   1  23
TORSDOF 20
ENDMDL
MODEL 3
REMARK VINA RESULT:     -10.6      3.038      7.234
REMARK SMILES CC(C)CCn1cc(C(=O)NCCCCCCNC(=O)c2ccc(-c3c4nc(c(-c5cccc(S(=O)(=O)[O-])c5F)c5ccc([nH]5)c(-c5cccc(S(=O)(=O)[O-])c5F)c5nc(c(-c6cccc(S(=O)(=O)[O-])c6F)c6ccc3[nH]6)C=C5)C=C4)cc2)c(-c2ccoc2)n1
REMARK SMILES IDX 14 1 13 2 12 3 11 4 9 5 10 6 8 8 6 9 7 10 90 11 84 12 5 13
REMARK SMILES IDX 4 14 2 15 1 16 3 17 85 18 86 19 89 20 87 21 88 22 15 23
REMARK SMILES IDX 16 24 17 25 18 26 19 27 20 29 21 30 22 31 83 32 23 33 82 34
REMARK SMILES IDX 24 35 25 36 26 37 76 38 27 39 81 40 75 41 77 42 28 43 80 44
REMARK SMILES IDX 74 45 73 46 29 48 61 49 41 50 60 51 42 52 45 53 59 54 78 55
REMARK SMILES IDX 43 56 44 57 58 59 79 60 46 61 30 62 31 63 39 64 32 65 34 66
REMARK SMILES IDX 40 67 33 68 35 69 36 70 37 71 38 72 62 73 63 74 71 75 64 76
REMARK SMILES IDX 66 77 72 78 65 79 67 80 68 81 69 82 70 83 47 84 48 85 56 86
REMARK SMILES IDX 49 87 51 88 57 89 50 90 52 91 53 92 54 93 55 94
REMARK H PARENT 11 7 18 28 77 47 45 58
REMARK Flexibility Score: inf
ROOT
ATOM      1  C   UNL A   1      33.303  27.070  25.961  1.00  0.00     0.002 C 
ENDROOT
BRANCH   1   2
ATOM      2  C   UNL A   1      33.238  26.504  24.537  1.00  0.00     0.021 C 
BRANCH   2   3
ATOM      3  C   UNL A   1      32.928  25.012  24.497  1.00  0.00     0.116 C 
BRANCH   3   4
ATOM      4  N   UNL A   1      33.192  24.477  23.180  1.00  0.00    -0.352 N 
ATOM      5  C   UNL A   1      33.477  23.220  22.717  1.00  0.00     0.255 C 
ATOM      6  O   UNL A   1      33.615  23.135  21.495  1.00  0.00    -0.269 OA
ATOM      7  H   UNL A   1      33.161  25.157  22.470  1.00  0.00     0.163 HD
BRANCH   5   8
ATOM      8  C   UNL A   1      33.485  22.057  23.590  1.00  0.00     0.085 A 
ATOM      9  N   UNL A   1      33.103  20.093  24.532  1.00  0.00    -0.271 N 
ATOM     10  C   UNL A   1      32.519  21.089  23.801  1.00  0.00     0.123 A 
ATOM     11  N   UNL A   1      34.354  20.392  24.921  1.00  0.00    -0.172 NA
ATOM     12  C   UNL A   1      34.514  21.654  24.492  1.00  0.00     0.108 A 
BRANCH   9  13
ATOM     13  C   UNL A   1      32.514  18.790  24.776  1.00  0.00     0.144 C 
BRANCH  13  14
ATOM     14  C   UNL A   1      32.403  17.866  23.564  1.00  0.00     0.027 C 
BRANCH  14  15
ATOM     15  C   UNL A   1      33.214  16.563  23.668  1.00  0.00    -0.016 C 
ATOM     16  C   UNL A   1      34.544  16.645  22.920  1.00  0.00     0.007 C 
ATOM     17  C   UNL A   1      33.453  16.232  25.142  1.00  0.00     0.007 C 
ENDBRANCH  14  15
ENDBRANCH  13  14
ENDBRANCH   9  13
BRANCH  12  18
ATOM     18  C   UNL A   1      35.632  22.479  24.936  1.00  0.00     0.041 A 
ATOM     19  C   UNL A   1      36.840  22.699  24.236  1.00  0.00     0.052 A 
ATOM     20  C   UNL A   1      35.753  23.141  26.138  1.00  0.00     0.205 A 
ATOM     21  C   UNL A   1      37.599  23.516  25.043  1.00  0.00     0.195 A 
ATOM     22  O   UNL A   1      36.947  23.787  26.204  1.00  0.00    -0.472 OA
ENDBRANCH  12  18
ENDBRANCH   5   8
ENDBRANCH   3   4
ENDBRANCH   2   3
ENDBRANCH   1   2
BRANCH   1  23
ATOM     23  C   UNL A   1      32.202  28.079  26.329  1.00  0.00     0.002 C 
BRANCH  23  24
ATOM     24  C   UNL A   1      32.589  29.201  27.305  1.00  0.00     0.021 C 
BRANCH  24  25
ATOM     25  C   UNL A   1      33.811  29.997  26.879  1.00  0.00     0.116 C 
BRANCH  25  26
ATOM     26  N   UNL A   1      33.838  31.331  27.489  1.00  0.00    -0.352 N 
ATOM     27  C   UNL A   1      34.646  31.827  28.498  1.00  0.00     0.251 C 
ATOM     28  H   UNL A   1      33.182  31.970  27.126  1.00  0.00     0.163 HD
ATOM     29  O   UNL A   1      34.317  32.812  29.134  1.00  0.00    -0.269 OA
BRANCH  27  30
ATOM     30  C   UNL A   1      35.924  31.147  28.775  1.00  0.00     0.039 A 
ATOM     31  C   UNL A   1      36.096  29.768  28.614  1.00  0.00     0.014 A 
ATOM     32  C   UNL A   1      36.974  31.941  29.211  1.00  0.00     0.014 A 
ATOM     33  C   UNL A   1      37.354  29.221  28.859  1.00  0.00     0.010 A 
ATOM     34  C   UNL A   1      38.244  31.458  29.185  1.00  0.00     0.010 A 
ATOM     35  C   UNL A   1      38.416  30.084  29.148  1.00  0.00    -0.014 A 
BRANCH  35  36
ATOM     36  C   UNL A   1      39.767  29.625  29.405  1.00  0.00     0.031 A 
ATOM     37  C   UNL A   1      40.154  29.648  30.835  1.00  0.00     0.074 A 
ATOM     38  C   UNL A   1      40.450  28.923  28.473  1.00  0.00     0.049 A 
ATOM     39  N   UNL A   1      40.990  30.445  31.412  1.00  0.00    -0.248 NA
ATOM     40  C   UNL A   1      39.388  28.809  31.770  1.00  0.00     0.031 C 
ATOM     41  C   UNL A   1      39.976  28.464  27.156  1.00  0.00     0.029 A 
ATOM     42  N   UNL A   1      41.646  28.296  28.588  1.00  0.00    -0.354 N 
ATOM     43  C   UNL A   1      41.048  30.013  32.735  1.00  0.00     0.074 A 
ATOM     44  C   UNL A   1      39.860  29.232  32.945  1.00  0.00     0.031 C 
ATOM     45  C   UNL A   1      40.739  27.428  26.744  1.00  0.00     0.029 A 
ATOM     46  C   UNL A   1      41.838  27.262  27.675  1.00  0.00     0.049 A 
ATOM     47  H   UNL A   1      42.321  28.549  29.259  1.00  0.00     0.167 HD
ATOM     48  C   UNL A   1      42.211  30.069  33.445  1.00  0.00     0.034 A 
ATOM     49  C   UNL A   1      42.787  26.296  27.747  1.00  0.00     0.034 A 
ATOM     50  C   UNL A   1      43.204  30.853  32.745  1.00  0.00     0.049 A 
ATOM     51  C   UNL A   1      43.826  26.782  28.689  1.00  0.00     0.074 A 
ATOM     52  C   UNL A   1      43.246  32.128  32.213  1.00  0.00     0.029 A 
ATOM     53  N   UNL A   1      44.226  30.161  32.134  1.00  0.00    -0.354 N 
ATOM     54  N   UNL A   1      44.586  27.817  28.455  1.00  0.00    -0.248 NA
ATOM     55  C   UNL A   1      43.697  26.405  30.088  1.00  0.00     0.031 C 
ATOM     56  C   UNL A   1      43.932  31.979  30.970  1.00  0.00     0.029 A 
ATOM     57  C   UNL A   1      44.344  30.649  30.861  1.00  0.00     0.049 A 
ATOM     58  H   UNL A   1      44.769  29.448  32.537  1.00  0.00     0.167 HD
ATOM     59  C   UNL A   1      44.641  28.486  29.672  1.00  0.00     0.074 A 
ATOM     60  C   UNL A   1      44.168  27.517  30.660  1.00  0.00     0.031 C 
ATOM     61  C   UNL A   1      44.759  29.847  29.731  1.00  0.00     0.034 A 
BRANCH  48  62
ATOM     62  C   UNL A   1      42.624  29.111  34.550  1.00  0.00     0.023 A 
ATOM     63  C   UNL A   1      43.189  29.695  35.708  1.00  0.00     0.012 A 
ATOM     64  C   UNL A   1      42.751  27.709  34.423  1.00  0.00     0.148 A 
ATOM     65  C   UNL A   1      43.920  28.943  36.634  1.00  0.00     0.002 A 
ATOM     66  C   UNL A   1      43.411  26.953  35.386  1.00  0.00     0.091 A 
ATOM     67  F   UNL A   1      42.355  27.088  33.312  1.00  0.00    -0.205 F 
ATOM     68  C   UNL A   1      44.032  27.569  36.473  1.00  0.00     0.022 A 
BRANCH  66  69
ATOM     69  S   UNL A   1      43.540  25.164  35.251  1.00  0.00     0.127 S 
ATOM     70  O   UNL A   1      42.134  24.772  35.226  1.00  0.00    -0.237 OA
ATOM     71  O   UNL A   1      44.251  25.011  33.982  1.00  0.00    -0.237 OA
ATOM     72  O   UNL A   1      44.304  24.735  36.417  1.00  0.00    -0.744 OA
ENDBRANCH  66  69
ENDBRANCH  48  62
BRANCH  49  73
ATOM     73  C   UNL A   1      42.739  24.885  27.291  1.00  0.00     0.023 A 
ATOM     74  C   UNL A   1      41.522  24.179  27.347  1.00  0.00     0.012 A 
ATOM     75  C   UNL A   1      43.802  24.316  26.553  1.00  0.00     0.148 A 
ATOM     76  C   UNL A   1      41.355  22.966  26.665  1.00  0.00     0.002 A 
ATOM     77  C   UNL A   1      43.636  23.105  25.883  1.00  0.00     0.091 A 
ATOM     78  F   UNL A   1      44.943  25.005  26.422  1.00  0.00    -0.205 F 
ATOM     79  C   UNL A   1      42.409  22.433  25.927  1.00  0.00     0.022 A 
BRANCH  77  80
ATOM     80  S   UNL A   1      44.952  22.378  24.894  1.00  0.00     0.127 S 
ATOM     81  O   UNL A   1      44.293  21.203  24.325  1.00  0.00    -0.237 OA
ATOM     82  O   UNL A   1      45.238  23.445  23.939  1.00  0.00    -0.237 OA
ATOM     83  O   UNL A   1      46.024  22.068  25.833  1.00  0.00    -0.744 OA
ENDBRANCH  77  80
ENDBRANCH  49  73
BRANCH  61  84
ATOM     84  C   UNL A   1      45.091  30.605  28.470  1.00  0.00     0.023 A 
ATOM     85  C   UNL A   1      44.101  31.160  27.633  1.00  0.00     0.012 A 
ATOM     86  C   UNL A   1      46.437  30.933  28.235  1.00  0.00     0.148 A 
ATOM     87  C   UNL A   1      44.448  32.008  26.576  1.00  0.00     0.002 A 
ATOM     88  C   UNL A   1      46.774  31.814  27.216  1.00  0.00     0.091 A 
ATOM     89  F   UNL A   1      47.370  30.398  29.038  1.00  0.00    -0.205 F 
ATOM     90  C   UNL A   1      45.784  32.348  26.377  1.00  0.00     0.022 A 
BRANCH  88  91
ATOM     91  S   UNL A   1      48.462  32.386  27.005  1.00  0.00     0.127 S 
ATOM     92  O   UNL A   1      48.768  32.926  28.328  1.00  0.00    -0.237 OA
ATOM     93  O   UNL A   1      49.176  31.154  26.666  1.00  0.00    -0.237 OA
ATOM     94  O   UNL A   1      48.417  33.359  25.920  1.00  0.00    -0.744 OA
ENDBRANCH  88  91
ENDBRANCH  61  84
ENDBRANCH  35  36
ENDBRANCH  27  30
ENDBRANCH  25  26
ENDBRANCH  24  25
ENDBRANCH  23  24
ENDBRANCH   1  23
TORSDOF 20
ENDMDL
