MODEL 1
REMARK VINA RESULT:     -11.8      0.000      0.000
REMARK SMILES C[C@H]1[NH2+]CC[C@H]1C(=O)N1CC(C(=O)NCCCCCCNC(=O)c2ccc(-c3c4nc(c(-c5cccc(S(=O)(=O)[O-])c5F)c5ccc([nH]5)c(-c5cccc(S(=O)(=O)[O-])c5F)c5nc(c(-c6cccc(S(=O)(=O)[O-])c6F)c6ccc3[nH]6)C=C5)C=C4)cc2)C1
REMARK SMILES IDX 18 1 17 2 16 3 15 4 14 5 12 6 13 7 11 9 7 10 8 11 9 12 10 13
REMARK SMILES IDX 87 14 6 15 1 16 2 17 3 18 4 19 5 22 19 23 20 24 21 25 22 26
REMARK SMILES IDX 23 28 24 29 25 30 86 31 26 32 85 33 27 34 28 35 29 36 79 37
REMARK SMILES IDX 30 38 84 39 78 40 80 41 31 42 83 43 77 44 76 45 32 47 64 48
REMARK SMILES IDX 44 49 63 50 45 51 48 52 62 53 81 54 46 55 47 56 61 58 82 59
REMARK SMILES IDX 49 60 33 61 34 62 42 63 35 64 37 65 43 66 36 67 38 68 39 69
REMARK SMILES IDX 40 70 41 71 65 72 66 73 74 74 67 75 69 76 75 77 68 78 70 79
REMARK SMILES IDX 71 80 72 81 73 82 50 83 51 84 59 85 52 86 54 87 60 88 53 89
REMARK SMILES IDX 55 90 56 91 57 92 58 93
REMARK H PARENT 14 8 3 20 3 21 21 27 80 46 48 57
REMARK Flexibility Score: inf
ROOT
ATOM      1  C   UNL A   1      31.819  30.447  26.296  1.00  0.00     0.002 C 
ENDROOT
BRANCH   1   2
ATOM      2  C   UNL A   1      31.184  29.956  24.991  1.00  0.00     0.002 C 
BRANCH   2   3
ATOM      3  C   UNL A   1      31.984  28.888  24.237  1.00  0.00     0.021 C 
BRANCH   3   4
ATOM      4  C   UNL A   1      31.295  28.343  22.986  1.00  0.00     0.116 C 
BRANCH   4   5
ATOM      5  N   UNL A   1      32.224  27.644  22.119  1.00  0.00    -0.356 N 
ATOM      6  C   UNL A   1      32.571  26.318  22.046  1.00  0.00     0.226 C 
ATOM      7  O   UNL A   1      33.419  26.030  21.186  1.00  0.00    -0.275 OA
ATOM      8  H   UNL A   1      32.688  28.222  21.470  1.00  0.00     0.163 HD
BRANCH   6   9
ATOM      9  C   UNL A   1      31.967  25.256  22.970  1.00  0.00     0.117 C 
ATOM     10  C   UNL A   1      32.314  22.655  24.942  1.00  0.00     0.231 C 
ATOM     11  O   UNL A   1      31.143  22.582  25.312  1.00  0.00    -0.274 OA
ATOM     12  N   UNL A   1      32.759  23.679  24.126  1.00  0.00    -0.341 N 
ATOM     13  C   UNL A   1      32.430  25.095  24.408  1.00  0.00     0.134 C 
ATOM     14  C   UNL A   1      32.288  23.795  22.731  1.00  0.00     0.134 C 
BRANCH  10  15
ATOM     15  C   UNL A   1      33.351  21.616  25.345  1.00  0.00     0.142 C 
ATOM     16  C   UNL A   1      32.562  19.867  23.569  1.00  0.00     0.076 C 
ATOM     17  C   UNL A   1      33.079  20.158  24.975  1.00  0.00     0.192 C 
ATOM     18  N   UNL A   1      34.386  19.508  25.161  1.00  0.00    -0.343 N 
ATOM     19  C   UNL A   1      35.441  20.510  24.989  1.00  0.00     0.261 C 
ATOM     20  H   UNL A   1      34.502  18.766  24.470  1.00  0.00     0.346 HD
ATOM     21  H   UNL A   1      34.442  19.104  26.096  1.00  0.00     0.346 HD
ATOM     22  C   UNL A   1      34.757  21.857  24.821  1.00  0.00     0.081 C 
ENDBRANCH  10  15
ENDBRANCH   6   9
ENDBRANCH   4   5
ENDBRANCH   3   4
ENDBRANCH   2   3
ENDBRANCH   1   2
BRANCH   1  23
ATOM     23  C   UNL A   1      31.631  31.936  26.593  1.00  0.00     0.021 C 
BRANCH  23  24
ATOM     24  C   UNL A   1      32.790  32.588  27.337  1.00  0.00     0.116 C 
BRANCH  24  25
ATOM     25  N   UNL A   1      32.531  33.987  27.643  1.00  0.00    -0.352 N 
ATOM     26  C   UNL A   1      33.095  34.779  28.613  1.00  0.00     0.251 C 
ATOM     27  H   UNL A   1      31.856  34.427  27.077  1.00  0.00     0.163 HD
ATOM     28  O   UNL A   1      32.623  35.888  28.855  1.00  0.00    -0.269 OA
BRANCH  26  29
ATOM     29  C   UNL A   1      34.262  34.286  29.374  1.00  0.00     0.039 A 
ATOM     30  C   UNL A   1      34.051  33.564  30.551  1.00  0.00     0.014 A 
ATOM     31  C   UNL A   1      35.561  34.530  28.921  1.00  0.00     0.014 A 
ATOM     32  C   UNL A   1      35.143  33.037  31.244  1.00  0.00     0.010 A 
ATOM     33  C   UNL A   1      36.641  33.938  29.569  1.00  0.00     0.010 A 
ATOM     34  C   UNL A   1      36.446  33.193  30.742  1.00  0.00    -0.014 A 
BRANCH  34  35
ATOM     35  C   UNL A   1      37.619  32.588  31.424  1.00  0.00     0.031 A 
ATOM     36  C   UNL A   1      38.350  31.438  30.785  1.00  0.00     0.074 A 
ATOM     37  C   UNL A   1      37.969  33.009  32.655  1.00  0.00     0.049 A 
ATOM     38  N   UNL A   1      39.336  30.722  31.259  1.00  0.00    -0.248 NA
ATOM     39  C   UNL A   1      37.894  31.015  29.450  1.00  0.00     0.031 C 
ATOM     40  C   UNL A   1      37.297  34.067  33.411  1.00  0.00     0.029 A 
ATOM     41  N   UNL A   1      38.958  32.574  33.503  1.00  0.00    -0.354 N 
ATOM     42  C   UNL A   1      39.591  29.745  30.305  1.00  0.00     0.074 A 
ATOM     43  C   UNL A   1      38.635  29.938  29.237  1.00  0.00     0.031 C 
ATOM     44  C   UNL A   1      37.890  34.200  34.608  1.00  0.00     0.029 A 
ATOM     45  C   UNL A   1      38.960  33.213  34.722  1.00  0.00     0.049 A 
ATOM     46  H   UNL A   1      39.605  31.872  33.262  1.00  0.00     0.167 HD
ATOM     47  C   UNL A   1      40.550  28.788  30.303  1.00  0.00     0.034 A 
ATOM     48  C   UNL A   1      39.723  33.014  35.815  1.00  0.00     0.034 A 
ATOM     49  C   UNL A   1      41.524  28.625  31.347  1.00  0.00     0.049 A 
ATOM     50  C   UNL A   1      40.799  31.964  35.776  1.00  0.00     0.074 A 
ATOM     51  C   UNL A   1      42.590  27.744  31.397  1.00  0.00     0.029 A 
ATOM     52  N   UNL A   1      41.546  29.346  32.531  1.00  0.00    -0.354 N 
ATOM     53  N   UNL A   1      41.120  31.147  34.802  1.00  0.00    -0.248 NA
ATOM     54  C   UNL A   1      41.644  31.830  36.973  1.00  0.00     0.031 C 
ATOM     55  C   UNL A   1      43.236  27.909  32.626  1.00  0.00     0.029 A 
ATOM     56  C   UNL A   1      42.598  28.923  33.322  1.00  0.00     0.049 A 
ATOM     57  H   UNL A   1      40.907  30.056  32.772  1.00  0.00     0.167 HD
ATOM     58  C   UNL A   1      42.227  30.435  35.250  1.00  0.00     0.074 A 
ATOM     59  C   UNL A   1      42.530  30.925  36.579  1.00  0.00     0.031 C 
ATOM     60  C   UNL A   1      42.924  29.457  34.621  1.00  0.00     0.034 A 
BRANCH  47  61
ATOM     61  C   UNL A   1      40.618  27.864  29.115  1.00  0.00     0.023 A 
ATOM     62  C   UNL A   1      39.730  26.773  29.023  1.00  0.00     0.012 A 
ATOM     63  C   UNL A   1      41.520  28.109  28.061  1.00  0.00     0.148 A 
ATOM     64  C   UNL A   1      39.762  25.920  27.921  1.00  0.00     0.002 A 
ATOM     65  C   UNL A   1      41.513  27.283  26.943  1.00  0.00     0.091 A 
ATOM     66  F   UNL A   1      42.372  29.139  28.174  1.00  0.00    -0.205 F 
ATOM     67  C   UNL A   1      40.645  26.181  26.878  1.00  0.00     0.022 A 
BRANCH  65  68
ATOM     68  S   UNL A   1      42.553  27.583  25.510  1.00  0.00     0.127 S 
ATOM     69  O   UNL A   1      42.261  26.413  24.683  1.00  0.00    -0.237 OA
ATOM     70  O   UNL A   1      42.013  28.843  24.997  1.00  0.00    -0.237 OA
ATOM     71  O   UNL A   1      43.918  27.666  26.012  1.00  0.00    -0.744 OA
ENDBRANCH  65  68
ENDBRANCH  47  61
BRANCH  48  72
ATOM     72  C   UNL A   1      39.527  33.863  37.024  1.00  0.00     0.023 A 
ATOM     73  C   UNL A   1      39.954  35.206  37.007  1.00  0.00     0.012 A 
ATOM     74  C   UNL A   1      38.903  33.356  38.180  1.00  0.00     0.148 A 
ATOM     75  C   UNL A   1      39.796  36.017  38.132  1.00  0.00     0.002 A 
ATOM     76  C   UNL A   1      38.695  34.186  39.275  1.00  0.00     0.091 A 
ATOM     77  F   UNL A   1      38.511  32.074  38.179  1.00  0.00    -0.205 F 
ATOM     78  C   UNL A   1      39.159  35.511  39.262  1.00  0.00     0.022 A 
BRANCH  76  79
ATOM     79  S   UNL A   1      37.768  33.659  40.720  1.00  0.00     0.127 S 
ATOM     80  O   UNL A   1      36.518  33.197  40.123  1.00  0.00    -0.237 OA
ATOM     81  O   UNL A   1      38.624  32.602  41.258  1.00  0.00    -0.237 OA
ATOM     82  O   UNL A   1      37.664  34.836  41.573  1.00  0.00    -0.744 OA
ENDBRANCH  76  79
ENDBRANCH  48  72
BRANCH  60  83
ATOM     83  C   UNL A   1      44.123  28.881  35.326  1.00  0.00     0.023 A 
ATOM     84  C   UNL A   1      45.395  29.462  35.153  1.00  0.00     0.012 A 
ATOM     85  C   UNL A   1      43.969  27.813  36.232  1.00  0.00     0.148 A 
ATOM     86  C   UNL A   1      46.498  28.970  35.849  1.00  0.00     0.002 A 
ATOM     87  C   UNL A   1      45.061  27.363  36.963  1.00  0.00     0.091 A 
ATOM     88  F   UNL A   1      42.753  27.262  36.370  1.00  0.00    -0.205 F 
ATOM     89  C   UNL A   1      46.329  27.932  36.763  1.00  0.00     0.022 A 
BRANCH  87  90
ATOM     90  S   UNL A   1      44.919  26.103  38.234  1.00  0.00     0.127 S 
ATOM     91  O   UNL A   1      46.306  25.971  38.678  1.00  0.00    -0.237 OA
ATOM     92  O   UNL A   1      44.025  26.740  39.202  1.00  0.00    -0.237 OA
ATOM     93  O   UNL A   1      44.362  24.927  37.577  1.00  0.00    -0.744 OA
ENDBRANCH  87  90
ENDBRANCH  60  83
ENDBRANCH  34  35
ENDBRANCH  26  29
ENDBRANCH  24  25
ENDBRANCH  23  24
ENDBRANCH   1  23
TORSDOF 17
ENDMDL
MODEL 2
REMARK VINA RESULT:     -11.5      3.475      8.792
REMARK SMILES C[C@H]1[NH2+]CC[C@H]1C(=O)N1CC(C(=O)NCCCCCCNC(=O)c2ccc(-c3c4nc(c(-c5cccc(S(=O)(=O)[O-])c5F)c5ccc([nH]5)c(-c5cccc(S(=O)(=O)[O-])c5F)c5nc(c(-c6cccc(S(=O)(=O)[O-])c6F)c6ccc3[nH]6)C=C5)C=C4)cc2)C1
REMARK SMILES IDX 18 1 17 2 16 3 15 4 14 5 12 6 13 7 11 9 7 10 8 11 9 12 10 13
REMARK SMILES IDX 87 14 6 15 1 16 2 17 3 18 4 19 5 22 19 23 20 24 21 25 22 26
REMARK SMILES IDX 23 28 24 29 25 30 86 31 26 32 85 33 27 34 28 35 29 36 79 37
REMARK SMILES IDX 30 38 84 39 78 40 80 41 31 42 83 43 77 44 76 45 32 47 64 48
REMARK SMILES IDX 44 49 63 50 45 51 48 52 62 53 81 54 46 55 47 56 61 58 82 59
REMARK SMILES IDX 49 60 33 61 34 62 42 63 35 64 37 65 43 66 36 67 38 68 39 69
REMARK SMILES IDX 40 70 41 71 65 72 66 73 74 74 67 75 69 76 75 77 68 78 70 79
REMARK SMILES IDX 71 80 72 81 73 82 50 83 51 84 59 85 52 86 54 87 60 88 53 89
REMARK SMILES IDX 55 90 56 91 57 92 58 93
REMARK H PARENT 14 8 3 20 3 21 21 27 80 46 48 57
REMARK Flexibility Score: inf
ROOT
ATOM      1  C   UNL A   1      31.642  29.353  24.948  1.00  0.00     0.002 C 
ENDROOT
BRANCH   1   2
ATOM      2  C   UNL A   1      30.702  28.711  23.923  1.00  0.00     0.002 C 
BRANCH   2   3
ATOM      3  C   UNL A   1      31.357  27.689  22.986  1.00  0.00     0.021 C 
BRANCH   3   4
ATOM      4  C   UNL A   1      30.873  26.253  23.175  1.00  0.00     0.116 C 
BRANCH   4   5
ATOM      5  N   UNL A   1      30.444  26.001  24.538  1.00  0.00    -0.356 N 
ATOM      6  C   UNL A   1      30.673  24.940  25.378  1.00  0.00     0.226 C 
ATOM      7  O   UNL A   1      30.151  25.021  26.501  1.00  0.00    -0.275 OA
ATOM      8  H   UNL A   1      29.890  26.716  24.928  1.00  0.00     0.163 HD
BRANCH   6   9
ATOM      9  C   UNL A   1      31.506  23.725  24.961  1.00  0.00     0.117 C 
ATOM     10  C   UNL A   1      34.323  22.039  25.013  1.00  0.00     0.231 C 
ATOM     11  O   UNL A   1      33.927  21.054  24.390  1.00  0.00    -0.274 OA
ATOM     12  N   UNL A   1      33.471  23.072  25.364  1.00  0.00    -0.341 N 
ATOM     13  C   UNL A   1      32.155  22.812  25.988  1.00  0.00     0.134 C 
ATOM     14  C   UNL A   1      32.868  23.939  24.332  1.00  0.00     0.134 C 
BRANCH  10  15
ATOM     15  C   UNL A   1      35.779  22.196  25.428  1.00  0.00     0.142 C 
ATOM     16  C   UNL A   1      36.583  22.877  23.035  1.00  0.00     0.076 C 
ATOM     17  C   UNL A   1      36.843  22.120  24.334  1.00  0.00     0.192 C 
ATOM     18  N   UNL A   1      38.045  22.664  24.987  1.00  0.00    -0.343 N 
ATOM     19  C   UNL A   1      37.630  23.573  26.058  1.00  0.00     0.261 C 
ATOM     20  H   UNL A   1      38.606  23.174  24.303  1.00  0.00     0.346 HD
ATOM     21  H   UNL A   1      38.603  21.904  25.375  1.00  0.00     0.346 HD
ATOM     22  C   UNL A   1      36.115  23.485  26.160  1.00  0.00     0.081 C 
ENDBRANCH  10  15
ENDBRANCH   6   9
ENDBRANCH   4   5
ENDBRANCH   3   4
ENDBRANCH   2   3
ENDBRANCH   1   2
BRANCH   1  23
ATOM     23  C   UNL A   1      33.095  28.880  24.885  1.00  0.00     0.021 C 
BRANCH  23  24
ATOM     24  C   UNL A   1      33.876  29.046  26.184  1.00  0.00     0.116 C 
BRANCH  24  25
ATOM     25  N   UNL A   1      33.781  30.397  26.716  1.00  0.00    -0.352 N 
ATOM     26  C   UNL A   1      34.574  31.016  27.650  1.00  0.00     0.251 C 
ATOM     27  H   UNL A   1      33.044  30.942  26.356  1.00  0.00     0.163 HD
ATOM     28  O   UNL A   1      34.237  32.099  28.123  1.00  0.00    -0.269 OA
BRANCH  26  29
ATOM     29  C   UNL A   1      35.825  30.368  28.095  1.00  0.00     0.039 A 
ATOM     30  C   UNL A   1      36.962  30.457  27.288  1.00  0.00     0.014 A 
ATOM     31  C   UNL A   1      35.877  29.680  29.310  1.00  0.00     0.014 A 
ATOM     32  C   UNL A   1      38.167  29.905  27.727  1.00  0.00     0.010 A 
ATOM     33  C   UNL A   1      37.095  29.201  29.781  1.00  0.00     0.010 A 
ATOM     34  C   UNL A   1      38.252  29.299  28.992  1.00  0.00    -0.014 A 
BRANCH  34  35
ATOM     35  C   UNL A   1      39.536  28.762  29.513  1.00  0.00     0.031 A 
ATOM     36  C   UNL A   1      40.249  29.469  30.633  1.00  0.00     0.074 A 
ATOM     37  C   UNL A   1      40.105  27.695  28.918  1.00  0.00     0.049 A 
ATOM     38  N   UNL A   1      41.415  29.208  31.163  1.00  0.00    -0.248 NA
ATOM     39  C   UNL A   1      39.578  30.644  31.216  1.00  0.00     0.031 C 
ATOM     40  C   UNL A   1      39.549  26.964  27.778  1.00  0.00     0.029 A 
ATOM     41  N   UNL A   1      41.296  27.059  29.169  1.00  0.00    -0.354 N 
ATOM     42  C   UNL A   1      41.637  30.203  32.107  1.00  0.00     0.074 A 
ATOM     43  C   UNL A   1      40.497  31.093  32.057  1.00  0.00     0.031 C 
ATOM     44  C   UNL A   1      40.395  25.982  27.428  1.00  0.00     0.029 A 
ATOM     45  C   UNL A   1      41.571  26.036  28.291  1.00  0.00     0.049 A 
ATOM     46  H   UNL A   1      41.898  27.312  29.907  1.00  0.00     0.167 HD
ATOM     47  C   UNL A   1      42.679  30.351  32.959  1.00  0.00     0.034 A 
ATOM     48  C   UNL A   1      42.654  25.242  28.181  1.00  0.00     0.034 A 
ATOM     49  C   UNL A   1      43.790  29.442  33.033  1.00  0.00     0.049 A 
ATOM     50  C   UNL A   1      43.787  25.409  29.157  1.00  0.00     0.074 A 
ATOM     51  C   UNL A   1      44.852  29.454  33.921  1.00  0.00     0.029 A 
ATOM     52  N   UNL A   1      43.993  28.366  32.183  1.00  0.00    -0.354 N 
ATOM     53  N   UNL A   1      43.908  26.266  30.142  1.00  0.00    -0.248 NA
ATOM     54  C   UNL A   1      44.918  24.477  29.032  1.00  0.00     0.031 C 
ATOM     55  C   UNL A   1      45.714  28.407  33.585  1.00  0.00     0.029 A 
ATOM     56  C   UNL A   1      45.167  27.715  32.515  1.00  0.00     0.049 A 
ATOM     57  H   UNL A   1      43.389  28.103  31.450  1.00  0.00     0.167 HD
ATOM     58  C   UNL A   1      45.103  25.949  30.778  1.00  0.00     0.074 A 
ATOM     59  C   UNL A   1      45.663  24.813  30.076  1.00  0.00     0.031 C 
ATOM     60  C   UNL A   1      45.687  26.551  31.844  1.00  0.00     0.034 A 
BRANCH  47  61
ATOM     61  C   UNL A   1      42.652  31.520  33.908  1.00  0.00     0.023 A 
ATOM     62  C   UNL A   1      43.118  32.780  33.481  1.00  0.00     0.012 A 
ATOM     63  C   UNL A   1      42.109  31.387  35.201  1.00  0.00     0.148 A 
ATOM     64  C   UNL A   1      43.080  33.881  34.337  1.00  0.00     0.002 A 
ATOM     65  C   UNL A   1      42.029  32.500  36.031  1.00  0.00     0.091 A 
ATOM     66  F   UNL A   1      41.689  30.178  35.598  1.00  0.00    -0.205 F 
ATOM     67  C   UNL A   1      42.526  33.742  35.606  1.00  0.00     0.022 A 
BRANCH  65  68
ATOM     68  S   UNL A   1      41.259  32.445  37.653  1.00  0.00     0.127 S 
ATOM     69  O   UNL A   1      42.143  31.526  38.368  1.00  0.00    -0.237 OA
ATOM     70  O   UNL A   1      41.352  33.840  38.084  1.00  0.00    -0.237 OA
ATOM     71  O   UNL A   1      39.901  31.964  37.439  1.00  0.00    -0.744 OA
ENDBRANCH  65  68
ENDBRANCH  47  61
BRANCH  48  72
ATOM     72  C   UNL A   1      42.698  24.183  27.133  1.00  0.00     0.023 A 
ATOM     73  C   UNL A   1      43.450  24.397  25.961  1.00  0.00     0.012 A 
ATOM     74  C   UNL A   1      42.018  22.961  27.299  1.00  0.00     0.148 A 
ATOM     75  C   UNL A   1      43.495  23.428  24.957  1.00  0.00     0.002 A 
ATOM     76  C   UNL A   1      42.115  21.977  26.322  1.00  0.00     0.091 A 
ATOM     77  F   UNL A   1      41.301  22.781  28.417  1.00  0.00    -0.205 F 
ATOM     78  C   UNL A   1      42.836  22.216  25.141  1.00  0.00     0.022 A 
BRANCH  76  79
ATOM     79  S   UNL A   1      41.410  20.339  26.533  1.00  0.00     0.127 S 
ATOM     80  O   UNL A   1      39.978  20.618  26.475  1.00  0.00    -0.237 OA
ATOM     81  O   UNL A   1      41.949  19.629  25.372  1.00  0.00    -0.237 OA
ATOM     82  O   UNL A   1      41.908  19.856  27.814  1.00  0.00    -0.744 OA
ENDBRANCH  76  79
ENDBRANCH  48  72
BRANCH  60  83
ATOM     83  C   UNL A   1      46.975  25.969  32.364  1.00  0.00     0.023 A 
ATOM     84  C   UNL A   1      48.212  26.463  31.909  1.00  0.00     0.012 A 
ATOM     85  C   UNL A   1      46.952  24.987  33.375  1.00  0.00     0.148 A 
ATOM     86  C   UNL A   1      49.408  25.969  32.431  1.00  0.00     0.002 A 
ATOM     87  C   UNL A   1      48.144  24.538  33.929  1.00  0.00     0.091 A 
ATOM     88  F   UNL A   1      45.763  24.517  33.783  1.00  0.00    -0.205 F 
ATOM     89  C   UNL A   1      49.373  25.018  33.449  1.00  0.00     0.022 A 
BRANCH  87  90
ATOM     90  S   UNL A   1      48.195  23.394  35.311  1.00  0.00     0.127 S 
ATOM     91  O   UNL A   1      49.629  23.133  35.429  1.00  0.00    -0.237 OA
ATOM     92  O   UNL A   1      47.629  24.195  36.397  1.00  0.00    -0.237 OA
ATOM     93  O   UNL A   1      47.384  22.248  34.918  1.00  0.00    -0.744 OA
ENDBRANCH  87  90
ENDBRANCH  60  83
ENDBRANCH  34  35
ENDBRANCH  26  29
ENDBRANCH  24  25
ENDBRANCH  23  24
ENDBRANCH   1  23
TORSDOF 17
ENDMDL
MODEL 3
REMARK VINA RESULT:     -11.5      2.549      3.390
REMARK SMILES C[C@H]1[NH2+]CC[C@H]1C(=O)N1CC(C(=O)NCCCCCCNC(=O)c2ccc(-c3c4nc(c(-c5cccc(S(=O)(=O)[O-])c5F)c5ccc([nH]5)c(-c5cccc(S(=O)(=O)[O-])c5F)c5nc(c(-c6cccc(S(=O)(=O)[O-])c6F)c6ccc3[nH]6)C=C5)C=C4)cc2)C1
REMARK SMILES IDX 18 1 17 2 16 3 15 4 14 5 12 6 13 7 11 9 7 10 8 11 9 12 10 13
REMARK SMILES IDX 87 14 6 15 1 16 2 17 3 18 4 19 5 22 19 23 20 24 21 25 22 26
REMARK SMILES IDX 23 28 24 29 25 30 86 31 26 32 85 33 27 34 28 35 29 36 79 37
REMARK SMILES IDX 30 38 84 39 78 40 80 41 31 42 83 43 77 44 76 45 32 47 64 48
REMARK SMILES IDX 44 49 63 50 45 51 48 52 62 53 81 54 46 55 47 56 61 58 82 59
REMARK SMILES IDX 49 60 33 61 34 62 42 63 35 64 37 65 43 66 36 67 38 68 39 69
REMARK SMILES IDX 40 70 41 71 65 72 66 73 74 74 67 75 69 76 75 77 68 78 70 79
REMARK SMILES IDX 71 80 72 81 73 82 50 83 51 84 59 85 52 86 54 87 60 88 53 89
REMARK SMILES IDX 55 90 56 91 57 92 58 93
REMARK H PARENT 14 8 3 20 3 21 21 27 80 46 48 57
REMARK Flexibility Score: inf
ROOT
ATOM      1  C   UNL A   1      31.419  28.028  26.067  1.00  0.00     0.002 C 
ENDROOT
BRANCH   1   2
ATOM      2  C   UNL A   1      30.611  27.173  25.086  1.00  0.00     0.002 C 
BRANCH   2   3
ATOM      3  C   UNL A   1      30.136  27.900  23.823  1.00  0.00     0.021 C 
BRANCH   3   4
ATOM      4  C   UNL A   1      30.388  27.142  22.520  1.00  0.00     0.116 C 
BRANCH   4   5
ATOM      5  N   UNL A   1      31.739  27.344  22.031  1.00  0.00    -0.356 N 
ATOM      6  C   UNL A   1      32.876  26.588  22.173  1.00  0.00     0.226 C 
ATOM      7  O   UNL A   1      33.896  27.044  21.632  1.00  0.00    -0.275 OA
ATOM      8  H   UNL A   1      31.861  28.168  21.506  1.00  0.00     0.163 HD
BRANCH   6   9
ATOM      9  C   UNL A   1      32.898  25.273  22.957  1.00  0.00     0.117 C 
ATOM     10  C   UNL A   1      34.550  22.760  24.273  1.00  0.00     0.231 C 
ATOM     11  O   UNL A   1      33.593  22.214  24.822  1.00  0.00    -0.274 OA
ATOM     12  N   UNL A   1      34.420  23.969  23.613  1.00  0.00    -0.341 N 
ATOM     13  C   UNL A   1      33.715  25.116  24.228  1.00  0.00     0.134 C 
ATOM     14  C   UNL A   1      33.621  24.075  22.376  1.00  0.00     0.134 C 
BRANCH  10  15
ATOM     15  C   UNL A   1      35.938  22.135  24.269  1.00  0.00     0.142 C 
ATOM     16  C   UNL A   1      36.873  23.748  26.102  1.00  0.00     0.076 C 
ATOM     17  C   UNL A   1      37.097  22.973  24.807  1.00  0.00     0.192 C 
ATOM     18  N   UNL A   1      38.170  21.986  25.005  1.00  0.00    -0.343 N 
ATOM     19  C   UNL A   1      37.567  20.670  25.228  1.00  0.00     0.261 C 
ATOM     20  H   UNL A   1      38.731  22.247  25.816  1.00  0.00     0.346 HD
ATOM     21  H   UNL A   1      38.770  21.956  24.181  1.00  0.00     0.346 HD
ATOM     22  C   UNL A   1      36.067  20.824  25.028  1.00  0.00     0.081 C 
ENDBRANCH  10  15
ENDBRANCH   6   9
ENDBRANCH   4   5
ENDBRANCH   3   4
ENDBRANCH   2   3
ENDBRANCH   1   2
BRANCH   1  23
ATOM     23  C   UNL A   1      32.927  28.062  25.812  1.00  0.00     0.021 C 
BRANCH  23  24
ATOM     24  C   UNL A   1      33.435  29.347  25.169  1.00  0.00     0.116 C 
BRANCH  24  25
ATOM     25  N   UNL A   1      32.843  30.534  25.767  1.00  0.00    -0.352 N 
ATOM     26  C   UNL A   1      33.237  31.226  26.885  1.00  0.00     0.251 C 
ATOM     27  H   UNL A   1      32.049  30.889  25.306  1.00  0.00     0.163 HD
ATOM     28  O   UNL A   1      32.510  32.097  27.358  1.00  0.00    -0.269 OA
BRANCH  26  29
ATOM     29  C   UNL A   1      34.530  30.908  27.526  1.00  0.00     0.039 A 
ATOM     30  C   UNL A   1      35.501  31.907  27.632  1.00  0.00     0.014 A 
ATOM     31  C   UNL A   1      34.780  29.628  28.029  1.00  0.00     0.014 A 
ATOM     32  C   UNL A   1      36.701  31.638  28.294  1.00  0.00     0.010 A 
ATOM     33  C   UNL A   1      35.941  29.386  28.756  1.00  0.00     0.010 A 
ATOM     34  C   UNL A   1      36.919  30.384  28.889  1.00  0.00    -0.014 A 
BRANCH  34  35
ATOM     35  C   UNL A   1      38.158  30.092  29.655  1.00  0.00     0.031 A 
ATOM     36  C   UNL A   1      39.177  29.133  29.101  1.00  0.00     0.074 A 
ATOM     37  C   UNL A   1      38.323  30.614  30.887  1.00  0.00     0.049 A 
ATOM     38  N   UNL A   1      40.273  28.685  29.654  1.00  0.00    -0.248 NA
ATOM     39  C   UNL A   1      38.916  28.582  27.760  1.00  0.00     0.031 C 
ATOM     40  C   UNL A   1      37.375  31.500  31.564  1.00  0.00     0.029 A 
ATOM     41  N   UNL A   1      39.332  30.448  31.802  1.00  0.00    -0.354 N 
ATOM     42  C   UNL A   1      40.809  27.772  28.754  1.00  0.00     0.074 A 
ATOM     43  C   UNL A   1      39.902  27.707  27.629  1.00  0.00     0.031 C 
ATOM     44  C   UNL A   1      37.845  31.799  32.785  1.00  0.00     0.029 A 
ATOM     45  C   UNL A   1      39.108  31.097  32.994  1.00  0.00     0.049 A 
ATOM     46  H   UNL A   1      40.140  29.913  31.623  1.00  0.00     0.167 HD
ATOM     47  C   UNL A   1      41.965  27.072  28.839  1.00  0.00     0.034 A 
ATOM     48  C   UNL A   1      39.828  31.113  34.134  1.00  0.00     0.034 A 
ATOM     49  C   UNL A   1      42.884  27.169  29.940  1.00  0.00     0.049 A 
ATOM     50  C   UNL A   1      41.122  30.347  34.193  1.00  0.00     0.074 A 
ATOM     51  C   UNL A   1      44.123  26.569  30.081  1.00  0.00     0.029 A 
ATOM     52  N   UNL A   1      42.663  27.904  31.095  1.00  0.00    -0.354 N 
ATOM     53  N   UNL A   1      41.686  29.607  33.269  1.00  0.00    -0.248 NA
ATOM     54  C   UNL A   1      41.899  30.447  35.438  1.00  0.00     0.031 C 
ATOM     55  C   UNL A   1      44.635  26.912  31.336  1.00  0.00     0.029 A 
ATOM     56  C   UNL A   1      43.734  27.762  31.958  1.00  0.00     0.049 A 
ATOM     57  H   UNL A   1      41.861  28.448  31.274  1.00  0.00     0.167 HD
ATOM     58  C   UNL A   1      42.900  29.189  33.804  1.00  0.00     0.074 A 
ATOM     59  C   UNL A   1      42.996  29.769  35.127  1.00  0.00     0.031 C 
ATOM     60  C   UNL A   1      43.845  28.390  33.250  1.00  0.00     0.034 A 
BRANCH  47  61
ATOM     61  C   UNL A   1      42.322  26.162  27.693  1.00  0.00     0.023 A 
ATOM     62  C   UNL A   1      43.129  26.643  26.642  1.00  0.00     0.012 A 
ATOM     63  C   UNL A   1      41.912  24.814  27.686  1.00  0.00     0.148 A 
ATOM     64  C   UNL A   1      43.490  25.810  25.583  1.00  0.00     0.002 A 
ATOM     65  C   UNL A   1      42.317  23.977  26.653  1.00  0.00     0.091 A 
ATOM     66  F   UNL A   1      41.129  24.379  28.683  1.00  0.00    -0.205 F 
ATOM     67  C   UNL A   1      43.093  24.476  25.595  1.00  0.00     0.022 A 
BRANCH  65  68
ATOM     68  S   UNL A   1      41.928  22.224  26.618  1.00  0.00     0.127 S 
ATOM     69  O   UNL A   1      42.535  21.812  25.353  1.00  0.00    -0.237 OA
ATOM     70  O   UNL A   1      42.617  21.733  27.813  1.00  0.00    -0.237 OA
ATOM     71  O   UNL A   1      40.476  22.131  26.672  1.00  0.00    -0.744 OA
ENDBRANCH  65  68
ENDBRANCH  47  61
BRANCH  48  72
ATOM     72  C   UNL A   1      39.363  31.920  35.297  1.00  0.00     0.023 A 
ATOM     73  C   UNL A   1      38.482  31.345  36.234  1.00  0.00     0.012 A 
ATOM     74  C   UNL A   1      39.804  33.244  35.491  1.00  0.00     0.148 A 
ATOM     75  C   UNL A   1      38.021  32.084  37.324  1.00  0.00     0.002 A 
ATOM     76  C   UNL A   1      39.387  33.955  36.610  1.00  0.00     0.091 A 
ATOM     77  F   UNL A   1      40.635  33.775  34.584  1.00  0.00    -0.205 F 
ATOM     78  C   UNL A   1      38.479  33.385  37.517  1.00  0.00     0.022 A 
BRANCH  76  79
ATOM     79  S   UNL A   1      40.028  35.584  37.010  1.00  0.00     0.127 S 
ATOM     80  O   UNL A   1      39.643  36.356  35.832  1.00  0.00    -0.237 OA
ATOM     81  O   UNL A   1      39.287  35.907  38.230  1.00  0.00    -0.237 OA
ATOM     82  O   UNL A   1      41.460  35.407  37.209  1.00  0.00    -0.744 OA
ENDBRANCH  76  79
ENDBRANCH  48  72
BRANCH  60  83
ATOM     83  C   UNL A   1      45.101  28.132  34.040  1.00  0.00     0.023 A 
ATOM     84  C   UNL A   1      46.211  28.988  33.905  1.00  0.00     0.012 A 
ATOM     85  C   UNL A   1      45.143  27.089  34.986  1.00  0.00     0.148 A 
ATOM     86  C   UNL A   1      47.356  28.790  34.678  1.00  0.00     0.002 A 
ATOM     87  C   UNL A   1      46.264  26.930  35.790  1.00  0.00     0.091 A 
ATOM     88  F   UNL A   1      44.081  26.274  35.087  1.00  0.00    -0.205 F 
ATOM     89  C   UNL A   1      47.377  27.772  35.628  1.00  0.00     0.022 A 
BRANCH  87  90
ATOM     90  S   UNL A   1      46.342  25.714  37.109  1.00  0.00     0.127 S 
ATOM     91  O   UNL A   1      45.240  26.138  37.971  1.00  0.00    -0.237 OA
ATOM     92  O   UNL A   1      46.106  24.462  36.388  1.00  0.00    -0.237 OA
ATOM     93  O   UNL A   1      47.672  25.835  37.693  1.00  0.00    -0.744 OA
ENDBRANCH  87  90
ENDBRANCH  60  83
ENDBRANCH  34  35
ENDBRANCH  26  29
ENDBRANCH  24  25
ENDBRANCH  23  24
ENDBRANCH   1  23
TORSDOF 17
ENDMDL
