MODEL 1
REMARK VINA RESULT:     -11.5      0.000      0.000
REMARK SMILES COC(=O)c1c(-c2ccccc2Cl)csc1NC(=O)[C@@H]1[C@@H]2CC[C@@H](C2)[C@@H]1C(=O)NCCCCCCNC(=O)c1ccc(-c2c3nc(c(-c4cccc(S(=O)(=O)[O-])c4F)c4ccc([nH]4)c(-c4cccc(S(=O)(=O)[O-])c4F)c4nc(c(-c5cccc(S(=O)(=O)[O-])c5F)c5ccc2[nH]5)C=C4)C=C3)cc1
REMARK SMILES IDX 32 1 31 2 30 3 29 4 27 5 28 6 26 8 20 9 21 10 22 11 25 12
REMARK SMILES IDX 24 13 23 14 18 15 17 16 19 18 16 19 5 20 6 21 14 22 15 23
REMARK SMILES IDX 3 24 4 25 2 26 1 27 7 28 8 29 12 30 9 31 11 32 13 33 10 34
REMARK SMILES IDX 33 35 34 36 35 37 36 38 37 39 38 41 39 42 40 43 101 44 41 45
REMARK SMILES IDX 100 46 42 47 43 48 44 49 94 50 45 51 99 52 93 53 95 54 46 55
REMARK SMILES IDX 98 56 92 57 91 58 47 60 79 61 59 62 78 63 60 64 63 65 77 66
REMARK SMILES IDX 96 67 61 68 62 69 76 71 97 72 64 73 48 74 49 75 57 76 50 77
REMARK SMILES IDX 52 78 58 79 51 80 53 81 54 82 55 83 56 84 80 85 81 86 89 87
REMARK SMILES IDX 82 88 84 89 90 90 83 91 85 92 86 93 87 94 88 95 65 96 66 97
REMARK SMILES IDX 74 98 67 99 69 100 75 101 68 102 70 103 71 104 72 105 73 106
REMARK H PARENT 29 7 17 17 36 40 95 59 63 70
REMARK Flexibility Score: inf
ROOT
ATOM      1  C   UNL A   1      34.851  31.189  28.457  1.00  0.00     0.002 C 
ENDROOT
BRANCH   1   2
ATOM      2  C   UNL A   1      34.764  30.028  27.468  1.00  0.00     0.021 C 
BRANCH   2   3
ATOM      3  C   UNL A   1      33.434  29.879  26.741  1.00  0.00     0.116 C 
BRANCH   3   4
ATOM      4  N   UNL A   1      33.544  29.768  25.310  1.00  0.00    -0.356 N 
ATOM      5  C   UNL A   1      32.783  29.105  24.408  1.00  0.00     0.224 C 
ATOM      6  O   UNL A   1      33.063  29.325  23.220  1.00  0.00    -0.275 OA
ATOM      7  H   UNL A   1      34.304  30.258  24.920  1.00  0.00     0.163 HD
BRANCH   5   8
ATOM      8  C   UNL A   1      31.706  28.056  24.716  1.00  0.00     0.094 C 
ATOM      9  C   UNL A   1      31.927  26.635  25.280  1.00  0.00     0.094 C 
ATOM     10  C   UNL A   1      31.043  25.760  24.335  1.00  0.00     0.002 C 
ATOM     11  C   UNL A   1      31.520  25.703  22.875  1.00  0.00     0.005 C 
ATOM     12  C   UNL A   1      29.825  26.685  24.176  1.00  0.00     0.009 C 
ATOM     13  C   UNL A   1      30.662  27.829  23.584  1.00  0.00     0.002 C 
ATOM     14  C   UNL A   1      31.253  27.123  22.359  1.00  0.00     0.005 C 
BRANCH   9  15
ATOM     15  C   UNL A   1      33.332  26.145  25.562  1.00  0.00     0.229 C 
ATOM     16  N   UNL A   1      33.642  24.906  26.032  1.00  0.00    -0.317 N 
ATOM     17  H   UNL A   1      34.516  24.882  26.487  1.00  0.00     0.170 HD
ATOM     18  O   UNL A   1      34.300  26.891  25.370  1.00  0.00    -0.274 OA
BRANCH  16  19
ATOM     19  C   UNL A   1      33.014  23.670  26.021  1.00  0.00     0.110 A 
ATOM     20  C   UNL A   1      33.499  22.538  25.362  1.00  0.00     0.102 A 
ATOM     21  C   UNL A   1      32.491  21.500  25.317  1.00  0.00     0.011 A 
ATOM     22  C   UNL A   1      31.373  21.841  26.051  1.00  0.00     0.076 A 
ATOM     23  S   UNL A   1      31.511  23.389  26.742  1.00  0.00    -0.125 S 
BRANCH  20  24
ATOM     24  C   UNL A   1      34.831  22.521  24.748  1.00  0.00     0.341 C 
ATOM     25  O   UNL A   1      34.987  22.549  23.531  1.00  0.00    -0.246 OA
BRANCH  24  26
ATOM     26  O   UNL A   1      35.849  22.461  25.649  1.00  0.00    -0.465 OA
ATOM     27  C   UNL A   1      36.737  21.352  25.495  1.00  0.00     0.282 C 
ENDBRANCH  24  26
ENDBRANCH  20  24
BRANCH  21  28
ATOM     28  C   UNL A   1      32.525  20.222  24.613  1.00  0.00     0.002 A 
ATOM     29  C   UNL A   1      32.790  19.053  25.342  1.00  0.00     0.010 A 
ATOM     30  C   UNL A   1      32.310  20.126  23.225  1.00  0.00     0.048 A 
ATOM     31  C   UNL A   1      32.839  17.813  24.699  1.00  0.00     0.001 A 
ATOM     32  C   UNL A   1      32.358  18.883  22.588  1.00  0.00     0.021 A 
ATOM     33  Cl  UNL A   1      31.985  21.512  22.243  1.00  0.00    -0.084 Cl
ATOM     34  C   UNL A   1      32.622  17.728  23.324  1.00  0.00     0.002 A 
ENDBRANCH  21  28
ENDBRANCH  16  19
ENDBRANCH   9  15
ENDBRANCH   5   8
ENDBRANCH   3   4
ENDBRANCH   2   3
ENDBRANCH   1   2
BRANCH   1  35
ATOM     35  C   UNL A   1      35.581  32.446  27.971  1.00  0.00     0.002 C 
BRANCH  35  36
ATOM     36  C   UNL A   1      34.754  33.734  27.880  1.00  0.00     0.021 C 
BRANCH  36  37
ATOM     37  C   UNL A   1      33.317  33.649  28.384  1.00  0.00     0.116 C 
BRANCH  37  38
ATOM     38  N   UNL A   1      32.981  34.715  29.312  1.00  0.00    -0.352 N 
ATOM     39  C   UNL A   1      33.506  34.994  30.549  1.00  0.00     0.251 C 
ATOM     40  H   UNL A   1      32.273  35.329  29.008  1.00  0.00     0.163 HD
ATOM     41  O   UNL A   1      32.999  35.869  31.245  1.00  0.00    -0.269 OA
BRANCH  39  42
ATOM     42  C   UNL A   1      34.668  34.228  31.054  1.00  0.00     0.039 A 
ATOM     43  C   UNL A   1      34.437  33.025  31.728  1.00  0.00     0.014 A 
ATOM     44  C   UNL A   1      35.973  34.699  30.889  1.00  0.00     0.014 A 
ATOM     45  C   UNL A   1      35.517  32.268  32.191  1.00  0.00     0.010 A 
ATOM     46  C   UNL A   1      37.050  33.916  31.298  1.00  0.00     0.010 A 
ATOM     47  C   UNL A   1      36.833  32.697  31.961  1.00  0.00    -0.014 A 
BRANCH  47  48
ATOM     48  C   UNL A   1      38.001  31.899  32.412  1.00  0.00     0.031 A 
ATOM     49  C   UNL A   1      38.674  32.227  33.717  1.00  0.00     0.074 A 
ATOM     50  C   UNL A   1      38.512  30.946  31.607  1.00  0.00     0.049 A 
ATOM     51  N   UNL A   1      39.760  31.717  34.237  1.00  0.00    -0.248 NA
ATOM     52  C   UNL A   1      38.061  33.288  34.533  1.00  0.00     0.031 C 
ATOM     53  C   UNL A   1      37.988  30.582  30.290  1.00  0.00     0.029 A 
ATOM     54  N   UNL A   1      39.605  30.132  31.766  1.00  0.00    -0.354 N 
ATOM     55  C   UNL A   1      39.985  32.421  35.414  1.00  0.00     0.074 A 
ATOM     56  C   UNL A   1      38.936  33.411  35.521  1.00  0.00     0.031 C 
ATOM     57  C   UNL A   1      38.764  29.623  29.757  1.00  0.00     0.029 A 
ATOM     58  C   UNL A   1      39.852  29.321  30.682  1.00  0.00     0.049 A 
ATOM     59  H   UNL A   1      40.162  30.129  32.579  1.00  0.00     0.167 HD
ATOM     60  C   UNL A   1      40.959  32.242  36.337  1.00  0.00     0.034 A 
ATOM     61  C   UNL A   1      40.846  28.440  30.458  1.00  0.00     0.034 A 
ATOM     62  C   UNL A   1      41.965  31.217  36.257  1.00  0.00     0.049 A 
ATOM     63  C   UNL A   1      41.883  28.220  31.527  1.00  0.00     0.074 A 
ATOM     64  C   UNL A   1      42.946  30.901  37.179  1.00  0.00     0.029 A 
ATOM     65  N   UNL A   1      42.115  30.340  35.194  1.00  0.00    -0.354 N 
ATOM     66  N   UNL A   1      41.991  28.794  32.701  1.00  0.00    -0.248 NA
ATOM     67  C   UNL A   1      42.912  27.205  31.259  1.00  0.00     0.031 C 
ATOM     68  C   UNL A   1      43.693  29.831  36.671  1.00  0.00     0.029 A 
ATOM     69  C   UNL A   1      43.169  29.478  35.439  1.00  0.00     0.049 A 
ATOM     70  H   UNL A   1      41.553  30.332  34.385  1.00  0.00     0.167 HD
ATOM     71  C   UNL A   1      43.073  28.183  33.326  1.00  0.00     0.074 A 
ATOM     72  C   UNL A   1      43.576  27.183  32.407  1.00  0.00     0.031 C 
ATOM     73  C   UNL A   1      43.611  28.439  34.544  1.00  0.00     0.034 A 
BRANCH  60  74
ATOM     74  C   UNL A   1      40.943  33.131  37.552  1.00  0.00     0.023 A 
ATOM     75  C   UNL A   1      40.086  32.814  38.627  1.00  0.00     0.012 A 
ATOM     76  C   UNL A   1      41.806  34.238  37.660  1.00  0.00     0.148 A 
ATOM     77  C   UNL A   1      40.065  33.601  39.776  1.00  0.00     0.002 A 
ATOM     78  C   UNL A   1      41.807  34.998  38.827  1.00  0.00     0.091 A 
ATOM     79  F   UNL A   1      42.597  34.539  36.620  1.00  0.00    -0.205 F 
ATOM     80  C   UNL A   1      40.932  34.687  39.879  1.00  0.00     0.022 A 
BRANCH  78  81
ATOM     81  S   UNL A   1      42.938  36.370  39.085  1.00  0.00     0.127 S 
ATOM     82  O   UNL A   1      42.554  37.276  38.004  1.00  0.00    -0.237 OA
ATOM     83  O   UNL A   1      42.569  36.827  40.426  1.00  0.00    -0.237 OA
ATOM     84  O   UNL A   1      44.278  35.806  38.987  1.00  0.00    -0.744 OA
ENDBRANCH  78  81
ENDBRANCH  60  74
BRANCH  61  85
ATOM     85  C   UNL A   1      40.860  27.636  29.202  1.00  0.00     0.023 A 
ATOM     86  C   UNL A   1      39.953  26.566  29.065  1.00  0.00     0.012 A 
ATOM     87  C   UNL A   1      41.732  27.937  28.138  1.00  0.00     0.148 A 
ATOM     88  C   UNL A   1      39.935  25.792  27.905  1.00  0.00     0.002 A 
ATOM     89  C   UNL A   1      41.673  27.192  26.964  1.00  0.00     0.091 A 
ATOM     90  F   UNL A   1      42.599  28.948  28.291  1.00  0.00    -0.205 F 
ATOM     91  C   UNL A   1      40.786  26.110  26.851  1.00  0.00     0.022 A 
BRANCH  89  92
ATOM     92  S   UNL A   1      42.642  27.615  25.511  1.00  0.00     0.127 S 
ATOM     93  O   UNL A   1      43.989  27.708  26.064  1.00  0.00    -0.237 OA
ATOM     94  O   UNL A   1      42.411  26.460  24.641  1.00  0.00    -0.237 OA
ATOM     95  O   UNL A   1      42.069  28.858  25.011  1.00  0.00    -0.744 OA
ENDBRANCH  89  92
ENDBRANCH  61  85
BRANCH  73  96
ATOM     96  C   UNL A   1      44.782  27.602  34.983  1.00  0.00     0.023 A 
ATOM     97  C   UNL A   1      46.094  28.074  34.774  1.00  0.00     0.012 A 
ATOM     98  C   UNL A   1      44.582  26.395  35.680  1.00  0.00     0.148 A 
ATOM     99  C   UNL A   1      47.189  27.343  35.233  1.00  0.00     0.002 A 
ATOM    100  C   UNL A   1      45.677  25.695  36.173  1.00  0.00     0.091 A 
ATOM    101  F   UNL A   1      43.327  25.953  35.850  1.00  0.00    -0.205 F 
ATOM    102  C   UNL A   1      46.981  26.163  35.943  1.00  0.00     0.022 A 
BRANCH 100 103
ATOM    103  S   UNL A   1      45.496  24.215  37.177  1.00  0.00     0.127 S 
ATOM    104  O   UNL A   1      44.670  24.704  38.281  1.00  0.00    -0.237 OA
ATOM    105  O   UNL A   1      44.812  23.298  36.265  1.00  0.00    -0.237 OA
ATOM    106  O   UNL A   1      46.848  23.810  37.536  1.00  0.00    -0.744 OA
ENDBRANCH 100 103
ENDBRANCH  73  96
ENDBRANCH  47  48
ENDBRANCH  39  42
ENDBRANCH  37  38
ENDBRANCH  36  37
ENDBRANCH  35  36
ENDBRANCH   1  35
TORSDOF 21
ENDMDL
MODEL 2
REMARK VINA RESULT:     -11.2      0.549      7.071
REMARK SMILES COC(=O)c1c(-c2ccccc2Cl)csc1NC(=O)[C@@H]1[C@@H]2CC[C@@H](C2)[C@@H]1C(=O)NCCCCCCNC(=O)c1ccc(-c2c3nc(c(-c4cccc(S(=O)(=O)[O-])c4F)c4ccc([nH]4)c(-c4cccc(S(=O)(=O)[O-])c4F)c4nc(c(-c5cccc(S(=O)(=O)[O-])c5F)c5ccc2[nH]5)C=C4)C=C3)cc1
REMARK SMILES IDX 32 1 31 2 30 3 29 4 27 5 28 6 26 8 20 9 21 10 22 11 25 12
REMARK SMILES IDX 24 13 23 14 18 15 17 16 19 18 16 19 5 20 6 21 14 22 15 23
REMARK SMILES IDX 3 24 4 25 2 26 1 27 7 28 8 29 12 30 9 31 11 32 13 33 10 34
REMARK SMILES IDX 33 35 34 36 35 37 36 38 37 39 38 41 39 42 40 43 101 44 41 45
REMARK SMILES IDX 100 46 42 47 43 48 44 49 94 50 45 51 99 52 93 53 95 54 46 55
REMARK SMILES IDX 98 56 92 57 91 58 47 60 79 61 59 62 78 63 60 64 63 65 77 66
REMARK SMILES IDX 96 67 61 68 62 69 76 71 97 72 64 73 48 74 49 75 57 76 50 77
REMARK SMILES IDX 52 78 58 79 51 80 53 81 54 82 55 83 56 84 80 85 81 86 89 87
REMARK SMILES IDX 82 88 84 89 90 90 83 91 85 92 86 93 87 94 88 95 65 96 66 97
REMARK SMILES IDX 74 98 67 99 69 100 75 101 68 102 70 103 71 104 72 105 73 106
REMARK H PARENT 29 7 17 17 36 40 95 59 63 70
REMARK Flexibility Score: inf
ROOT
ATOM      1  C   UNL A   1      34.967  31.091  28.381  1.00  0.00     0.002 C 
ENDROOT
BRANCH   1   2
ATOM      2  C   UNL A   1      34.868  29.961  27.358  1.00  0.00     0.021 C 
BRANCH   2   3
ATOM      3  C   UNL A   1      33.486  29.731  26.761  1.00  0.00     0.116 C 
BRANCH   3   4
ATOM      4  N   UNL A   1      33.448  29.736  25.321  1.00  0.00    -0.356 N 
ATOM      5  C   UNL A   1      32.647  29.081  24.450  1.00  0.00     0.224 C 
ATOM      6  O   UNL A   1      32.778  29.412  23.262  1.00  0.00    -0.275 OA
ATOM      7  H   UNL A   1      34.122  30.317  24.898  1.00  0.00     0.163 HD
BRANCH   5   8
ATOM      8  C   UNL A   1      31.691  27.924  24.779  1.00  0.00     0.094 C 
ATOM      9  C   UNL A   1      32.078  26.467  25.115  1.00  0.00     0.094 C 
ATOM     10  C   UNL A   1      31.105  25.647  24.209  1.00  0.00     0.002 C 
ATOM     11  C   UNL A   1      31.348  25.800  22.698  1.00  0.00     0.005 C 
ATOM     12  C   UNL A   1      29.828  26.491  24.355  1.00  0.00     0.009 C 
ATOM     13  C   UNL A   1      30.496  27.756  23.797  1.00  0.00     0.002 C 
ATOM     14  C   UNL A   1      30.923  27.247  22.416  1.00  0.00     0.005 C 
BRANCH   9  15
ATOM     15  C   UNL A   1      33.535  26.054  25.117  1.00  0.00     0.229 C 
ATOM     16  N   UNL A   1      33.997  24.838  25.518  1.00  0.00    -0.317 N 
ATOM     17  H   UNL A   1      34.942  24.865  25.793  1.00  0.00     0.170 HD
ATOM     18  O   UNL A   1      34.406  26.848  24.739  1.00  0.00    -0.274 OA
BRANCH  16  19
ATOM     19  C   UNL A   1      33.445  23.571  25.630  1.00  0.00     0.110 A 
ATOM     20  C   UNL A   1      33.847  22.461  24.886  1.00  0.00     0.102 A 
ATOM     21  C   UNL A   1      32.906  21.371  25.042  1.00  0.00     0.011 A 
ATOM     22  C   UNL A   1      31.942  21.660  25.986  1.00  0.00     0.076 A 
ATOM     23  S   UNL A   1      32.134  23.219  26.638  1.00  0.00    -0.125 S 
BRANCH  20  24
ATOM     24  C   UNL A   1      35.027  22.507  24.017  1.00  0.00     0.341 C 
ATOM     25  O   UNL A   1      35.137  23.329  23.111  1.00  0.00    -0.246 OA
BRANCH  24  26
ATOM     26  O   UNL A   1      35.960  21.560  24.307  1.00  0.00    -0.465 OA
ATOM     27  C   UNL A   1      36.745  21.813  25.474  1.00  0.00     0.282 C 
ENDBRANCH  24  26
ENDBRANCH  20  24
BRANCH  21  28
ATOM     28  C   UNL A   1      32.866  20.090  24.342  1.00  0.00     0.002 A 
ATOM     29  C   UNL A   1      33.345  18.946  24.997  1.00  0.00     0.010 A 
ATOM     30  C   UNL A   1      32.371  19.970  23.030  1.00  0.00     0.048 A 
ATOM     31  C   UNL A   1      33.329  17.704  24.354  1.00  0.00     0.001 A 
ATOM     32  C   UNL A   1      32.356  18.725  22.394  1.00  0.00     0.021 A 
ATOM     33  Cl  UNL A   1      31.768  21.326  22.142  1.00  0.00    -0.084 Cl
ATOM     34  C   UNL A   1      32.834  17.594  23.056  1.00  0.00     0.002 A 
ENDBRANCH  21  28
ENDBRANCH  16  19
ENDBRANCH   9  15
ENDBRANCH   5   8
ENDBRANCH   3   4
ENDBRANCH   2   3
ENDBRANCH   1   2
BRANCH   1  35
ATOM     35  C   UNL A   1      35.701  32.358  27.931  1.00  0.00     0.002 C 
BRANCH  35  36
ATOM     36  C   UNL A   1      34.887  33.657  27.901  1.00  0.00     0.021 C 
BRANCH  36  37
ATOM     37  C   UNL A   1      33.386  33.515  28.128  1.00  0.00     0.116 C 
BRANCH  37  38
ATOM     38  N   UNL A   1      32.861  34.496  29.061  1.00  0.00    -0.352 N 
ATOM     39  C   UNL A   1      33.280  34.805  30.331  1.00  0.00     0.251 C 
ATOM     40  H   UNL A   1      32.091  35.017  28.735  1.00  0.00     0.163 HD
ATOM     41  O   UNL A   1      32.624  35.582  31.020  1.00  0.00    -0.269 OA
BRANCH  39  42
ATOM     42  C   UNL A   1      34.509  34.189  30.880  1.00  0.00     0.039 A 
ATOM     43  C   UNL A   1      34.406  32.966  31.549  1.00  0.00     0.014 A 
ATOM     44  C   UNL A   1      35.750  34.819  30.759  1.00  0.00     0.014 A 
ATOM     45  C   UNL A   1      35.554  32.348  32.053  1.00  0.00     0.010 A 
ATOM     46  C   UNL A   1      36.901  34.174  31.208  1.00  0.00     0.010 A 
ATOM     47  C   UNL A   1      36.814  32.937  31.867  1.00  0.00    -0.014 A 
BRANCH  47  48
ATOM     48  C   UNL A   1      38.055  32.289  32.362  1.00  0.00     0.031 A 
ATOM     49  C   UNL A   1      38.702  31.195  31.555  1.00  0.00     0.074 A 
ATOM     50  C   UNL A   1      38.544  32.616  33.574  1.00  0.00     0.049 A 
ATOM     51  N   UNL A   1      39.725  30.441  31.858  1.00  0.00    -0.248 NA
ATOM     52  C   UNL A   1      38.099  30.890  30.246  1.00  0.00     0.031 C 
ATOM     53  C   UNL A   1      37.968  33.613  34.478  1.00  0.00     0.029 A 
ATOM     54  N   UNL A   1      39.620  32.121  34.268  1.00  0.00    -0.354 N 
ATOM     55  C   UNL A   1      39.864  29.547  30.803  1.00  0.00     0.074 A 
ATOM     56  C   UNL A   1      38.804  29.836  29.861  1.00  0.00     0.031 C 
ATOM     57  C   UNL A   1      38.691  33.650  35.610  1.00  0.00     0.029 A 
ATOM     58  C   UNL A   1      39.765  32.666  35.523  1.00  0.00     0.049 A 
ATOM     59  H   UNL A   1      40.230  31.439  33.904  1.00  0.00     0.167 HD
ATOM     60  C   UNL A   1      40.805  28.591  30.619  1.00  0.00     0.034 A 
ATOM     61  C   UNL A   1      40.660  32.399  36.495  1.00  0.00     0.034 A 
ATOM     62  C   UNL A   1      41.892  28.346  31.529  1.00  0.00     0.049 A 
ATOM     63  C   UNL A   1      41.729  31.371  36.240  1.00  0.00     0.074 A 
ATOM     64  C   UNL A   1      42.942  27.456  31.395  1.00  0.00     0.029 A 
ATOM     65  N   UNL A   1      42.069  28.998  32.739  1.00  0.00    -0.354 N 
ATOM     66  N   UNL A   1      41.932  30.639  35.171  1.00  0.00    -0.248 NA
ATOM     67  C   UNL A   1      42.718  31.158  37.307  1.00  0.00     0.031 C 
ATOM     68  C   UNL A   1      43.756  27.568  32.529  1.00  0.00     0.029 A 
ATOM     69  C   UNL A   1      43.216  28.534  33.361  1.00  0.00     0.049 A 
ATOM     70  H   UNL A   1      41.469  29.689  33.102  1.00  0.00     0.167 HD
ATOM     71  C   UNL A   1      43.089  29.910  35.421  1.00  0.00     0.074 A 
ATOM     72  C   UNL A   1      43.553  30.301  36.736  1.00  0.00     0.031 C 
ATOM     73  C   UNL A   1      43.703  28.987  34.639  1.00  0.00     0.034 A 
BRANCH  60  74
ATOM     74  C   UNL A   1      40.741  27.781  29.352  1.00  0.00     0.023 A 
ATOM     75  C   UNL A   1      39.757  26.780  29.222  1.00  0.00     0.012 A 
ATOM     76  C   UNL A   1      41.607  28.042  28.272  1.00  0.00     0.148 A 
ATOM     77  C   UNL A   1      39.654  26.029  28.053  1.00  0.00     0.002 A 
ATOM     78  C   UNL A   1      41.474  27.315  27.093  1.00  0.00     0.091 A 
ATOM     79  F   UNL A   1      42.552  28.981  28.420  1.00  0.00    -0.205 F 
ATOM     80  C   UNL A   1      40.506  26.304  26.986  1.00  0.00     0.022 A 
BRANCH  78  81
ATOM     81  S   UNL A   1      42.474  27.643  25.637  1.00  0.00     0.127 S 
ATOM     82  O   UNL A   1      41.903  28.903  25.163  1.00  0.00    -0.237 OA
ATOM     83  O   UNL A   1      43.819  27.759  26.204  1.00  0.00    -0.237 OA
ATOM     84  O   UNL A   1      42.286  26.498  24.757  1.00  0.00    -0.744 OA
ENDBRANCH  78  81
ENDBRANCH  60  74
BRANCH  61  85
ATOM     85  C   UNL A   1      40.634  33.178  37.766  1.00  0.00     0.023 A 
ATOM     86  C   UNL A   1      39.807  32.742  38.819  1.00  0.00     0.012 A 
ATOM     87  C   UNL A   1      41.439  34.318  37.952  1.00  0.00     0.148 A 
ATOM     88  C   UNL A   1      39.756  33.444  40.023  1.00  0.00     0.002 A 
ATOM     89  C   UNL A   1      41.422  34.984  39.174  1.00  0.00     0.091 A 
ATOM     90  F   UNL A   1      42.209  34.728  36.934  1.00  0.00    -0.205 F 
ATOM     91  C   UNL A   1      40.571  34.557  40.205  1.00  0.00     0.022 A 
BRANCH  89  92
ATOM     92  S   UNL A   1      42.534  36.348  39.538  1.00  0.00     0.127 S 
ATOM     93  O   UNL A   1      42.086  37.362  38.588  1.00  0.00    -0.237 OA
ATOM     94  O   UNL A   1      42.219  36.634  40.939  1.00  0.00    -0.237 OA
ATOM     95  O   UNL A   1      43.876  35.822  39.327  1.00  0.00    -0.744 OA
ENDBRANCH  89  92
ENDBRANCH  61  85
BRANCH  73  96
ATOM     96  C   UNL A   1      44.969  28.360  35.157  1.00  0.00     0.023 A 
ATOM     97  C   UNL A   1      46.203  29.008  34.950  1.00  0.00     0.012 A 
ATOM     98  C   UNL A   1      44.925  27.180  35.925  1.00  0.00     0.148 A 
ATOM     99  C   UNL A   1      47.378  28.476  35.480  1.00  0.00     0.002 A 
ATOM    100  C   UNL A   1      46.094  26.680  36.487  1.00  0.00     0.091 A 
ATOM    101  F   UNL A   1      43.744  26.568  36.093  1.00  0.00    -0.205 F 
ATOM    102  C   UNL A   1      47.322  27.322  36.258  1.00  0.00     0.022 A 
BRANCH 100 103
ATOM    103  S   UNL A   1      46.098  25.253  37.579  1.00  0.00     0.127 S 
ATOM    104  O   UNL A   1      45.187  25.685  38.637  1.00  0.00    -0.237 OA
ATOM    105  O   UNL A   1      45.572  24.196  36.715  1.00  0.00    -0.237 OA
ATOM    106  O   UNL A   1      47.485  25.065  37.982  1.00  0.00    -0.744 OA
ENDBRANCH 100 103
ENDBRANCH  73  96
ENDBRANCH  47  48
ENDBRANCH  39  42
ENDBRANCH  37  38
ENDBRANCH  36  37
ENDBRANCH  35  36
ENDBRANCH   1  35
TORSDOF 21
ENDMDL
MODEL 3
REMARK VINA RESULT:     -11.1      5.797     10.166
REMARK SMILES COC(=O)c1c(-c2ccccc2Cl)csc1NC(=O)[C@@H]1[C@@H]2CC[C@@H](C2)[C@@H]1C(=O)NCCCCCCNC(=O)c1ccc(-c2c3nc(c(-c4cccc(S(=O)(=O)[O-])c4F)c4ccc([nH]4)c(-c4cccc(S(=O)(=O)[O-])c4F)c4nc(c(-c5cccc(S(=O)(=O)[O-])c5F)c5ccc2[nH]5)C=C4)C=C3)cc1
REMARK SMILES IDX 32 1 31 2 30 3 29 4 27 5 28 6 26 8 20 9 21 10 22 11 25 12
REMARK SMILES IDX 24 13 23 14 18 15 17 16 19 18 16 19 5 20 6 21 14 22 15 23
REMARK SMILES IDX 3 24 4 25 2 26 1 27 7 28 8 29 12 30 9 31 11 32 13 33 10 34
REMARK SMILES IDX 33 35 34 36 35 37 36 38 37 39 38 41 39 42 40 43 101 44 41 45
REMARK SMILES IDX 100 46 42 47 43 48 44 49 94 50 45 51 99 52 93 53 95 54 46 55
REMARK SMILES IDX 98 56 92 57 91 58 47 60 79 61 59 62 78 63 60 64 63 65 77 66
REMARK SMILES IDX 96 67 61 68 62 69 76 71 97 72 64 73 48 74 49 75 57 76 50 77
REMARK SMILES IDX 52 78 58 79 51 80 53 81 54 82 55 83 56 84 80 85 81 86 89 87
REMARK SMILES IDX 82 88 84 89 90 90 83 91 85 92 86 93 87 94 88 95 65 96 66 97
REMARK SMILES IDX 74 98 67 99 69 100 75 101 68 102 70 103 71 104 72 105 73 106
REMARK H PARENT 29 7 17 17 36 40 95 59 63 70
REMARK Flexibility Score: inf
ROOT
ATOM      1  C   UNL A   1      36.027  21.461  26.243  1.00  0.00     0.002 C 
ENDROOT
BRANCH   1   2
ATOM      2  C   UNL A   1      35.132  22.689  26.401  1.00  0.00     0.021 C 
BRANCH   2   3
ATOM      3  C   UNL A   1      34.012  22.560  27.425  1.00  0.00     0.116 C 
BRANCH   3   4
ATOM      4  N   UNL A   1      32.721  22.255  26.864  1.00  0.00    -0.356 N 
ATOM      5  C   UNL A   1      32.347  21.345  25.935  1.00  0.00     0.224 C 
ATOM      6  O   UNL A   1      31.123  21.234  25.769  1.00  0.00    -0.275 OA
ATOM      7  H   UNL A   1      31.983  22.804  27.217  1.00  0.00     0.163 HD
BRANCH   5   8
ATOM      8  C   UNL A   1      33.279  20.536  25.022  1.00  0.00     0.094 C 
ATOM      9  C   UNL A   1      33.280  20.518  23.477  1.00  0.00     0.094 C 
ATOM     10  C   UNL A   1      33.337  18.990  23.162  1.00  0.00     0.002 C 
ATOM     11  C   UNL A   1      32.089  18.196  23.582  1.00  0.00     0.005 C 
ATOM     12  C   UNL A   1      34.319  18.528  24.251  1.00  0.00     0.009 C 
ATOM     13  C   UNL A   1      33.424  19.032  25.393  1.00  0.00     0.002 C 
ATOM     14  C   UNL A   1      32.153  18.221  25.114  1.00  0.00     0.005 C 
BRANCH   9  15
ATOM     15  C   UNL A   1      32.267  21.344  22.712  1.00  0.00     0.229 C 
ATOM     16  N   UNL A   1      32.030  22.668  22.918  1.00  0.00    -0.317 N 
ATOM     17  H   UNL A   1      31.134  22.944  22.615  1.00  0.00     0.170 HD
ATOM     18  O   UNL A   1      31.577  20.819  21.829  1.00  0.00    -0.274 OA
BRANCH  16  19
ATOM     19  C   UNL A   1      32.757  23.719  23.457  1.00  0.00     0.110 A 
ATOM     20  C   UNL A   1      32.223  24.721  24.269  1.00  0.00     0.102 A 
ATOM     21  C   UNL A   1      33.171  25.802  24.439  1.00  0.00     0.011 A 
ATOM     22  C   UNL A   1      34.396  25.501  23.879  1.00  0.00     0.076 A 
ATOM     23  S   UNL A   1      34.394  23.977  23.125  1.00  0.00    -0.125 S 
BRANCH  20  24
ATOM     24  C   UNL A   1      30.844  24.652  24.765  1.00  0.00     0.341 C 
ATOM     25  O   UNL A   1      30.583  24.319  25.917  1.00  0.00    -0.246 OA
BRANCH  24  26
ATOM     26  O   UNL A   1      29.909  24.977  23.832  1.00  0.00    -0.465 OA
ATOM     27  C   UNL A   1      29.432  26.324  23.887  1.00  0.00     0.282 C 
ENDBRANCH  24  26
ENDBRANCH  20  24
BRANCH  21  28
ATOM     28  C   UNL A   1      32.977  27.096  25.088  1.00  0.00     0.002 A 
ATOM     29  C   UNL A   1      33.105  27.180  26.483  1.00  0.00     0.010 A 
ATOM     30  C   UNL A   1      32.657  28.257  24.361  1.00  0.00     0.048 A 
ATOM     31  C   UNL A   1      32.917  28.401  27.138  1.00  0.00     0.001 A 
ATOM     32  C   UNL A   1      32.472  29.474  25.022  1.00  0.00     0.021 A 
ATOM     33  Cl  UNL A   1      32.470  28.248  22.641  1.00  0.00    -0.084 Cl
ATOM     34  C   UNL A   1      32.603  29.546  26.408  1.00  0.00     0.002 A 
ENDBRANCH  21  28
ENDBRANCH  16  19
ENDBRANCH   9  15
ENDBRANCH   5   8
ENDBRANCH   3   4
ENDBRANCH   2   3
ENDBRANCH   1   2
BRANCH   1  35
ATOM     35  C   UNL A   1      36.886  21.400  24.976  1.00  0.00     0.002 C 
BRANCH  35  36
ATOM     36  C   UNL A   1      38.034  20.384  24.966  1.00  0.00     0.021 C 
BRANCH  36  37
ATOM     37  C   UNL A   1      39.021  20.472  26.125  1.00  0.00     0.116 C 
BRANCH  37  38
ATOM     38  N   UNL A   1      40.059  19.458  26.060  1.00  0.00    -0.352 N 
ATOM     39  C   UNL A   1      41.422  19.599  26.126  1.00  0.00     0.251 C 
ATOM     40  H   UNL A   1      39.737  18.533  25.955  1.00  0.00     0.163 HD
ATOM     41  O   UNL A   1      42.148  18.629  25.922  1.00  0.00    -0.269 OA
BRANCH  39  42
ATOM     42  C   UNL A   1      42.022  20.920  26.421  1.00  0.00     0.039 A 
ATOM     43  C   UNL A   1      42.295  21.785  25.357  1.00  0.00     0.014 A 
ATOM     44  C   UNL A   1      42.334  21.297  27.729  1.00  0.00     0.014 A 
ATOM     45  C   UNL A   1      42.834  23.050  25.608  1.00  0.00     0.010 A 
ATOM     46  C   UNL A   1      42.816  22.580  27.984  1.00  0.00     0.010 A 
ATOM     47  C   UNL A   1      43.080  23.465  26.926  1.00  0.00    -0.014 A 
BRANCH  47  48
ATOM     48  C   UNL A   1      43.621  24.814  27.227  1.00  0.00     0.031 A 
ATOM     49  C   UNL A   1      42.708  25.888  27.755  1.00  0.00     0.074 A 
ATOM     50  C   UNL A   1      44.906  25.101  26.938  1.00  0.00     0.049 A 
ATOM     51  N   UNL A   1      42.963  27.149  27.985  1.00  0.00    -0.248 NA
ATOM     52  C   UNL A   1      41.316  25.498  28.035  1.00  0.00     0.031 C 
ATOM     53  C   UNL A   1      45.872  24.164  26.361  1.00  0.00     0.029 A 
ATOM     54  N   UNL A   1      45.611  26.272  27.060  1.00  0.00    -0.354 N 
ATOM     55  C   UNL A   1      41.759  27.712  28.393  1.00  0.00     0.074 A 
ATOM     56  C   UNL A   1      40.767  26.660  28.357  1.00  0.00     0.031 C 
ATOM     57  C   UNL A   1      47.041  24.798  26.173  1.00  0.00     0.029 A 
ATOM     58  C   UNL A   1      46.902  26.189  26.591  1.00  0.00     0.049 A 
ATOM     59  H   UNL A   1      45.230  27.094  27.446  1.00  0.00     0.167 HD
ATOM     60  C   UNL A   1      41.508  28.982  28.790  1.00  0.00     0.034 A 
ATOM     61  C   UNL A   1      47.862  27.131  26.503  1.00  0.00     0.034 A 
ATOM     62  C   UNL A   1      42.509  30.009  28.882  1.00  0.00     0.049 A 
ATOM     63  C   UNL A   1      47.572  28.520  27.006  1.00  0.00     0.074 A 
ATOM     64  C   UNL A   1      42.373  31.304  29.348  1.00  0.00     0.029 A 
ATOM     65  N   UNL A   1      43.834  29.856  28.503  1.00  0.00    -0.354 N 
ATOM     66  N   UNL A   1      46.466  28.994  27.528  1.00  0.00    -0.248 NA
ATOM     67  C   UNL A   1      48.670  29.495  26.944  1.00  0.00     0.031 C 
ATOM     68  C   UNL A   1      43.618  31.937  29.249  1.00  0.00     0.029 A 
ATOM     69  C   UNL A   1      44.529  31.032  28.730  1.00  0.00     0.049 A 
ATOM     70  H   UNL A   1      44.223  29.033  28.128  1.00  0.00     0.167 HD
ATOM     71  C   UNL A   1      46.747  30.306  27.892  1.00  0.00     0.074 A 
ATOM     72  C   UNL A   1      48.133  30.547  27.546  1.00  0.00     0.031 C 
ATOM     73  C   UNL A   1      45.927  31.232  28.447  1.00  0.00     0.034 A 
BRANCH  60  74
ATOM     74  C   UNL A   1      40.104  29.314  29.223  1.00  0.00     0.023 A 
ATOM     75  C   UNL A   1      39.153  29.685  28.250  1.00  0.00     0.012 A 
ATOM     76  C   UNL A   1      39.709  29.208  30.570  1.00  0.00     0.148 A 
ATOM     77  C   UNL A   1      37.839  29.975  28.614  1.00  0.00     0.002 A 
ATOM     78  C   UNL A   1      38.386  29.461  30.921  1.00  0.00     0.091 A 
ATOM     79  F   UNL A   1      40.631  28.877  31.486  1.00  0.00    -0.205 F 
ATOM     80  C   UNL A   1      37.454  29.853  29.947  1.00  0.00     0.022 A 
BRANCH  78  81
ATOM     81  S   UNL A   1      37.776  29.261  32.598  1.00  0.00     0.127 S 
ATOM     82  O   UNL A   1      38.732  30.063  33.359  1.00  0.00    -0.237 OA
ATOM     83  O   UNL A   1      36.432  29.835  32.510  1.00  0.00    -0.237 OA
ATOM     84  O   UNL A   1      37.804  27.829  32.865  1.00  0.00    -0.744 OA
ENDBRANCH  78  81
ENDBRANCH  60  74
BRANCH  61  85
ATOM     85  C   UNL A   1      49.217  26.769  25.996  1.00  0.00     0.023 A 
ATOM     86  C   UNL A   1      50.063  25.986  26.805  1.00  0.00     0.012 A 
ATOM     87  C   UNL A   1      49.659  27.161  24.718  1.00  0.00     0.148 A 
ATOM     88  C   UNL A   1      51.337  25.626  26.365  1.00  0.00     0.002 A 
ATOM     89  C   UNL A   1      50.911  26.756  24.265  1.00  0.00     0.091 A 
ATOM     90  F   UNL A   1      48.848  27.920  23.968  1.00  0.00    -0.205 F 
ATOM     91  C   UNL A   1      51.757  26.001  25.092  1.00  0.00     0.022 A 
BRANCH  89  92
ATOM     92  S   UNL A   1      51.478  27.085  22.592  1.00  0.00     0.127 S 
ATOM     93  O   UNL A   1      52.624  26.187  22.481  1.00  0.00    -0.237 OA
ATOM     94  O   UNL A   1      50.314  26.701  21.792  1.00  0.00    -0.237 OA
ATOM     95  O   UNL A   1      51.778  28.511  22.558  1.00  0.00    -0.744 OA
ENDBRANCH  89  92
ENDBRANCH  61  85
BRANCH  73  96
ATOM     96  C   UNL A   1      46.507  32.585  28.759  1.00  0.00     0.023 A 
ATOM     97  C   UNL A   1      47.120  32.810  30.008  1.00  0.00     0.012 A 
ATOM     98  C   UNL A   1      46.527  33.601  27.784  1.00  0.00     0.148 A 
ATOM     99  C   UNL A   1      47.722  34.036  30.289  1.00  0.00     0.002 A 
ATOM    100  C   UNL A   1      47.167  34.804  28.055  1.00  0.00     0.091 A 
ATOM    101  F   UNL A   1      45.920  33.375  26.609  1.00  0.00    -0.205 F 
ATOM    102  C   UNL A   1      47.757  35.026  29.310  1.00  0.00     0.022 A 
BRANCH 100 103
ATOM    103  S   UNL A   1      47.340  36.098  26.820  1.00  0.00     0.127 S 
ATOM    104  O   UNL A   1      48.238  37.035  27.495  1.00  0.00    -0.237 OA
ATOM    105  O   UNL A   1      47.942  35.380  25.696  1.00  0.00    -0.237 OA
ATOM    106  O   UNL A   1      45.993  36.591  26.568  1.00  0.00    -0.744 OA
ENDBRANCH 100 103
ENDBRANCH  73  96
ENDBRANCH  47  48
ENDBRANCH  39  42
ENDBRANCH  37  38
ENDBRANCH  36  37
ENDBRANCH  35  36
ENDBRANCH   1  35
TORSDOF 21
ENDMDL
