MODEL 1
REMARK VINA RESULT:     -10.7      0.000      0.000
REMARK SMILES C[C@@H](Nc1cccc(Cl)c1)[C@@H](C)C(=O)NCCCCCCNC(=O)c1ccc(-c2c3nc(c(-c4cccc(S(=O)(=O)[O-])c4F)c4ccc([nH]4)c(-c4cccc(S(=O)(=O)[O-])c4F)c4nc(c(-c5cccc(S(=O)(=O)[O-])c5F)c5ccc2[nH]5)C=C4)C=C3)cc1
REMARK SMILES IDX 18 1 17 2 16 3 15 4 13 5 14 6 11 8 12 9 2 10 1 11 3 12 4 14
REMARK SMILES IDX 5 15 10 16 6 17 8 18 7 19 9 20 19 21 20 22 21 23 22 24 23 25
REMARK SMILES IDX 24 27 25 28 26 29 87 30 27 31 86 32 28 33 29 34 30 35 80 36
REMARK SMILES IDX 31 37 85 38 79 39 81 40 32 41 84 42 78 43 77 44 33 46 65 47
REMARK SMILES IDX 45 48 64 49 46 50 49 51 63 52 82 53 47 54 48 55 62 57 83 58
REMARK SMILES IDX 50 59 34 60 35 61 43 62 36 63 38 64 44 65 37 66 39 67 40 68
REMARK SMILES IDX 41 69 42 70 66 71 67 72 75 73 68 74 70 75 76 76 69 77 71 78
REMARK SMILES IDX 72 79 73 80 74 81 51 82 52 83 60 84 53 85 55 86 61 87 54 88
REMARK SMILES IDX 56 89 57 90 58 91 59 92
REMARK H PARENT 15 7 3 13 22 26 81 45 49 56
REMARK Flexibility Score: inf
ROOT
ATOM      1  C   UNL A   1      33.329  27.247  26.231  1.00  0.00     0.002 C 
ENDROOT
BRANCH   1   2
ATOM      2  C   UNL A   1      33.737  26.057  25.355  1.00  0.00     0.021 C 
BRANCH   2   3
ATOM      3  C   UNL A   1      33.822  24.718  26.088  1.00  0.00     0.116 C 
BRANCH   3   4
ATOM      4  N   UNL A   1      32.559  24.350  26.694  1.00  0.00    -0.356 N 
ATOM      5  C   UNL A   1      31.901  23.164  26.766  1.00  0.00     0.224 C 
ATOM      6  O   UNL A   1      30.889  23.144  27.478  1.00  0.00    -0.275 OA
ATOM      7  H   UNL A   1      32.091  25.097  27.133  1.00  0.00     0.163 HD
BRANCH   5   8
ATOM      8  C   UNL A   1      32.403  21.882  26.106  1.00  0.00     0.097 C 
ATOM      9  C   UNL A   1      33.603  21.429  26.956  1.00  0.00     0.020 C 
BRANCH   8  10
ATOM     10  C   UNL A   1      32.655  21.943  24.573  1.00  0.00     0.088 C 
ATOM     11  C   UNL A   1      32.794  20.525  23.977  1.00  0.00     0.031 C 
BRANCH  10  12
ATOM     12  N   UNL A   1      31.624  22.605  23.753  1.00  0.00    -0.382 N 
ATOM     13  H   UNL A   1      30.815  22.068  23.583  1.00  0.00     0.160 HD
BRANCH  12  14
ATOM     14  C   UNL A   1      31.623  23.856  23.187  1.00  0.00     0.036 A 
ATOM     15  C   UNL A   1      32.614  24.315  22.323  1.00  0.00     0.026 A 
ATOM     16  C   UNL A   1      30.595  24.743  23.529  1.00  0.00     0.046 A 
ATOM     17  C   UNL A   1      32.647  25.645  21.888  1.00  0.00     0.004 A 
ATOM     18  C   UNL A   1      30.606  26.063  23.077  1.00  0.00     0.043 A 
ATOM     19  C   UNL A   1      31.644  26.526  22.276  1.00  0.00     0.020 A 
ATOM     20  Cl  UNL A   1      29.335  27.131  23.533  1.00  0.00    -0.084 Cl
ENDBRANCH  12  14
ENDBRANCH  10  12
ENDBRANCH   8  10
ENDBRANCH   5   8
ENDBRANCH   3   4
ENDBRANCH   2   3
ENDBRANCH   1   2
BRANCH   1  21
ATOM     21  C   UNL A   1      31.853  27.646  26.149  1.00  0.00     0.002 C 
BRANCH  21  22
ATOM     22  C   UNL A   1      31.592  29.091  25.719  1.00  0.00     0.021 C 
BRANCH  22  23
ATOM     23  C   UNL A   1      32.833  29.972  25.657  1.00  0.00     0.116 C 
BRANCH  23  24
ATOM     24  N   UNL A   1      32.565  31.322  26.127  1.00  0.00    -0.352 N 
ATOM     25  C   UNL A   1      33.168  32.021  27.144  1.00  0.00     0.251 C 
ATOM     26  H   UNL A   1      31.852  31.803  25.648  1.00  0.00     0.163 HD
ATOM     27  O   UNL A   1      32.675  33.070  27.542  1.00  0.00    -0.269 OA
BRANCH  25  28
ATOM     28  C   UNL A   1      34.403  31.495  27.767  1.00  0.00     0.039 A 
ATOM     29  C   UNL A   1      35.488  32.356  27.947  1.00  0.00     0.014 A 
ATOM     30  C   UNL A   1      34.492  30.160  28.168  1.00  0.00     0.014 A 
ATOM     31  C   UNL A   1      36.643  31.890  28.577  1.00  0.00     0.010 A 
ATOM     32  C   UNL A   1      35.612  29.719  28.867  1.00  0.00     0.010 A 
ATOM     33  C   UNL A   1      36.704  30.576  29.072  1.00  0.00    -0.014 A 
BRANCH  33  34
ATOM     34  C   UNL A   1      37.896  30.084  29.810  1.00  0.00     0.031 A 
ATOM     35  C   UNL A   1      38.173  30.556  31.212  1.00  0.00     0.074 A 
ATOM     36  C   UNL A   1      38.775  29.271  29.188  1.00  0.00     0.049 A 
ATOM     37  N   UNL A   1      39.184  30.275  31.992  1.00  0.00    -0.248 NA
ATOM     38  C   UNL A   1      37.198  31.486  31.808  1.00  0.00     0.031 C 
ATOM     39  C   UNL A   1      38.660  28.803  27.805  1.00  0.00     0.029 A 
ATOM     40  N   UNL A   1      39.950  28.716  29.629  1.00  0.00    -0.354 N 
ATOM     41  C   UNL A   1      38.989  31.016  33.151  1.00  0.00     0.074 A 
ATOM     42  C   UNL A   1      37.780  31.787  32.960  1.00  0.00     0.031 C 
ATOM     43  C   UNL A   1      39.717  28.028  27.514  1.00  0.00     0.029 A 
ATOM     44  C   UNL A   1      40.602  27.972  28.673  1.00  0.00     0.049 A 
ATOM     45  H   UNL A   1      40.294  28.839  30.544  1.00  0.00     0.167 HD
ATOM     46  C   UNL A   1      39.731  31.035  34.284  1.00  0.00     0.034 A 
ATOM     47  C   UNL A   1      41.784  27.327  28.720  1.00  0.00     0.034 A 
ATOM     48  C   UNL A   1      40.914  30.240  34.484  1.00  0.00     0.049 A 
ATOM     49  C   UNL A   1      42.575  27.341  29.998  1.00  0.00     0.074 A 
ATOM     50  C   UNL A   1      41.686  30.122  35.625  1.00  0.00     0.029 A 
ATOM     51  N   UNL A   1      41.502  29.438  33.519  1.00  0.00    -0.354 N 
ATOM     52  N   UNL A   1      42.292  27.924  31.138  1.00  0.00    -0.248 NA
ATOM     53  C   UNL A   1      43.831  26.578  30.012  1.00  0.00     0.031 C 
ATOM     54  C   UNL A   1      42.763  29.276  35.339  1.00  0.00     0.029 A 
ATOM     55  C   UNL A   1      42.637  28.834  34.032  1.00  0.00     0.049 A 
ATOM     56  H   UNL A   1      41.163  29.316  32.602  1.00  0.00     0.167 HD
ATOM     57  C   UNL A   1      43.312  27.568  32.013  1.00  0.00     0.074 A 
ATOM     58  C   UNL A   1      44.209  26.701  31.277  1.00  0.00     0.031 C 
ATOM     59  C   UNL A   1      43.496  27.934  33.305  1.00  0.00     0.034 A 
BRANCH  46  60
ATOM     60  C   UNL A   1      39.266  31.914  35.415  1.00  0.00     0.023 A 
ATOM     61  C   UNL A   1      38.380  31.396  36.384  1.00  0.00     0.012 A 
ATOM     62  C   UNL A   1      39.751  33.229  35.558  1.00  0.00     0.148 A 
ATOM     63  C   UNL A   1      37.956  32.184  37.453  1.00  0.00     0.002 A 
ATOM     64  C   UNL A   1      39.362  33.991  36.653  1.00  0.00     0.091 A 
ATOM     65  F   UNL A   1      40.576  33.710  34.619  1.00  0.00    -0.205 F 
ATOM     66  C   UNL A   1      38.455  33.476  37.593  1.00  0.00     0.022 A 
BRANCH  64  67
ATOM     67  S   UNL A   1      40.010  35.636  36.970  1.00  0.00     0.127 S 
ATOM     68  O   UNL A   1      39.555  36.365  35.787  1.00  0.00    -0.237 OA
ATOM     69  O   UNL A   1      39.328  36.001  38.211  1.00  0.00    -0.237 OA
ATOM     70  O   UNL A   1      41.453  35.483  37.089  1.00  0.00    -0.744 OA
ENDBRANCH  64  67
ENDBRANCH  46  60
BRANCH  47  71
ATOM     71  C   UNL A   1      42.268  26.570  27.530  1.00  0.00     0.023 A 
ATOM     72  C   UNL A   1      43.011  27.238  26.536  1.00  0.00     0.012 A 
ATOM     73  C   UNL A   1      42.014  25.193  27.387  1.00  0.00     0.148 A 
ATOM     74  C   UNL A   1      43.460  26.555  25.405  1.00  0.00     0.002 A 
ATOM     75  C   UNL A   1      42.512  24.507  26.286  1.00  0.00     0.091 A 
ATOM     76  F   UNL A   1      41.297  24.578  28.339  1.00  0.00    -0.205 F 
ATOM     77  C   UNL A   1      43.218  25.190  25.285  1.00  0.00     0.022 A 
BRANCH  75  78
ATOM     78  S   UNL A   1      42.364  22.725  26.115  1.00  0.00     0.127 S 
ATOM     79  O   UNL A   1      42.933  22.504  24.788  1.00  0.00    -0.237 OA
ATOM     80  O   UNL A   1      43.187  22.247  27.226  1.00  0.00    -0.237 OA
ATOM     81  O   UNL A   1      40.944  22.431  26.250  1.00  0.00    -0.744 OA
ENDBRANCH  75  78
ENDBRANCH  47  71
BRANCH  59  82
ATOM     82  C   UNL A   1      44.687  27.367  34.032  1.00  0.00     0.023 A 
ATOM     83  C   UNL A   1      45.912  28.064  34.033  1.00  0.00     0.012 A 
ATOM     84  C   UNL A   1      44.571  26.175  34.774  1.00  0.00     0.148 A 
ATOM     85  C   UNL A   1      47.011  27.565  34.732  1.00  0.00     0.002 A 
ATOM     86  C   UNL A   1      45.653  25.712  35.512  1.00  0.00     0.091 A 
ATOM     87  F   UNL A   1      43.403  25.517  34.748  1.00  0.00    -0.205 F 
ATOM     88  C   UNL A   1      46.879  26.398  35.480  1.00  0.00     0.022 A 
BRANCH  86  89
ATOM     89  S   UNL A   1      45.547  24.275  36.584  1.00  0.00     0.127 S 
ATOM     90  O   UNL A   1      46.897  24.216  37.138  1.00  0.00    -0.237 OA
ATOM     91  O   UNL A   1      44.512  24.677  37.538  1.00  0.00    -0.237 OA
ATOM     92  O   UNL A   1      45.175  23.158  35.725  1.00  0.00    -0.744 OA
ENDBRANCH  86  89
ENDBRANCH  59  82
ENDBRANCH  33  34
ENDBRANCH  25  28
ENDBRANCH  23  24
ENDBRANCH  22  23
ENDBRANCH  21  22
ENDBRANCH   1  21
TORSDOF 19
ENDMDL
MODEL 2
REMARK VINA RESULT:     -10.6      5.280     10.081
REMARK SMILES C[C@@H](Nc1cccc(Cl)c1)[C@@H](C)C(=O)NCCCCCCNC(=O)c1ccc(-c2c3nc(c(-c4cccc(S(=O)(=O)[O-])c4F)c4ccc([nH]4)c(-c4cccc(S(=O)(=O)[O-])c4F)c4nc(c(-c5cccc(S(=O)(=O)[O-])c5F)c5ccc2[nH]5)C=C4)C=C3)cc1
REMARK SMILES IDX 18 1 17 2 16 3 15 4 13 5 14 6 11 8 12 9 2 10 1 11 3 12 4 14
REMARK SMILES IDX 5 15 10 16 6 17 8 18 7 19 9 20 19 21 20 22 21 23 22 24 23 25
REMARK SMILES IDX 24 27 25 28 26 29 87 30 27 31 86 32 28 33 29 34 30 35 80 36
REMARK SMILES IDX 31 37 85 38 79 39 81 40 32 41 84 42 78 43 77 44 33 46 65 47
REMARK SMILES IDX 45 48 64 49 46 50 49 51 63 52 82 53 47 54 48 55 62 57 83 58
REMARK SMILES IDX 50 59 34 60 35 61 43 62 36 63 38 64 44 65 37 66 39 67 40 68
REMARK SMILES IDX 41 69 42 70 66 71 67 72 75 73 68 74 70 75 76 76 69 77 71 78
REMARK SMILES IDX 72 79 73 80 74 81 51 82 52 83 60 84 53 85 55 86 61 87 54 88
REMARK SMILES IDX 56 89 57 90 58 91 59 92
REMARK H PARENT 15 7 3 13 22 26 81 45 49 56
REMARK Flexibility Score: inf
ROOT
ATOM      1  C   UNL A   1      35.134  24.630  24.814  1.00  0.00     0.002 C 
ENDROOT
BRANCH   1   2
ATOM      2  C   UNL A   1      33.884  25.509  24.693  1.00  0.00     0.021 C 
BRANCH   2   3
ATOM      3  C   UNL A   1      32.869  25.341  25.823  1.00  0.00     0.116 C 
BRANCH   3   4
ATOM      4  N   UNL A   1      33.168  24.194  26.655  1.00  0.00    -0.356 N 
ATOM      5  C   UNL A   1      32.697  22.921  26.645  1.00  0.00     0.224 C 
ATOM      6  O   UNL A   1      33.255  22.126  27.412  1.00  0.00    -0.275 OA
ATOM      7  H   UNL A   1      33.835  24.370  27.357  1.00  0.00     0.163 HD
BRANCH   5   8
ATOM      8  C   UNL A   1      31.613  22.432  25.687  1.00  0.00     0.097 C 
ATOM      9  C   UNL A   1      30.285  22.623  26.442  1.00  0.00     0.020 C 
BRANCH   8  10
ATOM     10  C   UNL A   1      31.825  21.027  25.056  1.00  0.00     0.088 C 
ATOM     11  C   UNL A   1      32.416  21.140  23.635  1.00  0.00     0.031 C 
BRANCH  10  12
ATOM     12  N   UNL A   1      32.723  20.102  25.773  1.00  0.00    -0.382 N 
ATOM     13  H   UNL A   1      32.986  20.391  26.677  1.00  0.00     0.160 HD
BRANCH  12  14
ATOM     14  C   UNL A   1      33.251  18.901  25.367  1.00  0.00     0.036 A 
ATOM     15  C   UNL A   1      34.395  18.784  24.581  1.00  0.00     0.026 A 
ATOM     16  C   UNL A   1      32.581  17.724  25.720  1.00  0.00     0.046 A 
ATOM     17  C   UNL A   1      34.810  17.549  24.073  1.00  0.00     0.004 A 
ATOM     18  C   UNL A   1      33.005  16.484  25.238  1.00  0.00     0.043 A 
ATOM     19  C   UNL A   1      34.105  16.394  24.393  1.00  0.00     0.020 A 
ATOM     20  Cl  UNL A   1      32.145  15.059  25.679  1.00  0.00    -0.084 Cl
ENDBRANCH  12  14
ENDBRANCH  10  12
ENDBRANCH   8  10
ENDBRANCH   5   8
ENDBRANCH   3   4
ENDBRANCH   2   3
ENDBRANCH   1   2
BRANCH   1  21
ATOM     21  C   UNL A   1      35.239  23.494  23.793  1.00  0.00     0.002 C 
BRANCH  21  22
ATOM     22  C   UNL A   1      36.016  22.263  24.263  1.00  0.00     0.021 C 
BRANCH  22  23
ATOM     23  C   UNL A   1      36.690  22.416  25.621  1.00  0.00     0.116 C 
BRANCH  23  24
ATOM     24  N   UNL A   1      37.705  21.398  25.841  1.00  0.00    -0.352 N 
ATOM     25  C   UNL A   1      39.021  21.551  26.205  1.00  0.00     0.251 C 
ATOM     26  H   UNL A   1      37.408  20.469  25.711  1.00  0.00     0.163 HD
ATOM     27  O   UNL A   1      39.789  20.598  26.141  1.00  0.00    -0.269 OA
BRANCH  25  28
ATOM     28  C   UNL A   1      39.510  22.872  26.661  1.00  0.00     0.039 A 
ATOM     29  C   UNL A   1      40.471  22.924  27.673  1.00  0.00     0.014 A 
ATOM     30  C   UNL A   1      39.020  24.052  26.094  1.00  0.00     0.014 A 
ATOM     31  C   UNL A   1      40.978  24.160  28.080  1.00  0.00     0.010 A 
ATOM     32  C   UNL A   1      39.584  25.275  26.445  1.00  0.00     0.010 A 
ATOM     33  C   UNL A   1      40.564  25.344  27.448  1.00  0.00    -0.014 A 
BRANCH  33  34
ATOM     34  C   UNL A   1      41.146  26.660  27.817  1.00  0.00     0.031 A 
ATOM     35  C   UNL A   1      42.586  26.970  27.506  1.00  0.00     0.074 A 
ATOM     36  C   UNL A   1      40.399  27.548  28.505  1.00  0.00     0.049 A 
ATOM     37  N   UNL A   1      43.279  28.041  27.793  1.00  0.00    -0.248 NA
ATOM     38  C   UNL A   1      43.355  25.931  26.801  1.00  0.00     0.031 C 
ATOM     39  C   UNL A   1      39.015  27.336  28.934  1.00  0.00     0.029 A 
ATOM     40  N   UNL A   1      40.708  28.796  28.986  1.00  0.00    -0.354 N 
ATOM     41  C   UNL A   1      44.568  27.794  27.339  1.00  0.00     0.074 A 
ATOM     42  C   UNL A   1      44.572  26.457  26.788  1.00  0.00     0.031 C 
ATOM     43  C   UNL A   1      38.593  28.418  29.609  1.00  0.00     0.029 A 
ATOM     44  C   UNL A   1      39.684  29.384  29.692  1.00  0.00     0.049 A 
ATOM     45  H   UNL A   1      41.580  29.230  28.840  1.00  0.00     0.167 HD
ATOM     46  C   UNL A   1      45.647  28.614  27.354  1.00  0.00     0.034 A 
ATOM     47  C   UNL A   1      39.632  30.563  30.344  1.00  0.00     0.034 A 
ATOM     48  C   UNL A   1      45.631  29.956  27.871  1.00  0.00     0.049 A 
ATOM     49  C   UNL A   1      40.834  31.465  30.321  1.00  0.00     0.074 A 
ATOM     50  C   UNL A   1      46.645  30.895  27.853  1.00  0.00     0.029 A 
ATOM     51  N   UNL A   1      44.552  30.545  28.510  1.00  0.00    -0.354 N 
ATOM     52  N   UNL A   1      41.998  31.275  29.748  1.00  0.00    -0.248 NA
ATOM     53  C   UNL A   1      40.706  32.762  31.001  1.00  0.00     0.031 C 
ATOM     54  C   UNL A   1      46.192  32.042  28.513  1.00  0.00     0.029 A 
ATOM     55  C   UNL A   1      44.880  31.831  28.905  1.00  0.00     0.049 A 
ATOM     56  H   UNL A   1      43.680  30.113  28.661  1.00  0.00     0.167 HD
ATOM     57  C   UNL A   1      42.726  32.440  29.966  1.00  0.00     0.074 A 
ATOM     58  C   UNL A   1      41.863  33.338  30.705  1.00  0.00     0.031 C 
ATOM     59  C   UNL A   1      43.997  32.735  29.598  1.00  0.00     0.034 A 
BRANCH  46  60
ATOM     60  C   UNL A   1      46.930  28.097  26.756  1.00  0.00     0.023 A 
ATOM     61  C   UNL A   1      47.922  27.550  27.597  1.00  0.00     0.012 A 
ATOM     62  C   UNL A   1      47.130  28.096  25.362  1.00  0.00     0.148 A 
ATOM     63  C   UNL A   1      49.106  27.043  27.063  1.00  0.00     0.002 A 
ATOM     64  C   UNL A   1      48.292  27.544  24.834  1.00  0.00     0.091 A 
ATOM     65  F   UNL A   1      46.186  28.637  24.580  1.00  0.00    -0.205 F 
ATOM     66  C   UNL A   1      49.286  27.031  25.682  1.00  0.00     0.022 A 
BRANCH  64  67
ATOM     67  S   UNL A   1      48.583  27.405  23.067  1.00  0.00     0.127 S 
ATOM     68  O   UNL A   1      47.634  28.380  22.534  1.00  0.00    -0.237 OA
ATOM     69  O   UNL A   1      49.988  27.797  22.956  1.00  0.00    -0.237 OA
ATOM     70  O   UNL A   1      48.309  26.017  22.722  1.00  0.00    -0.744 OA
ENDBRANCH  64  67
ENDBRANCH  46  60
BRANCH  47  71
ATOM     71  C   UNL A   1      38.376  30.980  31.031  1.00  0.00     0.023 A 
ATOM     72  C   UNL A   1      38.211  30.704  32.403  1.00  0.00     0.012 A 
ATOM     73  C   UNL A   1      37.357  31.663  30.340  1.00  0.00     0.148 A 
ATOM     74  C   UNL A   1      37.037  31.068  33.064  1.00  0.00     0.002 A 
ATOM     75  C   UNL A   1      36.216  32.073  31.018  1.00  0.00     0.091 A 
ATOM     76  F   UNL A   1      37.530  31.907  29.034  1.00  0.00    -0.205 F 
ATOM     77  C   UNL A   1      36.046  31.760  32.375  1.00  0.00     0.022 A 
BRANCH  75  78
ATOM     78  S   UNL A   1      34.948  33.084  30.245  1.00  0.00     0.127 S 
ATOM     79  O   UNL A   1      35.736  34.184  29.697  1.00  0.00    -0.237 OA
ATOM     80  O   UNL A   1      34.396  32.164  29.249  1.00  0.00    -0.237 OA
ATOM     81  O   UNL A   1      34.022  33.439  31.311  1.00  0.00    -0.744 OA
ENDBRANCH  75  78
ENDBRANCH  47  71
BRANCH  59  82
ATOM     82  C   UNL A   1      44.527  34.101  29.944  1.00  0.00     0.023 A 
ATOM     83  C   UNL A   1      45.276  34.291  31.122  1.00  0.00     0.012 A 
ATOM     84  C   UNL A   1      44.342  35.185  29.061  1.00  0.00     0.148 A 
ATOM     85  C   UNL A   1      45.802  35.545  31.434  1.00  0.00     0.002 A 
ATOM     86  C   UNL A   1      44.914  36.417  29.351  1.00  0.00     0.091 A 
ATOM     87  F   UNL A   1      43.612  34.989  27.954  1.00  0.00    -0.205 F 
ATOM     88  C   UNL A   1      45.632  36.603  30.544  1.00  0.00     0.022 A 
BRANCH  86  89
ATOM     89  S   UNL A   1      44.834  37.808  28.218  1.00  0.00     0.127 S 
ATOM     90  O   UNL A   1      45.795  38.733  28.814  1.00  0.00    -0.237 OA
ATOM     91  O   UNL A   1      45.268  37.205  26.957  1.00  0.00    -0.237 OA
ATOM     92  O   UNL A   1      43.447  38.256  28.228  1.00  0.00    -0.744 OA
ENDBRANCH  86  89
ENDBRANCH  59  82
ENDBRANCH  33  34
ENDBRANCH  25  28
ENDBRANCH  23  24
ENDBRANCH  22  23
ENDBRANCH  21  22
ENDBRANCH   1  21
TORSDOF 19
ENDMDL
MODEL 3
REMARK VINA RESULT:     -10.6      5.687      8.793
REMARK SMILES C[C@@H](Nc1cccc(Cl)c1)[C@@H](C)C(=O)NCCCCCCNC(=O)c1ccc(-c2c3nc(c(-c4cccc(S(=O)(=O)[O-])c4F)c4ccc([nH]4)c(-c4cccc(S(=O)(=O)[O-])c4F)c4nc(c(-c5cccc(S(=O)(=O)[O-])c5F)c5ccc2[nH]5)C=C4)C=C3)cc1
REMARK SMILES IDX 18 1 17 2 16 3 15 4 13 5 14 6 11 8 12 9 2 10 1 11 3 12 4 14
REMARK SMILES IDX 5 15 10 16 6 17 8 18 7 19 9 20 19 21 20 22 21 23 22 24 23 25
REMARK SMILES IDX 24 27 25 28 26 29 87 30 27 31 86 32 28 33 29 34 30 35 80 36
REMARK SMILES IDX 31 37 85 38 79 39 81 40 32 41 84 42 78 43 77 44 33 46 65 47
REMARK SMILES IDX 45 48 64 49 46 50 49 51 63 52 82 53 47 54 48 55 62 57 83 58
REMARK SMILES IDX 50 59 34 60 35 61 43 62 36 63 38 64 44 65 37 66 39 67 40 68
REMARK SMILES IDX 41 69 42 70 66 71 67 72 75 73 68 74 70 75 76 76 69 77 71 78
REMARK SMILES IDX 72 79 73 80 74 81 51 82 52 83 60 84 53 85 55 86 61 87 54 88
REMARK SMILES IDX 56 89 57 90 58 91 59 92
REMARK H PARENT 15 7 3 13 22 26 81 45 49 56
REMARK Flexibility Score: inf
ROOT
ATOM      1  C   UNL A   1      36.714  22.149  25.571  1.00  0.00     0.002 C 
ENDROOT
BRANCH   1   2
ATOM      2  C   UNL A   1      36.257  23.434  24.870  1.00  0.00     0.021 C 
BRANCH   2   3
ATOM      3  C   UNL A   1      35.069  24.137  25.527  1.00  0.00     0.116 C 
BRANCH   3   4
ATOM      4  N   UNL A   1      34.502  23.352  26.604  1.00  0.00    -0.356 N 
ATOM      5  C   UNL A   1      33.268  22.814  26.780  1.00  0.00     0.224 C 
ATOM      6  O   UNL A   1      33.130  22.073  27.760  1.00  0.00    -0.275 OA
ATOM      7  H   UNL A   1      35.126  23.176  27.345  1.00  0.00     0.163 HD
BRANCH   5   8
ATOM      8  C   UNL A   1      32.118  23.007  25.794  1.00  0.00     0.097 C 
ATOM      9  C   UNL A   1      30.888  23.331  26.660  1.00  0.00     0.020 C 
BRANCH   8  10
ATOM     10  C   UNL A   1      31.913  21.883  24.738  1.00  0.00     0.088 C 
ATOM     11  C   UNL A   1      32.811  22.113  23.502  1.00  0.00     0.031 C 
BRANCH  10  12
ATOM     12  N   UNL A   1      32.199  20.502  25.168  1.00  0.00    -0.382 N 
ATOM     13  H   UNL A   1      32.016  20.313  26.118  1.00  0.00     0.160 HD
BRANCH  12  14
ATOM     14  C   UNL A   1      32.685  19.441  24.445  1.00  0.00     0.036 A 
ATOM     15  C   UNL A   1      32.214  19.083  23.184  1.00  0.00     0.026 A 
ATOM     16  C   UNL A   1      33.679  18.640  25.020  1.00  0.00     0.046 A 
ATOM     17  C   UNL A   1      32.639  17.910  22.551  1.00  0.00     0.004 A 
ATOM     18  C   UNL A   1      34.127  17.483  24.382  1.00  0.00     0.043 A 
ATOM     19  C   UNL A   1      33.591  17.099  23.157  1.00  0.00     0.020 A 
ATOM     20  Cl  UNL A   1      35.338  16.512  25.128  1.00  0.00    -0.084 Cl
ENDBRANCH  12  14
ENDBRANCH  10  12
ENDBRANCH   8  10
ENDBRANCH   5   8
ENDBRANCH   3   4
ENDBRANCH   2   3
ENDBRANCH   1   2
BRANCH   1  21
ATOM     21  C   UNL A   1      36.615  20.873  24.731  1.00  0.00     0.002 C 
BRANCH  21  22
ATOM     22  C   UNL A   1      37.783  19.897  24.887  1.00  0.00     0.021 C 
BRANCH  22  23
ATOM     23  C   UNL A   1      38.933  20.411  25.743  1.00  0.00     0.116 C 
BRANCH  23  24
ATOM     24  N   UNL A   1      39.949  19.393  25.956  1.00  0.00    -0.352 N 
ATOM     25  C   UNL A   1      41.296  19.546  26.180  1.00  0.00     0.251 C 
ATOM     26  H   UNL A   1      39.626  18.464  25.937  1.00  0.00     0.163 HD
ATOM     27  O   UNL A   1      42.039  18.573  26.129  1.00  0.00    -0.269 OA
BRANCH  25  28
ATOM     28  C   UNL A   1      41.846  20.890  26.469  1.00  0.00     0.039 A 
ATOM     29  C   UNL A   1      42.037  21.783  25.412  1.00  0.00     0.014 A 
ATOM     30  C   UNL A   1      42.175  21.264  27.775  1.00  0.00     0.014 A 
ATOM     31  C   UNL A   1      42.509  23.071  25.673  1.00  0.00     0.010 A 
ATOM     32  C   UNL A   1      42.569  22.573  28.042  1.00  0.00     0.010 A 
ATOM     33  C   UNL A   1      42.749  23.488  26.993  1.00  0.00    -0.014 A 
BRANCH  33  34
ATOM     34  C   UNL A   1      43.181  24.877  27.297  1.00  0.00     0.031 A 
ATOM     35  C   UNL A   1      42.226  25.850  27.935  1.00  0.00     0.074 A 
ATOM     36  C   UNL A   1      44.411  25.286  26.925  1.00  0.00     0.049 A 
ATOM     37  N   UNL A   1      42.408  27.112  28.228  1.00  0.00    -0.248 NA
ATOM     38  C   UNL A   1      40.881  25.348  28.263  1.00  0.00     0.031 C 
ATOM     39  C   UNL A   1      45.403  24.462  26.231  1.00  0.00     0.029 A 
ATOM     40  N   UNL A   1      45.028  26.506  27.056  1.00  0.00    -0.354 N 
ATOM     41  C   UNL A   1      41.198  27.562  28.740  1.00  0.00     0.074 A 
ATOM     42  C   UNL A   1      40.276  26.448  28.685  1.00  0.00     0.031 C 
ATOM     43  C   UNL A   1      46.504  25.197  26.003  1.00  0.00     0.029 A 
ATOM     44  C   UNL A   1      46.285  26.551  26.501  1.00  0.00     0.049 A 
ATOM     45  H   UNL A   1      44.609  27.276  27.505  1.00  0.00     0.167 HD
ATOM     46  C   UNL A   1      40.886  28.783  29.237  1.00  0.00     0.034 A 
ATOM     47  C   UNL A   1      47.160  27.571  26.392  1.00  0.00     0.034 A 
ATOM     48  C   UNL A   1      41.816  29.878  29.322  1.00  0.00     0.049 A 
ATOM     49  C   UNL A   1      46.800  28.909  26.977  1.00  0.00     0.074 A 
ATOM     50  C   UNL A   1      41.624  31.126  29.887  1.00  0.00     0.029 A 
ATOM     51  N   UNL A   1      43.107  29.862  28.819  1.00  0.00    -0.354 N 
ATOM     52  N   UNL A   1      45.705  29.270  27.599  1.00  0.00    -0.248 NA
ATOM     53  C   UNL A   1      47.812  29.971  26.879  1.00  0.00     0.031 C 
ATOM     54  C   UNL A   1      42.787  31.878  29.694  1.00  0.00     0.029 A 
ATOM     55  C   UNL A   1      43.718  31.083  29.045  1.00  0.00     0.049 A 
ATOM     56  H   UNL A   1      43.527  29.096  28.366  1.00  0.00     0.167 HD
ATOM     57  C   UNL A   1      45.908  30.586  27.999  1.00  0.00     0.074 A 
ATOM     58  C   UNL A   1      47.241  30.951  27.567  1.00  0.00     0.031 C 
ATOM     59  C   UNL A   1      45.064  31.420  28.654  1.00  0.00     0.034 A 
BRANCH  46  60
ATOM     60  C   UNL A   1      39.492  28.992  29.767  1.00  0.00     0.023 A 
ATOM     61  C   UNL A   1      39.162  28.544  31.063  1.00  0.00     0.012 A 
ATOM     62  C   UNL A   1      38.526  29.685  29.010  1.00  0.00     0.148 A 
ATOM     63  C   UNL A   1      37.884  28.749  31.583  1.00  0.00     0.002 A 
ATOM     64  C   UNL A   1      37.270  29.928  29.555  1.00  0.00     0.091 A 
ATOM     65  F   UNL A   1      38.850  30.087  27.774  1.00  0.00    -0.205 F 
ATOM     66  C   UNL A   1      36.944  29.449  30.834  1.00  0.00     0.022 A 
BRANCH  64  67
ATOM     67  S   UNL A   1      36.015  30.892  28.706  1.00  0.00     0.127 S 
ATOM     68  O   UNL A   1      35.095  31.205  29.798  1.00  0.00    -0.237 OA
ATOM     69  O   UNL A   1      36.786  32.032  28.212  1.00  0.00    -0.237 OA
ATOM     70  O   UNL A   1      35.475  30.025  27.668  1.00  0.00    -0.744 OA
ENDBRANCH  64  67
ENDBRANCH  46  60
BRANCH  47  71
ATOM     71  C   UNL A   1      48.486  27.350  25.746  1.00  0.00     0.023 A 
ATOM     72  C   UNL A   1      49.574  26.910  26.526  1.00  0.00     0.012 A 
ATOM     73  C   UNL A   1      48.669  27.556  24.366  1.00  0.00     0.148 A 
ATOM     74  C   UNL A   1      50.828  26.714  25.948  1.00  0.00     0.002 A 
ATOM     75  C   UNL A   1      49.906  27.303  23.787  1.00  0.00     0.091 A 
ATOM     76  F   UNL A   1      47.623  27.983  23.644  1.00  0.00    -0.205 F 
ATOM     77  C   UNL A   1      50.992  26.901  24.579  1.00  0.00     0.022 A 
BRANCH  75  78
ATOM     78  S   UNL A   1      50.174  27.390  22.012  1.00  0.00     0.127 S 
ATOM     79  O   UNL A   1      49.691  28.733  21.702  1.00  0.00    -0.237 OA
ATOM     80  O   UNL A   1      51.625  27.220  21.918  1.00  0.00    -0.237 OA
ATOM     81  O   UNL A   1      49.404  26.293  21.442  1.00  0.00    -0.744 OA
ENDBRANCH  75  78
ENDBRANCH  47  71
BRANCH  59  82
ATOM     82  C   UNL A   1      45.564  32.800  28.991  1.00  0.00     0.023 A 
ATOM     83  C   UNL A   1      46.258  33.026  30.196  1.00  0.00     0.012 A 
ATOM     84  C   UNL A   1      45.406  33.861  28.076  1.00  0.00     0.148 A 
ATOM     85  C   UNL A   1      46.756  34.293  30.502  1.00  0.00     0.002 A 
ATOM     86  C   UNL A   1      45.952  35.106  28.362  1.00  0.00     0.091 A 
ATOM     87  F   UNL A   1      44.728  33.631  26.943  1.00  0.00    -0.205 F 
ATOM     88  C   UNL A   1      46.614  35.327  29.581  1.00  0.00     0.022 A 
BRANCH  86  89
ATOM     89  S   UNL A   1      45.906  36.470  27.195  1.00  0.00     0.127 S 
ATOM     90  O   UNL A   1      44.471  36.729  27.096  1.00  0.00    -0.237 OA
ATOM     91  O   UNL A   1      46.666  37.504  27.898  1.00  0.00    -0.237 OA
ATOM     92  O   UNL A   1      46.537  35.979  25.976  1.00  0.00    -0.744 OA
ENDBRANCH  86  89
ENDBRANCH  59  82
ENDBRANCH  33  34
ENDBRANCH  25  28
ENDBRANCH  23  24
ENDBRANCH  22  23
ENDBRANCH  21  22
ENDBRANCH   1  21
TORSDOF 19
ENDMDL
