MODEL 1
REMARK VINA RESULT:     -12.4      0.000      0.000
REMARK SMILES O=C(NCCCCCCNC(=O)c1cnc2c(ccn2C2CCCCC2)c1)c1ccc(-c2c3nc(c(-c4cccc(S(=O)(=O)[O-])c4F)c4ccc([nH]4)c(-c4cccc(S(=O)(=O)[O-])c4F)c4nc(c(-c5cccc(S(=O)(=O)[O-])c5F)c5ccc2[nH]5)C=C4)C=C3)cc1
REMARK SMILES IDX 5 1 4 2 3 3 1 4 2 5 28 7 29 8 90 9 30 10 89 11 31 12 32 13
REMARK SMILES IDX 33 14 83 15 34 16 88 17 82 18 84 19 35 20 87 21 81 22 80 23
REMARK SMILES IDX 36 25 68 26 48 27 67 28 49 29 52 30 66 31 85 32 50 33 51 34
REMARK SMILES IDX 65 36 86 37 53 38 37 39 38 40 46 41 39 42 41 43 47 44 40 45
REMARK SMILES IDX 42 46 43 47 44 48 45 49 69 50 70 51 78 52 71 53 73 54 79 55
REMARK SMILES IDX 72 56 74 57 75 58 76 59 77 60 54 61 55 62 63 63 56 64 58 65
REMARK SMILES IDX 64 66 57 67 59 68 60 69 61 70 62 71 6 72 7 73 8 74 9 75
REMARK SMILES IDX 10 76 11 77 12 79 13 80 14 81 27 82 15 83 17 84 16 85 18 86
REMARK SMILES IDX 20 87 19 88 21 89 22 90 26 91 23 92 25 93 24 94
REMARK H PARENT 3 6 84 24 52 35 10 78
REMARK Flexibility Score: inf
ROOT
ATOM      1  C   UNL A   1      32.761  30.703  26.895  1.00  0.00     0.021 C 
ENDROOT
BRANCH   1   2
ATOM      2  C   UNL A   1      34.152  30.904  27.497  1.00  0.00     0.116 C 
BRANCH   2   3
ATOM      3  N   UNL A   1      34.176  31.569  28.783  1.00  0.00    -0.352 N 
ATOM      4  O   UNL A   1      34.894  32.493  30.678  1.00  0.00    -0.269 OA
ATOM      5  C   UNL A   1      35.167  31.788  29.706  1.00  0.00     0.251 C 
ATOM      6  H   UNL A   1      33.304  31.941  29.049  1.00  0.00     0.163 HD
BRANCH   5   7
ATOM      7  C   UNL A   1      36.501  31.147  29.624  1.00  0.00     0.039 A 
ATOM      8  C   UNL A   1      37.706  31.849  29.665  1.00  0.00     0.014 A 
ATOM      9  C   UNL A   1      36.524  29.747  29.498  1.00  0.00     0.014 A 
ATOM     10  C   UNL A   1      38.904  31.188  29.450  1.00  0.00     0.010 A 
ATOM     11  C   UNL A   1      37.728  29.072  29.331  1.00  0.00     0.010 A 
ATOM     12  C   UNL A   1      38.913  29.802  29.275  1.00  0.00    -0.014 A 
BRANCH  12  13
ATOM     13  C   UNL A   1      40.219  29.156  29.278  1.00  0.00     0.031 A 
ATOM     14  C   UNL A   1      40.791  28.981  30.642  1.00  0.00     0.074 A 
ATOM     15  C   UNL A   1      40.826  28.656  28.186  1.00  0.00     0.049 A 
ATOM     16  N   UNL A   1      41.845  29.540  31.144  1.00  0.00    -0.248 NA
ATOM     17  C   UNL A   1      40.003  28.196  31.608  1.00  0.00     0.031 C 
ATOM     18  C   UNL A   1      40.252  28.497  26.851  1.00  0.00     0.029 A 
ATOM     19  N   UNL A   1      42.049  28.055  28.079  1.00  0.00    -0.354 N 
ATOM     20  C   UNL A   1      41.983  28.975  32.410  1.00  0.00     0.074 A 
ATOM     21  C   UNL A   1      40.742  28.309  32.710  1.00  0.00     0.031 C 
ATOM     22  C   UNL A   1      41.018  27.636  26.144  1.00  0.00     0.029 A 
ATOM     23  C   UNL A   1      42.187  27.283  26.929  1.00  0.00     0.049 A 
ATOM     24  H   UNL A   1      42.763  28.160  28.750  1.00  0.00     0.167 HD
ATOM     25  C   UNL A   1      43.197  28.832  33.004  1.00  0.00     0.034 A 
ATOM     26  C   UNL A   1      43.149  26.357  26.699  1.00  0.00     0.034 A 
ATOM     27  C   UNL A   1      44.211  29.648  32.406  1.00  0.00     0.049 A 
ATOM     28  C   UNL A   1      44.287  26.680  27.591  1.00  0.00     0.074 A 
ATOM     29  C   UNL A   1      44.425  30.996  32.224  1.00  0.00     0.029 A 
ATOM     30  N   UNL A   1      45.074  28.990  31.571  1.00  0.00    -0.354 N 
ATOM     31  N   UNL A   1      45.032  27.744  27.476  1.00  0.00    -0.248 NA
ATOM     32  C   UNL A   1      44.447  25.934  28.830  1.00  0.00     0.031 C 
ATOM     33  C   UNL A   1      45.155  31.098  31.004  1.00  0.00     0.029 A 
ATOM     34  C   UNL A   1      45.363  29.806  30.515  1.00  0.00     0.049 A 
ATOM     35  H   UNL A   1      45.426  28.080  31.707  1.00  0.00     0.167 HD
ATOM     36  C   UNL A   1      45.424  28.029  28.774  1.00  0.00     0.074 A 
ATOM     37  C   UNL A   1      45.181  26.805  29.524  1.00  0.00     0.031 C 
ATOM     38  C   UNL A   1      45.621  29.315  29.177  1.00  0.00     0.034 A 
BRANCH  25  39
ATOM     39  C   UNL A   1      43.558  27.624  33.829  1.00  0.00     0.023 A 
ATOM     40  C   UNL A   1      43.823  26.409  33.166  1.00  0.00     0.012 A 
ATOM     41  C   UNL A   1      43.361  27.569  35.227  1.00  0.00     0.148 A 
ATOM     42  C   UNL A   1      43.897  25.199  33.868  1.00  0.00     0.002 A 
ATOM     43  C   UNL A   1      43.531  26.385  35.930  1.00  0.00     0.091 A 
ATOM     44  F   UNL A   1      42.857  28.630  35.870  1.00  0.00    -0.205 F 
ATOM     45  C   UNL A   1      43.775  25.190  35.254  1.00  0.00     0.022 A 
BRANCH  43  46
ATOM     46  S   UNL A   1      43.445  26.356  37.722  1.00  0.00     0.127 S 
ATOM     47  O   UNL A   1      42.004  26.336  37.946  1.00  0.00    -0.237 OA
ATOM     48  O   UNL A   1      44.145  25.110  38.036  1.00  0.00    -0.237 OA
ATOM     49  O   UNL A   1      44.153  27.558  38.152  1.00  0.00    -0.744 OA
ENDBRANCH  43  46
ENDBRANCH  25  39
BRANCH  26  50
ATOM     50  C   UNL A   1      43.105  25.078  25.940  1.00  0.00     0.023 A 
ATOM     51  C   UNL A   1      44.098  24.834  24.965  1.00  0.00     0.012 A 
ATOM     52  C   UNL A   1      42.304  23.988  26.344  1.00  0.00     0.148 A 
ATOM     53  C   UNL A   1      44.335  23.545  24.471  1.00  0.00     0.002 A 
ATOM     54  C   UNL A   1      42.528  22.711  25.833  1.00  0.00     0.091 A 
ATOM     55  F   UNL A   1      41.385  24.169  27.302  1.00  0.00    -0.205 F 
ATOM     56  C   UNL A   1      43.559  22.482  24.913  1.00  0.00     0.022 A 
BRANCH  54  57
ATOM     57  S   UNL A   1      41.545  21.297  26.352  1.00  0.00     0.127 S 
ATOM     58  O   UNL A   1      41.849  21.214  27.781  1.00  0.00    -0.237 OA
ATOM     59  O   UNL A   1      40.190  21.730  26.038  1.00  0.00    -0.237 OA
ATOM     60  O   UNL A   1      42.054  20.168  25.575  1.00  0.00    -0.744 OA
ENDBRANCH  54  57
ENDBRANCH  26  50
BRANCH  38  61
ATOM     61  C   UNL A   1      45.858  30.363  28.129  1.00  0.00     0.023 A 
ATOM     62  C   UNL A   1      44.808  31.086  27.532  1.00  0.00     0.012 A 
ATOM     63  C   UNL A   1      47.188  30.757  27.903  1.00  0.00     0.148 A 
ATOM     64  C   UNL A   1      45.085  32.190  26.723  1.00  0.00     0.002 A 
ATOM     65  C   UNL A   1      47.456  31.881  27.137  1.00  0.00     0.091 A 
ATOM     66  F   UNL A   1      48.166  30.051  28.492  1.00  0.00    -0.205 F 
ATOM     67  C   UNL A   1      46.406  32.598  26.538  1.00  0.00     0.022 A 
BRANCH  65  68
ATOM     68  S   UNL A   1      49.116  32.538  26.970  1.00  0.00     0.127 S 
ATOM     69  O   UNL A   1      49.409  32.977  28.333  1.00  0.00    -0.237 OA
ATOM     70  O   UNL A   1      49.869  31.362  26.530  1.00  0.00    -0.237 OA
ATOM     71  O   UNL A   1      49.037  33.604  25.979  1.00  0.00    -0.744 OA
ENDBRANCH  65  68
ENDBRANCH  38  61
ENDBRANCH  12  13
ENDBRANCH   5   7
ENDBRANCH   2   3
ENDBRANCH   1   2
BRANCH   1  72
ATOM     72  C   UNL A   1      32.450  29.264  26.474  1.00  0.00     0.002 C 
BRANCH  72  73
ATOM     73  C   UNL A   1      33.653  28.444  25.997  1.00  0.00     0.002 C 
BRANCH  73  74
ATOM     74  C   UNL A   1      33.510  26.922  26.126  1.00  0.00     0.021 C 
BRANCH  74  75
ATOM     75  C   UNL A   1      32.451  26.298  25.221  1.00  0.00     0.116 C 
BRANCH  75  76
ATOM     76  N   UNL A   1      32.784  26.463  23.813  1.00  0.00    -0.352 N 
ATOM     77  C   UNL A   1      33.508  25.645  22.989  1.00  0.00     0.252 C 
ATOM     78  H   UNL A   1      32.438  27.283  23.393  1.00  0.00     0.163 HD
ATOM     79  O   UNL A   1      33.889  26.052  21.886  1.00  0.00    -0.269 OA
BRANCH  77  80
ATOM     80  C   UNL A   1      33.860  24.282  23.408  1.00  0.00     0.058 A 
ATOM     81  C   UNL A   1      33.084  23.197  23.022  1.00  0.00     0.127 A 
ATOM     82  C   UNL A   1      35.015  24.063  24.163  1.00  0.00     0.027 A 
ATOM     83  N   UNL A   1      33.295  21.913  23.388  1.00  0.00    -0.238 NA
ATOM     84  C   UNL A   1      35.288  22.740  24.552  1.00  0.00     0.020 A 
ATOM     85  C   UNL A   1      34.396  21.748  24.148  1.00  0.00     0.140 A 
ATOM     86  C   UNL A   1      36.307  22.101  25.304  1.00  0.00     0.030 A 
ATOM     87  N   UNL A   1      34.834  20.552  24.666  1.00  0.00    -0.329 N 
ATOM     88  C   UNL A   1      36.005  20.757  25.362  1.00  0.00     0.088 A 
BRANCH  87  89
ATOM     89  C   UNL A   1      34.159  19.261  24.538  1.00  0.00     0.088 C 
ATOM     90  C   UNL A   1      35.158  18.092  24.489  1.00  0.00     0.025 C 
ATOM     91  C   UNL A   1      33.072  19.047  25.602  1.00  0.00     0.025 C 
ATOM     92  C   UNL A   1      34.444  16.751  24.334  1.00  0.00     0.002 C 
ATOM     93  C   UNL A   1      32.380  17.696  25.433  1.00  0.00     0.002 C 
ATOM     94  C   UNL A   1      33.386  16.548  25.414  1.00  0.00     0.000 C 
ENDBRANCH  87  89
ENDBRANCH  77  80
ENDBRANCH  75  76
ENDBRANCH  74  75
ENDBRANCH  73  74
ENDBRANCH  72  73
ENDBRANCH   1  72
TORSDOF 17
ENDMDL
MODEL 2
REMARK VINA RESULT:     -12.1      2.621      4.843
REMARK SMILES O=C(NCCCCCCNC(=O)c1cnc2c(ccn2C2CCCCC2)c1)c1ccc(-c2c3nc(c(-c4cccc(S(=O)(=O)[O-])c4F)c4ccc([nH]4)c(-c4cccc(S(=O)(=O)[O-])c4F)c4nc(c(-c5cccc(S(=O)(=O)[O-])c5F)c5ccc2[nH]5)C=C4)C=C3)cc1
REMARK SMILES IDX 5 1 4 2 3 3 1 4 2 5 28 7 29 8 90 9 30 10 89 11 31 12 32 13
REMARK SMILES IDX 33 14 83 15 34 16 88 17 82 18 84 19 35 20 87 21 81 22 80 23
REMARK SMILES IDX 36 25 68 26 48 27 67 28 49 29 52 30 66 31 85 32 50 33 51 34
REMARK SMILES IDX 65 36 86 37 53 38 37 39 38 40 46 41 39 42 41 43 47 44 40 45
REMARK SMILES IDX 42 46 43 47 44 48 45 49 69 50 70 51 78 52 71 53 73 54 79 55
REMARK SMILES IDX 72 56 74 57 75 58 76 59 77 60 54 61 55 62 63 63 56 64 58 65
REMARK SMILES IDX 64 66 57 67 59 68 60 69 61 70 62 71 6 72 7 73 8 74 9 75
REMARK SMILES IDX 10 76 11 77 12 79 13 80 14 81 27 82 15 83 17 84 16 85 18 86
REMARK SMILES IDX 20 87 19 88 21 89 22 90 26 91 23 92 25 93 24 94
REMARK H PARENT 3 6 84 24 52 35 10 78
REMARK Flexibility Score: inf
ROOT
ATOM      1  C   UNL A   1      33.050  28.793  27.235  1.00  0.00     0.021 C 
ENDROOT
BRANCH   1   2
ATOM      2  C   UNL A   1      34.215  29.731  26.920  1.00  0.00     0.116 C 
BRANCH   2   3
ATOM      3  N   UNL A   1      34.269  30.937  27.721  1.00  0.00    -0.352 N 
ATOM      4  O   UNL A   1      35.030  32.672  28.889  1.00  0.00    -0.269 OA
ATOM      5  C   UNL A   1      35.289  31.589  28.365  1.00  0.00     0.251 C 
ATOM      6  H   UNL A   1      33.395  31.379  27.824  1.00  0.00     0.163 HD
BRANCH   5   7
ATOM      7  C   UNL A   1      36.642  31.006  28.527  1.00  0.00     0.039 A 
ATOM      8  C   UNL A   1      37.704  31.665  29.148  1.00  0.00     0.014 A 
ATOM      9  C   UNL A   1      36.840  29.711  28.017  1.00  0.00     0.014 A 
ATOM     10  C   UNL A   1      38.970  31.104  29.142  1.00  0.00     0.010 A 
ATOM     11  C   UNL A   1      38.099  29.121  28.052  1.00  0.00     0.010 A 
ATOM     12  C   UNL A   1      39.168  29.836  28.586  1.00  0.00    -0.014 A 
BRANCH  12  13
ATOM     13  C   UNL A   1      40.470  29.224  28.815  1.00  0.00     0.031 A 
ATOM     14  C   UNL A   1      40.788  29.029  30.258  1.00  0.00     0.074 A 
ATOM     15  C   UNL A   1      41.280  28.766  27.844  1.00  0.00     0.049 A 
ATOM     16  N   UNL A   1      41.716  29.601  30.955  1.00  0.00    -0.248 NA
ATOM     17  C   UNL A   1      39.860  28.200  31.046  1.00  0.00     0.031 C 
ATOM     18  C   UNL A   1      40.964  28.627  26.423  1.00  0.00     0.029 A 
ATOM     19  N   UNL A   1      42.519  28.199  27.950  1.00  0.00    -0.354 N 
ATOM     20  C   UNL A   1      41.637  29.008  32.213  1.00  0.00     0.074 A 
ATOM     21  C   UNL A   1      40.381  28.304  32.268  1.00  0.00     0.031 C 
ATOM     22  C   UNL A   1      41.871  27.804  25.851  1.00  0.00     0.029 A 
ATOM     23  C   UNL A   1      42.887  27.460  26.830  1.00  0.00     0.049 A 
ATOM     24  H   UNL A   1      43.095  28.304  28.743  1.00  0.00     0.167 HD
ATOM     25  C   UNL A   1      42.724  28.880  33.016  1.00  0.00     0.034 A 
ATOM     26  C   UNL A   1      43.902  26.564  26.761  1.00  0.00     0.034 A 
ATOM     27  C   UNL A   1      43.807  29.736  32.631  1.00  0.00     0.049 A 
ATOM     28  C   UNL A   1      44.847  26.893  27.853  1.00  0.00     0.074 A 
ATOM     29  C   UNL A   1      44.011  31.093  32.519  1.00  0.00     0.029 A 
ATOM     30  N   UNL A   1      44.827  29.120  31.955  1.00  0.00    -0.354 N 
ATOM     31  N   UNL A   1      45.570  27.978  27.898  1.00  0.00    -0.248 NA
ATOM     32  C   UNL A   1      44.800  26.120  29.085  1.00  0.00     0.031 C 
ATOM     33  C   UNL A   1      44.948  31.244  31.455  1.00  0.00     0.029 A 
ATOM     34  C   UNL A   1      45.280  29.970  30.987  1.00  0.00     0.049 A 
ATOM     35  H   UNL A   1      45.174  28.217  32.135  1.00  0.00     0.167 HD
ATOM     36  C   UNL A   1      45.710  28.240  29.252  1.00  0.00     0.074 A 
ATOM     37  C   UNL A   1      45.369  26.991  29.919  1.00  0.00     0.031 C 
ATOM     38  C   UNL A   1      45.792  29.520  29.710  1.00  0.00     0.034 A 
BRANCH  25  39
ATOM     39  C   UNL A   1      42.964  27.661  33.870  1.00  0.00     0.023 A 
ATOM     40  C   UNL A   1      43.700  26.590  33.323  1.00  0.00     0.012 A 
ATOM     41  C   UNL A   1      42.251  27.414  35.065  1.00  0.00     0.148 A 
ATOM     42  C   UNL A   1      43.729  25.336  33.948  1.00  0.00     0.002 A 
ATOM     43  C   UNL A   1      42.362  26.201  35.729  1.00  0.00     0.091 A 
ATOM     44  F   UNL A   1      41.339  28.298  35.488  1.00  0.00    -0.205 F 
ATOM     45  C   UNL A   1      43.080  25.148  35.163  1.00  0.00     0.022 A 
BRANCH  43  46
ATOM     46  S   UNL A   1      41.590  25.954  37.329  1.00  0.00     0.127 S 
ATOM     47  O   UNL A   1      41.161  24.564  37.236  1.00  0.00    -0.237 OA
ATOM     48  O   UNL A   1      42.706  26.203  38.243  1.00  0.00    -0.237 OA
ATOM     49  O   UNL A   1      40.533  26.958  37.397  1.00  0.00    -0.744 OA
ENDBRANCH  43  46
ENDBRANCH  25  39
BRANCH  26  50
ATOM     50  C   UNL A   1      44.034  25.305  25.981  1.00  0.00     0.023 A 
ATOM     51  C   UNL A   1      45.189  25.116  25.189  1.00  0.00     0.012 A 
ATOM     52  C   UNL A   1      43.213  24.180  26.218  1.00  0.00     0.148 A 
ATOM     53  C   UNL A   1      45.553  23.848  24.719  1.00  0.00     0.002 A 
ATOM     54  C   UNL A   1      43.567  22.924  25.729  1.00  0.00     0.091 A 
ATOM     55  F   UNL A   1      42.137  24.308  27.005  1.00  0.00    -0.205 F 
ATOM     56  C   UNL A   1      44.749  22.750  24.998  1.00  0.00     0.022 A 
BRANCH  54  57
ATOM     57  S   UNL A   1      42.559  21.467  26.041  1.00  0.00     0.127 S 
ATOM     58  O   UNL A   1      43.217  20.452  25.218  1.00  0.00    -0.237 OA
ATOM     59  O   UNL A   1      42.716  21.287  27.478  1.00  0.00    -0.237 OA
ATOM     60  O   UNL A   1      41.218  21.820  25.582  1.00  0.00    -0.744 OA
ENDBRANCH  54  57
ENDBRANCH  26  50
BRANCH  38  61
ATOM     61  C   UNL A   1      46.186  30.599  28.745  1.00  0.00     0.023 A 
ATOM     62  C   UNL A   1      47.527  30.849  28.396  1.00  0.00     0.012 A 
ATOM     63  C   UNL A   1      45.155  31.228  28.026  1.00  0.00     0.148 A 
ATOM     64  C   UNL A   1      47.831  31.714  27.342  1.00  0.00     0.002 A 
ATOM     65  C   UNL A   1      45.460  32.049  26.953  1.00  0.00     0.091 A 
ATOM     66  F   UNL A   1      43.887  30.963  28.379  1.00  0.00    -0.205 F 
ATOM     67  C   UNL A   1      46.799  32.302  26.610  1.00  0.00     0.022 A 
BRANCH  65  68
ATOM     68  S   UNL A   1      44.185  32.726  25.887  1.00  0.00     0.127 S 
ATOM     69  O   UNL A   1      43.270  31.594  25.749  1.00  0.00    -0.237 OA
ATOM     70  O   UNL A   1      43.670  33.835  26.692  1.00  0.00    -0.237 OA
ATOM     71  O   UNL A   1      44.854  33.136  24.659  1.00  0.00    -0.744 OA
ENDBRANCH  65  68
ENDBRANCH  38  61
ENDBRANCH  12  13
ENDBRANCH   5   7
ENDBRANCH   2   3
ENDBRANCH   1   2
BRANCH   1  72
ATOM     72  C   UNL A   1      32.751  27.759  26.145  1.00  0.00     0.002 C 
BRANCH  72  73
ATOM     73  C   UNL A   1      32.287  26.389  26.648  1.00  0.00     0.002 C 
BRANCH  73  74
ATOM     74  C   UNL A   1      33.069  25.185  26.109  1.00  0.00     0.021 C 
BRANCH  74  75
ATOM     75  C   UNL A   1      34.135  25.525  25.070  1.00  0.00     0.116 C 
BRANCH  75  76
ATOM     76  N   UNL A   1      34.011  24.693  23.882  1.00  0.00    -0.352 N 
ATOM     77  C   UNL A   1      33.016  24.660  22.944  1.00  0.00     0.252 C 
ATOM     78  H   UNL A   1      34.751  24.061  23.732  1.00  0.00     0.163 HD
ATOM     79  O   UNL A   1      32.958  23.732  22.130  1.00  0.00    -0.269 OA
BRANCH  77  80
ATOM     80  C   UNL A   1      31.992  25.713  22.901  1.00  0.00     0.058 A 
ATOM     81  C   UNL A   1      32.255  26.935  22.297  1.00  0.00     0.127 A 
ATOM     82  C   UNL A   1      30.722  25.469  23.429  1.00  0.00     0.027 A 
ATOM     83  N   UNL A   1      31.401  27.981  22.243  1.00  0.00    -0.238 NA
ATOM     84  C   UNL A   1      29.791  26.521  23.377  1.00  0.00     0.020 A 
ATOM     85  C   UNL A   1      30.200  27.721  22.797  1.00  0.00     0.140 A 
ATOM     86  C   UNL A   1      28.446  26.698  23.793  1.00  0.00     0.030 A 
ATOM     87  N   UNL A   1      29.155  28.610  22.888  1.00  0.00    -0.329 N 
ATOM     88  C   UNL A   1      28.079  27.991  23.483  1.00  0.00     0.088 A 
BRANCH  87  89
ATOM     89  C   UNL A   1      29.175  30.007  22.457  1.00  0.00     0.088 C 
ATOM     90  C   UNL A   1      28.208  30.263  21.289  1.00  0.00     0.025 C 
ATOM     91  C   UNL A   1      28.954  30.993  23.615  1.00  0.00     0.025 C 
ATOM     92  C   UNL A   1      28.252  31.720  20.833  1.00  0.00     0.002 C 
ATOM     93  C   UNL A   1      28.992  32.441  23.133  1.00  0.00     0.002 C 
ATOM     94  C   UNL A   1      28.007  32.679  21.992  1.00  0.00     0.000 C 
ENDBRANCH  87  89
ENDBRANCH  77  80
ENDBRANCH  75  76
ENDBRANCH  74  75
ENDBRANCH  73  74
ENDBRANCH  72  73
ENDBRANCH   1  72
TORSDOF 17
ENDMDL
MODEL 3
REMARK VINA RESULT:     -12.0      2.676      4.982
REMARK SMILES O=C(NCCCCCCNC(=O)c1cnc2c(ccn2C2CCCCC2)c1)c1ccc(-c2c3nc(c(-c4cccc(S(=O)(=O)[O-])c4F)c4ccc([nH]4)c(-c4cccc(S(=O)(=O)[O-])c4F)c4nc(c(-c5cccc(S(=O)(=O)[O-])c5F)c5ccc2[nH]5)C=C4)C=C3)cc1
REMARK SMILES IDX 5 1 4 2 3 3 1 4 2 5 28 7 29 8 90 9 30 10 89 11 31 12 32 13
REMARK SMILES IDX 33 14 83 15 34 16 88 17 82 18 84 19 35 20 87 21 81 22 80 23
REMARK SMILES IDX 36 25 68 26 48 27 67 28 49 29 52 30 66 31 85 32 50 33 51 34
REMARK SMILES IDX 65 36 86 37 53 38 37 39 38 40 46 41 39 42 41 43 47 44 40 45
REMARK SMILES IDX 42 46 43 47 44 48 45 49 69 50 70 51 78 52 71 53 73 54 79 55
REMARK SMILES IDX 72 56 74 57 75 58 76 59 77 60 54 61 55 62 63 63 56 64 58 65
REMARK SMILES IDX 64 66 57 67 59 68 60 69 61 70 62 71 6 72 7 73 8 74 9 75
REMARK SMILES IDX 10 76 11 77 12 79 13 80 14 81 27 82 15 83 17 84 16 85 18 86
REMARK SMILES IDX 20 87 19 88 21 89 22 90 26 91 23 92 25 93 24 94
REMARK H PARENT 3 6 84 24 52 35 10 78
REMARK Flexibility Score: inf
ROOT
ATOM      1  C   UNL A   1      32.283  29.830  26.143  1.00  0.00     0.021 C 
ENDROOT
BRANCH   1   2
ATOM      2  C   UNL A   1      33.566  30.044  26.947  1.00  0.00     0.116 C 
BRANCH   2   3
ATOM      3  N   UNL A   1      33.557  31.196  27.826  1.00  0.00    -0.352 N 
ATOM      4  O   UNL A   1      34.222  32.831  29.182  1.00  0.00    -0.269 OA
ATOM      5  C   UNL A   1      34.513  31.775  28.620  1.00  0.00     0.251 C 
ATOM      6  H   UNL A   1      32.688  31.657  27.859  1.00  0.00     0.163 HD
BRANCH   5   7
ATOM      7  C   UNL A   1      35.825  31.142  28.894  1.00  0.00     0.039 A 
ATOM      8  C   UNL A   1      35.993  29.783  29.160  1.00  0.00     0.014 A 
ATOM      9  C   UNL A   1      36.951  31.983  28.877  1.00  0.00     0.014 A 
ATOM     10  C   UNL A   1      37.234  29.294  29.535  1.00  0.00     0.010 A 
ATOM     11  C   UNL A   1      38.209  31.490  29.205  1.00  0.00     0.010 A 
ATOM     12  C   UNL A   1      38.338  30.150  29.565  1.00  0.00    -0.014 A 
BRANCH  12  13
ATOM     13  C   UNL A   1      39.641  29.523  29.750  1.00  0.00     0.031 A 
ATOM     14  C   UNL A   1      40.172  29.658  31.135  1.00  0.00     0.074 A 
ATOM     15  C   UNL A   1      40.276  28.791  28.816  1.00  0.00     0.049 A 
ATOM     16  N   UNL A   1      41.214  30.315  31.530  1.00  0.00    -0.248 NA
ATOM     17  C   UNL A   1      39.351  29.107  32.228  1.00  0.00     0.031 C 
ATOM     18  C   UNL A   1      39.739  28.338  27.534  1.00  0.00     0.029 A 
ATOM     19  N   UNL A   1      41.498  28.183  28.882  1.00  0.00    -0.354 N 
ATOM     20  C   UNL A   1      41.312  30.048  32.894  1.00  0.00     0.074 A 
ATOM     21  C   UNL A   1      40.059  29.465  33.299  1.00  0.00     0.031 C 
ATOM     22  C   UNL A   1      40.520  27.341  27.060  1.00  0.00     0.029 A 
ATOM     23  C   UNL A   1      41.664  27.174  27.938  1.00  0.00     0.049 A 
ATOM     24  H   UNL A   1      42.192  28.435  29.533  1.00  0.00     0.167 HD
ATOM     25  C   UNL A   1      42.507  30.042  33.540  1.00  0.00     0.034 A 
ATOM     26  C   UNL A   1      42.627  26.220  27.949  1.00  0.00     0.034 A 
ATOM     27  C   UNL A   1      43.543  30.704  32.805  1.00  0.00     0.049 A 
ATOM     28  C   UNL A   1      43.740  26.735  28.779  1.00  0.00     0.074 A 
ATOM     29  C   UNL A   1      43.770  31.978  32.333  1.00  0.00     0.029 A 
ATOM     30  N   UNL A   1      44.426  29.876  32.164  1.00  0.00    -0.354 N 
ATOM     31  N   UNL A   1      44.495  27.747  28.452  1.00  0.00    -0.248 NA
ATOM     32  C   UNL A   1      43.860  26.285  30.159  1.00  0.00     0.031 C 
ATOM     33  C   UNL A   1      44.535  31.805  31.143  1.00  0.00     0.029 A 
ATOM     34  C   UNL A   1      44.750  30.437  30.961  1.00  0.00     0.049 A 
ATOM     35  H   UNL A   1      44.769  29.021  32.510  1.00  0.00     0.167 HD
ATOM     36  C   UNL A   1      44.851  28.316  29.664  1.00  0.00     0.074 A 
ATOM     37  C   UNL A   1      44.579  27.289  30.661  1.00  0.00     0.031 C 
ATOM     38  C   UNL A   1      45.044  29.659  29.775  1.00  0.00     0.034 A 
BRANCH  25  39
ATOM     39  C   UNL A   1      42.837  29.049  34.625  1.00  0.00     0.023 A 
ATOM     40  C   UNL A   1      43.428  29.522  35.814  1.00  0.00     0.012 A 
ATOM     41  C   UNL A   1      42.858  27.654  34.401  1.00  0.00     0.148 A 
ATOM     42  C   UNL A   1      44.003  28.641  36.739  1.00  0.00     0.002 A 
ATOM     43  C   UNL A   1      43.341  26.780  35.365  1.00  0.00     0.091 A 
ATOM     44  F   UNL A   1      42.551  27.170  33.191  1.00  0.00    -0.205 F 
ATOM     45  C   UNL A   1      43.938  27.268  36.526  1.00  0.00     0.022 A 
BRANCH  43  46
ATOM     46  S   UNL A   1      43.210  25.004  35.146  1.00  0.00     0.127 S 
ATOM     47  O   UNL A   1      43.837  24.822  33.842  1.00  0.00    -0.237 OA
ATOM     48  O   UNL A   1      43.980  24.504  36.286  1.00  0.00    -0.237 OA
ATOM     49  O   UNL A   1      41.781  24.719  35.226  1.00  0.00    -0.744 OA
ENDBRANCH  43  46
ENDBRANCH  25  39
BRANCH  26  50
ATOM     50  C   UNL A   1      42.597  24.804  27.494  1.00  0.00     0.023 A 
ATOM     51  C   UNL A   1      41.384  24.086  27.591  1.00  0.00     0.012 A 
ATOM     52  C   UNL A   1      43.629  24.241  26.712  1.00  0.00     0.148 A 
ATOM     53  C   UNL A   1      41.178  22.899  26.878  1.00  0.00     0.002 A 
ATOM     54  C   UNL A   1      43.429  23.047  26.021  1.00  0.00     0.091 A 
ATOM     55  F   UNL A   1      44.775  24.915  26.555  1.00  0.00    -0.205 F 
ATOM     56  C   UNL A   1      42.196  22.385  26.083  1.00  0.00     0.022 A 
BRANCH  54  57
ATOM     57  S   UNL A   1      44.712  22.321  24.991  1.00  0.00     0.127 S 
ATOM     58  O   UNL A   1      45.827  22.189  25.930  1.00  0.00    -0.237 OA
ATOM     59  O   UNL A   1      44.103  21.063  24.581  1.00  0.00    -0.237 OA
ATOM     60  O   UNL A   1      44.950  23.295  23.928  1.00  0.00    -0.744 OA
ENDBRANCH  54  57
ENDBRANCH  26  50
BRANCH  38  61
ATOM     61  C   UNL A   1      45.317  30.446  28.528  1.00  0.00     0.023 A 
ATOM     62  C   UNL A   1      44.290  31.027  27.760  1.00  0.00     0.012 A 
ATOM     63  C   UNL A   1      46.657  30.770  28.252  1.00  0.00     0.148 A 
ATOM     64  C   UNL A   1      44.599  31.922  26.732  1.00  0.00     0.002 A 
ATOM     65  C   UNL A   1      46.955  31.694  27.262  1.00  0.00     0.091 A 
ATOM     66  F   UNL A   1      47.612  30.204  29.006  1.00  0.00    -0.205 F 
ATOM     67  C   UNL A   1      45.929  32.268  26.494  1.00  0.00     0.022 A 
BRANCH  65  68
ATOM     68  S   UNL A   1      48.628  32.284  26.994  1.00  0.00     0.127 S 
ATOM     69  O   UNL A   1      48.979  32.816  28.309  1.00  0.00    -0.237 OA
ATOM     70  O   UNL A   1      49.331  31.055  26.621  1.00  0.00    -0.237 OA
ATOM     71  O   UNL A   1      48.546  33.274  25.927  1.00  0.00    -0.744 OA
ENDBRANCH  65  68
ENDBRANCH  38  61
ENDBRANCH  12  13
ENDBRANCH   5   7
ENDBRANCH   2   3
ENDBRANCH   1   2
BRANCH   1  72
ATOM     72  C   UNL A   1      31.874  28.364  25.977  1.00  0.00     0.002 C 
BRANCH  72  73
ATOM     73  C   UNL A   1      32.690  27.356  26.792  1.00  0.00     0.002 C 
BRANCH  73  74
ATOM     74  C   UNL A   1      32.929  25.998  26.120  1.00  0.00     0.021 C 
BRANCH  74  75
ATOM     75  C   UNL A   1      34.047  25.985  25.080  1.00  0.00     0.116 C 
BRANCH  75  76
ATOM     76  N   UNL A   1      33.809  24.984  24.050  1.00  0.00    -0.352 N 
ATOM     77  C   UNL A   1      32.740  24.840  23.208  1.00  0.00     0.252 C 
ATOM     78  H   UNL A   1      34.520  24.313  23.944  1.00  0.00     0.163 HD
ATOM     79  O   UNL A   1      32.597  23.800  22.556  1.00  0.00    -0.269 OA
BRANCH  77  80
ATOM     80  C   UNL A   1      31.738  25.907  23.080  1.00  0.00     0.058 A 
ATOM     81  C   UNL A   1      32.054  27.107  22.456  1.00  0.00     0.127 A 
ATOM     82  C   UNL A   1      30.438  25.700  23.546  1.00  0.00     0.027 A 
ATOM     83  N   UNL A   1      31.222  28.164  22.326  1.00  0.00    -0.238 NA
ATOM     84  C   UNL A   1      29.530  26.764  23.415  1.00  0.00     0.020 A 
ATOM     85  C   UNL A   1      29.989  27.940  22.823  1.00  0.00     0.140 A 
ATOM     86  C   UNL A   1      28.167  26.975  23.753  1.00  0.00     0.030 A 
ATOM     87  N   UNL A   1      28.957  28.847  22.832  1.00  0.00    -0.329 N 
ATOM     88  C   UNL A   1      27.840  28.263  23.386  1.00  0.00     0.088 A 
BRANCH  87  89
ATOM     89  C   UNL A   1      29.024  30.231  22.362  1.00  0.00     0.088 C 
ATOM     90  C   UNL A   1      28.087  30.480  21.169  1.00  0.00     0.025 C 
ATOM     91  C   UNL A   1      28.808  31.255  23.488  1.00  0.00     0.025 C 
ATOM     92  C   UNL A   1      28.180  31.921  20.673  1.00  0.00     0.002 C 
ATOM     93  C   UNL A   1      28.896  32.687  22.967  1.00  0.00     0.002 C 
ATOM     94  C   UNL A   1      27.939  32.920  21.800  1.00  0.00     0.000 C 
ENDBRANCH  87  89
ENDBRANCH  77  80
ENDBRANCH  75  76
ENDBRANCH  74  75
ENDBRANCH  73  74
ENDBRANCH  72  73
ENDBRANCH   1  72
TORSDOF 17
ENDMDL
