MODEL 1
REMARK VINA RESULT:     -11.3      0.000      0.000
REMARK SMILES O=C1C[C@@H](C(=O)NCCCCCCNC(=O)c2ccc(-c3c4nc(c(-c5cccc(S(=O)(=O)[O-])c5F)c5ccc([nH]5)c(-c5cccc(S(=O)(=O)[O-])c5F)c5nc(c(-c6cccc(S(=O)(=O)[O-])c6F)c6ccc3[nH]6)C=C5)C=C4)cc2)C2(CC[NH+](Cc3c[nH]nc3-c3ccc(Cl)cc3)CC2)N1
REMARK SMILES IDX 10 1 9 2 8 3 7 4 5 5 6 6 4 8 1 9 2 10 3 11 99 12 80 13 81 15
REMARK SMILES IDX 98 16 82 17 97 18 83 19 84 21 85 22 86 23 89 24 87 25 88 26
REMARK SMILES IDX 90 28 91 29 96 30 92 31 95 32 93 33 94 34 11 35 12 36 13 37
REMARK SMILES IDX 14 38 15 39 16 41 17 42 18 43 79 44 19 45 78 46 20 47 21 48
REMARK SMILES IDX 22 49 72 50 23 51 77 52 71 53 73 54 24 55 76 56 70 57 69 58
REMARK SMILES IDX 25 60 57 61 37 62 56 63 38 64 41 65 55 66 74 67 39 68 40 69
REMARK SMILES IDX 54 71 75 72 42 73 26 74 27 75 35 76 28 77 30 78 36 79 29 80
REMARK SMILES IDX 31 81 32 82 33 83 34 84 58 85 59 86 67 87 60 88 62 89 68 90
REMARK SMILES IDX 61 91 63 92 64 93 65 94 66 95 43 96 44 97 52 98 45 99 47 100
REMARK SMILES IDX 53 101 46 102 48 103 49 104 50 105 51 106
REMARK H PARENT 7 7 99 14 83 20 87 27 14 40 73 59 41 70
REMARK Flexibility Score: inf
ROOT
ATOM      1  C   UNL A   1      32.200  30.059  27.051  1.00  0.00     0.002 C 
ENDROOT
BRANCH   1   2
ATOM      2  C   UNL A   1      31.749  28.913  26.147  1.00  0.00     0.021 C 
BRANCH   2   3
ATOM      3  C   UNL A   1      31.358  29.347  24.731  1.00  0.00     0.116 C 
BRANCH   3   4
ATOM      4  N   UNL A   1      32.453  29.257  23.779  1.00  0.00    -0.356 N 
ATOM      5  C   UNL A   1      32.771  28.359  22.811  1.00  0.00     0.226 C 
ATOM      6  O   UNL A   1      33.823  28.566  22.194  1.00  0.00    -0.275 OA
ATOM      7  H   UNL A   1      33.098  29.998  23.851  1.00  0.00     0.163 HD
BRANCH   5   8
ATOM      8  C   UNL A   1      31.944  27.117  22.455  1.00  0.00     0.114 C 
ATOM      9  O   UNL A   1      28.716  26.852  23.964  1.00  0.00    -0.275 OA
ATOM     10  C   UNL A   1      29.856  26.747  23.562  1.00  0.00     0.221 C 
ATOM     11  C   UNL A   1      30.445  27.427  22.357  1.00  0.00     0.116 C 
ATOM     12  N   UNL A   1      30.841  25.989  24.159  1.00  0.00    -0.349 N 
ATOM     13  C   UNL A   1      32.056  25.873  23.367  1.00  0.00     0.063 C 
ATOM     14  H   UNL A   1      30.731  25.565  25.040  1.00  0.00     0.164 HD
ATOM     15  C   UNL A   1      33.304  25.873  24.260  1.00  0.00     0.091 C 
ATOM     16  C   UNL A   1      31.893  24.550  22.560  1.00  0.00     0.091 C 
ATOM     17  C   UNL A   1      34.504  25.161  23.661  1.00  0.00     0.264 C 
ATOM     18  C   UNL A   1      33.172  23.779  22.242  1.00  0.00     0.264 C 
ATOM     19  N   UNL A   1      34.199  23.803  23.268  1.00  0.00    -0.331 N 
ATOM     20  H   UNL A   1      35.025  23.424  22.803  1.00  0.00     0.348 HD
BRANCH  19  21
ATOM     21  C   UNL A   1      34.176  22.788  24.337  1.00  0.00     0.303 C 
BRANCH  21  22
ATOM     22  C   UNL A   1      35.488  22.151  24.683  1.00  0.00     0.052 A 
ATOM     23  C   UNL A   1      36.662  22.803  25.015  1.00  0.00     0.115 A 
ATOM     24  C   UNL A   1      35.807  20.761  24.895  1.00  0.00     0.101 A 
ATOM     25  N   UNL A   1      37.605  21.846  25.220  1.00  0.00    -0.285 N 
ATOM     26  N   UNL A   1      37.116  20.606  25.152  1.00  0.00    -0.175 NA
ATOM     27  H   UNL A   1      38.552  22.046  25.400  1.00  0.00     0.189 HD
BRANCH  24  28
ATOM     28  C   UNL A   1      34.947  19.576  24.918  1.00  0.00     0.003 A 
ATOM     29  C   UNL A   1      35.494  18.342  24.533  1.00  0.00     0.012 A 
ATOM     30  C   UNL A   1      33.592  19.629  25.260  1.00  0.00     0.012 A 
ATOM     31  C   UNL A   1      34.717  17.181  24.533  1.00  0.00     0.021 A 
ATOM     32  C   UNL A   1      32.812  18.468  25.270  1.00  0.00     0.021 A 
ATOM     33  C   UNL A   1      33.380  17.247  24.914  1.00  0.00     0.041 A 
ATOM     34  Cl  UNL A   1      32.423  15.818  24.940  1.00  0.00    -0.084 Cl
ENDBRANCH  24  28
ENDBRANCH  21  22
ENDBRANCH  19  21
ENDBRANCH   5   8
ENDBRANCH   3   4
ENDBRANCH   2   3
ENDBRANCH   1   2
BRANCH   1  35
ATOM     35  C   UNL A   1      33.664  30.463  26.866  1.00  0.00     0.002 C 
BRANCH  35  36
ATOM     36  C   UNL A   1      34.274  31.215  28.053  1.00  0.00     0.021 C 
BRANCH  36  37
ATOM     37  C   UNL A   1      35.019  32.489  27.671  1.00  0.00     0.116 C 
BRANCH  37  38
ATOM     38  N   UNL A   1      34.867  33.518  28.687  1.00  0.00    -0.352 N 
ATOM     39  C   UNL A   1      35.485  33.625  29.906  1.00  0.00     0.251 C 
ATOM     40  H   UNL A   1      34.229  34.237  28.471  1.00  0.00     0.163 HD
ATOM     41  O   UNL A   1      35.054  34.404  30.750  1.00  0.00    -0.269 OA
BRANCH  39  42
ATOM     42  C   UNL A   1      36.672  32.792  30.193  1.00  0.00     0.039 A 
ATOM     43  C   UNL A   1      37.918  33.203  29.718  1.00  0.00     0.014 A 
ATOM     44  C   UNL A   1      36.547  31.605  30.921  1.00  0.00     0.014 A 
ATOM     45  C   UNL A   1      39.049  32.437  30.006  1.00  0.00     0.010 A 
ATOM     46  C   UNL A   1      37.685  30.890  31.278  1.00  0.00     0.010 A 
ATOM     47  C   UNL A   1      38.945  31.288  30.807  1.00  0.00    -0.014 A 
BRANCH  47  48
ATOM     48  C   UNL A   1      40.147  30.491  31.158  1.00  0.00     0.031 A 
ATOM     49  C   UNL A   1      40.965  30.840  32.371  1.00  0.00     0.074 A 
ATOM     50  C   UNL A   1      40.547  29.499  30.338  1.00  0.00     0.049 A 
ATOM     51  N   UNL A   1      42.055  30.275  32.819  1.00  0.00    -0.248 NA
ATOM     52  C   UNL A   1      40.518  31.995  33.168  1.00  0.00     0.031 C 
ATOM     53  C   UNL A   1      39.892  29.128  29.082  1.00  0.00     0.029 A 
ATOM     54  N   UNL A   1      41.615  28.645  30.423  1.00  0.00    -0.354 N 
ATOM     55  C   UNL A   1      42.447  31.026  33.920  1.00  0.00     0.074 A 
ATOM     56  C   UNL A   1      41.497  32.108  34.052  1.00  0.00     0.031 C 
ATOM     57  C   UNL A   1      40.573  28.122  28.513  1.00  0.00     0.029 A 
ATOM     58  C   UNL A   1      41.730  27.800  29.344  1.00  0.00     0.049 A 
ATOM     59  H   UNL A   1      42.241  28.637  31.183  1.00  0.00     0.167 HD
ATOM     60  C   UNL A   1      43.490  30.821  34.760  1.00  0.00     0.034 A 
ATOM     61  C   UNL A   1      42.668  26.881  29.046  1.00  0.00     0.034 A 
ATOM     62  C   UNL A   1      44.415  29.726  34.639  1.00  0.00     0.049 A 
ATOM     63  C   UNL A   1      43.788  26.636  30.017  1.00  0.00     0.074 A 
ATOM     64  C   UNL A   1      45.437  29.365  35.498  1.00  0.00     0.029 A 
ATOM     65  N   UNL A   1      44.447  28.831  33.580  1.00  0.00    -0.354 N 
ATOM     66  N   UNL A   1      44.041  27.240  31.153  1.00  0.00    -0.248 NA
ATOM     67  C   UNL A   1      44.728  25.556  29.689  1.00  0.00     0.031 C 
ATOM     68  C   UNL A   1      46.118  28.281  34.935  1.00  0.00     0.029 A 
ATOM     69  C   UNL A   1      45.488  27.933  33.750  1.00  0.00     0.049 A 
ATOM     70  H   UNL A   1      43.823  28.834  32.820  1.00  0.00     0.167 HD
ATOM     71  C   UNL A   1      45.150  26.598  31.689  1.00  0.00     0.074 A 
ATOM     72  C   UNL A   1      45.507  25.543  30.763  1.00  0.00     0.031 C 
ATOM     73  C   UNL A   1      45.816  26.865  32.839  1.00  0.00     0.034 A 
BRANCH  60  74
ATOM     74  C   UNL A   1      43.672  31.796  35.897  1.00  0.00     0.023 A 
ATOM     75  C   UNL A   1      44.660  32.800  35.816  1.00  0.00     0.012 A 
ATOM     76  C   UNL A   1      42.841  31.738  37.033  1.00  0.00     0.148 A 
ATOM     77  C   UNL A   1      44.853  33.694  36.868  1.00  0.00     0.002 A 
ATOM     78  C   UNL A   1      43.005  32.667  38.054  1.00  0.00     0.091 A 
ATOM     79  F   UNL A   1      41.921  30.766  37.105  1.00  0.00    -0.205 F 
ATOM     80  C   UNL A   1      44.020  33.634  37.982  1.00  0.00     0.022 A 
BRANCH  78  81
ATOM     81  S   UNL A   1      41.926  32.726  39.488  1.00  0.00     0.127 S 
ATOM     82  O   UNL A   1      40.604  32.655  38.867  1.00  0.00    -0.237 OA
ATOM     83  O   UNL A   1      42.320  31.521  40.220  1.00  0.00    -0.237 OA
ATOM     84  O   UNL A   1      42.231  33.976  40.170  1.00  0.00    -0.744 OA
ENDBRANCH  78  81
ENDBRANCH  60  74
BRANCH  61  85
ATOM     85  C   UNL A   1      42.554  26.104  27.781  1.00  0.00     0.023 A 
ATOM     86  C   UNL A   1      43.026  26.654  26.573  1.00  0.00     0.012 A 
ATOM     87  C   UNL A   1      42.033  24.796  27.784  1.00  0.00     0.148 A 
ATOM     88  C   UNL A   1      42.959  25.924  25.387  1.00  0.00     0.002 A 
ATOM     89  C   UNL A   1      42.023  24.052  26.612  1.00  0.00     0.091 A 
ATOM     90  F   UNL A   1      41.585  24.296  28.944  1.00  0.00    -0.205 F 
ATOM     91  C   UNL A   1      42.469  24.620  25.407  1.00  0.00     0.022 A 
BRANCH  89  92
ATOM     92  S   UNL A   1      41.543  22.322  26.569  1.00  0.00     0.127 S 
ATOM     93  O   UNL A   1      42.228  21.792  27.746  1.00  0.00    -0.237 OA
ATOM     94  O   UNL A   1      40.087  22.414  26.690  1.00  0.00    -0.237 OA
ATOM     95  O   UNL A   1      42.011  21.812  25.288  1.00  0.00    -0.744 OA
ENDBRANCH  89  92
ENDBRANCH  61  85
BRANCH  73  96
ATOM     96  C   UNL A   1      46.987  25.982  33.190  1.00  0.00     0.023 A 
ATOM     97  C   UNL A   1      48.289  26.339  32.791  1.00  0.00     0.012 A 
ATOM     98  C   UNL A   1      46.798  24.828  33.976  1.00  0.00     0.148 A 
ATOM     99  C   UNL A   1      49.381  25.544  33.138  1.00  0.00     0.002 A 
ATOM    100  C   UNL A   1      47.895  24.070  34.365  1.00  0.00     0.091 A 
ATOM    101  F   UNL A   1      45.549  24.493  34.332  1.00  0.00    -0.205 F 
ATOM    102  C   UNL A   1      49.185  24.417  33.934  1.00  0.00     0.022 A 
BRANCH 100 103
ATOM    103  S   UNL A   1      47.751  22.662  35.471  1.00  0.00     0.127 S 
ATOM    104  O   UNL A   1      47.025  21.703  34.639  1.00  0.00    -0.237 OA
ATOM    105  O   UNL A   1      49.152  22.318  35.716  1.00  0.00    -0.237 OA
ATOM    106  O   UNL A   1      47.032  23.141  36.643  1.00  0.00    -0.744 OA
ENDBRANCH 100 103
ENDBRANCH  73  96
ENDBRANCH  47  48
ENDBRANCH  39  42
ENDBRANCH  37  38
ENDBRANCH  36  37
ENDBRANCH  35  36
ENDBRANCH   1  35
TORSDOF 19
ENDMDL
MODEL 2
REMARK VINA RESULT:     -11.2      3.621      9.153
REMARK SMILES O=C1C[C@@H](C(=O)NCCCCCCNC(=O)c2ccc(-c3c4nc(c(-c5cccc(S(=O)(=O)[O-])c5F)c5ccc([nH]5)c(-c5cccc(S(=O)(=O)[O-])c5F)c5nc(c(-c6cccc(S(=O)(=O)[O-])c6F)c6ccc3[nH]6)C=C5)C=C4)cc2)C2(CC[NH+](Cc3c[nH]nc3-c3ccc(Cl)cc3)CC2)N1
REMARK SMILES IDX 10 1 9 2 8 3 7 4 5 5 6 6 4 8 1 9 2 10 3 11 99 12 80 13 81 15
REMARK SMILES IDX 98 16 82 17 97 18 83 19 84 21 85 22 86 23 89 24 87 25 88 26
REMARK SMILES IDX 90 28 91 29 96 30 92 31 95 32 93 33 94 34 11 35 12 36 13 37
REMARK SMILES IDX 14 38 15 39 16 41 17 42 18 43 79 44 19 45 78 46 20 47 21 48
REMARK SMILES IDX 22 49 72 50 23 51 77 52 71 53 73 54 24 55 76 56 70 57 69 58
REMARK SMILES IDX 25 60 57 61 37 62 56 63 38 64 41 65 55 66 74 67 39 68 40 69
REMARK SMILES IDX 54 71 75 72 42 73 26 74 27 75 35 76 28 77 30 78 36 79 29 80
REMARK SMILES IDX 31 81 32 82 33 83 34 84 58 85 59 86 67 87 60 88 62 89 68 90
REMARK SMILES IDX 61 91 63 92 64 93 65 94 66 95 43 96 44 97 52 98 45 99 47 100
REMARK SMILES IDX 53 101 46 102 48 103 49 104 50 105 51 106
REMARK H PARENT 7 7 99 14 83 20 87 27 14 40 73 59 41 70
REMARK Flexibility Score: inf
ROOT
ATOM      1  C   UNL A   1      40.103  20.678  25.801  1.00  0.00     0.002 C 
ENDROOT
BRANCH   1   2
ATOM      2  C   UNL A   1      39.008  21.696  26.116  1.00  0.00     0.021 C 
BRANCH   2   3
ATOM      3  C   UNL A   1      37.637  21.345  25.531  1.00  0.00     0.116 C 
BRANCH   3   4
ATOM      4  N   UNL A   1      37.426  21.884  24.197  1.00  0.00    -0.356 N 
ATOM      5  C   UNL A   1      36.719  22.943  23.724  1.00  0.00     0.226 C 
ATOM      6  O   UNL A   1      36.718  23.099  22.497  1.00  0.00    -0.275 OA
ATOM      7  H   UNL A   1      37.888  21.377  23.491  1.00  0.00     0.163 HD
BRANCH   5   8
ATOM      8  C   UNL A   1      35.918  23.924  24.589  1.00  0.00     0.114 C 
ATOM      9  O   UNL A   1      34.824  22.733  27.775  1.00  0.00    -0.275 OA
ATOM     10  C   UNL A   1      34.973  23.163  26.650  1.00  0.00     0.221 C 
ATOM     11  C   UNL A   1      36.228  23.767  26.083  1.00  0.00     0.116 C 
ATOM     12  N   UNL A   1      34.009  23.156  25.665  1.00  0.00    -0.349 N 
ATOM     13  C   UNL A   1      34.375  23.912  24.477  1.00  0.00     0.063 C 
ATOM     14  H   UNL A   1      33.151  22.683  25.758  1.00  0.00     0.164 HD
ATOM     15  C   UNL A   1      33.854  23.233  23.203  1.00  0.00     0.091 C 
ATOM     16  C   UNL A   1      33.771  25.331  24.694  1.00  0.00     0.091 C 
ATOM     17  C   UNL A   1      33.624  24.178  22.037  1.00  0.00     0.264 C 
ATOM     18  C   UNL A   1      33.328  26.087  23.441  1.00  0.00     0.264 C 
ATOM     19  N   UNL A   1      32.749  25.277  22.384  1.00  0.00    -0.331 N 
ATOM     20  H   UNL A   1      32.712  25.906  21.581  1.00  0.00     0.348 HD
BRANCH  19  21
ATOM     21  C   UNL A   1      31.302  24.999  22.397  1.00  0.00     0.303 C 
BRANCH  21  22
ATOM     22  C   UNL A   1      30.626  25.036  23.734  1.00  0.00     0.052 A 
ATOM     23  C   UNL A   1      30.717  24.083  24.733  1.00  0.00     0.115 A 
ATOM     24  C   UNL A   1      29.864  26.093  24.350  1.00  0.00     0.101 A 
ATOM     25  N   UNL A   1      29.921  24.499  25.754  1.00  0.00    -0.285 N 
ATOM     26  N   UNL A   1      29.394  25.707  25.548  1.00  0.00    -0.175 NA
ATOM     27  H   UNL A   1      29.751  23.964  26.562  1.00  0.00     0.189 HD
BRANCH  24  28
ATOM     28  C   UNL A   1      29.593  27.461  23.903  1.00  0.00     0.003 A 
ATOM     29  C   UNL A   1      30.548  28.455  24.167  1.00  0.00     0.012 A 
ATOM     30  C   UNL A   1      28.405  27.829  23.266  1.00  0.00     0.012 A 
ATOM     31  C   UNL A   1      30.339  29.778  23.766  1.00  0.00     0.021 A 
ATOM     32  C   UNL A   1      28.193  29.150  22.853  1.00  0.00     0.021 A 
ATOM     33  C   UNL A   1      29.166  30.116  23.099  1.00  0.00     0.041 A 
ATOM     34  Cl  UNL A   1      28.910  31.736  22.580  1.00  0.00    -0.084 Cl
ENDBRANCH  24  28
ENDBRANCH  21  22
ENDBRANCH  19  21
ENDBRANCH   5   8
ENDBRANCH   3   4
ENDBRANCH   2   3
ENDBRANCH   1   2
BRANCH   1  35
ATOM     35  C   UNL A   1      41.312  20.750  26.736  1.00  0.00     0.002 C 
BRANCH  35  36
ATOM     36  C   UNL A   1      42.577  21.334  26.100  1.00  0.00     0.021 C 
BRANCH  36  37
ATOM     37  C   UNL A   1      42.365  22.668  25.395  1.00  0.00     0.116 C 
BRANCH  37  38
ATOM     38  N   UNL A   1      43.624  23.229  24.931  1.00  0.00    -0.352 N 
ATOM     39  C   UNL A   1      44.155  24.470  25.170  1.00  0.00     0.251 C 
ATOM     40  H   UNL A   1      44.170  22.636  24.365  1.00  0.00     0.163 HD
ATOM     41  O   UNL A   1      45.095  24.879  24.494  1.00  0.00    -0.269 OA
BRANCH  39  42
ATOM     42  C   UNL A   1      43.584  25.309  26.243  1.00  0.00     0.039 A 
ATOM     43  C   UNL A   1      42.698  24.733  27.154  1.00  0.00     0.014 A 
ATOM     44  C   UNL A   1      43.918  26.664  26.340  1.00  0.00     0.014 A 
ATOM     45  C   UNL A   1      42.173  25.510  28.187  1.00  0.00     0.010 A 
ATOM     46  C   UNL A   1      43.461  27.413  27.418  1.00  0.00     0.010 A 
ATOM     47  C   UNL A   1      42.567  26.850  28.341  1.00  0.00    -0.014 A 
BRANCH  47  48
ATOM     48  C   UNL A   1      42.051  27.673  29.463  1.00  0.00     0.031 A 
ATOM     49  C   UNL A   1      42.663  27.564  30.832  1.00  0.00     0.074 A 
ATOM     50  C   UNL A   1      40.978  28.464  29.265  1.00  0.00     0.049 A 
ATOM     51  N   UNL A   1      42.331  28.184  31.934  1.00  0.00    -0.248 NA
ATOM     52  C   UNL A   1      43.774  26.611  30.993  1.00  0.00     0.031 C 
ATOM     53  C   UNL A   1      40.238  28.582  28.007  1.00  0.00     0.029 A 
ATOM     54  N   UNL A   1      40.306  29.292  30.126  1.00  0.00    -0.354 N 
ATOM     55  C   UNL A   1      43.158  27.669  32.924  1.00  0.00     0.074 A 
ATOM     56  C   UNL A   1      43.985  26.661  32.300  1.00  0.00     0.031 C 
ATOM     57  C   UNL A   1      39.215  29.432  28.178  1.00  0.00     0.029 A 
ATOM     58  C   UNL A   1      39.204  29.892  29.564  1.00  0.00     0.049 A 
ATOM     59  H   UNL A   1      40.585  29.443  31.058  1.00  0.00     0.167 HD
ATOM     60  C   UNL A   1      43.238  28.019  34.231  1.00  0.00     0.034 A 
ATOM     61  C   UNL A   1      38.278  30.707  30.104  1.00  0.00     0.034 A 
ATOM     62  C   UNL A   1      42.432  29.043  34.838  1.00  0.00     0.049 A 
ATOM     63  C   UNL A   1      38.417  31.122  31.541  1.00  0.00     0.074 A 
ATOM     64  C   UNL A   1      42.511  29.551  36.122  1.00  0.00     0.029 A 
ATOM     65  N   UNL A   1      41.381  29.699  34.213  1.00  0.00    -0.354 N 
ATOM     66  N   UNL A   1      39.321  30.760  32.420  1.00  0.00    -0.248 NA
ATOM     67  C   UNL A   1      37.435  32.088  32.053  1.00  0.00     0.031 C 
ATOM     68  C   UNL A   1      41.477  30.478  36.289  1.00  0.00     0.029 A 
ATOM     69  C   UNL A   1      40.786  30.588  35.093  1.00  0.00     0.049 A 
ATOM     70  H   UNL A   1      41.100  29.553  33.282  1.00  0.00     0.167 HD
ATOM     71  C   UNL A   1      39.036  31.473  33.578  1.00  0.00     0.074 A 
ATOM     72  C   UNL A   1      37.887  32.305  33.281  1.00  0.00     0.031 C 
ATOM     73  C   UNL A   1      39.663  31.435  34.779  1.00  0.00     0.034 A 
BRANCH  60  74
ATOM     74  C   UNL A   1      44.251  27.297  35.085  1.00  0.00     0.023 A 
ATOM     75  C   UNL A   1      43.886  26.119  35.769  1.00  0.00     0.012 A 
ATOM     76  C   UNL A   1      45.575  27.770  35.184  1.00  0.00     0.148 A 
ATOM     77  C   UNL A   1      44.806  25.453  36.578  1.00  0.00     0.002 A 
ATOM     78  C   UNL A   1      46.499  27.070  35.950  1.00  0.00     0.091 A 
ATOM     79  F   UNL A   1      45.900  28.901  34.545  1.00  0.00    -0.205 F 
ATOM     80  C   UNL A   1      46.114  25.923  36.661  1.00  0.00     0.022 A 
BRANCH  78  81
ATOM     81  S   UNL A   1      48.228  27.546  36.049  1.00  0.00     0.127 S 
ATOM     82  O   UNL A   1      48.135  28.876  36.647  1.00  0.00    -0.237 OA
ATOM     83  O   UNL A   1      48.780  26.518  36.932  1.00  0.00    -0.237 OA
ATOM     84  O   UNL A   1      48.734  27.507  34.683  1.00  0.00    -0.744 OA
ENDBRANCH  78  81
ENDBRANCH  60  74
BRANCH  61  85
ATOM     85  C   UNL A   1      37.161  31.207  29.257  1.00  0.00     0.023 A 
ATOM     86  C   UNL A   1      37.132  32.558  28.858  1.00  0.00     0.012 A 
ATOM     87  C   UNL A   1      36.159  30.332  28.795  1.00  0.00     0.148 A 
ATOM     88  C   UNL A   1      36.111  33.033  28.035  1.00  0.00     0.002 A 
ATOM     89  C   UNL A   1      35.180  30.797  27.928  1.00  0.00     0.091 A 
ATOM     90  F   UNL A   1      36.205  29.052  29.192  1.00  0.00    -0.205 F 
ATOM     91  C   UNL A   1      35.142  32.151  27.560  1.00  0.00     0.022 A 
BRANCH  89  92
ATOM     92  S   UNL A   1      33.977  29.708  27.157  1.00  0.00     0.127 S 
ATOM     93  O   UNL A   1      33.667  28.785  28.246  1.00  0.00    -0.237 OA
ATOM     94  O   UNL A   1      32.904  30.644  26.815  1.00  0.00    -0.237 OA
ATOM     95  O   UNL A   1      34.653  29.121  26.009  1.00  0.00    -0.744 OA
ENDBRANCH  89  92
ENDBRANCH  61  85
BRANCH  73  96
ATOM     96  C   UNL A   1      39.148  32.344  35.866  1.00  0.00     0.023 A 
ATOM     97  C   UNL A   1      38.176  31.883  36.774  1.00  0.00     0.012 A 
ATOM     98  C   UNL A   1      39.682  33.639  36.024  1.00  0.00     0.148 A 
ATOM     99  C   UNL A   1      37.717  32.707  37.802  1.00  0.00     0.002 A 
ATOM    100  C   UNL A   1      39.261  34.434  37.082  1.00  0.00     0.091 A 
ATOM    101  F   UNL A   1      40.593  34.068  35.139  1.00  0.00    -0.205 F 
ATOM    102  C   UNL A   1      38.267  33.977  37.962  1.00  0.00     0.022 A 
BRANCH 100 103
ATOM    103  S   UNL A   1      39.985  36.042  37.427  1.00  0.00     0.127 S 
ATOM    104  O   UNL A   1      41.383  35.692  37.671  1.00  0.00    -0.237 OA
ATOM    105  O   UNL A   1      39.746  36.763  36.176  1.00  0.00    -0.237 OA
ATOM    106  O   UNL A   1      39.264  36.571  38.577  1.00  0.00    -0.744 OA
ENDBRANCH 100 103
ENDBRANCH  73  96
ENDBRANCH  47  48
ENDBRANCH  39  42
ENDBRANCH  37  38
ENDBRANCH  36  37
ENDBRANCH  35  36
ENDBRANCH   1  35
TORSDOF 19
ENDMDL
MODEL 3
REMARK VINA RESULT:     -11.1      5.473     10.440
REMARK SMILES O=C1C[C@@H](C(=O)NCCCCCCNC(=O)c2ccc(-c3c4nc(c(-c5cccc(S(=O)(=O)[O-])c5F)c5ccc([nH]5)c(-c5cccc(S(=O)(=O)[O-])c5F)c5nc(c(-c6cccc(S(=O)(=O)[O-])c6F)c6ccc3[nH]6)C=C5)C=C4)cc2)C2(CC[NH+](Cc3c[nH]nc3-c3ccc(Cl)cc3)CC2)N1
REMARK SMILES IDX 10 1 9 2 8 3 7 4 5 5 6 6 4 8 1 9 2 10 3 11 99 12 80 13 81 15
REMARK SMILES IDX 98 16 82 17 97 18 83 19 84 21 85 22 86 23 89 24 87 25 88 26
REMARK SMILES IDX 90 28 91 29 96 30 92 31 95 32 93 33 94 34 11 35 12 36 13 37
REMARK SMILES IDX 14 38 15 39 16 41 17 42 18 43 79 44 19 45 78 46 20 47 21 48
REMARK SMILES IDX 22 49 72 50 23 51 77 52 71 53 73 54 24 55 76 56 70 57 69 58
REMARK SMILES IDX 25 60 57 61 37 62 56 63 38 64 41 65 55 66 74 67 39 68 40 69
REMARK SMILES IDX 54 71 75 72 42 73 26 74 27 75 35 76 28 77 30 78 36 79 29 80
REMARK SMILES IDX 31 81 32 82 33 83 34 84 58 85 59 86 67 87 60 88 62 89 68 90
REMARK SMILES IDX 61 91 63 92 64 93 65 94 66 95 43 96 44 97 52 98 45 99 47 100
REMARK SMILES IDX 53 101 46 102 48 103 49 104 50 105 51 106
REMARK H PARENT 7 7 99 14 83 20 87 27 14 40 73 59 41 70
REMARK Flexibility Score: inf
ROOT
ATOM      1  C   UNL A   1      38.735  21.398  25.656  1.00  0.00     0.002 C 
ENDROOT
BRANCH   1   2
ATOM      2  C   UNL A   1      37.589  22.288  26.134  1.00  0.00     0.021 C 
BRANCH   2   3
ATOM      3  C   UNL A   1      37.476  23.621  25.388  1.00  0.00     0.116 C 
BRANCH   3   4
ATOM      4  N   UNL A   1      36.871  23.495  24.072  1.00  0.00    -0.356 N 
ATOM      5  C   UNL A   1      35.647  23.087  23.647  1.00  0.00     0.226 C 
ATOM      6  O   UNL A   1      35.471  23.062  22.422  1.00  0.00    -0.275 OA
ATOM      7  H   UNL A   1      37.472  23.757  23.338  1.00  0.00     0.163 HD
BRANCH   5   8
ATOM      8  C   UNL A   1      34.500  22.641  24.562  1.00  0.00     0.114 C 
ATOM      9  O   UNL A   1      32.405  20.015  23.345  1.00  0.00    -0.275 OA
ATOM     10  C   UNL A   1      32.924  21.030  23.759  1.00  0.00     0.221 C 
ATOM     11  C   UNL A   1      34.243  21.131  24.475  1.00  0.00     0.116 C 
ATOM     12  N   UNL A   1      32.401  22.299  23.629  1.00  0.00    -0.349 N 
ATOM     13  C   UNL A   1      33.118  23.312  24.389  1.00  0.00     0.063 C 
ATOM     14  H   UNL A   1      31.615  22.500  23.073  1.00  0.00     0.164 HD
ATOM     15  C   UNL A   1      33.169  24.644  23.629  1.00  0.00     0.091 C 
ATOM     16  C   UNL A   1      32.356  23.421  25.744  1.00  0.00     0.091 C 
ATOM     17  C   UNL A   1      33.310  25.869  24.516  1.00  0.00     0.264 C 
ATOM     18  C   UNL A   1      32.349  24.792  26.418  1.00  0.00     0.264 C 
ATOM     19  N   UNL A   1      32.278  25.937  25.527  1.00  0.00    -0.331 N 
ATOM     20  H   UNL A   1      32.489  26.734  26.129  1.00  0.00     0.348 HD
BRANCH  19  21
ATOM     21  C   UNL A   1      30.960  26.441  25.103  1.00  0.00     0.303 C 
BRANCH  21  22
ATOM     22  C   UNL A   1      30.959  27.515  24.058  1.00  0.00     0.052 A 
ATOM     23  C   UNL A   1      30.292  27.490  22.846  1.00  0.00     0.115 A 
ATOM     24  C   UNL A   1      31.504  28.849  24.111  1.00  0.00     0.101 A 
ATOM     25  N   UNL A   1      30.593  28.649  22.202  1.00  0.00    -0.285 N 
ATOM     26  N   UNL A   1      31.324  29.485  22.942  1.00  0.00    -0.175 NA
ATOM     27  H   UNL A   1      30.302  28.851  21.283  1.00  0.00     0.189 HD
BRANCH  24  28
ATOM     28  C   UNL A   1      32.141  29.578  25.210  1.00  0.00     0.003 A 
ATOM     29  C   UNL A   1      33.416  29.171  25.635  1.00  0.00     0.012 A 
ATOM     30  C   UNL A   1      31.516  30.629  25.886  1.00  0.00     0.012 A 
ATOM     31  C   UNL A   1      34.068  29.829  26.682  1.00  0.00     0.021 A 
ATOM     32  C   UNL A   1      32.168  31.297  26.929  1.00  0.00     0.021 A 
ATOM     33  C   UNL A   1      33.444  30.898  27.316  1.00  0.00     0.041 A 
ATOM     34  Cl  UNL A   1      34.250  31.729  28.590  1.00  0.00    -0.084 Cl
ENDBRANCH  24  28
ENDBRANCH  21  22
ENDBRANCH  19  21
ENDBRANCH   5   8
ENDBRANCH   3   4
ENDBRANCH   2   3
ENDBRANCH   1   2
BRANCH   1  35
ATOM     35  C   UNL A   1      39.954  21.398  26.580  1.00  0.00     0.002 C 
BRANCH  35  36
ATOM     36  C   UNL A   1      41.298  21.230  25.864  1.00  0.00     0.021 C 
BRANCH  36  37
ATOM     37  C   UNL A   1      42.115  20.033  26.337  1.00  0.00     0.116 C 
BRANCH  37  38
ATOM     38  N   UNL A   1      43.213  19.748  25.427  1.00  0.00    -0.352 N 
ATOM     39  C   UNL A   1      44.094  20.618  24.839  1.00  0.00     0.251 C 
ATOM     40  H   UNL A   1      43.341  18.798  25.202  1.00  0.00     0.163 HD
ATOM     41  O   UNL A   1      44.790  20.249  23.898  1.00  0.00    -0.269 OA
BRANCH  39  42
ATOM     42  C   UNL A   1      44.193  22.003  25.345  1.00  0.00     0.039 A 
ATOM     43  C   UNL A   1      44.638  22.216  26.650  1.00  0.00     0.014 A 
ATOM     44  C   UNL A   1      43.837  23.083  24.532  1.00  0.00     0.014 A 
ATOM     45  C   UNL A   1      44.760  23.521  27.129  1.00  0.00     0.010 A 
ATOM     46  C   UNL A   1      44.040  24.383  24.982  1.00  0.00     0.010 A 
ATOM     47  C   UNL A   1      44.484  24.615  26.292  1.00  0.00    -0.014 A 
BRANCH  47  48
ATOM     48  C   UNL A   1      44.655  26.008  26.776  1.00  0.00     0.031 A 
ATOM     49  C   UNL A   1      46.017  26.644  26.801  1.00  0.00     0.074 A 
ATOM     50  C   UNL A   1      43.591  26.673  27.267  1.00  0.00     0.049 A 
ATOM     51  N   UNL A   1      46.362  27.837  27.210  1.00  0.00    -0.248 NA
ATOM     52  C   UNL A   1      47.147  25.823  26.334  1.00  0.00     0.031 C 
ATOM     53  C   UNL A   1      42.237  26.129  27.385  1.00  0.00     0.029 A 
ATOM     54  N   UNL A   1      43.489  27.938  27.786  1.00  0.00    -0.354 N 
ATOM     55  C   UNL A   1      47.744  27.896  27.091  1.00  0.00     0.074 A 
ATOM     56  C   UNL A   1      48.180  26.606  26.604  1.00  0.00     0.031 C 
ATOM     57  C   UNL A   1      41.440  27.053  27.942  1.00  0.00     0.029 A 
ATOM     58  C   UNL A   1      42.231  28.240  28.252  1.00  0.00     0.049 A 
ATOM     59  H   UNL A   1      44.243  28.570  27.822  1.00  0.00     0.167 HD
ATOM     60  C   UNL A   1      48.575  28.936  27.343  1.00  0.00     0.034 A 
ATOM     61  C   UNL A   1      41.767  29.342  28.873  1.00  0.00     0.034 A 
ATOM     62  C   UNL A   1      48.132  30.225  27.800  1.00  0.00     0.049 A 
ATOM     63  C   UNL A   1      42.695  30.502  29.096  1.00  0.00     0.074 A 
ATOM     64  C   UNL A   1      48.876  31.377  27.979  1.00  0.00     0.029 A 
ATOM     65  N   UNL A   1      46.832  30.527  28.177  1.00  0.00    -0.354 N 
ATOM     66  N   UNL A   1      43.970  30.605  28.808  1.00  0.00    -0.248 NA
ATOM     67  C   UNL A   1      42.114  31.714  29.690  1.00  0.00     0.031 C 
ATOM     68  C   UNL A   1      48.036  32.361  28.510  1.00  0.00     0.029 A 
ATOM     69  C   UNL A   1      46.756  31.839  28.613  1.00  0.00     0.049 A 
ATOM     70  H   UNL A   1      46.074  29.900  28.141  1.00  0.00     0.167 HD
ATOM     71  C   UNL A   1      44.339  31.897  29.159  1.00  0.00     0.074 A 
ATOM     72  C   UNL A   1      43.145  32.548  29.660  1.00  0.00     0.031 C 
ATOM     73  C   UNL A   1      45.557  32.488  29.081  1.00  0.00     0.034 A 
BRANCH  60  74
ATOM     74  C   UNL A   1      50.050  28.723  27.108  1.00  0.00     0.023 A 
ATOM     75  C   UNL A   1      50.605  28.967  25.834  1.00  0.00     0.012 A 
ATOM     76  C   UNL A   1      50.893  28.310  28.159  1.00  0.00     0.148 A 
ATOM     77  C   UNL A   1      51.962  28.754  25.597  1.00  0.00     0.002 A 
ATOM     78  C   UNL A   1      52.255  28.152  27.927  1.00  0.00     0.091 A 
ATOM     79  F   UNL A   1      50.349  28.063  29.357  1.00  0.00    -0.205 F 
ATOM     80  C   UNL A   1      52.788  28.357  26.645  1.00  0.00     0.022 A 
BRANCH  78  81
ATOM     81  S   UNL A   1      53.413  27.728  29.232  1.00  0.00     0.127 S 
ATOM     82  O   UNL A   1      54.666  28.260  28.700  1.00  0.00    -0.237 OA
ATOM     83  O   UNL A   1      52.874  28.468  30.374  1.00  0.00    -0.237 OA
ATOM     84  O   UNL A   1      53.354  26.279  29.367  1.00  0.00    -0.744 OA
ENDBRANCH  78  81
ENDBRANCH  60  74
BRANCH  61  85
ATOM     85  C   UNL A   1      40.340  29.399  29.292  1.00  0.00     0.023 A 
ATOM     86  C   UNL A   1      39.331  29.580  28.325  1.00  0.00     0.012 A 
ATOM     87  C   UNL A   1      39.976  29.212  30.639  1.00  0.00     0.148 A 
ATOM     88  C   UNL A   1      37.987  29.599  28.697  1.00  0.00     0.002 A 
ATOM     89  C   UNL A   1      38.634  29.173  30.995  1.00  0.00     0.091 A 
ATOM     90  F   UNL A   1      40.954  29.047  31.541  1.00  0.00    -0.205 F 
ATOM     91  C   UNL A   1      37.638  29.384  30.028  1.00  0.00     0.022 A 
BRANCH  89  92
ATOM     92  S   UNL A   1      38.087  28.764  32.656  1.00  0.00     0.127 S 
ATOM     93  O   UNL A   1      38.985  29.575  33.475  1.00  0.00    -0.237 OA
ATOM     94  O   UNL A   1      36.695  29.216  32.631  1.00  0.00    -0.237 OA
ATOM     95  O   UNL A   1      38.251  27.323  32.783  1.00  0.00    -0.744 OA
ENDBRANCH  89  92
ENDBRANCH  61  85
BRANCH  73  96
ATOM     96  C   UNL A   1      45.665  33.928  29.515  1.00  0.00     0.023 A 
ATOM     97  C   UNL A   1      46.050  34.244  30.832  1.00  0.00     0.012 A 
ATOM     98  C   UNL A   1      45.448  34.969  28.590  1.00  0.00     0.148 A 
ATOM     99  C   UNL A   1      46.183  35.573  31.233  1.00  0.00     0.002 A 
ATOM    100  C   UNL A   1      45.635  36.289  28.981  1.00  0.00     0.091 A 
ATOM    101  F   UNL A   1      45.064  34.650  27.346  1.00  0.00    -0.205 F 
ATOM    102  C   UNL A   1      45.987  36.594  30.306  1.00  0.00     0.022 A 
BRANCH 100 103
ATOM    103  S   UNL A   1      45.504  37.662  27.831  1.00  0.00     0.127 S 
ATOM    104  O   UNL A   1      46.455  37.271  26.791  1.00  0.00    -0.237 OA
ATOM    105  O   UNL A   1      44.099  37.596  27.428  1.00  0.00    -0.237 OA
ATOM    106  O   UNL A   1      45.861  38.856  28.585  1.00  0.00    -0.744 OA
ENDBRANCH 100 103
ENDBRANCH  73  96
ENDBRANCH  47  48
ENDBRANCH  39  42
ENDBRANCH  37  38
ENDBRANCH  36  37
ENDBRANCH  35  36
ENDBRANCH   1  35
TORSDOF 19
ENDMDL
