MODEL 1
REMARK VINA RESULT:     -11.7      0.000      0.000
REMARK SMILES O=C(NCCCCCCNC(=O)[C@H]1C[N@H+](Cc2ccc(Cl)c(Cl)c2)CC12CCCCC2)c1ccc(-c2c3nc(c(-c4cccc(S(=O)(=O)[O-])c4F)c4ccc([nH]4)c(-c4cccc(S(=O)(=O)[O-])c4F)c4nc(c(-c5cccc(S(=O)(=O)[O-])c5F)c5ccc2[nH]5)C=C4)C=C3)cc1
REMARK SMILES IDX 6 1 5 2 4 3 3 4 1 5 2 6 32 8 33 9 94 10 34 11 93 12 35 13
REMARK SMILES IDX 36 14 37 15 87 16 38 17 92 18 86 19 88 20 39 21 91 22 85 23
REMARK SMILES IDX 84 24 40 26 72 27 52 28 71 29 53 30 56 31 70 32 89 33 54 34
REMARK SMILES IDX 55 35 69 37 90 38 57 39 41 40 42 41 50 42 43 43 45 44 51 45
REMARK SMILES IDX 44 46 46 47 47 48 48 49 49 50 73 51 74 52 82 53 75 54 77 55
REMARK SMILES IDX 83 56 76 57 78 58 79 59 80 60 81 61 58 62 59 63 67 64 60 65
REMARK SMILES IDX 62 66 68 67 61 68 63 69 64 70 65 71 66 72 7 73 8 74 9 75
REMARK SMILES IDX 10 76 11 77 12 79 13 80 14 81 26 82 15 83 25 84 27 85 31 86
REMARK SMILES IDX 28 88 30 89 29 90 16 91 17 92 18 93 24 94 19 95 22 96 20 97
REMARK SMILES IDX 23 98 21 99
REMARK H PARENT 3 7 88 25 56 36 10 78 15 87
REMARK Flexibility Score: inf
ROOT
ATOM      1  C   UNL A   1      31.400  30.356  26.002  1.00  0.00     0.002 C 
ENDROOT
BRANCH   1   2
ATOM      2  C   UNL A   1      31.331  31.809  26.465  1.00  0.00     0.021 C 
BRANCH   2   3
ATOM      3  C   UNL A   1      32.614  32.341  27.085  1.00  0.00     0.116 C 
BRANCH   3   4
ATOM      4  N   UNL A   1      32.466  33.690  27.606  1.00  0.00    -0.352 N 
ATOM      5  O   UNL A   1      32.865  35.416  29.003  1.00  0.00    -0.269 OA
ATOM      6  C   UNL A   1      33.229  34.332  28.554  1.00  0.00     0.251 C 
ATOM      7  H   UNL A   1      31.721  34.213  27.231  1.00  0.00     0.163 HD
BRANCH   6   8
ATOM      8  C   UNL A   1      34.468  33.691  29.045  1.00  0.00     0.039 A 
ATOM      9  C   UNL A   1      34.398  32.587  29.897  1.00  0.00     0.014 A 
ATOM     10  C   UNL A   1      35.712  34.207  28.669  1.00  0.00     0.014 A 
ATOM     11  C   UNL A   1      35.555  32.104  30.496  1.00  0.00     0.010 A 
ATOM     12  C   UNL A   1      36.884  33.651  29.195  1.00  0.00     0.010 A 
ATOM     13  C   UNL A   1      36.815  32.615  30.139  1.00  0.00    -0.014 A 
BRANCH  13  14
ATOM     14  C   UNL A   1      38.027  31.973  30.709  1.00  0.00     0.031 A 
ATOM     15  C   UNL A   1      38.554  32.331  32.071  1.00  0.00     0.074 A 
ATOM     16  C   UNL A   1      38.632  31.011  29.983  1.00  0.00     0.049 A 
ATOM     17  N   UNL A   1      39.541  31.784  32.735  1.00  0.00    -0.248 NA
ATOM     18  C   UNL A   1      37.904  33.445  32.779  1.00  0.00     0.031 C 
ATOM     19  C   UNL A   1      38.250  30.626  28.620  1.00  0.00     0.029 A 
ATOM     20  N   UNL A   1      39.674  30.174  30.282  1.00  0.00    -0.354 N 
ATOM     21  C   UNL A   1      39.651  32.500  33.921  1.00  0.00     0.074 A 
ATOM     22  C   UNL A   1      38.638  33.532  33.882  1.00  0.00     0.031 C 
ATOM     23  C   UNL A   1      39.012  29.600  28.221  1.00  0.00     0.029 A 
ATOM     24  C   UNL A   1      39.971  29.286  29.274  1.00  0.00     0.049 A 
ATOM     25  H   UNL A   1      40.163  30.204  31.136  1.00  0.00     0.167 HD
ATOM     26  C   UNL A   1      40.505  32.301  34.956  1.00  0.00     0.034 A 
ATOM     27  C   UNL A   1      40.914  28.328  29.197  1.00  0.00     0.034 A 
ATOM     28  C   UNL A   1      41.494  31.253  34.999  1.00  0.00     0.049 A 
ATOM     29  C   UNL A   1      41.804  28.094  30.381  1.00  0.00     0.074 A 
ATOM     30  C   UNL A   1      42.380  30.948  36.018  1.00  0.00     0.029 A 
ATOM     31  N   UNL A   1      41.727  30.338  33.983  1.00  0.00    -0.354 N 
ATOM     32  N   UNL A   1      41.805  28.704  31.542  1.00  0.00    -0.248 NA
ATOM     33  C   UNL A   1      42.800  27.022  30.260  1.00  0.00     0.031 C 
ATOM     34  C   UNL A   1      43.154  29.854  35.615  1.00  0.00     0.029 A 
ATOM     35  C   UNL A   1      42.740  29.468  34.351  1.00  0.00     0.049 A 
ATOM     36  H   UNL A   1      41.244  30.312  33.126  1.00  0.00     0.167 HD
ATOM     37  C   UNL A   1      42.797  28.087  32.292  1.00  0.00     0.074 A 
ATOM     38  C   UNL A   1      43.341  27.023  31.470  1.00  0.00     0.031 C 
ATOM     39  C   UNL A   1      43.242  28.391  33.536  1.00  0.00     0.034 A 
BRANCH  26  40
ATOM     40  C   UNL A   1      40.375  33.197  36.160  1.00  0.00     0.023 A 
ATOM     41  C   UNL A   1      40.991  34.465  36.144  1.00  0.00     0.012 A 
ATOM     42  C   UNL A   1      39.578  32.832  37.263  1.00  0.00     0.148 A 
ATOM     43  C   UNL A   1      40.837  35.346  37.214  1.00  0.00     0.002 A 
ATOM     44  C   UNL A   1      39.398  33.730  38.311  1.00  0.00     0.091 A 
ATOM     45  F   UNL A   1      39.013  31.616  37.270  1.00  0.00    -0.205 F 
ATOM     46  C   UNL A   1      40.032  34.983  38.290  1.00  0.00     0.022 A 
BRANCH  44  47
ATOM     47  S   UNL A   1      38.324  33.390  39.711  1.00  0.00     0.127 S 
ATOM     48  O   UNL A   1      39.031  32.289  40.364  1.00  0.00    -0.237 OA
ATOM     49  O   UNL A   1      38.360  34.657  40.443  1.00  0.00    -0.237 OA
ATOM     50  O   UNL A   1      37.025  33.052  39.148  1.00  0.00    -0.744 OA
ENDBRANCH  44  47
ENDBRANCH  26  40
BRANCH  27  51
ATOM     51  C   UNL A   1      41.018  27.496  27.966  1.00  0.00     0.023 A 
ATOM     52  C   UNL A   1      41.651  28.016  26.821  1.00  0.00     0.012 A 
ATOM     53  C   UNL A   1      40.548  26.169  27.947  1.00  0.00     0.148 A 
ATOM     54  C   UNL A   1      41.791  27.236  25.672  1.00  0.00     0.002 A 
ATOM     55  C   UNL A   1      40.749  25.377  26.823  1.00  0.00     0.091 A 
ATOM     56  F   UNL A   1      39.927  25.696  29.037  1.00  0.00    -0.205 F 
ATOM     57  C   UNL A   1      41.355  25.914  25.678  1.00  0.00     0.022 A 
BRANCH  55  58
ATOM     58  S   UNL A   1      40.363  23.623  26.830  1.00  0.00     0.127 S 
ATOM     59  O   UNL A   1      38.993  23.615  26.330  1.00  0.00    -0.237 OA
ATOM     60  O   UNL A   1      41.361  23.081  25.907  1.00  0.00    -0.237 OA
ATOM     61  O   UNL A   1      40.548  23.202  28.214  1.00  0.00    -0.744 OA
ENDBRANCH  55  58
ENDBRANCH  27  51
BRANCH  39  62
ATOM     62  C   UNL A   1      44.374  27.561  34.078  1.00  0.00     0.023 A 
ATOM     63  C   UNL A   1      45.700  28.013  33.922  1.00  0.00     0.012 A 
ATOM     64  C   UNL A   1      44.129  26.358  34.766  1.00  0.00     0.148 A 
ATOM     65  C   UNL A   1      46.767  27.261  34.409  1.00  0.00     0.002 A 
ATOM     66  C   UNL A   1      45.196  25.635  35.287  1.00  0.00     0.091 A 
ATOM     67  F   UNL A   1      42.863  25.931  34.884  1.00  0.00    -0.205 F 
ATOM     68  C   UNL A   1      46.516  26.078  35.099  1.00  0.00     0.022 A 
BRANCH  66  69
ATOM     69  S   UNL A   1      44.953  24.145  36.260  1.00  0.00     0.127 S 
ATOM     70  O   UNL A   1      43.989  23.410  35.443  1.00  0.00    -0.237 OA
ATOM     71  O   UNL A   1      46.295  23.565  36.290  1.00  0.00    -0.237 OA
ATOM     72  O   UNL A   1      44.465  24.597  37.557  1.00  0.00    -0.744 OA
ENDBRANCH  66  69
ENDBRANCH  39  62
ENDBRANCH  13  14
ENDBRANCH   6   8
ENDBRANCH   3   4
ENDBRANCH   2   3
ENDBRANCH   1   2
BRANCH   1  73
ATOM     73  C   UNL A   1      31.790  29.339  27.081  1.00  0.00     0.002 C 
BRANCH  73  74
ATOM     74  C   UNL A   1      32.887  28.343  26.689  1.00  0.00     0.021 C 
BRANCH  74  75
ATOM     75  C   UNL A   1      32.616  26.902  27.114  1.00  0.00     0.116 C 
BRANCH  75  76
ATOM     76  N   UNL A   1      31.264  26.493  26.787  1.00  0.00    -0.356 N 
ATOM     77  C   UNL A   1      30.762  25.940  25.644  1.00  0.00     0.229 C 
ATOM     78  H   UNL A   1      30.603  26.636  27.503  1.00  0.00     0.163 HD
ATOM     79  O   UNL A   1      29.558  25.692  25.623  1.00  0.00    -0.275 OA
BRANCH  77  80
ATOM     80  C   UNL A   1      31.732  25.578  24.526  1.00  0.00     0.145 C 
ATOM     81  C   UNL A   1      31.157  24.351  23.813  1.00  0.00     0.276 C 
ATOM     82  C   UNL A   1      32.060  26.601  23.391  1.00  0.00     0.037 C 
ATOM     83  N   UNL A   1      31.693  24.364  22.464  1.00  0.00    -0.330 N 
ATOM     84  C   UNL A   1      31.865  25.765  22.091  1.00  0.00     0.270 C 
ATOM     85  C   UNL A   1      31.185  27.877  23.361  1.00  0.00     0.014 C 
ATOM     86  C   UNL A   1      33.527  27.082  23.562  1.00  0.00     0.014 C 
ATOM     87  H   UNL A   1      31.020  23.940  21.824  1.00  0.00     0.348 HD
ATOM     88  C   UNL A   1      31.616  28.893  22.299  1.00  0.00     0.001 C 
ATOM     89  C   UNL A   1      33.987  28.060  22.482  1.00  0.00     0.001 C 
ATOM     90  C   UNL A   1      33.083  29.282  22.437  1.00  0.00     0.000 C 
BRANCH  83  91
ATOM     91  C   UNL A   1      32.761  23.418  22.148  1.00  0.00     0.299 C 
BRANCH  91  92
ATOM     92  C   UNL A   1      32.875  22.176  23.003  1.00  0.00     0.008 A 
ATOM     93  C   UNL A   1      32.202  20.995  22.660  1.00  0.00     0.011 A 
ATOM     94  C   UNL A   1      33.642  22.193  24.179  1.00  0.00     0.031 A 
ATOM     95  C   UNL A   1      32.210  19.893  23.520  1.00  0.00     0.022 A 
ATOM     96  C   UNL A   1      33.666  21.086  25.037  1.00  0.00     0.060 A 
ATOM     97  C   UNL A   1      32.928  19.942  24.718  1.00  0.00     0.059 A 
ATOM     98  Cl  UNL A   1      34.583  21.221  26.495  1.00  0.00    -0.083 Cl
ATOM     99  Cl  UNL A   1      32.829  18.577  25.771  1.00  0.00    -0.083 Cl
ENDBRANCH  91  92
ENDBRANCH  83  91
ENDBRANCH  77  80
ENDBRANCH  75  76
ENDBRANCH  74  75
ENDBRANCH  73  74
ENDBRANCH   1  73
TORSDOF 18
ENDMDL
MODEL 2
REMARK VINA RESULT:     -11.6      2.266      2.706
REMARK SMILES O=C(NCCCCCCNC(=O)[C@H]1C[N@H+](Cc2ccc(Cl)c(Cl)c2)CC12CCCCC2)c1ccc(-c2c3nc(c(-c4cccc(S(=O)(=O)[O-])c4F)c4ccc([nH]4)c(-c4cccc(S(=O)(=O)[O-])c4F)c4nc(c(-c5cccc(S(=O)(=O)[O-])c5F)c5ccc2[nH]5)C=C4)C=C3)cc1
REMARK SMILES IDX 6 1 5 2 4 3 3 4 1 5 2 6 32 8 33 9 94 10 34 11 93 12 35 13
REMARK SMILES IDX 36 14 37 15 87 16 38 17 92 18 86 19 88 20 39 21 91 22 85 23
REMARK SMILES IDX 84 24 40 26 72 27 52 28 71 29 53 30 56 31 70 32 89 33 54 34
REMARK SMILES IDX 55 35 69 37 90 38 57 39 41 40 42 41 50 42 43 43 45 44 51 45
REMARK SMILES IDX 44 46 46 47 47 48 48 49 49 50 73 51 74 52 82 53 75 54 77 55
REMARK SMILES IDX 83 56 76 57 78 58 79 59 80 60 81 61 58 62 59 63 67 64 60 65
REMARK SMILES IDX 62 66 68 67 61 68 63 69 64 70 65 71 66 72 7 73 8 74 9 75
REMARK SMILES IDX 10 76 11 77 12 79 13 80 14 81 26 82 15 83 25 84 27 85 31 86
REMARK SMILES IDX 28 88 30 89 29 90 16 91 17 92 18 93 24 94 19 95 22 96 20 97
REMARK SMILES IDX 23 98 21 99
REMARK H PARENT 3 7 88 25 56 36 10 78 15 87
REMARK Flexibility Score: inf
ROOT
ATOM      1  C   UNL A   1      31.528  30.455  26.232  1.00  0.00     0.002 C 
ENDROOT
BRANCH   1   2
ATOM      2  C   UNL A   1      31.565  31.966  26.453  1.00  0.00     0.021 C 
BRANCH   2   3
ATOM      3  C   UNL A   1      32.678  32.447  27.370  1.00  0.00     0.116 C 
BRANCH   3   4
ATOM      4  N   UNL A   1      32.526  33.843  27.748  1.00  0.00    -0.352 N 
ATOM      5  O   UNL A   1      32.916  35.705  28.961  1.00  0.00    -0.269 OA
ATOM      6  C   UNL A   1      33.283  34.581  28.628  1.00  0.00     0.251 C 
ATOM      7  H   UNL A   1      31.783  34.324  27.316  1.00  0.00     0.163 HD
BRANCH   6   8
ATOM      8  C   UNL A   1      34.520  33.995  29.191  1.00  0.00     0.039 A 
ATOM      9  C   UNL A   1      34.446  33.040  30.207  1.00  0.00     0.014 A 
ATOM     10  C   UNL A   1      35.765  34.416  28.715  1.00  0.00     0.014 A 
ATOM     11  C   UNL A   1      35.605  32.629  30.852  1.00  0.00     0.010 A 
ATOM     12  C   UNL A   1      36.937  33.922  29.301  1.00  0.00     0.010 A 
ATOM     13  C   UNL A   1      36.867  33.048  30.396  1.00  0.00    -0.014 A 
BRANCH  13  14
ATOM     14  C   UNL A   1      38.078  32.474  31.037  1.00  0.00     0.031 A 
ATOM     15  C   UNL A   1      38.644  33.030  32.315  1.00  0.00     0.074 A 
ATOM     16  C   UNL A   1      38.645  31.395  30.461  1.00  0.00     0.049 A 
ATOM     17  N   UNL A   1      39.634  32.571  33.038  1.00  0.00    -0.248 NA
ATOM     18  C   UNL A   1      38.034  34.257  32.851  1.00  0.00     0.031 C 
ATOM     19  C   UNL A   1      38.225  30.810  29.184  1.00  0.00     0.029 A 
ATOM     20  N   UNL A   1      39.677  30.591  30.869  1.00  0.00    -0.354 N 
ATOM     21  C   UNL A   1      39.786  33.462  34.094  1.00  0.00     0.074 A 
ATOM     22  C   UNL A   1      38.794  34.499  33.912  1.00  0.00     0.031 C 
ATOM     23  C   UNL A   1      38.956  29.716  28.938  1.00  0.00     0.029 A 
ATOM     24  C   UNL A   1      39.932  29.548  30.008  1.00  0.00     0.049 A 
ATOM     25  H   UNL A   1      40.185  30.743  31.698  1.00  0.00     0.167 HD
ATOM     26  C   UNL A   1      40.659  33.408  35.130  1.00  0.00     0.034 A 
ATOM     27  C   UNL A   1      40.852  28.567  30.066  1.00  0.00     0.034 A 
ATOM     28  C   UNL A   1      41.626  32.356  35.320  1.00  0.00     0.049 A 
ATOM     29  C   UNL A   1      41.764  28.501  31.255  1.00  0.00     0.074 A 
ATOM     30  C   UNL A   1      42.529  32.194  36.357  1.00  0.00     0.029 A 
ATOM     31  N   UNL A   1      41.817  31.287  34.458  1.00  0.00    -0.354 N 
ATOM     32  N   UNL A   1      41.805  29.286  32.304  1.00  0.00    -0.248 NA
ATOM     33  C   UNL A   1      42.734  27.399  31.286  1.00  0.00     0.031 C 
ATOM     34  C   UNL A   1      43.270  31.031  36.117  1.00  0.00     0.029 A 
ATOM     35  C   UNL A   1      42.820  30.461  34.938  1.00  0.00     0.049 A 
ATOM     36  H   UNL A   1      41.314  31.137  33.624  1.00  0.00     0.167 HD
ATOM     37  C   UNL A   1      42.800  28.771  33.123  1.00  0.00     0.074 A 
ATOM     38  C   UNL A   1      43.302  27.577  32.470  1.00  0.00     0.031 C 
ATOM     39  C   UNL A   1      43.280  29.256  34.295  1.00  0.00     0.034 A 
BRANCH  26  40
ATOM     40  C   UNL A   1      40.576  34.486  36.180  1.00  0.00     0.023 A 
ATOM     41  C   UNL A   1      39.397  34.612  36.944  1.00  0.00     0.012 A 
ATOM     42  C   UNL A   1      41.680  35.310  36.474  1.00  0.00     0.148 A 
ATOM     43  C   UNL A   1      39.310  35.555  37.967  1.00  0.00     0.002 A 
ATOM     44  C   UNL A   1      41.599  36.223  37.521  1.00  0.00     0.091 A 
ATOM     45  F   UNL A   1      42.786  35.188  35.726  1.00  0.00    -0.205 F 
ATOM     46  C   UNL A   1      40.413  36.351  38.262  1.00  0.00     0.022 A 
BRANCH  44  47
ATOM     47  S   UNL A   1      42.986  37.246  38.029  1.00  0.00     0.127 S 
ATOM     48  O   UNL A   1      43.948  36.239  38.473  1.00  0.00    -0.237 OA
ATOM     49  O   UNL A   1      43.343  37.925  36.783  1.00  0.00    -0.237 OA
ATOM     50  O   UNL A   1      42.474  38.124  39.073  1.00  0.00    -0.744 OA
ENDBRANCH  44  47
ENDBRANCH  26  40
BRANCH  27  51
ATOM     51  C   UNL A   1      40.910  27.549  28.980  1.00  0.00     0.023 A 
ATOM     52  C   UNL A   1      40.010  26.468  28.984  1.00  0.00     0.012 A 
ATOM     53  C   UNL A   1      41.815  27.685  27.909  1.00  0.00     0.148 A 
ATOM     54  C   UNL A   1      40.027  25.526  27.955  1.00  0.00     0.002 A 
ATOM     55  C   UNL A   1      41.782  26.781  26.854  1.00  0.00     0.091 A 
ATOM     56  F   UNL A   1      42.682  28.707  27.931  1.00  0.00    -0.205 F 
ATOM     57  C   UNL A   1      40.900  25.691  26.883  1.00  0.00     0.022 A 
BRANCH  55  58
ATOM     58  S   UNL A   1      42.762  27.034  25.371  1.00  0.00     0.127 S 
ATOM     59  O   UNL A   1      42.145  28.228  24.803  1.00  0.00    -0.237 OA
ATOM     60  O   UNL A   1      44.106  27.234  25.916  1.00  0.00    -0.237 OA
ATOM     61  O   UNL A   1      42.613  25.804  24.605  1.00  0.00    -0.744 OA
ENDBRANCH  55  58
ENDBRANCH  27  51
BRANCH  39  62
ATOM     62  C   UNL A   1      44.406  28.495  34.939  1.00  0.00     0.023 A 
ATOM     63  C   UNL A   1      45.730  28.729  34.517  1.00  0.00     0.012 A 
ATOM     64  C   UNL A   1      44.163  27.577  35.978  1.00  0.00     0.148 A 
ATOM     65  C   UNL A   1      46.791  28.033  35.093  1.00  0.00     0.002 A 
ATOM     66  C   UNL A   1      45.230  26.919  36.577  1.00  0.00     0.091 A 
ATOM     67  F   UNL A   1      42.894  27.349  36.350  1.00  0.00    -0.205 F 
ATOM     68  C   UNL A   1      46.543  27.136  36.129  1.00  0.00     0.022 A 
BRANCH  66  69
ATOM     69  S   UNL A   1      45.003  25.810  37.972  1.00  0.00     0.127 S 
ATOM     70  O   UNL A   1      44.257  24.711  37.362  1.00  0.00    -0.237 OA
ATOM     71  O   UNL A   1      46.380  25.481  38.341  1.00  0.00    -0.237 OA
ATOM     72  O   UNL A   1      44.282  26.583  38.976  1.00  0.00    -0.744 OA
ENDBRANCH  66  69
ENDBRANCH  39  62
ENDBRANCH  13  14
ENDBRANCH   6   8
ENDBRANCH   3   4
ENDBRANCH   2   3
ENDBRANCH   1   2
BRANCH   1  73
ATOM     73  C   UNL A   1      32.896  29.771  26.137  1.00  0.00     0.002 C 
BRANCH  73  74
ATOM     74  C   UNL A   1      32.874  28.299  25.706  1.00  0.00     0.021 C 
BRANCH  74  75
ATOM     75  C   UNL A   1      32.633  27.311  26.844  1.00  0.00     0.116 C 
BRANCH  75  76
ATOM     76  N   UNL A   1      31.251  26.872  26.889  1.00  0.00    -0.356 N 
ATOM     77  C   UNL A   1      30.653  25.783  26.323  1.00  0.00     0.229 C 
ATOM     78  H   UNL A   1      30.649  27.452  27.410  1.00  0.00     0.163 HD
ATOM     79  O   UNL A   1      29.446  25.646  26.511  1.00  0.00    -0.275 OA
BRANCH  77  80
ATOM     80  C   UNL A   1      31.528  24.770  25.594  1.00  0.00     0.145 C 
ATOM     81  C   UNL A   1      30.826  23.414  25.698  1.00  0.00     0.276 C 
ATOM     82  C   UNL A   1      31.863  24.949  24.078  1.00  0.00     0.037 C 
ATOM     83  N   UNL A   1      31.282  22.621  24.571  1.00  0.00    -0.330 N 
ATOM     84  C   UNL A   1      31.533  23.552  23.474  1.00  0.00     0.270 C 
ATOM     85  C   UNL A   1      31.081  26.065  23.344  1.00  0.00     0.014 C 
ATOM     86  C   UNL A   1      33.368  25.307  23.939  1.00  0.00     0.014 C 
ATOM     87  H   UNL A   1      30.545  21.976  24.285  1.00  0.00     0.348 HD
ATOM     88  C   UNL A   1      31.522  26.268  21.891  1.00  0.00     0.001 C 
ATOM     89  C   UNL A   1      33.834  25.466  22.492  1.00  0.00     0.001 C 
ATOM     90  C   UNL A   1      33.019  26.532  21.776  1.00  0.00     0.000 C 
BRANCH  83  91
ATOM     91  C   UNL A   1      32.260  21.566  24.833  1.00  0.00     0.299 C 
BRANCH  91  92
ATOM     92  C   UNL A   1      33.687  21.985  25.107  1.00  0.00     0.008 A 
ATOM     93  C   UNL A   1      34.121  22.273  26.409  1.00  0.00     0.011 A 
ATOM     94  C   UNL A   1      34.602  22.118  24.050  1.00  0.00     0.031 A 
ATOM     95  C   UNL A   1      35.403  22.780  26.638  1.00  0.00     0.022 A 
ATOM     96  C   UNL A   1      35.894  22.611  24.277  1.00  0.00     0.060 A 
ATOM     97  C   UNL A   1      36.286  22.967  25.571  1.00  0.00     0.059 A 
ATOM     98  Cl  UNL A   1      36.929  22.806  22.907  1.00  0.00    -0.083 Cl
ATOM     99  Cl  UNL A   1      37.824  23.672  25.913  1.00  0.00    -0.083 Cl
ENDBRANCH  91  92
ENDBRANCH  83  91
ENDBRANCH  77  80
ENDBRANCH  75  76
ENDBRANCH  74  75
ENDBRANCH  73  74
ENDBRANCH   1  73
TORSDOF 18
ENDMDL
MODEL 3
REMARK VINA RESULT:     -11.6      1.697      7.585
REMARK SMILES O=C(NCCCCCCNC(=O)[C@H]1C[N@H+](Cc2ccc(Cl)c(Cl)c2)CC12CCCCC2)c1ccc(-c2c3nc(c(-c4cccc(S(=O)(=O)[O-])c4F)c4ccc([nH]4)c(-c4cccc(S(=O)(=O)[O-])c4F)c4nc(c(-c5cccc(S(=O)(=O)[O-])c5F)c5ccc2[nH]5)C=C4)C=C3)cc1
REMARK SMILES IDX 6 1 5 2 4 3 3 4 1 5 2 6 32 8 33 9 94 10 34 11 93 12 35 13
REMARK SMILES IDX 36 14 37 15 87 16 38 17 92 18 86 19 88 20 39 21 91 22 85 23
REMARK SMILES IDX 84 24 40 26 72 27 52 28 71 29 53 30 56 31 70 32 89 33 54 34
REMARK SMILES IDX 55 35 69 37 90 38 57 39 41 40 42 41 50 42 43 43 45 44 51 45
REMARK SMILES IDX 44 46 46 47 47 48 48 49 49 50 73 51 74 52 82 53 75 54 77 55
REMARK SMILES IDX 83 56 76 57 78 58 79 59 80 60 81 61 58 62 59 63 67 64 60 65
REMARK SMILES IDX 62 66 68 67 61 68 63 69 64 70 65 71 66 72 7 73 8 74 9 75
REMARK SMILES IDX 10 76 11 77 12 79 13 80 14 81 26 82 15 83 25 84 27 85 31 86
REMARK SMILES IDX 28 88 30 89 29 90 16 91 17 92 18 93 24 94 19 95 22 96 20 97
REMARK SMILES IDX 23 98 21 99
REMARK H PARENT 3 7 88 25 56 36 10 78 15 87
REMARK Flexibility Score: inf
ROOT
ATOM      1  C   UNL A   1      33.478  31.018  27.534  1.00  0.00     0.002 C 
ENDROOT
BRANCH   1   2
ATOM      2  C   UNL A   1      32.616  32.274  27.649  1.00  0.00     0.021 C 
BRANCH   2   3
ATOM      3  C   UNL A   1      33.315  33.564  27.250  1.00  0.00     0.116 C 
BRANCH   3   4
ATOM      4  N   UNL A   1      32.818  34.718  27.981  1.00  0.00    -0.352 N 
ATOM      5  O   UNL A   1      32.492  36.030  29.788  1.00  0.00    -0.269 OA
ATOM      6  C   UNL A   1      33.130  35.123  29.259  1.00  0.00     0.251 C 
ATOM      7  H   UNL A   1      32.174  35.284  27.499  1.00  0.00     0.163 HD
BRANCH   6   8
ATOM      8  C   UNL A   1      34.214  34.437  29.995  1.00  0.00     0.039 A 
ATOM      9  C   UNL A   1      35.546  34.620  29.616  1.00  0.00     0.014 A 
ATOM     10  C   UNL A   1      33.899  33.586  31.059  1.00  0.00     0.014 A 
ATOM     11  C   UNL A   1      36.539  33.837  30.190  1.00  0.00     0.010 A 
ATOM     12  C   UNL A   1      34.917  32.875  31.705  1.00  0.00     0.010 A 
ATOM     13  C   UNL A   1      36.242  32.969  31.256  1.00  0.00    -0.014 A 
BRANCH  13  14
ATOM     14  C   UNL A   1      37.363  32.256  31.921  1.00  0.00     0.031 A 
ATOM     15  C   UNL A   1      38.112  31.141  31.246  1.00  0.00     0.074 A 
ATOM     16  C   UNL A   1      37.730  32.667  33.152  1.00  0.00     0.049 A 
ATOM     17  N   UNL A   1      39.172  30.496  31.666  1.00  0.00    -0.248 NA
ATOM     18  C   UNL A   1      37.613  30.680  29.940  1.00  0.00     0.031 C 
ATOM     19  C   UNL A   1      37.035  33.694  33.933  1.00  0.00     0.029 A 
ATOM     20  N   UNL A   1      38.776  32.294  33.954  1.00  0.00    -0.354 N 
ATOM     21  C   UNL A   1      39.450  29.539  30.698  1.00  0.00     0.074 A 
ATOM     22  C   UNL A   1      38.439  29.676  29.671  1.00  0.00     0.031 C 
ATOM     23  C   UNL A   1      37.697  33.903  35.078  1.00  0.00     0.029 A 
ATOM     24  C   UNL A   1      38.834  32.992  35.139  1.00  0.00     0.049 A 
ATOM     25  H   UNL A   1      39.424  31.596  33.707  1.00  0.00     0.167 HD
ATOM     26  C   UNL A   1      40.467  28.643  30.658  1.00  0.00     0.034 A 
ATOM     27  C   UNL A   1      39.699  32.907  36.166  1.00  0.00     0.034 A 
ATOM     28  C   UNL A   1      41.486  28.530  31.671  1.00  0.00     0.049 A 
ATOM     29  C   UNL A   1      40.848  31.947  36.066  1.00  0.00     0.074 A 
ATOM     30  C   UNL A   1      42.577  27.679  31.703  1.00  0.00     0.029 A 
ATOM     31  N   UNL A   1      41.544  29.292  32.828  1.00  0.00    -0.354 N 
ATOM     32  N   UNL A   1      41.160  31.139  35.082  1.00  0.00    -0.248 NA
ATOM     33  C   UNL A   1      41.779  31.908  37.200  1.00  0.00     0.031 C 
ATOM     34  C   UNL A   1      43.290  27.921  32.883  1.00  0.00     0.029 A 
ATOM     35  C   UNL A   1      42.651  28.933  33.580  1.00  0.00     0.049 A 
ATOM     36  H   UNL A   1      40.893  29.986  33.080  1.00  0.00     0.167 HD
ATOM     37  C   UNL A   1      42.327  30.498  35.475  1.00  0.00     0.074 A 
ATOM     38  C   UNL A   1      42.692  31.050  36.766  1.00  0.00     0.031 C 
ATOM     39  C   UNL A   1      43.020  29.519  34.843  1.00  0.00     0.034 A 
BRANCH  26  40
ATOM     40  C   UNL A   1      40.569  27.744  29.452  1.00  0.00     0.023 A 
ATOM     41  C   UNL A   1      39.742  26.606  29.370  1.00  0.00     0.012 A 
ATOM     42  C   UNL A   1      41.410  28.066  28.368  1.00  0.00     0.148 A 
ATOM     43  C   UNL A   1      39.764  25.790  28.240  1.00  0.00     0.002 A 
ATOM     44  C   UNL A   1      41.399  27.269  27.228  1.00  0.00     0.091 A 
ATOM     45  F   UNL A   1      42.203  29.143  28.471  1.00  0.00    -0.205 F 
ATOM     46  C   UNL A   1      40.583  26.127  27.166  1.00  0.00     0.022 A 
BRANCH  44  47
ATOM     47  S   UNL A   1      42.363  27.653  25.761  1.00  0.00     0.127 S 
ATOM     48  O   UNL A   1      43.728  27.587  26.280  1.00  0.00    -0.237 OA
ATOM     49  O   UNL A   1      42.000  26.561  24.857  1.00  0.00    -0.237 OA
ATOM     50  O   UNL A   1      41.923  28.972  25.327  1.00  0.00    -0.744 OA
ENDBRANCH  44  47
ENDBRANCH  26  40
BRANCH  27  51
ATOM     51  C   UNL A   1      39.527  33.796  37.349  1.00  0.00     0.023 A 
ATOM     52  C   UNL A   1      39.958  35.135  37.288  1.00  0.00     0.012 A 
ATOM     53  C   UNL A   1      38.878  33.337  38.512  1.00  0.00     0.148 A 
ATOM     54  C   UNL A   1      39.770  35.991  38.373  1.00  0.00     0.002 A 
ATOM     55  C   UNL A   1      38.635  34.212  39.562  1.00  0.00     0.091 A 
ATOM     56  F   UNL A   1      38.493  32.054  38.563  1.00  0.00    -0.205 F 
ATOM     57  C   UNL A   1      39.095  35.536  39.503  1.00  0.00     0.022 A 
BRANCH  55  58
ATOM     58  S   UNL A   1      37.626  33.733  40.968  1.00  0.00     0.127 S 
ATOM     59  O   UNL A   1      36.487  33.095  40.317  1.00  0.00    -0.237 OA
ATOM     60  O   UNL A   1      38.513  32.821  41.692  1.00  0.00    -0.237 OA
ATOM     61  O   UNL A   1      37.351  34.976  41.678  1.00  0.00    -0.744 OA
ENDBRANCH  55  58
ENDBRANCH  27  51
BRANCH  39  62
ATOM     62  C   UNL A   1      44.239  28.984  35.543  1.00  0.00     0.023 A 
ATOM     63  C   UNL A   1      45.501  29.543  35.260  1.00  0.00     0.012 A 
ATOM     64  C   UNL A   1      44.136  27.957  36.501  1.00  0.00     0.148 A 
ATOM     65  C   UNL A   1      46.647  29.061  35.890  1.00  0.00     0.002 A 
ATOM     66  C   UNL A   1      45.277  27.512  37.157  1.00  0.00     0.091 A 
ATOM     67  F   UNL A   1      42.929  27.421  36.740  1.00  0.00    -0.205 F 
ATOM     68  C   UNL A   1      46.535  28.054  36.845  1.00  0.00     0.022 A 
BRANCH  66  69
ATOM     69  S   UNL A   1      45.207  26.276  38.458  1.00  0.00     0.127 S 
ATOM     70  O   UNL A   1      44.532  27.008  39.528  1.00  0.00    -0.237 OA
ATOM     71  O   UNL A   1      44.406  25.217  37.844  1.00  0.00    -0.237 OA
ATOM     72  O   UNL A   1      46.591  25.904  38.723  1.00  0.00    -0.744 OA
ENDBRANCH  66  69
ENDBRANCH  39  62
ENDBRANCH  13  14
ENDBRANCH   6   8
ENDBRANCH   3   4
ENDBRANCH   2   3
ENDBRANCH   1   2
BRANCH   1  73
ATOM     73  C   UNL A   1      33.053  30.027  26.444  1.00  0.00     0.002 C 
BRANCH  73  74
ATOM     74  C   UNL A   1      31.824  29.169  26.769  1.00  0.00     0.021 C 
BRANCH  74  75
ATOM     75  C   UNL A   1      32.139  27.713  27.101  1.00  0.00     0.116 C 
BRANCH  75  76
ATOM     76  N   UNL A   1      30.946  26.890  27.084  1.00  0.00    -0.356 N 
ATOM     77  C   UNL A   1      30.524  25.967  26.170  1.00  0.00     0.229 C 
ATOM     78  H   UNL A   1      30.344  27.016  27.853  1.00  0.00     0.163 HD
ATOM     79  O   UNL A   1      29.453  25.407  26.393  1.00  0.00    -0.275 OA
BRANCH  77  80
ATOM     80  C   UNL A   1      31.447  25.623  25.006  1.00  0.00     0.145 C 
ATOM     81  C   UNL A   1      30.967  24.287  24.434  1.00  0.00     0.276 C 
ATOM     82  C   UNL A   1      31.571  26.580  23.777  1.00  0.00     0.037 C 
ATOM     83  N   UNL A   1      31.399  24.248  23.048  1.00  0.00    -0.330 N 
ATOM     84  C   UNL A   1      31.381  25.624  22.562  1.00  0.00     0.270 C 
ATOM     85  C   UNL A   1      30.554  27.746  23.726  1.00  0.00     0.014 C 
ATOM     86  C   UNL A   1      32.981  27.232  23.794  1.00  0.00     0.014 C 
ATOM     87  H   UNL A   1      30.735  23.702  22.498  1.00  0.00     0.348 HD
ATOM     88  C   UNL A   1      30.787  28.712  22.561  1.00  0.00     0.001 C 
ATOM     89  C   UNL A   1      33.246  28.163  22.611  1.00  0.00     0.001 C 
ATOM     90  C   UNL A   1      32.205  29.270  22.551  1.00  0.00     0.000 C 
BRANCH  83  91
ATOM     91  C   UNL A   1      32.544  23.402  22.717  1.00  0.00     0.299 C 
BRANCH  91  92
ATOM     92  C   UNL A   1      32.711  22.112  23.488  1.00  0.00     0.008 A 
ATOM     93  C   UNL A   1      32.300  20.886  22.946  1.00  0.00     0.011 A 
ATOM     94  C   UNL A   1      33.260  22.124  24.780  1.00  0.00     0.031 A 
ATOM     95  C   UNL A   1      32.341  19.717  23.712  1.00  0.00     0.022 A 
ATOM     96  C   UNL A   1      33.317  20.953  25.547  1.00  0.00     0.060 A 
ATOM     97  C   UNL A   1      32.833  19.751  25.020  1.00  0.00     0.059 A 
ATOM     98  Cl  UNL A   1      33.946  21.075  27.151  1.00  0.00    -0.083 Cl
ATOM     99  Cl  UNL A   1      32.779  18.290  25.938  1.00  0.00    -0.083 Cl
ENDBRANCH  91  92
ENDBRANCH  83  91
ENDBRANCH  77  80
ENDBRANCH  75  76
ENDBRANCH  74  75
ENDBRANCH  73  74
ENDBRANCH   1  73
TORSDOF 18
ENDMDL
