MODEL 1
REMARK VINA RESULT:     -12.0      0.000      0.000
REMARK SMILES O=C(NCCCCCCNC(=O)[C@@H]1CS[C@H](Cc2cccc(F)c2)C(=O)N1)c1ccc(-c2c3nc(c(-c4cccc(S(=O)(=O)[O-])c4F)c4ccc([nH]4)c(-c4cccc(S(=O)(=O)[O-])c4F)c4nc(c(-c5cccc(S(=O)(=O)[O-])c5F)c5ccc2[nH]5)C=C4)C=C3)cc1
REMARK SMILES IDX 6 1 5 2 4 3 3 4 1 5 2 6 28 8 29 9 90 10 30 11 89 12 31 13
REMARK SMILES IDX 32 14 33 15 83 16 34 17 88 18 82 19 84 20 35 21 87 22 81 23
REMARK SMILES IDX 80 24 36 26 68 27 48 28 67 29 49 30 52 31 66 32 85 33 50 34
REMARK SMILES IDX 51 35 65 37 86 38 53 39 37 40 38 41 46 42 39 43 41 44 47 45
REMARK SMILES IDX 40 46 42 47 43 48 44 49 45 50 69 51 70 52 78 53 71 54 73 55
REMARK SMILES IDX 79 56 72 57 74 58 75 59 76 60 77 61 54 62 55 63 63 64 56 65
REMARK SMILES IDX 58 66 64 67 57 68 59 69 60 70 61 71 62 72 7 73 8 74 9 75
REMARK SMILES IDX 10 76 11 77 12 79 13 80 14 81 27 82 15 83 25 84 16 86 26 87
REMARK SMILES IDX 17 88 18 89 19 90 24 91 20 92 22 93 21 94 23 95
REMARK H PARENT 3 7 84 25 52 36 10 78 27 85
REMARK Flexibility Score: inf
ROOT
ATOM      1  C   UNL A   1      31.571  30.803  25.798  1.00  0.00     0.002 C 
ENDROOT
BRANCH   1   2
ATOM      2  C   UNL A   1      31.430  31.913  26.847  1.00  0.00     0.021 C 
BRANCH   2   3
ATOM      3  C   UNL A   1      32.732  32.596  27.261  1.00  0.00     0.116 C 
BRANCH   3   4
ATOM      4  N   UNL A   1      32.523  33.984  27.621  1.00  0.00    -0.352 N 
ATOM      5  O   UNL A   1      32.547  35.814  28.911  1.00  0.00    -0.269 OA
ATOM      6  C   UNL A   1      33.060  34.730  28.638  1.00  0.00     0.251 C 
ATOM      7  H   UNL A   1      31.893  34.470  27.041  1.00  0.00     0.163 HD
BRANCH   6   8
ATOM      8  C   UNL A   1      34.235  34.254  29.404  1.00  0.00     0.039 A 
ATOM      9  C   UNL A   1      34.094  33.609  30.638  1.00  0.00     0.014 A 
ATOM     10  C   UNL A   1      35.503  34.369  28.825  1.00  0.00     0.014 A 
ATOM     11  C   UNL A   1      35.222  33.156  31.325  1.00  0.00     0.010 A 
ATOM     12  C   UNL A   1      36.626  33.864  29.487  1.00  0.00     0.010 A 
ATOM     13  C   UNL A   1      36.497  33.259  30.747  1.00  0.00    -0.014 A 
BRANCH  13  14
ATOM     14  C   UNL A   1      37.685  32.660  31.410  1.00  0.00     0.031 A 
ATOM     15  C   UNL A   1      38.403  31.489  30.797  1.00  0.00     0.074 A 
ATOM     16  C   UNL A   1      38.082  33.146  32.604  1.00  0.00     0.049 A 
ATOM     17  N   UNL A   1      39.380  30.773  31.291  1.00  0.00    -0.248 NA
ATOM     18  C   UNL A   1      37.966  31.063  29.457  1.00  0.00     0.031 C 
ATOM     19  C   UNL A   1      37.458  34.268  33.308  1.00  0.00     0.029 A 
ATOM     20  N   UNL A   1      39.089  32.746  33.447  1.00  0.00    -0.354 N 
ATOM     21  C   UNL A   1      39.658  29.796  30.342  1.00  0.00     0.074 A 
ATOM     22  C   UNL A   1      38.741  30.006  29.242  1.00  0.00     0.031 C 
ATOM     23  C   UNL A   1      38.093  34.467  34.473  1.00  0.00     0.029 A 
ATOM     24  C   UNL A   1      39.133  33.457  34.625  1.00  0.00     0.049 A 
ATOM     25  H   UNL A   1      39.718  32.021  33.231  1.00  0.00     0.167 HD
ATOM     26  C   UNL A   1      40.601  28.825  30.380  1.00  0.00     0.034 A 
ATOM     27  C   UNL A   1      39.906  33.297  35.718  1.00  0.00     0.034 A 
ATOM     28  C   UNL A   1      41.531  28.638  31.464  1.00  0.00     0.049 A 
ATOM     29  C   UNL A   1      40.930  32.197  35.733  1.00  0.00     0.074 A 
ATOM     30  C   UNL A   1      42.536  27.693  31.578  1.00  0.00     0.029 A 
ATOM     31  N   UNL A   1      41.575  29.408  32.615  1.00  0.00    -0.354 N 
ATOM     32  N   UNL A   1      41.233  31.338  34.791  1.00  0.00    -0.248 NA
ATOM     33  C   UNL A   1      41.737  32.058  36.954  1.00  0.00     0.031 C 
ATOM     34  C   UNL A   1      43.183  27.884  32.802  1.00  0.00     0.029 A 
ATOM     35  C   UNL A   1      42.593  28.961  33.444  1.00  0.00     0.049 A 
ATOM     36  H   UNL A   1      40.973  30.160  32.816  1.00  0.00     0.167 HD
ATOM     37  C   UNL A   1      42.284  30.578  35.293  1.00  0.00     0.074 A 
ATOM     38  C   UNL A   1      42.587  31.100  36.609  1.00  0.00     0.031 C 
ATOM     39  C   UNL A   1      42.925  29.526  34.725  1.00  0.00     0.034 A 
BRANCH  26  40
ATOM     40  C   UNL A   1      40.733  27.908  29.192  1.00  0.00     0.023 A 
ATOM     41  C   UNL A   1      39.846  26.820  29.063  1.00  0.00     0.012 A 
ATOM     42  C   UNL A   1      41.629  28.199  28.143  1.00  0.00     0.148 A 
ATOM     43  C   UNL A   1      39.850  26.033  27.913  1.00  0.00     0.002 A 
ATOM     44  C   UNL A   1      41.601  27.432  26.984  1.00  0.00     0.091 A 
ATOM     45  F   UNL A   1      42.469  29.232  28.291  1.00  0.00    -0.205 F 
ATOM     46  C   UNL A   1      40.718  26.346  26.870  1.00  0.00     0.022 A 
BRANCH  44  47
ATOM     47  S   UNL A   1      42.618  27.796  25.547  1.00  0.00     0.127 S 
ATOM     48  O   UNL A   1      43.959  27.815  26.131  1.00  0.00    -0.237 OA
ATOM     49  O   UNL A   1      42.345  26.648  24.683  1.00  0.00    -0.237 OA
ATOM     50  O   UNL A   1      42.151  29.076  25.033  1.00  0.00    -0.744 OA
ENDBRANCH  44  47
ENDBRANCH  26  40
BRANCH  27  51
ATOM     51  C   UNL A   1      39.772  34.230  36.874  1.00  0.00     0.023 A 
ATOM     52  C   UNL A   1      40.190  35.567  36.730  1.00  0.00     0.012 A 
ATOM     53  C   UNL A   1      39.225  33.812  38.103  1.00  0.00     0.148 A 
ATOM     54  C   UNL A   1      40.097  36.462  37.795  1.00  0.00     0.002 A 
ATOM     55  C   UNL A   1      39.078  34.724  39.141  1.00  0.00     0.091 A 
ATOM     56  F   UNL A   1      38.853  32.531  38.233  1.00  0.00    -0.205 F 
ATOM     57  C   UNL A   1      39.531  36.044  38.997  1.00  0.00     0.022 A 
BRANCH  55  58
ATOM     58  S   UNL A   1      38.232  34.306  40.670  1.00  0.00     0.127 S 
ATOM     59  O   UNL A   1      37.133  33.474  40.186  1.00  0.00    -0.237 OA
ATOM     60  O   UNL A   1      39.271  33.585  41.408  1.00  0.00    -0.237 OA
ATOM     61  O   UNL A   1      37.855  35.581  41.265  1.00  0.00    -0.744 OA
ENDBRANCH  55  58
ENDBRANCH  27  51
BRANCH  39  62
ATOM     62  C   UNL A   1      44.038  28.882  35.509  1.00  0.00     0.023 A 
ATOM     63  C   UNL A   1      45.340  29.413  35.435  1.00  0.00     0.012 A 
ATOM     64  C   UNL A   1      43.783  27.796  36.369  1.00  0.00     0.148 A 
ATOM     65  C   UNL A   1      46.380  28.852  36.176  1.00  0.00     0.002 A 
ATOM     66  C   UNL A   1      44.813  27.274  37.143  1.00  0.00     0.091 A 
ATOM     67  F   UNL A   1      42.542  27.289  36.413  1.00  0.00    -0.205 F 
ATOM     68  C   UNL A   1      46.113  27.791  37.039  1.00  0.00     0.022 A 
BRANCH  66  69
ATOM     69  S   UNL A   1      44.536  25.974  38.353  1.00  0.00     0.127 S 
ATOM     70  O   UNL A   1      45.873  25.398  38.484  1.00  0.00    -0.237 OA
ATOM     71  O   UNL A   1      44.078  26.724  39.522  1.00  0.00    -0.237 OA
ATOM     72  O   UNL A   1      43.528  25.098  37.769  1.00  0.00    -0.744 OA
ENDBRANCH  66  69
ENDBRANCH  39  62
ENDBRANCH  13  14
ENDBRANCH   6   8
ENDBRANCH   3   4
ENDBRANCH   2   3
ENDBRANCH   1   2
BRANCH   1  73
ATOM     73  C   UNL A   1      32.720  29.810  26.011  1.00  0.00     0.002 C 
BRANCH  73  74
ATOM     74  C   UNL A   1      32.375  28.542  26.793  1.00  0.00     0.021 C 
BRANCH  74  75
ATOM     75  C   UNL A   1      31.596  27.498  26.007  1.00  0.00     0.116 C 
BRANCH  75  76
ATOM     76  N   UNL A   1      32.141  27.204  24.702  1.00  0.00    -0.354 N 
ATOM     77  C   UNL A   1      32.917  26.159  24.300  1.00  0.00     0.243 C 
ATOM     78  H   UNL A   1      31.920  27.857  23.999  1.00  0.00     0.163 HD
ATOM     79  O   UNL A   1      33.002  25.964  23.081  1.00  0.00    -0.273 OA
BRANCH  77  80
ATOM     80  C   UNL A   1      33.605  25.167  25.276  1.00  0.00     0.181 C 
ATOM     81  C   UNL A   1      34.744  24.374  24.648  1.00  0.00     0.105 C 
ATOM     82  N   UNL A   1      32.706  24.387  26.111  1.00  0.00    -0.343 N 
ATOM     83  S   UNL A   1      34.219  22.831  23.860  1.00  0.00    -0.146 SA
ATOM     84  C   UNL A   1      32.472  23.051  26.115  1.00  0.00     0.234 C 
ATOM     85  H   UNL A   1      32.190  24.905  26.770  1.00  0.00     0.164 HD
ATOM     86  C   UNL A   1      33.246  22.068  25.226  1.00  0.00     0.140 C 
ATOM     87  O   UNL A   1      31.614  22.653  26.910  1.00  0.00    -0.274 OA
BRANCH  86  88
ATOM     88  C   UNL A   1      32.212  21.053  24.673  1.00  0.00     0.060 C 
BRANCH  88  89
ATOM     89  C   UNL A   1      32.763  19.751  24.147  1.00  0.00    -0.043 A 
ATOM     90  C   UNL A   1      32.130  19.082  23.091  1.00  0.00     0.004 A 
ATOM     91  C   UNL A   1      33.921  19.194  24.707  1.00  0.00     0.043 A 
ATOM     92  C   UNL A   1      32.641  17.872  22.614  1.00  0.00     0.003 A 
ATOM     93  C   UNL A   1      34.420  17.990  24.224  1.00  0.00     0.123 A 
ATOM     94  C   UNL A   1      33.788  17.323  23.183  1.00  0.00     0.039 A 
ATOM     95  F   UNL A   1      35.523  17.468  24.777  1.00  0.00    -0.207 F 
ENDBRANCH  88  89
ENDBRANCH  86  88
ENDBRANCH  77  80
ENDBRANCH  75  76
ENDBRANCH  74  75
ENDBRANCH  73  74
ENDBRANCH   1  73
TORSDOF 18
ENDMDL
MODEL 2
REMARK VINA RESULT:     -11.7      1.038      7.783
REMARK SMILES O=C(NCCCCCCNC(=O)[C@@H]1CS[C@H](Cc2cccc(F)c2)C(=O)N1)c1ccc(-c2c3nc(c(-c4cccc(S(=O)(=O)[O-])c4F)c4ccc([nH]4)c(-c4cccc(S(=O)(=O)[O-])c4F)c4nc(c(-c5cccc(S(=O)(=O)[O-])c5F)c5ccc2[nH]5)C=C4)C=C3)cc1
REMARK SMILES IDX 6 1 5 2 4 3 3 4 1 5 2 6 28 8 29 9 90 10 30 11 89 12 31 13
REMARK SMILES IDX 32 14 33 15 83 16 34 17 88 18 82 19 84 20 35 21 87 22 81 23
REMARK SMILES IDX 80 24 36 26 68 27 48 28 67 29 49 30 52 31 66 32 85 33 50 34
REMARK SMILES IDX 51 35 65 37 86 38 53 39 37 40 38 41 46 42 39 43 41 44 47 45
REMARK SMILES IDX 40 46 42 47 43 48 44 49 45 50 69 51 70 52 78 53 71 54 73 55
REMARK SMILES IDX 79 56 72 57 74 58 75 59 76 60 77 61 54 62 55 63 63 64 56 65
REMARK SMILES IDX 58 66 64 67 57 68 59 69 60 70 61 71 62 72 7 73 8 74 9 75
REMARK SMILES IDX 10 76 11 77 12 79 13 80 14 81 27 82 15 83 25 84 16 86 26 87
REMARK SMILES IDX 17 88 18 89 19 90 24 91 20 92 22 93 21 94 23 95
REMARK H PARENT 3 7 84 25 52 36 10 78 27 85
REMARK Flexibility Score: inf
ROOT
ATOM      1  C   UNL A   1      31.406  30.879  25.751  1.00  0.00     0.002 C 
ENDROOT
BRANCH   1   2
ATOM      2  C   UNL A   1      31.390  32.016  26.779  1.00  0.00     0.021 C 
BRANCH   2   3
ATOM      3  C   UNL A   1      32.762  32.500  27.246  1.00  0.00     0.116 C 
BRANCH   3   4
ATOM      4  N   UNL A   1      32.742  33.902  27.616  1.00  0.00    -0.352 N 
ATOM      5  O   UNL A   1      32.998  35.700  28.926  1.00  0.00    -0.269 OA
ATOM      6  C   UNL A   1      33.359  34.557  28.650  1.00  0.00     0.251 C 
ATOM      7  H   UNL A   1      32.197  34.476  27.030  1.00  0.00     0.163 HD
BRANCH   6   8
ATOM      8  C   UNL A   1      34.441  33.914  29.432  1.00  0.00     0.039 A 
ATOM      9  C   UNL A   1      34.165  32.982  30.438  1.00  0.00     0.014 A 
ATOM     10  C   UNL A   1      35.768  34.181  29.081  1.00  0.00     0.014 A 
ATOM     11  C   UNL A   1      35.210  32.382  31.143  1.00  0.00     0.010 A 
ATOM     12  C   UNL A   1      36.814  33.536  29.749  1.00  0.00     0.010 A 
ATOM     13  C   UNL A   1      36.544  32.636  30.791  1.00  0.00    -0.014 A 
BRANCH  13  14
ATOM     14  C   UNL A   1      37.658  31.900  31.446  1.00  0.00     0.031 A 
ATOM     15  C   UNL A   1      38.160  32.309  32.804  1.00  0.00     0.074 A 
ATOM     16  C   UNL A   1      38.256  30.891  30.781  1.00  0.00     0.049 A 
ATOM     17  N   UNL A   1      39.190  31.856  33.471  1.00  0.00    -0.248 NA
ATOM     18  C   UNL A   1      37.409  33.364  33.505  1.00  0.00     0.031 C 
ATOM     19  C   UNL A   1      37.871  30.412  29.452  1.00  0.00     0.029 A 
ATOM     20  N   UNL A   1      39.327  30.101  31.120  1.00  0.00    -0.354 N 
ATOM     21  C   UNL A   1      39.234  32.586  34.653  1.00  0.00     0.074 A 
ATOM     22  C   UNL A   1      38.127  33.519  34.612  1.00  0.00     0.031 C 
ATOM     23  C   UNL A   1      38.691  29.413  29.088  1.00  0.00     0.029 A 
ATOM     24  C   UNL A   1      39.691  29.216  30.131  1.00  0.00     0.049 A 
ATOM     25  H   UNL A   1      39.790  30.162  31.986  1.00  0.00     0.167 HD
ATOM     26  C   UNL A   1      40.107  32.477  35.683  1.00  0.00     0.034 A 
ATOM     27  C   UNL A   1      40.729  28.359  30.058  1.00  0.00     0.034 A 
ATOM     28  C   UNL A   1      41.189  31.527  35.732  1.00  0.00     0.049 A 
ATOM     29  C   UNL A   1      41.689  28.277  31.212  1.00  0.00     0.074 A 
ATOM     30  C   UNL A   1      42.111  31.330  36.746  1.00  0.00     0.029 A 
ATOM     31  N   UNL A   1      41.494  30.616  34.733  1.00  0.00    -0.354 N 
ATOM     32  N   UNL A   1      41.663  28.916  32.355  1.00  0.00    -0.248 NA
ATOM     33  C   UNL A   1      42.811  27.337  31.075  1.00  0.00     0.031 C 
ATOM     34  C   UNL A   1      42.980  30.306  36.357  1.00  0.00     0.029 A 
ATOM     35  C   UNL A   1      42.588  29.852  35.108  1.00  0.00     0.049 A 
ATOM     36  H   UNL A   1      41.006  30.525  33.883  1.00  0.00     0.167 HD
ATOM     37  C   UNL A   1      42.743  28.435  33.085  1.00  0.00     0.074 A 
ATOM     38  C   UNL A   1      43.385  27.426  32.267  1.00  0.00     0.031 C 
ATOM     39  C   UNL A   1      43.181  28.810  34.312  1.00  0.00     0.034 A 
BRANCH  26  40
ATOM     40  C   UNL A   1      39.911  33.363  36.885  1.00  0.00     0.023 A 
ATOM     41  C   UNL A   1      40.399  34.685  36.850  1.00  0.00     0.012 A 
ATOM     42  C   UNL A   1      39.130  32.942  37.980  1.00  0.00     0.148 A 
ATOM     43  C   UNL A   1      40.118  35.573  37.887  1.00  0.00     0.002 A 
ATOM     44  C   UNL A   1      38.823  33.844  38.992  1.00  0.00     0.091 A 
ATOM     45  F   UNL A   1      38.684  31.678  37.997  1.00  0.00    -0.205 F 
ATOM     46  C   UNL A   1      39.322  35.157  38.951  1.00  0.00     0.022 A 
BRANCH  44  47
ATOM     47  S   UNL A   1      37.739  33.439  40.368  1.00  0.00     0.127 S 
ATOM     48  O   UNL A   1      36.489  33.124  39.676  1.00  0.00    -0.237 OA
ATOM     49  O   UNL A   1      38.416  32.285  40.959  1.00  0.00    -0.237 OA
ATOM     50  O   UNL A   1      37.694  34.624  41.211  1.00  0.00    -0.744 OA
ENDBRANCH  44  47
ENDBRANCH  26  40
BRANCH  27  51
ATOM     51  C   UNL A   1      40.891  27.477  28.866  1.00  0.00     0.023 A 
ATOM     52  C   UNL A   1      40.048  26.358  28.720  1.00  0.00     0.012 A 
ATOM     53  C   UNL A   1      41.857  27.741  27.876  1.00  0.00     0.148 A 
ATOM     54  C   UNL A   1      40.184  25.501  27.629  1.00  0.00     0.002 A 
ATOM     55  C   UNL A   1      41.946  26.918  26.759  1.00  0.00     0.091 A 
ATOM     56  F   UNL A   1      42.667  28.796  28.040  1.00  0.00    -0.205 F 
ATOM     57  C   UNL A   1      41.125  25.787  26.642  1.00  0.00     0.022 A 
BRANCH  55  58
ATOM     58  S   UNL A   1      43.032  27.294  25.377  1.00  0.00     0.127 S 
ATOM     59  O   UNL A   1      43.125  25.999  24.708  1.00  0.00    -0.237 OA
ATOM     60  O   UNL A   1      42.264  28.308  24.652  1.00  0.00    -0.237 OA
ATOM     61  O   UNL A   1      44.261  27.794  25.977  1.00  0.00    -0.744 OA
ENDBRANCH  55  58
ENDBRANCH  27  51
BRANCH  39  62
ATOM     62  C   UNL A   1      44.396  28.111  34.864  1.00  0.00     0.023 A 
ATOM     63  C   UNL A   1      45.672  28.676  34.672  1.00  0.00     0.012 A 
ATOM     64  C   UNL A   1      44.269  26.934  35.628  1.00  0.00     0.148 A 
ATOM     65  C   UNL A   1      46.807  28.062  35.200  1.00  0.00     0.002 A 
ATOM     66  C   UNL A   1      45.399  26.356  36.194  1.00  0.00     0.091 A 
ATOM     67  F   UNL A   1      43.049  26.399  35.784  1.00  0.00    -0.205 F 
ATOM     68  C   UNL A   1      46.669  26.910  35.971  1.00  0.00     0.022 A 
BRANCH  66  69
ATOM     69  S   UNL A   1      45.300  24.929  37.282  1.00  0.00     0.127 S 
ATOM     70  O   UNL A   1      44.808  23.894  36.374  1.00  0.00    -0.237 OA
ATOM     71  O   UNL A   1      46.691  24.757  37.704  1.00  0.00    -0.237 OA
ATOM     72  O   UNL A   1      44.391  25.311  38.354  1.00  0.00    -0.744 OA
ENDBRANCH  66  69
ENDBRANCH  39  62
ENDBRANCH  13  14
ENDBRANCH   6   8
ENDBRANCH   3   4
ENDBRANCH   2   3
ENDBRANCH   1   2
BRANCH   1  73
ATOM     73  C   UNL A   1      32.278  29.664  26.095  1.00  0.00     0.002 C 
BRANCH  73  74
ATOM     74  C   UNL A   1      31.792  28.798  27.257  1.00  0.00     0.021 C 
BRANCH  74  75
ATOM     75  C   UNL A   1      31.499  27.349  26.896  1.00  0.00     0.116 C 
BRANCH  75  76
ATOM     76  N   UNL A   1      32.133  26.898  25.679  1.00  0.00    -0.354 N 
ATOM     77  C   UNL A   1      32.547  25.649  25.326  1.00  0.00     0.243 C 
ATOM     78  H   UNL A   1      32.290  27.599  25.004  1.00  0.00     0.163 HD
ATOM     79  O   UNL A   1      32.778  25.456  24.125  1.00  0.00    -0.273 OA
BRANCH  77  80
ATOM     80  C   UNL A   1      32.649  24.460  26.317  1.00  0.00     0.181 C 
ATOM     81  C   UNL A   1      34.059  23.903  26.472  1.00  0.00     0.105 C 
ATOM     82  N   UNL A   1      31.607  23.454  26.195  1.00  0.00    -0.343 N 
ATOM     83  S   UNL A   1      34.473  22.607  25.277  1.00  0.00    -0.146 SA
ATOM     84  C   UNL A   1      31.698  22.157  25.809  1.00  0.00     0.234 C 
ATOM     85  H   UNL A   1      30.699  23.759  26.427  1.00  0.00     0.164 HD
ATOM     86  C   UNL A   1      33.037  21.474  25.497  1.00  0.00     0.140 C 
ATOM     87  O   UNL A   1      30.634  21.531  25.751  1.00  0.00    -0.274 OA
BRANCH  86  88
ATOM     88  C   UNL A   1      32.815  20.605  24.231  1.00  0.00     0.060 C 
BRANCH  88  89
ATOM     89  C   UNL A   1      32.987  19.116  24.400  1.00  0.00    -0.043 A 
ATOM     90  C   UNL A   1      32.632  18.486  25.599  1.00  0.00     0.004 A 
ATOM     91  C   UNL A   1      33.505  18.340  23.352  1.00  0.00     0.043 A 
ATOM     92  C   UNL A   1      32.803  17.109  25.752  1.00  0.00     0.003 A 
ATOM     93  C   UNL A   1      33.671  16.970  23.516  1.00  0.00     0.123 A 
ATOM     94  C   UNL A   1      33.326  16.348  24.708  1.00  0.00     0.039 A 
ATOM     95  F   UNL A   1      34.175  16.245  22.508  1.00  0.00    -0.207 F 
ENDBRANCH  88  89
ENDBRANCH  86  88
ENDBRANCH  77  80
ENDBRANCH  75  76
ENDBRANCH  74  75
ENDBRANCH  73  74
ENDBRANCH   1  73
TORSDOF 18
ENDMDL
MODEL 3
REMARK VINA RESULT:     -11.6      6.595     11.091
REMARK SMILES O=C(NCCCCCCNC(=O)[C@@H]1CS[C@H](Cc2cccc(F)c2)C(=O)N1)c1ccc(-c2c3nc(c(-c4cccc(S(=O)(=O)[O-])c4F)c4ccc([nH]4)c(-c4cccc(S(=O)(=O)[O-])c4F)c4nc(c(-c5cccc(S(=O)(=O)[O-])c5F)c5ccc2[nH]5)C=C4)C=C3)cc1
REMARK SMILES IDX 6 1 5 2 4 3 3 4 1 5 2 6 28 8 29 9 90 10 30 11 89 12 31 13
REMARK SMILES IDX 32 14 33 15 83 16 34 17 88 18 82 19 84 20 35 21 87 22 81 23
REMARK SMILES IDX 80 24 36 26 68 27 48 28 67 29 49 30 52 31 66 32 85 33 50 34
REMARK SMILES IDX 51 35 65 37 86 38 53 39 37 40 38 41 46 42 39 43 41 44 47 45
REMARK SMILES IDX 40 46 42 47 43 48 44 49 45 50 69 51 70 52 78 53 71 54 73 55
REMARK SMILES IDX 79 56 72 57 74 58 75 59 76 60 77 61 54 62 55 63 63 64 56 65
REMARK SMILES IDX 58 66 64 67 57 68 59 69 60 70 61 71 62 72 7 73 8 74 9 75
REMARK SMILES IDX 10 76 11 77 12 79 13 80 14 81 27 82 15 83 25 84 16 86 26 87
REMARK SMILES IDX 17 88 18 89 19 90 24 91 20 92 22 93 21 94 23 95
REMARK H PARENT 3 7 84 25 52 36 10 78 27 85
REMARK Flexibility Score: inf
ROOT
ATOM      1  C   UNL A   1      42.065  21.329  27.645  1.00  0.00     0.002 C 
ENDROOT
BRANCH   1   2
ATOM      2  C   UNL A   1      42.169  19.857  27.228  1.00  0.00     0.021 C 
BRANCH   2   3
ATOM      3  C   UNL A   1      41.989  19.581  25.737  1.00  0.00     0.116 C 
BRANCH   3   4
ATOM      4  N   UNL A   1      43.164  18.959  25.157  1.00  0.00    -0.352 N 
ATOM      5  O   UNL A   1      45.055  18.816  23.968  1.00  0.00    -0.269 OA
ATOM      6  C   UNL A   1      44.302  19.519  24.638  1.00  0.00     0.251 C 
ATOM      7  H   UNL A   1      43.139  17.975  25.131  1.00  0.00     0.163 HD
BRANCH   6   8
ATOM      8  C   UNL A   1      44.634  20.945  24.872  1.00  0.00     0.039 A 
ATOM      9  C   UNL A   1      44.218  21.948  23.990  1.00  0.00     0.014 A 
ATOM     10  C   UNL A   1      45.293  21.293  26.055  1.00  0.00     0.014 A 
ATOM     11  C   UNL A   1      44.532  23.283  24.250  1.00  0.00     0.010 A 
ATOM     12  C   UNL A   1      45.556  22.636  26.343  1.00  0.00     0.010 A 
ATOM     13  C   UNL A   1      45.185  23.643  25.438  1.00  0.00    -0.014 A 
BRANCH  13  14
ATOM     14  C   UNL A   1      45.404  25.072  25.786  1.00  0.00     0.031 A 
ATOM     15  C   UNL A   1      46.782  25.672  25.752  1.00  0.00     0.074 A 
ATOM     16  C   UNL A   1      44.353  25.815  26.188  1.00  0.00     0.049 A 
ATOM     17  N   UNL A   1      47.170  26.862  26.132  1.00  0.00    -0.248 NA
ATOM     18  C   UNL A   1      47.867  24.827  25.227  1.00  0.00     0.031 C 
ATOM     19  C   UNL A   1      42.970  25.343  26.278  1.00  0.00     0.029 A 
ATOM     20  N   UNL A   1      44.285  27.117  26.619  1.00  0.00    -0.354 N 
ATOM     21  C   UNL A   1      48.544  26.903  25.922  1.00  0.00     0.074 A 
ATOM     22  C   UNL A   1      48.926  25.614  25.385  1.00  0.00     0.031 C 
ATOM     23  C   UNL A   1      42.192  26.337  26.734  1.00  0.00     0.029 A 
ATOM     24  C   UNL A   1      43.025  27.499  27.019  1.00  0.00     0.049 A 
ATOM     25  H   UNL A   1      45.063  27.720  26.640  1.00  0.00     0.167 HD
ATOM     26  C   UNL A   1      49.403  27.927  26.142  1.00  0.00     0.034 A 
ATOM     27  C   UNL A   1      42.591  28.646  27.578  1.00  0.00     0.034 A 
ATOM     28  C   UNL A   1      49.014  29.218  26.649  1.00  0.00     0.049 A 
ATOM     29  C   UNL A   1      43.576  29.755  27.826  1.00  0.00     0.074 A 
ATOM     30  C   UNL A   1      49.814  30.324  26.883  1.00  0.00     0.029 A 
ATOM     31  N   UNL A   1      47.722  29.580  26.996  1.00  0.00    -0.354 N 
ATOM     32  N   UNL A   1      44.854  29.803  27.541  1.00  0.00    -0.248 NA
ATOM     33  C   UNL A   1      43.053  30.979  28.450  1.00  0.00     0.031 C 
ATOM     34  C   UNL A   1      49.009  31.352  27.380  1.00  0.00     0.029 A 
ATOM     35  C   UNL A   1      47.702  30.893  27.438  1.00  0.00     0.049 A 
ATOM     36  H   UNL A   1      46.935  28.992  26.936  1.00  0.00     0.167 HD
ATOM     37  C   UNL A   1      45.281  31.069  27.923  1.00  0.00     0.074 A 
ATOM     38  C   UNL A   1      44.118  31.769  28.429  1.00  0.00     0.031 C 
ATOM     39  C   UNL A   1      46.529  31.599  27.883  1.00  0.00     0.034 A 
BRANCH  26  40
ATOM     40  C   UNL A   1      50.854  27.734  25.785  1.00  0.00     0.023 A 
ATOM     41  C   UNL A   1      51.764  27.357  26.794  1.00  0.00     0.012 A 
ATOM     42  C   UNL A   1      51.287  27.785  24.446  1.00  0.00     0.148 A 
ATOM     43  C   UNL A   1      53.083  27.039  26.477  1.00  0.00     0.002 A 
ATOM     44  C   UNL A   1      52.595  27.430  24.133  1.00  0.00     0.091 A 
ATOM     45  F   UNL A   1      50.408  28.154  23.505  1.00  0.00    -0.205 F 
ATOM     46  C   UNL A   1      53.495  27.063  25.147  1.00  0.00     0.022 A 
BRANCH  44  47
ATOM     47  S   UNL A   1      53.208  27.348  22.445  1.00  0.00     0.127 S 
ATOM     48  O   UNL A   1      53.265  28.764  22.082  1.00  0.00    -0.237 OA
ATOM     49  O   UNL A   1      54.514  26.713  22.626  1.00  0.00    -0.237 OA
ATOM     50  O   UNL A   1      52.239  26.559  21.699  1.00  0.00    -0.744 OA
ENDBRANCH  44  47
ENDBRANCH  26  40
BRANCH  27  51
ATOM     51  C   UNL A   1      41.146  28.822  27.904  1.00  0.00     0.023 A 
ATOM     52  C   UNL A   1      40.237  29.101  26.865  1.00  0.00     0.012 A 
ATOM     53  C   UNL A   1      40.665  28.704  29.222  1.00  0.00     0.148 A 
ATOM     54  C   UNL A   1      38.883  29.291  27.135  1.00  0.00     0.002 A 
ATOM     55  C   UNL A   1      39.304  28.833  29.476  1.00  0.00     0.091 A 
ATOM     56  F   UNL A   1      41.545  28.461  30.204  1.00  0.00    -0.205 F 
ATOM     57  C   UNL A   1      38.414  29.145  28.438  1.00  0.00     0.022 A 
BRANCH  55  58
ATOM     58  S   UNL A   1      38.600  28.522  31.100  1.00  0.00     0.127 S 
ATOM     59  O   UNL A   1      37.215  28.945  30.912  1.00  0.00    -0.237 OA
ATOM     60  O   UNL A   1      38.790  27.078  31.244  1.00  0.00    -0.237 OA
ATOM     61  O   UNL A   1      39.392  29.322  32.024  1.00  0.00    -0.744 OA
ENDBRANCH  55  58
ENDBRANCH  27  51
BRANCH  39  62
ATOM     62  C   UNL A   1      46.703  33.013  28.371  1.00  0.00     0.023 A 
ATOM     63  C   UNL A   1      47.170  33.245  29.680  1.00  0.00     0.012 A 
ATOM     64  C   UNL A   1      46.470  34.108  27.516  1.00  0.00     0.148 A 
ATOM     65  C   UNL A   1      47.368  34.546  30.142  1.00  0.00     0.002 A 
ATOM     66  C   UNL A   1      46.718  35.399  27.967  1.00  0.00     0.091 A 
ATOM     67  F   UNL A   1      46.006  33.870  26.280  1.00  0.00    -0.205 F 
ATOM     68  C   UNL A   1      47.154  35.621  29.283  1.00  0.00     0.022 A 
BRANCH  66  69
ATOM     69  S   UNL A   1      46.564  36.833  26.896  1.00  0.00     0.127 S 
ATOM     70  O   UNL A   1      47.369  36.433  25.743  1.00  0.00    -0.237 OA
ATOM     71  O   UNL A   1      45.124  36.885  26.644  1.00  0.00    -0.237 OA
ATOM     72  O   UNL A   1      47.080  37.959  27.664  1.00  0.00    -0.744 OA
ENDBRANCH  66  69
ENDBRANCH  39  62
ENDBRANCH  13  14
ENDBRANCH   6   8
ENDBRANCH   3   4
ENDBRANCH   2   3
ENDBRANCH   1   2
BRANCH   1  73
ATOM     73  C   UNL A   1      41.269  22.245  26.707  1.00  0.00     0.002 C 
BRANCH  73  74
ATOM     74  C   UNL A   1      40.023  22.899  27.305  1.00  0.00     0.021 C 
BRANCH  74  75
ATOM     75  C   UNL A   1      38.916  23.202  26.306  1.00  0.00     0.116 C 
BRANCH  75  76
ATOM     76  N   UNL A   1      37.965  22.131  26.128  1.00  0.00    -0.354 N 
ATOM     77  C   UNL A   1      36.777  22.126  25.460  1.00  0.00     0.243 C 
ATOM     78  H   UNL A   1      38.211  21.277  26.553  1.00  0.00     0.163 HD
ATOM     79  O   UNL A   1      36.293  21.019  25.189  1.00  0.00    -0.273 OA
BRANCH  77  80
ATOM     80  C   UNL A   1      36.066  23.408  24.950  1.00  0.00     0.181 C 
ATOM     81  C   UNL A   1      35.156  24.061  25.983  1.00  0.00     0.105 C 
ATOM     82  N   UNL A   1      35.507  23.322  23.611  1.00  0.00    -0.343 N 
ATOM     83  S   UNL A   1      33.460  23.428  25.973  1.00  0.00    -0.146 SA
ATOM     84  C   UNL A   1      34.211  23.356  23.213  1.00  0.00     0.234 C 
ATOM     85  H   UNL A   1      36.166  23.223  22.886  1.00  0.00     0.164 HD
ATOM     86  C   UNL A   1      33.047  23.597  24.185  1.00  0.00     0.140 C 
ATOM     87  O   UNL A   1      34.011  23.217  22.001  1.00  0.00    -0.274 OA
BRANCH  86  88
ATOM     88  C   UNL A   1      31.914  22.617  23.780  1.00  0.00     0.060 C 
BRANCH  88  89
ATOM     89  C   UNL A   1      32.224  21.146  23.898  1.00  0.00    -0.043 A 
ATOM     90  C   UNL A   1      32.590  20.589  25.130  1.00  0.00     0.004 A 
ATOM     91  C   UNL A   1      32.148  20.313  22.772  1.00  0.00     0.043 A 
ATOM     92  C   UNL A   1      32.885  19.227  25.231  1.00  0.00     0.003 A 
ATOM     93  C   UNL A   1      32.444  18.960  22.884  1.00  0.00     0.123 A 
ATOM     94  C   UNL A   1      32.814  18.410  24.104  1.00  0.00     0.039 A 
ATOM     95  F   UNL A   1      32.374  18.181  21.797  1.00  0.00    -0.207 F 
ENDBRANCH  88  89
ENDBRANCH  86  88
ENDBRANCH  77  80
ENDBRANCH  75  76
ENDBRANCH  74  75
ENDBRANCH  73  74
ENDBRANCH   1  73
TORSDOF 18
ENDMDL
