MODEL 1
REMARK VINA RESULT:     -11.1      0.000      0.000
REMARK SMILES CC(C)(C)N(CC(=O)NCCCCCCNC(=O)c1ccc(-c2c3nc(c(-c4cccc(S(=O)(=O)[O-])c4F)c4ccc([nH]4)c(-c4cccc(S(=O)(=O)[O-])c4F)c4nc(c(-c5cccc(S(=O)(=O)[O-])c5F)c5ccc2[nH]5)C=C4)C=C3)cc1)C(=O)N1CC[C@H](O)C1
REMARK SMILES IDX 12 1 11 2 10 3 9 4 7 5 8 6 6 8 5 9 2 10 1 11 3 12 4 13 82 14
REMARK SMILES IDX 83 15 84 16 85 17 89 18 86 19 87 20 88 21 13 23 14 24 15 25
REMARK SMILES IDX 16 26 17 27 18 29 19 30 20 31 81 32 21 33 80 34 22 35 23 36
REMARK SMILES IDX 24 37 74 38 25 39 79 40 73 41 75 42 26 43 78 44 72 45 71 46
REMARK SMILES IDX 27 48 59 49 39 50 58 51 40 52 43 53 57 54 76 55 41 56 42 57
REMARK SMILES IDX 56 59 77 60 44 61 28 62 29 63 37 64 30 65 32 66 38 67 31 68
REMARK SMILES IDX 33 69 34 70 35 71 36 72 60 73 61 74 69 75 62 76 64 77 70 78
REMARK SMILES IDX 63 79 65 80 66 81 67 82 68 83 45 84 46 85 54 86 47 87 49 88
REMARK SMILES IDX 55 89 48 90 50 91 51 92 52 93 53 94
REMARK H PARENT 9 7 88 22 16 28 75 47 43 58
REMARK Flexibility Score: inf
ROOT
ATOM      1  C   UNL A   1      32.571  29.923  26.857  1.00  0.00     0.002 C 
ENDROOT
BRANCH   1   2
ATOM      2  C   UNL A   1      32.139  28.554  27.391  1.00  0.00     0.021 C 
BRANCH   2   3
ATOM      3  C   UNL A   1      32.312  27.397  26.412  1.00  0.00     0.116 C 
BRANCH   3   4
ATOM      4  N   UNL A   1      31.541  26.226  26.738  1.00  0.00    -0.355 N 
ATOM      5  C   UNL A   1      31.864  24.915  26.572  1.00  0.00     0.239 C 
ATOM      6  O   UNL A   1      31.223  24.098  27.247  1.00  0.00    -0.273 OA
ATOM      7  H   UNL A   1      30.657  26.398  27.137  1.00  0.00     0.163 HD
BRANCH   5   8
ATOM      8  C   UNL A   1      33.019  24.418  25.674  1.00  0.00     0.221 C 
BRANCH   8   9
ATOM      9  N   UNL A   1      33.062  23.034  25.154  1.00  0.00    -0.311 N 
BRANCH   9  10
ATOM     10  C   UNL A   1      32.667  22.774  23.696  1.00  0.00     0.037 C 
ATOM     11  C   UNL A   1      31.442  23.594  23.197  1.00  0.00     0.034 C 
ATOM     12  C   UNL A   1      32.328  21.284  23.440  1.00  0.00     0.034 C 
ATOM     13  C   UNL A   1      33.825  23.185  22.749  1.00  0.00     0.034 C 
ENDBRANCH   9  10
BRANCH   9  14
ATOM     14  C   UNL A   1      33.826  22.044  25.802  1.00  0.00     0.321 C 
ATOM     15  O   UNL A   1      33.329  21.204  26.553  1.00  0.00    -0.248 OA
BRANCH  14  16
ATOM     16  N   UNL A   1      35.140  21.885  25.424  1.00  0.00    -0.322 N 
ATOM     17  C   UNL A   1      35.609  20.560  25.031  1.00  0.00     0.124 C 
ATOM     18  C   UNL A   1      36.283  22.653  25.877  1.00  0.00     0.153 C 
ATOM     19  C   UNL A   1      37.125  20.683  24.870  1.00  0.00     0.055 C 
ATOM     20  C   UNL A   1      37.387  22.185  24.934  1.00  0.00     0.135 C 
BRANCH  20  21
ATOM     21  O   UNL A   1      38.700  22.471  25.383  1.00  0.00    -0.391 OA
ATOM     22  H   UNL A   1      39.131  21.649  25.664  1.00  0.00     0.211 HD
ENDBRANCH  20  21
ENDBRANCH  14  16
ENDBRANCH   9  14
ENDBRANCH   8   9
ENDBRANCH   5   8
ENDBRANCH   3   4
ENDBRANCH   2   3
ENDBRANCH   1   2
BRANCH   1  23
ATOM     23  C   UNL A   1      31.475  30.740  26.162  1.00  0.00     0.002 C 
BRANCH  23  24
ATOM     24  C   UNL A   1      31.386  32.218  26.555  1.00  0.00     0.021 C 
BRANCH  24  25
ATOM     25  C   UNL A   1      32.580  32.758  27.337  1.00  0.00     0.116 C 
BRANCH  25  26
ATOM     26  N   UNL A   1      32.414  34.159  27.685  1.00  0.00    -0.352 N 
ATOM     27  C   UNL A   1      33.043  34.903  28.652  1.00  0.00     0.251 C 
ATOM     28  H   UNL A   1      31.752  34.648  27.145  1.00  0.00     0.163 HD
ATOM     29  O   UNL A   1      32.617  36.020  28.932  1.00  0.00    -0.269 OA
BRANCH  27  30
ATOM     30  C   UNL A   1      34.222  34.363  29.365  1.00  0.00     0.039 A 
ATOM     31  C   UNL A   1      34.030  33.694  30.578  1.00  0.00     0.014 A 
ATOM     32  C   UNL A   1      35.514  34.538  28.861  1.00  0.00     0.014 A 
ATOM     33  C   UNL A   1      35.128  33.160  31.258  1.00  0.00     0.010 A 
ATOM     34  C   UNL A   1      36.598  33.942  29.503  1.00  0.00     0.010 A 
ATOM     35  C   UNL A   1      36.419  33.255  30.713  1.00  0.00    -0.014 A 
BRANCH  35  36
ATOM     36  C   UNL A   1      37.590  32.639  31.391  1.00  0.00     0.031 A 
ATOM     37  C   UNL A   1      38.308  31.476  30.761  1.00  0.00     0.074 A 
ATOM     38  C   UNL A   1      37.956  33.074  32.613  1.00  0.00     0.049 A 
ATOM     39  N   UNL A   1      39.312  30.777  31.226  1.00  0.00    -0.248 NA
ATOM     40  C   UNL A   1      37.821  31.021  29.448  1.00  0.00     0.031 C 
ATOM     41  C   UNL A   1      37.293  34.142  33.364  1.00  0.00     0.029 A 
ATOM     42  N   UNL A   1      38.957  32.651  33.452  1.00  0.00    -0.354 N 
ATOM     43  C   UNL A   1      39.553  29.782  30.285  1.00  0.00     0.074 A 
ATOM     44  C   UNL A   1      38.569  29.948  29.237  1.00  0.00     0.031 C 
ATOM     45  C   UNL A   1      37.904  34.293  34.549  1.00  0.00     0.029 A 
ATOM     46  C   UNL A   1      38.982  33.313  34.658  1.00  0.00     0.049 A 
ATOM     47  H   UNL A   1      39.597  31.941  33.213  1.00  0.00     0.167 HD
ATOM     48  C   UNL A   1      40.520  28.835  30.278  1.00  0.00     0.034 A 
ATOM     49  C   UNL A   1      39.776  33.146  35.734  1.00  0.00     0.034 A 
ATOM     50  C   UNL A   1      41.522  28.700  31.301  1.00  0.00     0.049 A 
ATOM     51  C   UNL A   1      40.866  32.110  35.685  1.00  0.00     0.074 A 
ATOM     52  C   UNL A   1      42.599  27.830  31.341  1.00  0.00     0.029 A 
ATOM     53  N   UNL A   1      41.568  29.445  32.469  1.00  0.00    -0.354 N 
ATOM     54  N   UNL A   1      41.179  31.285  34.715  1.00  0.00    -0.248 NA
ATOM     55  C   UNL A   1      41.738  32.005  36.864  1.00  0.00     0.031 C 
ATOM     56  C   UNL A   1      43.280  28.032  32.547  1.00  0.00     0.029 A 
ATOM     57  C   UNL A   1      42.645  29.048  33.243  1.00  0.00     0.049 A 
ATOM     58  H   UNL A   1      40.928  30.151  32.713  1.00  0.00     0.167 HD
ATOM     59  C   UNL A   1      42.301  30.591  35.150  1.00  0.00     0.074 A 
ATOM     60  C   UNL A   1      42.628  31.107  36.463  1.00  0.00     0.031 C 
ATOM     61  C   UNL A   1      42.991  29.605  34.525  1.00  0.00     0.034 A 
BRANCH  48  62
ATOM     62  C   UNL A   1      40.575  27.897  29.100  1.00  0.00     0.023 A 
ATOM     63  C   UNL A   1      39.634  26.852  28.997  1.00  0.00     0.012 A 
ATOM     64  C   UNL A   1      41.513  28.084  28.066  1.00  0.00     0.148 A 
ATOM     65  C   UNL A   1      39.648  25.985  27.904  1.00  0.00     0.002 A 
ATOM     66  C   UNL A   1      41.492  27.246  26.957  1.00  0.00     0.091 A 
ATOM     67  F   UNL A   1      42.412  29.071  28.189  1.00  0.00    -0.205 F 
ATOM     68  C   UNL A   1      40.570  26.189  26.881  1.00  0.00     0.022 A 
BRANCH  66  69
ATOM     69  S   UNL A   1      42.582  27.473  25.548  1.00  0.00     0.127 S 
ATOM     70  O   UNL A   1      42.375  26.228  24.809  1.00  0.00    -0.237 OA
ATOM     71  O   UNL A   1      42.016  28.662  24.909  1.00  0.00    -0.237 OA
ATOM     72  O   UNL A   1      43.918  27.656  26.098  1.00  0.00    -0.744 OA
ENDBRANCH  66  69
ENDBRANCH  48  62
BRANCH  49  73
ATOM     73  C   UNL A   1      39.609  34.023  36.926  1.00  0.00     0.023 A 
ATOM     74  C   UNL A   1      39.989  35.377  36.850  1.00  0.00     0.012 A 
ATOM     75  C   UNL A   1      39.052  33.533  38.125  1.00  0.00     0.148 A 
ATOM     76  C   UNL A   1      39.852  36.219  37.954  1.00  0.00     0.002 A 
ATOM     77  C   UNL A   1      38.866  34.391  39.202  1.00  0.00     0.091 A 
ATOM     78  F   UNL A   1      38.705  32.239  38.181  1.00  0.00    -0.205 F 
ATOM     79  C   UNL A   1      39.282  35.729  39.126  1.00  0.00     0.022 A 
BRANCH  77  80
ATOM     80  S   UNL A   1      38.018  33.882  40.703  1.00  0.00     0.127 S 
ATOM     81  O   UNL A   1      38.962  32.922  41.269  1.00  0.00    -0.237 OA
ATOM     82  O   UNL A   1      37.909  35.145  41.432  1.00  0.00    -0.237 OA
ATOM     83  O   UNL A   1      36.742  33.331  40.266  1.00  0.00    -0.744 OA
ENDBRANCH  77  80
ENDBRANCH  49  73
BRANCH  61  84
ATOM     84  C   UNL A   1      44.195  29.038  35.231  1.00  0.00     0.023 A 
ATOM     85  C   UNL A   1      45.472  29.586  34.996  1.00  0.00     0.012 A 
ATOM     86  C   UNL A   1      44.049  28.012  36.186  1.00  0.00     0.148 A 
ATOM     87  C   UNL A   1      46.589  29.098  35.674  1.00  0.00     0.002 A 
ATOM     88  C   UNL A   1      45.159  27.566  36.894  1.00  0.00     0.091 A 
ATOM     89  F   UNL A   1      42.829  27.492  36.384  1.00  0.00    -0.205 F 
ATOM     90  C   UNL A   1      46.431  28.098  36.631  1.00  0.00     0.022 A 
BRANCH  88  91
ATOM     91  S   UNL A   1      45.035  26.353  38.214  1.00  0.00     0.127 S 
ATOM     92  O   UNL A   1      46.415  25.877  38.310  1.00  0.00    -0.237 OA
ATOM     93  O   UNL A   1      44.592  27.169  39.345  1.00  0.00    -0.237 OA
ATOM     94  O   UNL A   1      44.064  25.365  37.764  1.00  0.00    -0.744 OA
ENDBRANCH  88  91
ENDBRANCH  61  84
ENDBRANCH  35  36
ENDBRANCH  27  30
ENDBRANCH  25  26
ENDBRANCH  24  25
ENDBRANCH  23  24
ENDBRANCH   1  23
TORSDOF 21
ENDMDL
MODEL 2
REMARK VINA RESULT:     -10.9      6.268     11.660
REMARK SMILES CC(C)(C)N(CC(=O)NCCCCCCNC(=O)c1ccc(-c2c3nc(c(-c4cccc(S(=O)(=O)[O-])c4F)c4ccc([nH]4)c(-c4cccc(S(=O)(=O)[O-])c4F)c4nc(c(-c5cccc(S(=O)(=O)[O-])c5F)c5ccc2[nH]5)C=C4)C=C3)cc1)C(=O)N1CC[C@H](O)C1
REMARK SMILES IDX 12 1 11 2 10 3 9 4 7 5 8 6 6 8 5 9 2 10 1 11 3 12 4 13 82 14
REMARK SMILES IDX 83 15 84 16 85 17 89 18 86 19 87 20 88 21 13 23 14 24 15 25
REMARK SMILES IDX 16 26 17 27 18 29 19 30 20 31 81 32 21 33 80 34 22 35 23 36
REMARK SMILES IDX 24 37 74 38 25 39 79 40 73 41 75 42 26 43 78 44 72 45 71 46
REMARK SMILES IDX 27 48 59 49 39 50 58 51 40 52 43 53 57 54 76 55 41 56 42 57
REMARK SMILES IDX 56 59 77 60 44 61 28 62 29 63 37 64 30 65 32 66 38 67 31 68
REMARK SMILES IDX 33 69 34 70 35 71 36 72 60 73 61 74 69 75 62 76 64 77 70 78
REMARK SMILES IDX 63 79 65 80 66 81 67 82 68 83 45 84 46 85 54 86 47 87 49 88
REMARK SMILES IDX 55 89 48 90 50 91 51 92 52 93 53 94
REMARK H PARENT 9 7 88 22 16 28 75 47 43 58
REMARK Flexibility Score: inf
ROOT
ATOM      1  C   UNL A   1      34.819  19.900  25.004  1.00  0.00     0.002 C 
ENDROOT
BRANCH   1   2
ATOM      2  C   UNL A   1      33.719  20.618  25.791  1.00  0.00     0.021 C 
BRANCH   2   3
ATOM      3  C   UNL A   1      34.146  21.928  26.445  1.00  0.00     0.116 C 
BRANCH   3   4
ATOM      4  N   UNL A   1      33.097  22.595  27.172  1.00  0.00    -0.355 N 
ATOM      5  C   UNL A   1      31.944  23.143  26.702  1.00  0.00     0.239 C 
ATOM      6  O   UNL A   1      31.042  23.328  27.530  1.00  0.00    -0.273 OA
ATOM      7  H   UNL A   1      33.233  22.665  28.145  1.00  0.00     0.163 HD
BRANCH   5   8
ATOM      8  C   UNL A   1      31.681  23.453  25.210  1.00  0.00     0.221 C 
BRANCH   8   9
ATOM      9  N   UNL A   1      32.156  24.704  24.579  1.00  0.00    -0.311 N 
BRANCH   9  10
ATOM     10  C   UNL A   1      33.464  24.687  23.783  1.00  0.00     0.037 C 
ATOM     11  C   UNL A   1      34.748  24.899  24.636  1.00  0.00     0.034 C 
ATOM     12  C   UNL A   1      33.490  25.773  22.678  1.00  0.00     0.034 C 
ATOM     13  C   UNL A   1      33.664  23.300  23.115  1.00  0.00     0.034 C 
ENDBRANCH   9  10
BRANCH   9  14
ATOM     14  C   UNL A   1      31.267  25.770  24.338  1.00  0.00     0.321 C 
ATOM     15  O   UNL A   1      30.176  25.616  23.786  1.00  0.00    -0.248 OA
BRANCH  14  16
ATOM     16  N   UNL A   1      31.537  26.987  24.921  1.00  0.00    -0.322 N 
ATOM     17  C   UNL A   1      31.691  27.061  26.369  1.00  0.00     0.124 C 
ATOM     18  C   UNL A   1      31.142  28.296  24.441  1.00  0.00     0.153 C 
ATOM     19  C   UNL A   1      31.778  28.550  26.707  1.00  0.00     0.055 C 
ATOM     20  C   UNL A   1      31.933  29.232  25.350  1.00  0.00     0.135 C 
BRANCH  20  21
ATOM     21  O   UNL A   1      31.457  30.565  25.374  1.00  0.00    -0.391 OA
ATOM     22  H   UNL A   1      32.192  31.173  25.197  1.00  0.00     0.211 HD
ENDBRANCH  20  21
ENDBRANCH  14  16
ENDBRANCH   9  14
ENDBRANCH   8   9
ENDBRANCH   5   8
ENDBRANCH   3   4
ENDBRANCH   2   3
ENDBRANCH   1   2
BRANCH   1  23
ATOM     23  C   UNL A   1      36.190  20.586  25.003  1.00  0.00     0.002 C 
BRANCH  23  24
ATOM     24  C   UNL A   1      37.408  19.655  24.998  1.00  0.00     0.021 C 
BRANCH  24  25
ATOM     25  C   UNL A   1      38.721  20.298  25.434  1.00  0.00     0.116 C 
BRANCH  25  26
ATOM     26  N   UNL A   1      39.718  19.305  25.800  1.00  0.00    -0.352 N 
ATOM     27  C   UNL A   1      41.033  19.472  26.154  1.00  0.00     0.251 C 
ATOM     28  H   UNL A   1      39.402  18.373  25.792  1.00  0.00     0.163 HD
ATOM     29  O   UNL A   1      41.772  18.493  26.224  1.00  0.00    -0.269 OA
BRANCH  27  30
ATOM     30  C   UNL A   1      41.567  20.822  26.440  1.00  0.00     0.039 A 
ATOM     31  C   UNL A   1      41.787  21.701  25.376  1.00  0.00     0.014 A 
ATOM     32  C   UNL A   1      41.880  21.214  27.745  1.00  0.00     0.014 A 
ATOM     33  C   UNL A   1      42.272  22.988  25.625  1.00  0.00     0.010 A 
ATOM     34  C   UNL A   1      42.295  22.520  27.998  1.00  0.00     0.010 A 
ATOM     35  C   UNL A   1      42.505  23.418  26.942  1.00  0.00    -0.014 A 
BRANCH  35  36
ATOM     36  C   UNL A   1      42.961  24.803  27.231  1.00  0.00     0.031 A 
ATOM     37  C   UNL A   1      42.038  25.784  27.902  1.00  0.00     0.074 A 
ATOM     38  C   UNL A   1      44.180  25.202  26.817  1.00  0.00     0.049 A 
ATOM     39  N   UNL A   1      42.240  27.045  28.186  1.00  0.00    -0.248 NA
ATOM     40  C   UNL A   1      40.702  25.293  28.280  1.00  0.00     0.031 C 
ATOM     41  C   UNL A   1      45.140  24.369  26.088  1.00  0.00     0.029 A 
ATOM     42  N   UNL A   1      44.810  26.418  26.922  1.00  0.00    -0.354 N 
ATOM     43  C   UNL A   1      41.052  27.507  28.741  1.00  0.00     0.074 A 
ATOM     44  C   UNL A   1      40.122  26.399  28.724  1.00  0.00     0.031 C 
ATOM     45  C   UNL A   1      46.235  25.095  25.814  1.00  0.00     0.029 A 
ATOM     46  C   UNL A   1      46.045  26.453  26.317  1.00  0.00     0.049 A 
ATOM     47  H   UNL A   1      44.414  27.191  27.386  1.00  0.00     0.167 HD
ATOM     48  C   UNL A   1      40.769  28.732  29.244  1.00  0.00     0.034 A 
ATOM     49  C   UNL A   1      46.924  27.465  26.176  1.00  0.00     0.034 A 
ATOM     50  C   UNL A   1      41.709  29.818  29.297  1.00  0.00     0.049 A 
ATOM     51  C   UNL A   1      46.598  28.806  26.776  1.00  0.00     0.074 A 
ATOM     52  C   UNL A   1      41.547  31.069  29.868  1.00  0.00     0.029 A 
ATOM     53  N   UNL A   1      42.983  29.791  28.751  1.00  0.00    -0.354 N 
ATOM     54  N   UNL A   1      45.530  29.175  27.442  1.00  0.00    -0.248 NA
ATOM     55  C   UNL A   1      47.614  29.860  26.640  1.00  0.00     0.031 C 
ATOM     56  C   UNL A   1      42.715  31.807  29.643  1.00  0.00     0.029 A 
ATOM     57  C   UNL A   1      43.615  31.005  28.960  1.00  0.00     0.049 A 
ATOM     58  H   UNL A   1      43.379  29.022  28.283  1.00  0.00     0.167 HD
ATOM     59  C   UNL A   1      45.760  30.489  27.833  1.00  0.00     0.074 A 
ATOM     60  C   UNL A   1      47.078  30.844  27.350  1.00  0.00     0.031 C 
ATOM     61  C   UNL A   1      44.947  31.330  28.519  1.00  0.00     0.034 A 
BRANCH  48  62
ATOM     62  C   UNL A   1      39.396  28.950  29.827  1.00  0.00     0.023 A 
ATOM     63  C   UNL A   1      39.111  28.490  31.130  1.00  0.00     0.012 A 
ATOM     64  C   UNL A   1      38.409  29.661  29.116  1.00  0.00     0.148 A 
ATOM     65  C   UNL A   1      37.857  28.701  31.701  1.00  0.00     0.002 A 
ATOM     66  C   UNL A   1      37.177  29.908  29.710  1.00  0.00     0.091 A 
ATOM     67  F   UNL A   1      38.691  30.074  27.873  1.00  0.00    -0.205 F 
ATOM     68  C   UNL A   1      36.894  29.418  30.996  1.00  0.00     0.022 A 
BRANCH  66  69
ATOM     69  S   UNL A   1      35.898  30.891  28.919  1.00  0.00     0.127 S 
ATOM     70  O   UNL A   1      36.693  31.884  28.197  1.00  0.00    -0.237 OA
ATOM     71  O   UNL A   1      35.235  29.904  28.066  1.00  0.00    -0.237 OA
ATOM     72  O   UNL A   1      35.071  31.418  29.995  1.00  0.00    -0.744 OA
ENDBRANCH  66  69
ENDBRANCH  48  62
BRANCH  49  73
ATOM     73  C   UNL A   1      48.224  27.232  25.487  1.00  0.00     0.023 A 
ATOM     74  C   UNL A   1      49.330  26.778  26.231  1.00  0.00     0.012 A 
ATOM     75  C   UNL A   1      48.365  27.431  24.099  1.00  0.00     0.148 A 
ATOM     76  C   UNL A   1      50.563  26.560  25.613  1.00  0.00     0.002 A 
ATOM     77  C   UNL A   1      49.579  27.158  23.481  1.00  0.00     0.091 A 
ATOM     78  F   UNL A   1      47.303  27.873  23.410  1.00  0.00    -0.205 F 
ATOM     79  C   UNL A   1      50.684  26.740  24.238  1.00  0.00     0.022 A 
BRANCH  77  80
ATOM     80  S   UNL A   1      49.789  27.233  21.698  1.00  0.00     0.127 S 
ATOM     81  O   UNL A   1      49.589  28.655  21.432  1.00  0.00    -0.237 OA
ATOM     82  O   UNL A   1      51.165  26.762  21.536  1.00  0.00    -0.237 OA
ATOM     83  O   UNL A   1      48.782  26.338  21.145  1.00  0.00    -0.744 OA
ENDBRANCH  77  80
ENDBRANCH  49  73
BRANCH  61  84
ATOM     84  C   UNL A   1      45.467  32.710  28.826  1.00  0.00     0.023 A 
ATOM     85  C   UNL A   1      46.175  32.947  30.021  1.00  0.00     0.012 A 
ATOM     86  C   UNL A   1      45.319  33.756  27.892  1.00  0.00     0.148 A 
ATOM     87  C   UNL A   1      46.698  34.209  30.298  1.00  0.00     0.002 A 
ATOM     88  C   UNL A   1      45.887  34.998  28.153  1.00  0.00     0.091 A 
ATOM     89  F   UNL A   1      44.628  33.517  26.769  1.00  0.00    -0.205 F 
ATOM     90  C   UNL A   1      46.565  35.230  29.360  1.00  0.00     0.022 A 
BRANCH  88  91
ATOM     91  S   UNL A   1      45.851  36.341  26.961  1.00  0.00     0.127 S 
ATOM     92  O   UNL A   1      46.340  35.679  25.752  1.00  0.00    -0.237 OA
ATOM     93  O   UNL A   1      44.432  36.693  26.932  1.00  0.00    -0.237 OA
ATOM     94  O   UNL A   1      46.720  37.380  27.498  1.00  0.00    -0.744 OA
ENDBRANCH  88  91
ENDBRANCH  61  84
ENDBRANCH  35  36
ENDBRANCH  27  30
ENDBRANCH  25  26
ENDBRANCH  24  25
ENDBRANCH  23  24
ENDBRANCH   1  23
TORSDOF 21
ENDMDL
MODEL 3
REMARK VINA RESULT:     -10.9      2.394      8.071
REMARK SMILES CC(C)(C)N(CC(=O)NCCCCCCNC(=O)c1ccc(-c2c3nc(c(-c4cccc(S(=O)(=O)[O-])c4F)c4ccc([nH]4)c(-c4cccc(S(=O)(=O)[O-])c4F)c4nc(c(-c5cccc(S(=O)(=O)[O-])c5F)c5ccc2[nH]5)C=C4)C=C3)cc1)C(=O)N1CC[C@H](O)C1
REMARK SMILES IDX 12 1 11 2 10 3 9 4 7 5 8 6 6 8 5 9 2 10 1 11 3 12 4 13 82 14
REMARK SMILES IDX 83 15 84 16 85 17 89 18 86 19 87 20 88 21 13 23 14 24 15 25
REMARK SMILES IDX 16 26 17 27 18 29 19 30 20 31 81 32 21 33 80 34 22 35 23 36
REMARK SMILES IDX 24 37 74 38 25 39 79 40 73 41 75 42 26 43 78 44 72 45 71 46
REMARK SMILES IDX 27 48 59 49 39 50 58 51 40 52 43 53 57 54 76 55 41 56 42 57
REMARK SMILES IDX 56 59 77 60 44 61 28 62 29 63 37 64 30 65 32 66 38 67 31 68
REMARK SMILES IDX 33 69 34 70 35 71 36 72 60 73 61 74 69 75 62 76 64 77 70 78
REMARK SMILES IDX 63 79 65 80 66 81 67 82 68 83 45 84 46 85 54 86 47 87 49 88
REMARK SMILES IDX 55 89 48 90 50 91 51 92 52 93 53 94
REMARK H PARENT 9 7 88 22 16 28 75 47 43 58
REMARK Flexibility Score: inf
ROOT
ATOM      1  C   UNL A   1      33.232  28.094  25.270  1.00  0.00     0.002 C 
ENDROOT
BRANCH   1   2
ATOM      2  C   UNL A   1      33.853  26.982  24.419  1.00  0.00     0.021 C 
BRANCH   2   3
ATOM      3  C   UNL A   1      32.856  26.000  23.815  1.00  0.00     0.116 C 
BRANCH   3   4
ATOM      4  N   UNL A   1      33.416  25.126  22.816  1.00  0.00    -0.355 N 
ATOM      5  C   UNL A   1      33.424  23.766  22.776  1.00  0.00     0.239 C 
ATOM      6  O   UNL A   1      33.629  23.248  21.670  1.00  0.00    -0.273 OA
ATOM      7  H   UNL A   1      33.856  25.576  22.058  1.00  0.00     0.163 HD
BRANCH   5   8
ATOM      8  C   UNL A   1      33.110  22.865  23.991  1.00  0.00     0.221 C 
BRANCH   8   9
ATOM      9  N   UNL A   1      34.126  21.961  24.575  1.00  0.00    -0.311 N 
BRANCH   9  10
ATOM     10  C   UNL A   1      35.546  22.487  24.804  1.00  0.00     0.037 C 
ATOM     11  C   UNL A   1      35.626  23.816  25.610  1.00  0.00     0.034 C 
ATOM     12  C   UNL A   1      36.298  22.738  23.473  1.00  0.00     0.034 C 
ATOM     13  C   UNL A   1      36.361  21.471  25.646  1.00  0.00     0.034 C 
ENDBRANCH   9  10
BRANCH   9  14
ATOM     14  C   UNL A   1      33.739  20.812  25.291  1.00  0.00     0.321 C 
ATOM     15  O   UNL A   1      33.516  20.825  26.503  1.00  0.00    -0.248 OA
BRANCH  14  16
ATOM     16  N   UNL A   1      33.403  19.683  24.578  1.00  0.00    -0.322 N 
ATOM     17  C   UNL A   1      34.367  18.594  24.478  1.00  0.00     0.124 C 
ATOM     18  C   UNL A   1      32.506  19.598  23.443  1.00  0.00     0.153 C 
ATOM     19  C   UNL A   1      33.778  17.603  23.474  1.00  0.00     0.055 C 
ATOM     20  C   UNL A   1      32.348  18.092  23.260  1.00  0.00     0.135 C 
BRANCH  20  21
ATOM     21  O   UNL A   1      31.843  17.705  21.996  1.00  0.00    -0.391 OA
ATOM     22  H   UNL A   1      32.365  16.962  21.654  1.00  0.00     0.211 HD
ENDBRANCH  20  21
ENDBRANCH  14  16
ENDBRANCH   9  14
ENDBRANCH   8   9
ENDBRANCH   5   8
ENDBRANCH   3   4
ENDBRANCH   2   3
ENDBRANCH   1   2
BRANCH   1  23
ATOM     23  C   UNL A   1      31.824  28.537  24.856  1.00  0.00     0.002 C 
BRANCH  23  24
ATOM     24  C   UNL A   1      31.397  29.935  25.316  1.00  0.00     0.021 C 
BRANCH  24  25
ATOM     25  C   UNL A   1      32.022  30.411  26.624  1.00  0.00     0.116 C 
BRANCH  25  26
ATOM     26  N   UNL A   1      32.065  31.861  26.711  1.00  0.00    -0.352 N 
ATOM     27  C   UNL A   1      32.922  32.673  27.410  1.00  0.00     0.251 C 
ATOM     28  H   UNL A   1      31.374  32.331  26.190  1.00  0.00     0.163 HD
ATOM     29  O   UNL A   1      32.668  33.869  27.525  1.00  0.00    -0.269 OA
BRANCH  27  30
ATOM     30  C   UNL A   1      34.143  32.114  28.032  1.00  0.00     0.039 A 
ATOM     31  C   UNL A   1      35.214  32.970  28.306  1.00  0.00     0.014 A 
ATOM     32  C   UNL A   1      34.250  30.750  28.318  1.00  0.00     0.014 A 
ATOM     33  C   UNL A   1      36.369  32.467  28.911  1.00  0.00     0.010 A 
ATOM     34  C   UNL A   1      35.372  30.264  28.985  1.00  0.00     0.010 A 
ATOM     35  C   UNL A   1      36.448  31.114  29.281  1.00  0.00    -0.014 A 
BRANCH  35  36
ATOM     36  C   UNL A   1      37.643  30.574  29.981  1.00  0.00     0.031 A 
ATOM     37  C   UNL A   1      37.989  31.043  31.369  1.00  0.00     0.074 A 
ATOM     38  C   UNL A   1      38.463  29.721  29.335  1.00  0.00     0.049 A 
ATOM     39  N   UNL A   1      39.016  30.726  32.114  1.00  0.00    -0.248 NA
ATOM     40  C   UNL A   1      37.075  32.015  31.992  1.00  0.00     0.031 C 
ATOM     41  C   UNL A   1      38.281  29.250  27.960  1.00  0.00     0.029 A 
ATOM     42  N   UNL A   1      39.632  29.123  29.738  1.00  0.00    -0.354 N 
ATOM     43  C   UNL A   1      38.894  31.482  33.274  1.00  0.00     0.074 A 
ATOM     44  C   UNL A   1      37.709  32.298  33.121  1.00  0.00     0.031 C 
ATOM     45  C   UNL A   1      39.297  28.435  27.635  1.00  0.00     0.029 A 
ATOM     46  C   UNL A   1      40.220  28.350  28.763  1.00  0.00     0.049 A 
ATOM     47  H   UNL A   1      40.013  29.236  30.639  1.00  0.00     0.167 HD
ATOM     48  C   UNL A   1      39.679  31.479  34.378  1.00  0.00     0.034 A 
ATOM     49  C   UNL A   1      41.376  27.658  28.773  1.00  0.00     0.034 A 
ATOM     50  C   UNL A   1      40.832  30.636  34.543  1.00  0.00     0.049 A 
ATOM     51  C   UNL A   1      42.210  27.643  30.025  1.00  0.00     0.074 A 
ATOM     52  C   UNL A   1      41.640  30.493  35.659  1.00  0.00     0.029 A 
ATOM     53  N   UNL A   1      41.350  29.801  33.565  1.00  0.00    -0.354 N 
ATOM     54  N   UNL A   1      41.990  28.239  31.171  1.00  0.00    -0.248 NA
ATOM     55  C   UNL A   1      43.434  26.828  29.998  1.00  0.00     0.031 C 
ATOM     56  C   UNL A   1      42.662  29.591  35.345  1.00  0.00     0.029 A 
ATOM     57  C   UNL A   1      42.473  29.149  34.045  1.00  0.00     0.049 A 
ATOM     58  H   UNL A   1      40.975  29.689  32.663  1.00  0.00     0.167 HD
ATOM     59  C   UNL A   1      43.024  27.846  32.012  1.00  0.00     0.074 A 
ATOM     60  C   UNL A   1      43.860  26.941  31.250  1.00  0.00     0.031 C 
ATOM     61  C   UNL A   1      43.268  28.211  33.295  1.00  0.00     0.034 A 
BRANCH  48  62
ATOM     62  C   UNL A   1      39.287  32.381  35.520  1.00  0.00     0.023 A 
ATOM     63  C   UNL A   1      38.441  31.891  36.536  1.00  0.00     0.012 A 
ATOM     64  C   UNL A   1      39.802  33.688  35.623  1.00  0.00     0.148 A 
ATOM     65  C   UNL A   1      38.083  32.698  37.616  1.00  0.00     0.002 A 
ATOM     66  C   UNL A   1      39.479  34.471  36.725  1.00  0.00     0.091 A 
ATOM     67  F   UNL A   1      40.590  34.144  34.638  1.00  0.00    -0.205 F 
ATOM     68  C   UNL A   1      38.610  33.983  37.715  1.00  0.00     0.022 A 
BRANCH  66  69
ATOM     69  S   UNL A   1      40.170  36.108  36.989  1.00  0.00     0.127 S 
ATOM     70  O   UNL A   1      39.774  36.797  35.761  1.00  0.00    -0.237 OA
ATOM     71  O   UNL A   1      39.463  36.550  38.191  1.00  0.00    -0.237 OA
ATOM     72  O   UNL A   1      41.603  35.917  37.163  1.00  0.00    -0.744 OA
ENDBRANCH  66  69
ENDBRANCH  48  62
BRANCH  49  73
ATOM     73  C   UNL A   1      41.782  26.870  27.574  1.00  0.00     0.023 A 
ATOM     74  C   UNL A   1      42.383  27.528  26.484  1.00  0.00     0.012 A 
ATOM     75  C   UNL A   1      41.600  25.474  27.518  1.00  0.00     0.148 A 
ATOM     76  C   UNL A   1      42.764  26.817  25.346  1.00  0.00     0.002 A 
ATOM     77  C   UNL A   1      42.034  24.764  26.405  1.00  0.00     0.091 A 
ATOM     78  F   UNL A   1      41.017  24.867  28.562  1.00  0.00    -0.205 F 
ATOM     79  C   UNL A   1      42.599  25.436  25.310  1.00  0.00     0.022 A 
BRANCH  77  80
ATOM     80  S   UNL A   1      41.984  22.969  26.329  1.00  0.00     0.127 S 
ATOM     81  O   UNL A   1      42.769  22.598  27.503  1.00  0.00    -0.237 OA
ATOM     82  O   UNL A   1      40.550  22.702  26.435  1.00  0.00    -0.237 OA
ATOM     83  O   UNL A   1      42.565  22.614  25.041  1.00  0.00    -0.744 OA
ENDBRANCH  77  80
ENDBRANCH  49  73
BRANCH  61  84
ATOM     84  C   UNL A   1      44.467  27.607  33.978  1.00  0.00     0.023 A 
ATOM     85  C   UNL A   1      45.722  28.242  33.889  1.00  0.00     0.012 A 
ATOM     86  C   UNL A   1      44.333  26.449  34.771  1.00  0.00     0.148 A 
ATOM     87  C   UNL A   1      46.831  27.716  34.551  1.00  0.00     0.002 A 
ATOM     88  C   UNL A   1      45.431  25.960  35.468  1.00  0.00     0.091 A 
ATOM     89  F   UNL A   1      43.135  25.850  34.829  1.00  0.00    -0.205 F 
ATOM     90  C   UNL A   1      46.683  26.584  35.349  1.00  0.00     0.022 A 
BRANCH  88  91
ATOM     91  S   UNL A   1      45.313  24.568  36.597  1.00  0.00     0.127 S 
ATOM     92  O   UNL A   1      45.047  23.462  35.678  1.00  0.00    -0.237 OA
ATOM     93  O   UNL A   1      46.643  24.548  37.206  1.00  0.00    -0.237 OA
ATOM     94  O   UNL A   1      44.231  24.888  37.519  1.00  0.00    -0.744 OA
ENDBRANCH  88  91
ENDBRANCH  61  84
ENDBRANCH  35  36
ENDBRANCH  27  30
ENDBRANCH  25  26
ENDBRANCH  24  25
ENDBRANCH  23  24
ENDBRANCH   1  23
TORSDOF 21
ENDMDL
