MODEL 1
REMARK VINA RESULT:     -11.0      0.000      0.000
REMARK SMILES CC(C)(C)OC(=O)N1CC[N@H+](Cc2ccc(Cl)nc2)[C@H](C(=O)NCCCCCCNC(=O)c2ccc(-c3c4nc(c(-c5cccc(S(=O)(=O)[O-])c5F)c5ccc([nH]5)c(-c5cccc(S(=O)(=O)[O-])c5F)c5nc(c(-c6cccc(S(=O)(=O)[O-])c6F)c6ccc3[nH]6)C=C5)C=C4)cc2)C1
REMARK SMILES IDX 26 1 25 2 24 3 23 4 21 5 22 6 20 8 8 9 9 10 96 11 10 12
REMARK SMILES IDX 11 13 6 15 7 16 5 17 2 18 1 19 3 20 4 21 12 22 13 23 14 24
REMARK SMILES IDX 19 25 15 26 18 27 16 28 17 29 27 30 28 31 29 32 30 33 31 34
REMARK SMILES IDX 32 36 33 37 34 38 95 39 35 40 94 41 36 42 37 43 38 44 88 45
REMARK SMILES IDX 39 46 93 47 87 48 89 49 40 50 92 51 86 52 85 53 41 55 73 56
REMARK SMILES IDX 53 57 72 58 54 59 57 60 71 61 90 62 55 63 56 64 70 66 91 67
REMARK SMILES IDX 58 68 42 69 43 70 51 71 44 72 46 73 52 74 45 75 47 76 48 77
REMARK SMILES IDX 49 78 50 79 74 80 75 81 83 82 76 83 78 84 84 85 77 86 79 87
REMARK SMILES IDX 80 88 81 89 82 90 59 91 60 92 68 93 61 94 63 95 69 96 62 97
REMARK SMILES IDX 64 98 65 99 66 100 67 101
REMARK H PARENT 23 7 11 14 30 35 89 54 57 65
REMARK Flexibility Score: inf
ROOT
ATOM      1  C   UNL A   1      38.348  22.349  25.885  1.00  0.00     0.002 C 
ENDROOT
BRANCH   1   2
ATOM      2  C   UNL A   1      37.607  23.690  25.938  1.00  0.00     0.021 C 
BRANCH   2   3
ATOM      3  C   UNL A   1      36.192  23.655  25.363  1.00  0.00     0.116 C 
BRANCH   3   4
ATOM      4  N   UNL A   1      35.245  23.192  26.360  1.00  0.00    -0.351 N 
ATOM      5  C   UNL A   1      33.893  23.349  26.439  1.00  0.00     0.280 C 
ATOM      6  O   UNL A   1      33.362  23.026  27.504  1.00  0.00    -0.268 OA
ATOM      7  H   UNL A   1      35.644  22.681  27.101  1.00  0.00     0.163 HD
BRANCH   5   8
ATOM      8  C   UNL A   1      33.099  23.897  25.242  1.00  0.00     0.294 C 
ATOM      9  N   UNL A   1      31.205  25.368  24.563  1.00  0.00    -0.296 N 
ATOM     10  C   UNL A   1      30.936  24.491  23.431  1.00  0.00     0.184 C 
ATOM     11  C   UNL A   1      31.959  24.819  25.698  1.00  0.00     0.198 C 
ATOM     12  C   UNL A   1      32.060  23.486  23.108  1.00  0.00     0.285 C 
ATOM     13  N   UNL A   1      32.714  22.845  24.260  1.00  0.00    -0.318 N 
ATOM     14  H   UNL A   1      33.597  22.421  23.975  1.00  0.00     0.349 HD
BRANCH   9  15
ATOM     15  C   UNL A   1      30.439  26.514  24.661  1.00  0.00     0.410 C 
ATOM     16  O   UNL A   1      29.323  26.607  24.167  1.00  0.00    -0.224 OA
BRANCH  15  17
ATOM     17  O   UNL A   1      31.101  27.524  25.277  1.00  0.00    -0.444 OA
BRANCH  17  18
ATOM     18  C   UNL A   1      31.557  28.674  24.514  1.00  0.00     0.106 C 
ATOM     19  C   UNL A   1      32.475  28.089  23.430  1.00  0.00     0.056 C 
ATOM     20  C   UNL A   1      32.366  29.605  25.419  1.00  0.00     0.056 C 
ATOM     21  C   UNL A   1      30.419  29.427  23.802  1.00  0.00     0.056 C 
ENDBRANCH  17  18
ENDBRANCH  15  17
ENDBRANCH   9  15
BRANCH  13  22
ATOM     22  C   UNL A   1      32.096  21.597  24.727  1.00  0.00     0.301 C 
BRANCH  22  23
ATOM     23  C   UNL A   1      32.669  20.285  24.255  1.00  0.00     0.025 A 
ATOM     24  C   UNL A   1      32.101  19.574  23.191  1.00  0.00     0.014 A 
ATOM     25  C   UNL A   1      33.794  19.721  24.854  1.00  0.00     0.122 A 
ATOM     26  C   UNL A   1      32.579  18.308  22.864  1.00  0.00     0.041 A 
ATOM     27  N   UNL A   1      34.301  18.506  24.541  1.00  0.00    -0.244 NA
ATOM     28  C   UNL A   1      33.658  17.822  23.576  1.00  0.00     0.129 A 
ATOM     29  Cl  UNL A   1      34.277  16.252  23.276  1.00  0.00    -0.062 Cl
ENDBRANCH  22  23
ENDBRANCH  13  22
ENDBRANCH   5   8
ENDBRANCH   3   4
ENDBRANCH   2   3
ENDBRANCH   1   2
BRANCH   1  30
ATOM     30  C   UNL A   1      37.811  21.347  24.858  1.00  0.00     0.002 C 
BRANCH  30  31
ATOM     31  C   UNL A   1      38.458  19.959  24.896  1.00  0.00     0.021 C 
BRANCH  31  32
ATOM     32  C   UNL A   1      39.082  19.572  26.234  1.00  0.00     0.116 C 
BRANCH  32  33
ATOM     33  N   UNL A   1      40.331  18.847  26.071  1.00  0.00    -0.352 N 
ATOM     34  C   UNL A   1      41.617  19.322  26.018  1.00  0.00     0.251 C 
ATOM     35  H   UNL A   1      40.240  17.870  25.985  1.00  0.00     0.163 HD
ATOM     36  O   UNL A   1      42.530  18.564  25.700  1.00  0.00    -0.269 OA
BRANCH  34  37
ATOM     37  C   UNL A   1      41.906  20.742  26.323  1.00  0.00     0.039 A 
ATOM     38  C   UNL A   1      42.213  21.095  27.639  1.00  0.00     0.014 A 
ATOM     39  C   UNL A   1      41.850  21.726  25.332  1.00  0.00     0.014 A 
ATOM     40  C   UNL A   1      42.516  22.423  27.952  1.00  0.00     0.010 A 
ATOM     41  C   UNL A   1      42.211  23.039  25.632  1.00  0.00     0.010 A 
ATOM     42  C   UNL A   1      42.544  23.402  26.945  1.00  0.00    -0.014 A 
BRANCH  42  43
ATOM     43  C   UNL A   1      42.953  24.797  27.253  1.00  0.00     0.031 A 
ATOM     44  C   UNL A   1      41.974  25.773  27.850  1.00  0.00     0.074 A 
ATOM     45  C   UNL A   1      44.194  25.209  26.921  1.00  0.00     0.049 A 
ATOM     46  N   UNL A   1      42.158  27.027  28.175  1.00  0.00    -0.248 NA
ATOM     47  C   UNL A   1      40.606  25.288  28.093  1.00  0.00     0.031 C 
ATOM     48  C   UNL A   1      45.207  24.388  26.255  1.00  0.00     0.029 A 
ATOM     49  N   UNL A   1      44.808  26.427  27.078  1.00  0.00    -0.354 N 
ATOM     50  C   UNL A   1      40.928  27.490  28.626  1.00  0.00     0.074 A 
ATOM     51  C   UNL A   1      39.996  26.390  28.512  1.00  0.00     0.031 C 
ATOM     52  C   UNL A   1      46.314  25.124  26.062  1.00  0.00     0.029 A 
ATOM     53  C   UNL A   1      46.087  26.471  26.574  1.00  0.00     0.049 A 
ATOM     54  H   UNL A   1      44.373  27.197  27.510  1.00  0.00     0.167 HD
ATOM     55  C   UNL A   1      40.611  28.712  29.117  1.00  0.00     0.034 A 
ATOM     56  C   UNL A   1      46.978  27.481  26.530  1.00  0.00     0.034 A 
ATOM     57  C   UNL A   1      41.552  29.786  29.286  1.00  0.00     0.049 A 
ATOM     58  C   UNL A   1      46.614  28.805  27.145  1.00  0.00     0.074 A 
ATOM     59  C   UNL A   1      41.351  31.019  29.882  1.00  0.00     0.029 A 
ATOM     60  N   UNL A   1      42.868  29.762  28.854  1.00  0.00    -0.354 N 
ATOM     61  N   UNL A   1      45.505  29.158  27.747  1.00  0.00    -0.248 NA
ATOM     62  C   UNL A   1      47.640  29.858  27.112  1.00  0.00     0.031 C 
ATOM     63  C   UNL A   1      42.542  31.747  29.796  1.00  0.00     0.029 A 
ATOM     64  C   UNL A   1      43.488  30.961  29.159  1.00  0.00     0.049 A 
ATOM     65  H   UNL A   1      43.299  29.003  28.398  1.00  0.00     0.167 HD
ATOM     66  C   UNL A   1      45.710  30.460  28.191  1.00  0.00     0.074 A 
ATOM     67  C   UNL A   1      47.062  30.821  27.816  1.00  0.00     0.031 C 
ATOM     68  C   UNL A   1      44.851  31.289  28.833  1.00  0.00     0.034 A 
BRANCH  55  69
ATOM     69  C   UNL A   1      39.196  28.944  29.577  1.00  0.00     0.023 A 
ATOM     70  C   UNL A   1      38.844  28.645  30.909  1.00  0.00     0.012 A 
ATOM     71  C   UNL A   1      38.246  29.546  28.729  1.00  0.00     0.148 A 
ATOM     72  C   UNL A   1      37.563  28.924  31.384  1.00  0.00     0.002 A 
ATOM     73  C   UNL A   1      36.983  29.857  29.222  1.00  0.00     0.091 A 
ATOM     74  F   UNL A   1      38.595  29.805  27.460  1.00  0.00    -0.205 F 
ATOM     75  C   UNL A   1      36.639  29.540  30.546  1.00  0.00     0.022 A 
BRANCH  73  76
ATOM     76  S   UNL A   1      35.742  30.717  28.246  1.00  0.00     0.127 S 
ATOM     77  O   UNL A   1      36.504  31.857  27.738  1.00  0.00    -0.237 OA
ATOM     78  O   UNL A   1      35.397  29.715  27.237  1.00  0.00    -0.237 OA
ATOM     79  O   UNL A   1      34.665  31.049  29.168  1.00  0.00    -0.744 OA
ENDBRANCH  73  76
ENDBRANCH  55  69
BRANCH  56  80
ATOM     80  C   UNL A   1      48.332  27.260  25.949  1.00  0.00     0.023 A 
ATOM     81  C   UNL A   1      49.372  26.796  26.777  1.00  0.00     0.012 A 
ATOM     82  C   UNL A   1      48.595  27.494  24.586  1.00  0.00     0.148 A 
ATOM     83  C   UNL A   1      50.658  26.606  26.270  1.00  0.00     0.002 A 
ATOM     84  C   UNL A   1      49.865  27.249  24.073  1.00  0.00     0.091 A 
ATOM     85  F   UNL A   1      47.601  27.953  23.813  1.00  0.00    -0.205 F 
ATOM     86  C   UNL A   1      50.902  26.823  24.917  1.00  0.00     0.022 A 
BRANCH  84  87
ATOM     87  S   UNL A   1      50.216  27.375  22.316  1.00  0.00     0.127 S 
ATOM     88  O   UNL A   1      49.924  28.780  22.049  1.00  0.00    -0.237 OA
ATOM     89  O   UNL A   1      51.636  27.020  22.257  1.00  0.00    -0.237 OA
ATOM     90  O   UNL A   1      49.336  26.403  21.681  1.00  0.00    -0.744 OA
ENDBRANCH  84  87
ENDBRANCH  56  80
BRANCH  68  91
ATOM     91  C   UNL A   1      45.349  32.665  29.192  1.00  0.00     0.023 A 
ATOM     92  C   UNL A   1      46.010  32.866  30.420  1.00  0.00     0.012 A 
ATOM     93  C   UNL A   1      45.219  33.739  28.292  1.00  0.00     0.148 A 
ATOM     94  C   UNL A   1      46.502  34.125  30.761  1.00  0.00     0.002 A 
ATOM     95  C   UNL A   1      45.753  34.981  28.620  1.00  0.00     0.091 A 
ATOM     96  F   UNL A   1      44.568  33.535  27.137  1.00  0.00    -0.205 F 
ATOM     97  C   UNL A   1      46.384  35.178  29.859  1.00  0.00     0.022 A 
BRANCH  95  98
ATOM     98  S   UNL A   1      45.725  36.364  27.475  1.00  0.00     0.127 S 
ATOM     99  O   UNL A   1      44.290  36.599  27.324  1.00  0.00    -0.237 OA
ATOM    100  O   UNL A   1      46.437  37.404  28.220  1.00  0.00    -0.237 OA
ATOM    101  O   UNL A   1      46.419  35.903  26.279  1.00  0.00    -0.744 OA
ENDBRANCH  95  98
ENDBRANCH  68  91
ENDBRANCH  42  43
ENDBRANCH  34  37
ENDBRANCH  32  33
ENDBRANCH  31  32
ENDBRANCH  30  31
ENDBRANCH   1  30
TORSDOF 21
ENDMDL
MODEL 2
REMARK VINA RESULT:     -10.4      2.410      7.657
REMARK SMILES CC(C)(C)OC(=O)N1CC[N@H+](Cc2ccc(Cl)nc2)[C@H](C(=O)NCCCCCCNC(=O)c2ccc(-c3c4nc(c(-c5cccc(S(=O)(=O)[O-])c5F)c5ccc([nH]5)c(-c5cccc(S(=O)(=O)[O-])c5F)c5nc(c(-c6cccc(S(=O)(=O)[O-])c6F)c6ccc3[nH]6)C=C5)C=C4)cc2)C1
REMARK SMILES IDX 26 1 25 2 24 3 23 4 21 5 22 6 20 8 8 9 9 10 96 11 10 12
REMARK SMILES IDX 11 13 6 15 7 16 5 17 2 18 1 19 3 20 4 21 12 22 13 23 14 24
REMARK SMILES IDX 19 25 15 26 18 27 16 28 17 29 27 30 28 31 29 32 30 33 31 34
REMARK SMILES IDX 32 36 33 37 34 38 95 39 35 40 94 41 36 42 37 43 38 44 88 45
REMARK SMILES IDX 39 46 93 47 87 48 89 49 40 50 92 51 86 52 85 53 41 55 73 56
REMARK SMILES IDX 53 57 72 58 54 59 57 60 71 61 90 62 55 63 56 64 70 66 91 67
REMARK SMILES IDX 58 68 42 69 43 70 51 71 44 72 46 73 52 74 45 75 47 76 48 77
REMARK SMILES IDX 49 78 50 79 74 80 75 81 83 82 76 83 78 84 84 85 77 86 79 87
REMARK SMILES IDX 80 88 81 89 82 90 59 91 60 92 68 93 61 94 63 95 69 96 62 97
REMARK SMILES IDX 64 98 65 99 66 100 67 101
REMARK H PARENT 23 7 11 14 30 35 89 54 57 65
REMARK Flexibility Score: inf
ROOT
ATOM      1  C   UNL A   1      39.700  23.068  27.271  1.00  0.00     0.002 C 
ENDROOT
BRANCH   1   2
ATOM      2  C   UNL A   1      38.676  24.024  26.650  1.00  0.00     0.021 C 
BRANCH   2   3
ATOM      3  C   UNL A   1      37.642  23.347  25.752  1.00  0.00     0.116 C 
BRANCH   3   4
ATOM      4  N   UNL A   1      36.500  22.902  26.530  1.00  0.00    -0.351 N 
ATOM      5  C   UNL A   1      35.180  23.227  26.433  1.00  0.00     0.280 C 
ATOM      6  O   UNL A   1      34.452  22.856  27.356  1.00  0.00    -0.268 OA
ATOM      7  H   UNL A   1      36.715  22.260  27.245  1.00  0.00     0.163 HD
BRANCH   5   8
ATOM      8  C   UNL A   1      34.655  24.010  25.219  1.00  0.00     0.294 C 
ATOM      9  N   UNL A   1      33.365  26.017  24.499  1.00  0.00    -0.296 N 
ATOM     10  C   UNL A   1      32.877  25.282  23.340  1.00  0.00     0.184 C 
ATOM     11  C   UNL A   1      33.854  25.246  25.650  1.00  0.00     0.198 C 
ATOM     12  C   UNL A   1      33.631  23.972  23.039  1.00  0.00     0.285 C 
ATOM     13  N   UNL A   1      33.995  23.146  24.201  1.00  0.00    -0.318 N 
ATOM     14  H   UNL A   1      34.707  22.462  23.941  1.00  0.00     0.349 HD
BRANCH   9  15
ATOM     15  C   UNL A   1      33.004  27.349  24.592  1.00  0.00     0.410 C 
ATOM     16  O   UNL A   1      33.823  28.245  24.750  1.00  0.00    -0.224 OA
BRANCH  15  17
ATOM     17  O   UNL A   1      31.660  27.520  24.578  1.00  0.00    -0.444 OA
BRANCH  17  18
ATOM     18  C   UNL A   1      31.069  28.608  23.815  1.00  0.00     0.106 C 
ATOM     19  C   UNL A   1      29.663  28.111  23.445  1.00  0.00     0.056 C 
ATOM     20  C   UNL A   1      31.880  28.841  22.540  1.00  0.00     0.056 C 
ATOM     21  C   UNL A   1      30.904  29.905  24.626  1.00  0.00     0.056 C 
ENDBRANCH  17  18
ENDBRANCH  15  17
ENDBRANCH   9  15
BRANCH  13  22
ATOM     22  C   UNL A   1      32.990  22.159  24.618  1.00  0.00     0.301 C 
BRANCH  22  23
ATOM     23  C   UNL A   1      33.208  20.710  24.265  1.00  0.00     0.025 A 
ATOM     24  C   UNL A   1      32.331  20.018  23.422  1.00  0.00     0.014 A 
ATOM     25  C   UNL A   1      34.296  19.993  24.758  1.00  0.00     0.122 A 
ATOM     26  C   UNL A   1      32.493  18.650  23.219  1.00  0.00     0.041 A 
ATOM     27  N   UNL A   1      34.498  18.671  24.557  1.00  0.00    -0.244 NA
ATOM     28  C   UNL A   1      33.572  18.032  23.818  1.00  0.00     0.129 A 
ATOM     29  Cl  UNL A   1      33.817  16.342  23.665  1.00  0.00    -0.062 Cl
ENDBRANCH  22  23
ENDBRANCH  13  22
ENDBRANCH   5   8
ENDBRANCH   3   4
ENDBRANCH   2   3
ENDBRANCH   1   2
BRANCH   1  30
ATOM     30  C   UNL A   1      40.528  22.256  26.269  1.00  0.00     0.002 C 
BRANCH  30  31
ATOM     31  C   UNL A   1      40.334  20.739  26.336  1.00  0.00     0.021 C 
BRANCH  31  32
ATOM     32  C   UNL A   1      41.501  19.963  26.942  1.00  0.00     0.116 C 
BRANCH  32  33
ATOM     33  N   UNL A   1      42.445  19.510  25.934  1.00  0.00    -0.352 N 
ATOM     34  C   UNL A   1      43.426  20.209  25.278  1.00  0.00     0.251 C 
ATOM     35  H   UNL A   1      42.367  18.560  25.684  1.00  0.00     0.163 HD
ATOM     36  O   UNL A   1      44.009  19.689  24.330  1.00  0.00    -0.269 OA
BRANCH  34  37
ATOM     37  C   UNL A   1      43.772  21.587  25.694  1.00  0.00     0.039 A 
ATOM     38  C   UNL A   1      43.677  22.614  24.751  1.00  0.00     0.014 A 
ATOM     39  C   UNL A   1      44.214  21.868  26.990  1.00  0.00     0.014 A 
ATOM     40  C   UNL A   1      43.972  23.928  25.121  1.00  0.00     0.010 A 
ATOM     41  C   UNL A   1      44.449  23.188  27.374  1.00  0.00     0.010 A 
ATOM     42  C   UNL A   1      44.334  24.231  26.444  1.00  0.00    -0.014 A 
BRANCH  42  43
ATOM     43  C   UNL A   1      44.561  25.637  26.868  1.00  0.00     0.031 A 
ATOM     44  C   UNL A   1      45.935  26.250  26.799  1.00  0.00     0.074 A 
ATOM     45  C   UNL A   1      43.537  26.342  27.391  1.00  0.00     0.049 A 
ATOM     46  N   UNL A   1      46.314  27.457  27.132  1.00  0.00    -0.248 NA
ATOM     47  C   UNL A   1      47.029  25.394  26.314  1.00  0.00     0.031 C 
ATOM     48  C   UNL A   1      42.180  25.833  27.597  1.00  0.00     0.029 A 
ATOM     49  N   UNL A   1      43.483  27.630  27.864  1.00  0.00    -0.354 N 
ATOM     50  C   UNL A   1      47.689  27.496  26.933  1.00  0.00     0.074 A 
ATOM     51  C   UNL A   1      48.084  26.183  26.471  1.00  0.00     0.031 C 
ATOM     52  C   UNL A   1      41.427  26.797  28.153  1.00  0.00     0.029 A 
ATOM     53  C   UNL A   1      42.249  27.985  28.359  1.00  0.00     0.049 A 
ATOM     54  H   UNL A   1      44.254  28.240  27.852  1.00  0.00     0.167 HD
ATOM     55  C   UNL A   1      48.540  28.537  27.093  1.00  0.00     0.034 A 
ATOM     56  C   UNL A   1      41.826  29.138  28.914  1.00  0.00     0.034 A 
ATOM     57  C   UNL A   1      48.136  29.858  27.494  1.00  0.00     0.049 A 
ATOM     58  C   UNL A   1      42.781  30.295  29.014  1.00  0.00     0.074 A 
ATOM     59  C   UNL A   1      48.906  31.006  27.571  1.00  0.00     0.029 A 
ATOM     60  N   UNL A   1      46.857  30.208  27.894  1.00  0.00    -0.354 N 
ATOM     61  N   UNL A   1      44.033  30.368  28.633  1.00  0.00    -0.248 NA
ATOM     62  C   UNL A   1      42.255  31.545  29.584  1.00  0.00     0.031 C 
ATOM     63  C   UNL A   1      48.095  32.047  28.033  1.00  0.00     0.029 A 
ATOM     64  C   UNL A   1      46.817  31.551  28.230  1.00  0.00     0.049 A 
ATOM     65  H   UNL A   1      46.089  29.594  27.932  1.00  0.00     0.167 HD
ATOM     66  C   UNL A   1      44.434  31.675  28.887  1.00  0.00     0.074 A 
ATOM     67  C   UNL A   1      43.282  32.368  29.425  1.00  0.00     0.031 C 
ATOM     68  C   UNL A   1      45.651  32.245  28.709  1.00  0.00     0.034 A 
BRANCH  55  69
ATOM     69  C   UNL A   1      49.994  28.320  26.769  1.00  0.00     0.023 A 
ATOM     70  C   UNL A   1      50.447  28.530  25.450  1.00  0.00     0.012 A 
ATOM     71  C   UNL A   1      50.925  28.007  27.778  1.00  0.00     0.148 A 
ATOM     72  C   UNL A   1      51.801  28.413  25.138  1.00  0.00     0.002 A 
ATOM     73  C   UNL A   1      52.277  27.930  27.467  1.00  0.00     0.091 A 
ATOM     74  F   UNL A   1      50.470  27.792  29.021  1.00  0.00    -0.205 F 
ATOM     75  C   UNL A   1      52.716  28.126  26.147  1.00  0.00     0.022 A 
BRANCH  73  76
ATOM     76  S   UNL A   1      53.546  27.638  28.706  1.00  0.00     0.127 S 
ATOM     77  O   UNL A   1      54.753  27.576  27.883  1.00  0.00    -0.237 OA
ATOM     78  O   UNL A   1      53.439  28.833  29.542  1.00  0.00    -0.237 OA
ATOM     79  O   UNL A   1      53.181  26.394  29.370  1.00  0.00    -0.744 OA
ENDBRANCH  73  76
ENDBRANCH  55  69
BRANCH  56  80
ATOM     80  C   UNL A   1      40.408  29.283  29.348  1.00  0.00     0.023 A 
ATOM     81  C   UNL A   1      39.434  29.671  28.408  1.00  0.00     0.012 A 
ATOM     82  C   UNL A   1      40.015  29.031  30.676  1.00  0.00     0.148 A 
ATOM     83  C   UNL A   1      38.103  29.844  28.788  1.00  0.00     0.002 A 
ATOM     84  C   UNL A   1      38.677  29.151  31.038  1.00  0.00     0.091 A 
ATOM     85  F   UNL A   1      40.955  28.681  31.565  1.00  0.00    -0.205 F 
ATOM     86  C   UNL A   1      37.723  29.574  30.100  1.00  0.00     0.022 A 
BRANCH  84  87
ATOM     87  S   UNL A   1      38.094  28.687  32.672  1.00  0.00     0.127 S 
ATOM     88  O   UNL A   1      38.248  27.236  32.648  1.00  0.00    -0.237 OA
ATOM     89  O   UNL A   1      39.034  29.391  33.548  1.00  0.00    -0.237 OA
ATOM     90  O   UNL A   1      36.728  29.189  32.746  1.00  0.00    -0.744 OA
ENDBRANCH  84  87
ENDBRANCH  56  80
BRANCH  68  91
ATOM     91  C   UNL A   1      45.800  33.697  29.081  1.00  0.00     0.023 A 
ATOM     92  C   UNL A   1      46.238  34.043  30.374  1.00  0.00     0.012 A 
ATOM     93  C   UNL A   1      45.565  34.714  28.135  1.00  0.00     0.148 A 
ATOM     94  C   UNL A   1      46.408  35.379  30.732  1.00  0.00     0.002 A 
ATOM     95  C   UNL A   1      45.780  36.043  28.485  1.00  0.00     0.091 A 
ATOM     96  F   UNL A   1      45.127  34.368  26.916  1.00  0.00    -0.205 F 
ATOM     97  C   UNL A   1      46.190  36.378  29.786  1.00  0.00     0.022 A 
BRANCH  95  98
ATOM     98  S   UNL A   1      45.612  37.381  27.300  1.00  0.00     0.127 S 
ATOM     99  O   UNL A   1      46.088  38.527  28.073  1.00  0.00    -0.237 OA
ATOM    100  O   UNL A   1      46.506  36.961  26.220  1.00  0.00    -0.237 OA
ATOM    101  O   UNL A   1      44.202  37.410  26.931  1.00  0.00    -0.744 OA
ENDBRANCH  95  98
ENDBRANCH  68  91
ENDBRANCH  42  43
ENDBRANCH  34  37
ENDBRANCH  32  33
ENDBRANCH  31  32
ENDBRANCH  30  31
ENDBRANCH   1  30
TORSDOF 21
ENDMDL
MODEL 3
REMARK VINA RESULT:      -9.0      6.711     12.284
REMARK SMILES CC(C)(C)OC(=O)N1CC[N@H+](Cc2ccc(Cl)nc2)[C@H](C(=O)NCCCCCCNC(=O)c2ccc(-c3c4nc(c(-c5cccc(S(=O)(=O)[O-])c5F)c5ccc([nH]5)c(-c5cccc(S(=O)(=O)[O-])c5F)c5nc(c(-c6cccc(S(=O)(=O)[O-])c6F)c6ccc3[nH]6)C=C5)C=C4)cc2)C1
REMARK SMILES IDX 26 1 25 2 24 3 23 4 21 5 22 6 20 8 8 9 9 10 96 11 10 12
REMARK SMILES IDX 11 13 6 15 7 16 5 17 2 18 1 19 3 20 4 21 12 22 13 23 14 24
REMARK SMILES IDX 19 25 15 26 18 27 16 28 17 29 27 30 28 31 29 32 30 33 31 34
REMARK SMILES IDX 32 36 33 37 34 38 95 39 35 40 94 41 36 42 37 43 38 44 88 45
REMARK SMILES IDX 39 46 93 47 87 48 89 49 40 50 92 51 86 52 85 53 41 55 73 56
REMARK SMILES IDX 53 57 72 58 54 59 57 60 71 61 90 62 55 63 56 64 70 66 91 67
REMARK SMILES IDX 58 68 42 69 43 70 51 71 44 72 46 73 52 74 45 75 47 76 48 77
REMARK SMILES IDX 49 78 50 79 74 80 75 81 83 82 76 83 78 84 84 85 77 86 79 87
REMARK SMILES IDX 80 88 81 89 82 90 59 91 60 92 68 93 61 94 63 95 69 96 62 97
REMARK SMILES IDX 64 98 65 99 66 100 67 101
REMARK H PARENT 23 7 11 14 30 35 89 54 57 65
REMARK Flexibility Score: inf
ROOT
ATOM      1  C   UNL A   1      39.298  34.835  37.042  1.00  0.00     0.002 C 
ENDROOT
BRANCH   1   2
ATOM      2  C   UNL A   1      38.742  34.605  35.633  1.00  0.00     0.021 C 
BRANCH   2   3
ATOM      3  C   UNL A   1      39.758  34.055  34.633  1.00  0.00     0.116 C 
BRANCH   3   4
ATOM      4  N   UNL A   1      39.451  34.508  33.289  1.00  0.00    -0.351 N 
ATOM      5  C   UNL A   1      39.237  33.802  32.142  1.00  0.00     0.280 C 
ATOM      6  O   UNL A   1      39.196  34.451  31.095  1.00  0.00    -0.268 OA
ATOM      7  H   UNL A   1      39.386  35.485  33.188  1.00  0.00     0.163 HD
BRANCH   5   8
ATOM      8  C   UNL A   1      39.053  32.276  32.187  1.00  0.00     0.294 C 
ATOM      9  N   UNL A   1      39.658  30.124  31.085  1.00  0.00    -0.296 N 
ATOM     10  C   UNL A   1      38.357  29.578  31.448  1.00  0.00     0.184 C 
ATOM     11  C   UNL A   1      39.807  31.585  31.042  1.00  0.00     0.198 C 
ATOM     12  C   UNL A   1      37.582  30.395  32.501  1.00  0.00     0.285 C 
ATOM     13  N   UNL A   1      37.634  31.859  32.361  1.00  0.00    -0.318 N 
ATOM     14  H   UNL A   1      37.335  32.309  33.226  1.00  0.00     0.349 HD
BRANCH   9  15
ATOM     15  C   UNL A   1      40.544  29.266  30.462  1.00  0.00     0.410 C 
ATOM     16  O   UNL A   1      41.137  28.378  31.062  1.00  0.00    -0.224 OA
BRANCH  15  17
ATOM     17  O   UNL A   1      40.736  29.581  29.158  1.00  0.00    -0.444 OA
BRANCH  17  18
ATOM     18  C   UNL A   1      40.163  28.750  28.112  1.00  0.00     0.106 C 
ATOM     19  C   UNL A   1      38.741  29.294  27.911  1.00  0.00     0.056 C 
ATOM     20  C   UNL A   1      40.091  27.299  28.590  1.00  0.00     0.056 C 
ATOM     21  C   UNL A   1      40.899  28.865  26.765  1.00  0.00     0.056 C 
ENDBRANCH  17  18
ENDBRANCH  15  17
ENDBRANCH   9  15
BRANCH  13  22
ATOM     22  C   UNL A   1      36.587  32.453  31.518  1.00  0.00     0.301 C 
BRANCH  22  23
ATOM     23  C   UNL A   1      35.764  33.585  32.077  1.00  0.00     0.025 A 
ATOM     24  C   UNL A   1      34.743  34.189  31.334  1.00  0.00     0.014 A 
ATOM     25  C   UNL A   1      35.978  34.079  33.362  1.00  0.00     0.122 A 
ATOM     26  C   UNL A   1      34.088  35.312  31.833  1.00  0.00     0.041 A 
ATOM     27  N   UNL A   1      35.340  35.150  33.888  1.00  0.00    -0.244 NA
ATOM     28  C   UNL A   1      34.435  35.754  33.094  1.00  0.00     0.129 A 
ATOM     29  Cl  UNL A   1      33.719  37.159  33.764  1.00  0.00    -0.062 Cl
ENDBRANCH  22  23
ENDBRANCH  13  22
ENDBRANCH   5   8
ENDBRANCH   3   4
ENDBRANCH   2   3
ENDBRANCH   1   2
BRANCH   1  30
ATOM     30  C   UNL A   1      40.095  36.130  37.227  1.00  0.00     0.002 C 
BRANCH  30  31
ATOM     31  C   UNL A   1      40.599  36.394  38.649  1.00  0.00     0.021 C 
BRANCH  31  32
ATOM     32  C   UNL A   1      42.114  36.322  38.822  1.00  0.00     0.116 C 
BRANCH  32  33
ATOM     33  N   UNL A   1      42.506  35.386  39.862  1.00  0.00    -0.352 N 
ATOM     34  C   UNL A   1      42.806  34.050  39.769  1.00  0.00     0.251 C 
ATOM     35  H   UNL A   1      42.565  35.766  40.769  1.00  0.00     0.163 HD
ATOM     36  O   UNL A   1      42.948  33.388  40.794  1.00  0.00    -0.269 OA
BRANCH  34  37
ATOM     37  C   UNL A   1      42.939  33.401  38.445  1.00  0.00     0.039 A 
ATOM     38  C   UNL A   1      44.168  33.475  37.784  1.00  0.00     0.014 A 
ATOM     39  C   UNL A   1      41.861  32.749  37.841  1.00  0.00     0.014 A 
ATOM     40  C   UNL A   1      44.332  32.850  36.545  1.00  0.00     0.010 A 
ATOM     41  C   UNL A   1      42.042  32.074  36.634  1.00  0.00     0.010 A 
ATOM     42  C   UNL A   1      43.277  32.121  35.972  1.00  0.00    -0.014 A 
BRANCH  42  43
ATOM     43  C   UNL A   1      43.470  31.378  34.699  1.00  0.00     0.031 A 
ATOM     44  C   UNL A   1      43.371  32.084  33.373  1.00  0.00     0.074 A 
ATOM     45  C   UNL A   1      43.661  30.043  34.736  1.00  0.00     0.049 A 
ATOM     46  N   UNL A   1      43.505  31.592  32.168  1.00  0.00    -0.248 NA
ATOM     47  C   UNL A   1      43.059  33.522  33.399  1.00  0.00     0.031 C 
ATOM     48  C   UNL A   1      43.686  29.228  35.953  1.00  0.00     0.029 A 
ATOM     49  N   UNL A   1      43.848  29.134  33.725  1.00  0.00    -0.354 N 
ATOM     50  C   UNL A   1      43.261  32.645  31.295  1.00  0.00     0.074 A 
ATOM     51  C   UNL A   1      42.947  33.801  32.106  1.00  0.00     0.031 C 
ATOM     52  C   UNL A   1      43.878  27.941  35.616  1.00  0.00     0.029 A 
ATOM     53  C   UNL A   1      43.973  27.837  34.164  1.00  0.00     0.049 A 
ATOM     54  H   UNL A   1      43.887  29.387  32.774  1.00  0.00     0.167 HD
ATOM     55  C   UNL A   1      43.319  32.656  29.942  1.00  0.00     0.034 A 
ATOM     56  C   UNL A   1      44.147  26.691  33.476  1.00  0.00     0.034 A 
ATOM     57  C   UNL A   1      43.690  31.522  29.139  1.00  0.00     0.049 A 
ATOM     58  C   UNL A   1      44.275  26.750  31.978  1.00  0.00     0.074 A 
ATOM     59  C   UNL A   1      43.892  31.466  27.770  1.00  0.00     0.029 A 
ATOM     60  N   UNL A   1      43.908  30.243  29.626  1.00  0.00    -0.354 N 
ATOM     61  N   UNL A   1      44.237  27.794  31.186  1.00  0.00    -0.248 NA
ATOM     62  C   UNL A   1      44.511  25.477  31.280  1.00  0.00     0.031 C 
ATOM     63  C   UNL A   1      44.216  30.150  27.428  1.00  0.00     0.029 A 
ATOM     64  C   UNL A   1      44.231  29.389  28.585  1.00  0.00     0.049 A 
ATOM     65  H   UNL A   1      43.844  29.981  30.572  1.00  0.00     0.167 HD
ATOM     66  C   UNL A   1      44.475  27.310  29.905  1.00  0.00     0.074 A 
ATOM     67  C   UNL A   1      44.688  25.882  30.030  1.00  0.00     0.031 C 
ATOM     68  C   UNL A   1      44.497  27.982  28.728  1.00  0.00     0.034 A 
BRANCH  55  69
ATOM     69  C   UNL A   1      43.043  33.954  29.231  1.00  0.00     0.023 A 
ATOM     70  C   UNL A   1      41.711  34.394  29.087  1.00  0.00     0.012 A 
ATOM     71  C   UNL A   1      44.095  34.782  28.795  1.00  0.00     0.148 A 
ATOM     72  C   UNL A   1      41.430  35.629  28.504  1.00  0.00     0.002 A 
ATOM     73  C   UNL A   1      43.809  36.029  28.251  1.00  0.00     0.091 A 
ATOM     74  F   UNL A   1      45.354  34.337  28.924  1.00  0.00    -0.205 F 
ATOM     75  C   UNL A   1      42.478  36.450  28.098  1.00  0.00     0.022 A 
BRANCH  73  76
ATOM     76  S   UNL A   1      45.088  37.195  27.763  1.00  0.00     0.127 S 
ATOM     77  O   UNL A   1      45.803  37.392  29.022  1.00  0.00    -0.237 OA
ATOM     78  O   UNL A   1      45.826  36.435  26.754  1.00  0.00    -0.237 OA
ATOM     79  O   UNL A   1      44.390  38.367  27.253  1.00  0.00    -0.744 OA
ENDBRANCH  73  76
ENDBRANCH  55  69
BRANCH  56  80
ATOM     80  C   UNL A   1      44.288  25.397  34.200  1.00  0.00     0.023 A 
ATOM     81  C   UNL A   1      43.141  24.621  34.458  1.00  0.00     0.012 A 
ATOM     82  C   UNL A   1      45.544  24.923  34.623  1.00  0.00     0.148 A 
ATOM     83  C   UNL A   1      43.236  23.418  35.159  1.00  0.00     0.002 A 
ATOM     84  C   UNL A   1      45.640  23.696  35.272  1.00  0.00     0.091 A 
ATOM     85  F   UNL A   1      46.625  25.680  34.386  1.00  0.00    -0.205 F 
ATOM     86  C   UNL A   1      44.486  22.951  35.556  1.00  0.00     0.022 A 
BRANCH  84  87
ATOM     87  S   UNL A   1      47.228  22.969  35.690  1.00  0.00     0.127 S 
ATOM     88  O   UNL A   1      46.863  21.582  35.961  1.00  0.00    -0.237 OA
ATOM     89  O   UNL A   1      47.997  23.174  34.460  1.00  0.00    -0.237 OA
ATOM     90  O   UNL A   1      47.714  23.741  36.826  1.00  0.00    -0.744 OA
ENDBRANCH  84  87
ENDBRANCH  56  80
BRANCH  68  91
ATOM     91  C   UNL A   1      44.778  27.188  27.479  1.00  0.00     0.023 A 
ATOM     92  C   UNL A   1      43.724  26.517  26.829  1.00  0.00     0.012 A 
ATOM     93  C   UNL A   1      46.069  27.158  26.917  1.00  0.00     0.148 A 
ATOM     94  C   UNL A   1      43.957  25.799  25.657  1.00  0.00     0.002 A 
ATOM     95  C   UNL A   1      46.284  26.476  25.724  1.00  0.00     0.091 A 
ATOM     96  F   UNL A   1      47.065  27.784  27.560  1.00  0.00    -0.205 F 
ATOM     97  C   UNL A   1      45.233  25.787  25.099  1.00  0.00     0.022 A 
BRANCH  95  98
ATOM     98  S   UNL A   1      47.875  26.490  24.890  1.00  0.00     0.127 S 
ATOM     99  O   UNL A   1      48.024  27.904  24.551  1.00  0.00    -0.237 OA
ATOM    100  O   UNL A   1      48.784  26.015  25.936  1.00  0.00    -0.237 OA
ATOM    101  O   UNL A   1      47.738  25.581  23.759  1.00  0.00    -0.744 OA
ENDBRANCH  95  98
ENDBRANCH  68  91
ENDBRANCH  42  43
ENDBRANCH  34  37
ENDBRANCH  32  33
ENDBRANCH  31  32
ENDBRANCH  30  31
ENDBRANCH   1  30
TORSDOF 21
ENDMDL
