MODEL 1
REMARK VINA RESULT:     -10.6      0.000      0.000
REMARK SMILES C/C(=N/OCc1ccccc1Nc1c(Cl)cccc1Cl)C(=O)NCCCCCCNC(=O)c1ccc(-c2c3nc(c(-c4cccc(S(=O)(=O)[O-])c4F)c4ccc([nH]4)c(-c4cccc(S(=O)(=O)[O-])c4F)c4nc(c(-c5cccc(S(=O)(=O)[O-])c5F)c5ccc2[nH]5)C=C4)C=C3)cc1
REMARK SMILES IDX 25 1 24 2 23 3 21 4 22 5 2 7 1 8 3 9 4 10 5 11 6 12 7 13
REMARK SMILES IDX 11 14 8 15 10 16 9 17 12 18 13 20 14 21 19 22 15 23 16 24
REMARK SMILES IDX 18 25 20 26 17 27 26 28 27 29 28 30 29 31 30 32 31 33 32 35
REMARK SMILES IDX 33 36 34 37 95 38 35 39 94 40 36 41 37 42 38 43 88 44 39 45
REMARK SMILES IDX 93 46 87 47 89 48 40 49 92 50 86 51 85 52 41 54 73 55 53 56
REMARK SMILES IDX 72 57 54 58 57 59 71 60 90 61 55 62 56 63 70 65 91 66 58 67
REMARK SMILES IDX 42 68 43 69 51 70 44 71 46 72 52 73 45 74 47 75 48 76 49 77
REMARK SMILES IDX 50 78 74 79 75 80 83 81 76 82 78 83 84 84 77 85 79 86 80 87
REMARK SMILES IDX 81 88 82 89 59 90 60 91 68 92 61 93 63 94 69 95 62 96 64 97
REMARK SMILES IDX 65 98 66 99 67 100
REMARK H PARENT 23 6 12 19 30 34 89 53 57 64
REMARK Flexibility Score: inf
ROOT
ATOM      1  C   UNL A   1      36.209  22.348  24.067  1.00  0.00     0.021 C 
ENDROOT
BRANCH   1   2
ATOM      2  C   UNL A   1      35.741  23.648  24.743  1.00  0.00     0.116 C 
BRANCH   2   3
ATOM      3  N   UNL A   1      34.349  23.529  25.118  1.00  0.00    -0.351 N 
ATOM      4  C   UNL A   1      33.201  23.491  24.366  1.00  0.00     0.268 C 
ATOM      5  O   UNL A   1      32.128  23.611  24.961  1.00  0.00    -0.268 OA
ATOM      6  H   UNL A   1      34.197  23.462  26.088  1.00  0.00     0.163 HD
BRANCH   4   7
ATOM      7  C   UNL A   1      33.125  23.174  22.877  1.00  0.00     0.141 C 
ATOM      8  C   UNL A   1      32.591  21.791  22.579  1.00  0.00     0.077 C 
ATOM      9  N   UNL A   1      33.386  23.922  21.848  1.00  0.00    -0.086 NA
BRANCH   9  10
ATOM     10  O   UNL A   1      33.843  25.190  22.165  1.00  0.00    -0.390 OA
BRANCH  10  11
ATOM     11  C   UNL A   1      32.753  26.105  22.355  1.00  0.00     0.302 C 
BRANCH  11  12
ATOM     12  C   UNL A   1      32.888  27.156  23.448  1.00  0.00     0.016 A 
ATOM     13  C   UNL A   1      33.968  27.056  24.350  1.00  0.00     0.009 A 
ATOM     14  C   UNL A   1      31.917  28.165  23.642  1.00  0.00     0.045 A 
ATOM     15  C   UNL A   1      34.089  27.927  25.433  1.00  0.00     0.001 A 
ATOM     16  C   UNL A   1      32.059  29.024  24.746  1.00  0.00     0.026 A 
ATOM     17  C   UNL A   1      33.126  28.904  25.638  1.00  0.00     0.002 A 
BRANCH  14  18
ATOM     18  N   UNL A   1      30.852  28.318  22.729  1.00  0.00    -0.353 N 
ATOM     19  H   UNL A   1      31.132  28.386  21.788  1.00  0.00     0.167 HD
BRANCH  18  20
ATOM     20  C   UNL A   1      29.453  28.393  22.926  1.00  0.00     0.076 A 
ATOM     21  C   UNL A   1      28.800  27.280  23.502  1.00  0.00     0.066 A 
ATOM     22  C   UNL A   1      28.671  29.518  22.616  1.00  0.00     0.066 A 
ATOM     23  Cl  UNL A   1      29.687  25.838  23.877  1.00  0.00    -0.082 Cl
ATOM     24  C   UNL A   1      27.431  27.291  23.773  1.00  0.00     0.023 A 
ATOM     25  C   UNL A   1      27.294  29.528  22.885  1.00  0.00     0.023 A 
ATOM     26  Cl  UNL A   1      29.312  30.896  21.786  1.00  0.00    -0.082 Cl
ATOM     27  C   UNL A   1      26.678  28.420  23.468  1.00  0.00     0.003 A 
ENDBRANCH  18  20
ENDBRANCH  14  18
ENDBRANCH  11  12
ENDBRANCH  10  11
ENDBRANCH   9  10
ENDBRANCH   4   7
ENDBRANCH   2   3
ENDBRANCH   1   2
BRANCH   1  28
ATOM     28  C   UNL A   1      35.914  21.091  24.886  1.00  0.00     0.002 C 
BRANCH  28  29
ATOM     29  C   UNL A   1      36.976  19.994  24.743  1.00  0.00     0.002 C 
BRANCH  29  30
ATOM     30  C   UNL A   1      38.427  20.457  24.922  1.00  0.00     0.021 C 
BRANCH  30  31
ATOM     31  C   UNL A   1      39.044  20.129  26.279  1.00  0.00     0.116 C 
BRANCH  31  32
ATOM     32  N   UNL A   1      40.174  19.223  26.146  1.00  0.00    -0.352 N 
ATOM     33  C   UNL A   1      41.510  19.504  26.019  1.00  0.00     0.251 C 
ATOM     34  H   UNL A   1      39.945  18.266  26.147  1.00  0.00     0.163 HD
ATOM     35  O   UNL A   1      42.282  18.622  25.652  1.00  0.00    -0.269 OA
BRANCH  33  36
ATOM     36  C   UNL A   1      42.023  20.856  26.330  1.00  0.00     0.039 A 
ATOM     37  C   UNL A   1      42.313  21.182  27.658  1.00  0.00     0.014 A 
ATOM     38  C   UNL A   1      42.157  21.822  25.328  1.00  0.00     0.014 A 
ATOM     39  C   UNL A   1      42.759  22.467  27.977  1.00  0.00     0.010 A 
ATOM     40  C   UNL A   1      42.666  23.079  25.637  1.00  0.00     0.010 A 
ATOM     41  C   UNL A   1      42.948  23.424  26.966  1.00  0.00    -0.014 A 
BRANCH  41  42
ATOM     42  C   UNL A   1      43.402  24.800  27.288  1.00  0.00     0.031 A 
ATOM     43  C   UNL A   1      42.446  25.783  27.910  1.00  0.00     0.074 A 
ATOM     44  C   UNL A   1      44.652  25.185  26.960  1.00  0.00     0.049 A 
ATOM     45  N   UNL A   1      42.640  27.038  28.224  1.00  0.00    -0.248 NA
ATOM     46  C   UNL A   1      41.083  25.302  28.190  1.00  0.00     0.031 C 
ATOM     47  C   UNL A   1      45.646  24.348  26.285  1.00  0.00     0.029 A 
ATOM     48  N   UNL A   1      45.290  26.388  27.128  1.00  0.00    -0.354 N 
ATOM     49  C   UNL A   1      41.422  27.504  28.704  1.00  0.00     0.074 A 
ATOM     50  C   UNL A   1      40.482  26.409  28.605  1.00  0.00     0.031 C 
ATOM     51  C   UNL A   1      46.770  25.060  26.104  1.00  0.00     0.029 A 
ATOM     52  C   UNL A   1      46.571  26.407  26.627  1.00  0.00     0.049 A 
ATOM     53  H   UNL A   1      44.872  27.164  27.566  1.00  0.00     0.167 HD
ATOM     54  C   UNL A   1      41.117  28.722  29.215  1.00  0.00     0.034 A 
ATOM     55  C   UNL A   1      47.482  27.401  26.597  1.00  0.00     0.034 A 
ATOM     56  C   UNL A   1      42.069  29.790  29.360  1.00  0.00     0.049 A 
ATOM     57  C   UNL A   1      47.137  28.724  27.226  1.00  0.00     0.074 A 
ATOM     58  C   UNL A   1      41.882  31.037  29.931  1.00  0.00     0.029 A 
ATOM     59  N   UNL A   1      43.387  29.736  28.936  1.00  0.00    -0.354 N 
ATOM     60  N   UNL A   1      46.023  29.096  27.809  1.00  0.00    -0.248 NA
ATOM     61  C   UNL A   1      48.189  29.750  27.233  1.00  0.00     0.031 C 
ATOM     62  C   UNL A   1      43.089  31.740  29.844  1.00  0.00     0.029 A 
ATOM     63  C   UNL A   1      44.030  30.924  29.238  1.00  0.00     0.049 A 
ATOM     64  H   UNL A   1      43.805  28.966  28.487  1.00  0.00     0.167 HD
ATOM     65  C   UNL A   1      46.256  30.379  28.292  1.00  0.00     0.074 A 
ATOM     66  C   UNL A   1      47.622  30.713  27.948  1.00  0.00     0.031 C 
ATOM     67  C   UNL A   1      45.411  31.212  28.949  1.00  0.00     0.034 A 
BRANCH  54  68
ATOM     68  C   UNL A   1      39.713  28.941  29.715  1.00  0.00     0.023 A 
ATOM     69  C   UNL A   1      39.356  28.481  30.999  1.00  0.00     0.012 A 
ATOM     70  C   UNL A   1      38.766  29.649  28.949  1.00  0.00     0.148 A 
ATOM     71  C   UNL A   1      38.071  28.688  31.499  1.00  0.00     0.002 A 
ATOM     72  C   UNL A   1      37.501  29.892  29.472  1.00  0.00     0.091 A 
ATOM     73  F   UNL A   1      39.115  30.063  27.722  1.00  0.00    -0.205 F 
ATOM     74  C   UNL A   1      37.148  29.402  30.740  1.00  0.00     0.022 A 
BRANCH  72  75
ATOM     75  S   UNL A   1      36.264  30.868  28.609  1.00  0.00     0.127 S 
ATOM     76  O   UNL A   1      36.974  32.129  28.402  1.00  0.00    -0.237 OA
ATOM     77  O   UNL A   1      36.047  30.084  27.392  1.00  0.00    -0.237 OA
ATOM     78  O   UNL A   1      35.113  30.937  29.498  1.00  0.00    -0.744 OA
ENDBRANCH  72  75
ENDBRANCH  54  68
BRANCH  55  79
ATOM     79  C   UNL A   1      48.839  27.153  26.031  1.00  0.00     0.023 A 
ATOM     80  C   UNL A   1      49.833  26.587  26.852  1.00  0.00     0.012 A 
ATOM     81  C   UNL A   1      49.145  27.453  24.690  1.00  0.00     0.148 A 
ATOM     82  C   UNL A   1      51.119  26.359  26.360  1.00  0.00     0.002 A 
ATOM     83  C   UNL A   1      50.412  27.174  24.190  1.00  0.00     0.091 A 
ATOM     84  F   UNL A   1      48.189  28.003  23.926  1.00  0.00    -0.205 F 
ATOM     85  C   UNL A   1      51.405  26.644  25.028  1.00  0.00     0.022 A 
BRANCH  83  86
ATOM     86  S   UNL A   1      50.831  27.390  22.457  1.00  0.00     0.127 S 
ATOM     87  O   UNL A   1      50.742  28.838  22.304  1.00  0.00    -0.237 OA
ATOM     88  O   UNL A   1      52.187  26.845  22.401  1.00  0.00    -0.237 OA
ATOM     89  O   UNL A   1      49.844  26.609  21.720  1.00  0.00    -0.744 OA
ENDBRANCH  83  86
ENDBRANCH  55  79
BRANCH  67  90
ATOM     90  C   UNL A   1      45.950  32.547  29.389  1.00  0.00     0.023 A 
ATOM     91  C   UNL A   1      46.579  32.674  30.642  1.00  0.00     0.012 A 
ATOM     92  C   UNL A   1      45.897  33.660  28.526  1.00  0.00     0.148 A 
ATOM     93  C   UNL A   1      47.115  33.896  31.046  1.00  0.00     0.002 A 
ATOM     94  C   UNL A   1      46.476  34.861  28.914  1.00  0.00     0.091 A 
ATOM     95  F   UNL A   1      45.275  33.525  27.344  1.00  0.00    -0.205 F 
ATOM     96  C   UNL A   1      47.074  34.985  30.179  1.00  0.00     0.022 A 
BRANCH  94  97
ATOM     97  S   UNL A   1      46.553  36.284  27.819  1.00  0.00     0.127 S 
ATOM     98  O   UNL A   1      45.157  36.423  27.412  1.00  0.00    -0.237 OA
ATOM     99  O   UNL A   1      47.036  37.339  28.712  1.00  0.00    -0.237 OA
ATOM    100  O   UNL A   1      47.485  35.921  26.761  1.00  0.00    -0.744 OA
ENDBRANCH  94  97
ENDBRANCH  67  90
ENDBRANCH  41  42
ENDBRANCH  33  36
ENDBRANCH  31  32
ENDBRANCH  30  31
ENDBRANCH  29  30
ENDBRANCH  28  29
ENDBRANCH   1  28
TORSDOF 21
ENDMDL
MODEL 2
REMARK VINA RESULT:     -10.5      2.016      7.598
REMARK SMILES C/C(=N/OCc1ccccc1Nc1c(Cl)cccc1Cl)C(=O)NCCCCCCNC(=O)c1ccc(-c2c3nc(c(-c4cccc(S(=O)(=O)[O-])c4F)c4ccc([nH]4)c(-c4cccc(S(=O)(=O)[O-])c4F)c4nc(c(-c5cccc(S(=O)(=O)[O-])c5F)c5ccc2[nH]5)C=C4)C=C3)cc1
REMARK SMILES IDX 25 1 24 2 23 3 21 4 22 5 2 7 1 8 3 9 4 10 5 11 6 12 7 13
REMARK SMILES IDX 11 14 8 15 10 16 9 17 12 18 13 20 14 21 19 22 15 23 16 24
REMARK SMILES IDX 18 25 20 26 17 27 26 28 27 29 28 30 29 31 30 32 31 33 32 35
REMARK SMILES IDX 33 36 34 37 95 38 35 39 94 40 36 41 37 42 38 43 88 44 39 45
REMARK SMILES IDX 93 46 87 47 89 48 40 49 92 50 86 51 85 52 41 54 73 55 53 56
REMARK SMILES IDX 72 57 54 58 57 59 71 60 90 61 55 62 56 63 70 65 91 66 58 67
REMARK SMILES IDX 42 68 43 69 51 70 44 71 46 72 52 73 45 74 47 75 48 76 49 77
REMARK SMILES IDX 50 78 74 79 75 80 83 81 76 82 78 83 84 84 77 85 79 86 80 87
REMARK SMILES IDX 81 88 82 89 59 90 60 91 68 92 61 93 63 94 69 95 62 96 64 97
REMARK SMILES IDX 65 98 66 99 67 100
REMARK H PARENT 23 6 12 19 30 34 89 53 57 64
REMARK Flexibility Score: inf
ROOT
ATOM      1  C   UNL A   1      36.705  22.298  24.326  1.00  0.00     0.021 C 
ENDROOT
BRANCH   1   2
ATOM      2  C   UNL A   1      36.088  23.444  25.143  1.00  0.00     0.116 C 
BRANCH   2   3
ATOM      3  N   UNL A   1      34.671  23.210  25.320  1.00  0.00    -0.351 N 
ATOM      4  C   UNL A   1      33.574  23.714  24.668  1.00  0.00     0.268 C 
ATOM      5  O   UNL A   1      32.469  23.512  25.176  1.00  0.00    -0.268 OA
ATOM      6  H   UNL A   1      34.455  22.572  26.039  1.00  0.00     0.163 HD
BRANCH   4   7
ATOM      7  C   UNL A   1      33.584  24.381  23.298  1.00  0.00     0.141 C 
ATOM      8  C   UNL A   1      33.276  23.434  22.160  1.00  0.00     0.077 C 
ATOM      9  N   UNL A   1      33.753  25.628  22.976  1.00  0.00    -0.086 NA
BRANCH   9  10
ATOM     10  O   UNL A   1      34.003  26.466  24.049  1.00  0.00    -0.390 OA
BRANCH  10  11
ATOM     11  C   UNL A   1      33.620  27.818  23.755  1.00  0.00     0.302 C 
BRANCH  11  12
ATOM     12  C   UNL A   1      33.250  28.723  24.922  1.00  0.00     0.016 A 
ATOM     13  C   UNL A   1      34.029  28.664  26.096  1.00  0.00     0.009 A 
ATOM     14  C   UNL A   1      32.100  29.546  24.898  1.00  0.00     0.045 A 
ATOM     15  C   UNL A   1      33.682  29.391  27.234  1.00  0.00     0.001 A 
ATOM     16  C   UNL A   1      31.768  30.263  26.061  1.00  0.00     0.026 A 
ATOM     17  C   UNL A   1      32.542  30.182  27.220  1.00  0.00     0.002 A 
BRANCH  14  18
ATOM     18  N   UNL A   1      31.327  29.662  23.723  1.00  0.00    -0.353 N 
ATOM     19  H   UNL A   1      31.848  29.873  22.915  1.00  0.00     0.167 HD
BRANCH  18  20
ATOM     20  C   UNL A   1      29.937  29.529  23.499  1.00  0.00     0.076 A 
ATOM     21  C   UNL A   1      29.416  28.233  23.288  1.00  0.00     0.066 A 
ATOM     22  C   UNL A   1      29.029  30.602  23.507  1.00  0.00     0.066 A 
ATOM     23  Cl  UNL A   1      30.473  26.860  23.224  1.00  0.00    -0.082 Cl
ATOM     24  C   UNL A   1      28.050  28.011  23.107  1.00  0.00     0.023 A 
ATOM     25  C   UNL A   1      27.657  30.379  23.322  1.00  0.00     0.023 A 
ATOM     26  Cl  UNL A   1      29.542  32.252  23.620  1.00  0.00    -0.082 Cl
ATOM     27  C   UNL A   1      27.169  29.087  23.129  1.00  0.00     0.003 A 
ENDBRANCH  18  20
ENDBRANCH  14  18
ENDBRANCH  11  12
ENDBRANCH  10  11
ENDBRANCH   9  10
ENDBRANCH   4   7
ENDBRANCH   2   3
ENDBRANCH   1   2
BRANCH   1  28
ATOM     28  C   UNL A   1      36.596  20.933  25.007  1.00  0.00     0.002 C 
BRANCH  28  29
ATOM     29  C   UNL A   1      37.851  20.064  24.858  1.00  0.00     0.002 C 
BRANCH  29  30
ATOM     30  C   UNL A   1      39.147  20.684  25.394  1.00  0.00     0.021 C 
BRANCH  30  31
ATOM     31  C   UNL A   1      39.795  19.923  26.548  1.00  0.00     0.116 C 
BRANCH  31  32
ATOM     32  N   UNL A   1      41.008  19.241  26.122  1.00  0.00    -0.352 N 
ATOM     33  C   UNL A   1      42.230  19.761  25.783  1.00  0.00     0.251 C 
ATOM     34  H   UNL A   1      40.939  18.261  26.068  1.00  0.00     0.163 HD
ATOM     35  O   UNL A   1      43.047  19.056  25.195  1.00  0.00    -0.269 OA
BRANCH  33  36
ATOM     36  C   UNL A   1      42.571  21.159  26.128  1.00  0.00     0.039 A 
ATOM     37  C   UNL A   1      42.704  22.097  25.100  1.00  0.00     0.014 A 
ATOM     38  C   UNL A   1      42.824  21.531  27.451  1.00  0.00     0.014 A 
ATOM     39  C   UNL A   1      43.067  23.411  25.403  1.00  0.00     0.010 A 
ATOM     40  C   UNL A   1      43.118  22.856  27.758  1.00  0.00     0.010 A 
ATOM     41  C   UNL A   1      43.268  23.805  26.736  1.00  0.00    -0.014 A 
BRANCH  41  42
ATOM     42  C   UNL A   1      43.673  25.192  27.076  1.00  0.00     0.031 A 
ATOM     43  C   UNL A   1      45.105  25.622  26.904  1.00  0.00     0.074 A 
ATOM     44  C   UNL A   1      42.768  26.042  27.600  1.00  0.00     0.049 A 
ATOM     45  N   UNL A   1      45.662  26.772  27.183  1.00  0.00    -0.248 NA
ATOM     46  C   UNL A   1      46.045  24.619  26.374  1.00  0.00     0.031 C 
ATOM     47  C   UNL A   1      41.368  25.720  27.885  1.00  0.00     0.029 A 
ATOM     48  N   UNL A   1      42.898  27.345  28.009  1.00  0.00    -0.354 N 
ATOM     49  C   UNL A   1      47.013  26.622  26.898  1.00  0.00     0.074 A 
ATOM     50  C   UNL A   1      47.203  25.257  26.460  1.00  0.00     0.031 C 
ATOM     51  C   UNL A   1      40.768  26.797  28.415  1.00  0.00     0.029 A 
ATOM     52  C   UNL A   1      41.741  27.878  28.529  1.00  0.00     0.049 A 
ATOM     53  H   UNL A   1      43.739  27.852  27.937  1.00  0.00     0.167 HD
ATOM     54  C   UNL A   1      48.004  27.544  26.961  1.00  0.00     0.034 A 
ATOM     55  C   UNL A   1      41.495  29.102  29.038  1.00  0.00     0.034 A 
ATOM     56  C   UNL A   1      47.801  28.914  27.347  1.00  0.00     0.049 A 
ATOM     57  C   UNL A   1      42.600  30.125  29.039  1.00  0.00     0.074 A 
ATOM     58  C   UNL A   1      48.721  29.947  27.374  1.00  0.00     0.029 A 
ATOM     59  N   UNL A   1      46.591  29.444  27.768  1.00  0.00    -0.354 N 
ATOM     60  N   UNL A   1      43.838  30.004  28.625  1.00  0.00    -0.248 NA
ATOM     61  C   UNL A   1      42.261  31.467  29.535  1.00  0.00     0.031 C 
ATOM     62  C   UNL A   1      48.068  31.101  27.821  1.00  0.00     0.029 A 
ATOM     63  C   UNL A   1      46.738  30.791  28.051  1.00  0.00     0.049 A 
ATOM     64  H   UNL A   1      45.751  28.937  27.852  1.00  0.00     0.167 HD
ATOM     65  C   UNL A   1      44.411  31.263  28.767  1.00  0.00     0.074 A 
ATOM     66  C   UNL A   1      43.380  32.136  29.290  1.00  0.00     0.031 C 
ATOM     67  C   UNL A   1      45.682  31.659  28.504  1.00  0.00     0.034 A 
BRANCH  54  68
ATOM     68  C   UNL A   1      49.387  27.117  26.541  1.00  0.00     0.023 A 
ATOM     69  C   UNL A   1      49.673  26.949  25.170  1.00  0.00     0.012 A 
ATOM     70  C   UNL A   1      50.417  26.940  27.486  1.00  0.00     0.148 A 
ATOM     71  C   UNL A   1      50.948  26.576  24.748  1.00  0.00     0.002 A 
ATOM     72  C   UNL A   1      51.698  26.613  27.055  1.00  0.00     0.091 A 
ATOM     73  F   UNL A   1      50.124  27.085  28.786  1.00  0.00    -0.205 F 
ATOM     74  C   UNL A   1      51.962  26.418  25.689  1.00  0.00     0.022 A 
BRANCH  72  75
ATOM     75  S   UNL A   1      53.091  26.463  28.178  1.00  0.00     0.127 S 
ATOM     76  O   UNL A   1      54.059  25.739  27.356  1.00  0.00    -0.237 OA
ATOM     77  O   UNL A   1      53.434  27.864  28.431  1.00  0.00    -0.237 OA
ATOM     78  O   UNL A   1      52.595  25.741  29.341  1.00  0.00    -0.744 OA
ENDBRANCH  72  75
ENDBRANCH  54  68
BRANCH  55  79
ATOM     79  C   UNL A   1      40.124  29.456  29.502  1.00  0.00     0.023 A 
ATOM     80  C   UNL A   1      39.196  29.971  28.576  1.00  0.00     0.012 A 
ATOM     81  C   UNL A   1      39.727  29.271  30.840  1.00  0.00     0.148 A 
ATOM     82  C   UNL A   1      37.909  30.330  28.980  1.00  0.00     0.002 A 
ATOM     83  C   UNL A   1      38.428  29.581  31.226  1.00  0.00     0.091 A 
ATOM     84  F   UNL A   1      40.628  28.792  31.710  1.00  0.00    -0.205 F 
ATOM     85  C   UNL A   1      37.523  30.127  30.302  1.00  0.00     0.022 A 
BRANCH  83  86
ATOM     86  S   UNL A   1      37.806  29.232  32.874  1.00  0.00     0.127 S 
ATOM     87  O   UNL A   1      36.472  29.822  32.824  1.00  0.00    -0.237 OA
ATOM     88  O   UNL A   1      37.833  27.770  32.908  1.00  0.00    -0.237 OA
ATOM     89  O   UNL A   1      38.749  29.867  33.787  1.00  0.00    -0.744 OA
ENDBRANCH  83  86
ENDBRANCH  55  79
BRANCH  67  90
ATOM     90  C   UNL A   1      46.020  33.110  28.723  1.00  0.00     0.023 A 
ATOM     91  C   UNL A   1      46.309  33.577  30.020  1.00  0.00     0.012 A 
ATOM     92  C   UNL A   1      46.121  33.994  27.631  1.00  0.00     0.148 A 
ATOM     93  C   UNL A   1      46.659  34.909  30.231  1.00  0.00     0.002 A 
ATOM     94  C   UNL A   1      46.519  35.308  27.842  1.00  0.00     0.091 A 
ATOM     95  F   UNL A   1      45.822  33.536  26.406  1.00  0.00    -0.205 F 
ATOM     96  C   UNL A   1      46.775  35.771  29.143  1.00  0.00     0.022 A 
BRANCH  94  97
ATOM     97  S   UNL A   1      46.787  36.457  26.487  1.00  0.00     0.127 S 
ATOM     98  O   UNL A   1      45.449  37.014  26.299  1.00  0.00    -0.237 OA
ATOM     99  O   UNL A   1      47.761  37.389  27.056  1.00  0.00    -0.237 OA
ATOM    100  O   UNL A   1      47.297  35.656  25.383  1.00  0.00    -0.744 OA
ENDBRANCH  94  97
ENDBRANCH  67  90
ENDBRANCH  41  42
ENDBRANCH  33  36
ENDBRANCH  31  32
ENDBRANCH  30  31
ENDBRANCH  29  30
ENDBRANCH  28  29
ENDBRANCH   1  28
TORSDOF 21
ENDMDL
MODEL 3
REMARK VINA RESULT:      -9.9      2.891      8.120
REMARK SMILES C/C(=N/OCc1ccccc1Nc1c(Cl)cccc1Cl)C(=O)NCCCCCCNC(=O)c1ccc(-c2c3nc(c(-c4cccc(S(=O)(=O)[O-])c4F)c4ccc([nH]4)c(-c4cccc(S(=O)(=O)[O-])c4F)c4nc(c(-c5cccc(S(=O)(=O)[O-])c5F)c5ccc2[nH]5)C=C4)C=C3)cc1
REMARK SMILES IDX 25 1 24 2 23 3 21 4 22 5 2 7 1 8 3 9 4 10 5 11 6 12 7 13
REMARK SMILES IDX 11 14 8 15 10 16 9 17 12 18 13 20 14 21 19 22 15 23 16 24
REMARK SMILES IDX 18 25 20 26 17 27 26 28 27 29 28 30 29 31 30 32 31 33 32 35
REMARK SMILES IDX 33 36 34 37 95 38 35 39 94 40 36 41 37 42 38 43 88 44 39 45
REMARK SMILES IDX 93 46 87 47 89 48 40 49 92 50 86 51 85 52 41 54 73 55 53 56
REMARK SMILES IDX 72 57 54 58 57 59 71 60 90 61 55 62 56 63 70 65 91 66 58 67
REMARK SMILES IDX 42 68 43 69 51 70 44 71 46 72 52 73 45 74 47 75 48 76 49 77
REMARK SMILES IDX 50 78 74 79 75 80 83 81 76 82 78 83 84 84 77 85 79 86 80 87
REMARK SMILES IDX 81 88 82 89 59 90 60 91 68 92 61 93 63 94 69 95 62 96 64 97
REMARK SMILES IDX 65 98 66 99 67 100
REMARK H PARENT 23 6 12 19 30 34 89 53 57 64
REMARK Flexibility Score: inf
ROOT
ATOM      1  C   UNL A   1      36.528  19.253  24.483  1.00  0.00     0.021 C 
ENDROOT
BRANCH   1   2
ATOM      2  C   UNL A   1      35.460  20.294  24.855  1.00  0.00     0.116 C 
BRANCH   2   3
ATOM      3  N   UNL A   1      34.289  19.626  25.382  1.00  0.00    -0.351 N 
ATOM      4  C   UNL A   1      33.009  19.513  24.901  1.00  0.00     0.268 C 
ATOM      5  O   UNL A   1      32.151  19.073  25.668  1.00  0.00    -0.268 OA
ATOM      6  H   UNL A   1      34.439  19.169  26.242  1.00  0.00     0.163 HD
BRANCH   4   7
ATOM      7  C   UNL A   1      32.579  19.749  23.458  1.00  0.00     0.141 C 
ATOM      8  C   UNL A   1      32.193  18.483  22.725  1.00  0.00     0.077 C 
ATOM      9  N   UNL A   1      32.438  20.859  22.798  1.00  0.00    -0.086 NA
BRANCH   9  10
ATOM     10  O   UNL A   1      32.773  21.995  23.514  1.00  0.00    -0.390 OA
BRANCH  10  11
ATOM     11  C   UNL A   1      31.757  23.004  23.397  1.00  0.00     0.302 C 
BRANCH  11  12
ATOM     12  C   UNL A   1      32.196  24.418  23.044  1.00  0.00     0.016 A 
ATOM     13  C   UNL A   1      32.369  24.751  21.684  1.00  0.00     0.009 A 
ATOM     14  C   UNL A   1      32.523  25.372  24.035  1.00  0.00     0.045 A 
ATOM     15  C   UNL A   1      32.866  25.997  21.301  1.00  0.00     0.001 A 
ATOM     16  C   UNL A   1      33.030  26.617  23.623  1.00  0.00     0.026 A 
ATOM     17  C   UNL A   1      33.209  26.926  22.273  1.00  0.00     0.002 A 
BRANCH  14  18
ATOM     18  N   UNL A   1      32.316  25.084  25.401  1.00  0.00    -0.353 N 
ATOM     19  H   UNL A   1      31.729  25.724  25.866  1.00  0.00     0.167 HD
BRANCH  18  20
ATOM     20  C   UNL A   1      32.802  24.039  26.222  1.00  0.00     0.076 A 
ATOM     21  C   UNL A   1      34.198  23.832  26.283  1.00  0.00     0.066 A 
ATOM     22  C   UNL A   1      31.986  23.211  27.012  1.00  0.00     0.066 A 
ATOM     23  Cl  UNL A   1      35.271  24.786  25.310  1.00  0.00    -0.082 Cl
ATOM     24  C   UNL A   1      34.760  22.855  27.105  1.00  0.00     0.023 A 
ATOM     25  C   UNL A   1      32.551  22.226  27.834  1.00  0.00     0.023 A 
ATOM     26  Cl  UNL A   1      30.257  23.262  26.934  1.00  0.00    -0.082 Cl
ATOM     27  C   UNL A   1      33.935  22.053  27.885  1.00  0.00     0.003 A 
ENDBRANCH  18  20
ENDBRANCH  14  18
ENDBRANCH  11  12
ENDBRANCH  10  11
ENDBRANCH   9  10
ENDBRANCH   4   7
ENDBRANCH   2   3
ENDBRANCH   1   2
BRANCH   1  28
ATOM     28  C   UNL A   1      37.885  19.506  25.140  1.00  0.00     0.002 C 
BRANCH  28  29
ATOM     29  C   UNL A   1      38.175  20.987  25.412  1.00  0.00     0.002 C 
BRANCH  29  30
ATOM     30  C   UNL A   1      39.633  21.319  25.753  1.00  0.00     0.021 C 
BRANCH  30  31
ATOM     31  C   UNL A   1      40.314  20.332  26.698  1.00  0.00     0.116 C 
BRANCH  31  32
ATOM     32  N   UNL A   1      41.469  19.707  26.072  1.00  0.00    -0.352 N 
ATOM     33  C   UNL A   1      42.631  20.274  25.617  1.00  0.00     0.251 C 
ATOM     34  H   UNL A   1      41.406  18.731  25.959  1.00  0.00     0.163 HD
ATOM     35  O   UNL A   1      43.373  19.627  24.882  1.00  0.00    -0.269 OA
BRANCH  33  36
ATOM     36  C   UNL A   1      42.997  21.651  26.013  1.00  0.00     0.039 A 
ATOM     37  C   UNL A   1      43.300  21.912  27.353  1.00  0.00     0.014 A 
ATOM     38  C   UNL A   1      42.979  22.695  25.085  1.00  0.00     0.014 A 
ATOM     39  C   UNL A   1      43.607  23.214  27.755  1.00  0.00     0.010 A 
ATOM     40  C   UNL A   1      43.352  23.979  25.472  1.00  0.00     0.010 A 
ATOM     41  C   UNL A   1      43.645  24.258  26.815  1.00  0.00    -0.014 A 
BRANCH  41  42
ATOM     42  C   UNL A   1      43.950  25.651  27.226  1.00  0.00     0.031 A 
ATOM     43  C   UNL A   1      45.369  26.153  27.188  1.00  0.00     0.074 A 
ATOM     44  C   UNL A   1      42.964  26.441  27.694  1.00  0.00     0.049 A 
ATOM     45  N   UNL A   1      45.842  27.319  27.545  1.00  0.00    -0.248 NA
ATOM     46  C   UNL A   1      46.398  25.213  26.712  1.00  0.00     0.031 C 
ATOM     47  C   UNL A   1      41.563  26.043  27.850  1.00  0.00     0.029 A 
ATOM     48  N   UNL A   1      42.994  27.735  28.149  1.00  0.00    -0.354 N 
ATOM     49  C   UNL A   1      47.219  27.242  27.372  1.00  0.00     0.074 A 
ATOM     50  C   UNL A   1      47.512  25.902  26.914  1.00  0.00     0.031 C 
ATOM     51  C   UNL A   1      40.868  27.074  28.358  1.00  0.00     0.029 A 
ATOM     52  C   UNL A   1      41.773  28.195  28.584  1.00  0.00     0.049 A 
ATOM     53  H   UNL A   1      43.812  28.282  28.163  1.00  0.00     0.167 HD
ATOM     54  C   UNL A   1      48.154  28.208  27.544  1.00  0.00     0.034 A 
ATOM     55  C   UNL A   1      41.425  29.390  29.104  1.00  0.00     0.034 A 
ATOM     56  C   UNL A   1      47.851  29.553  27.950  1.00  0.00     0.049 A 
ATOM     57  C   UNL A   1      42.473  30.463  29.227  1.00  0.00     0.074 A 
ATOM     58  C   UNL A   1      48.714  30.627  28.083  1.00  0.00     0.029 A 
ATOM     59  N   UNL A   1      46.585  30.012  28.281  1.00  0.00    -0.354 N 
ATOM     60  N   UNL A   1      43.746  30.414  28.917  1.00  0.00    -0.248 NA
ATOM     61  C   UNL A   1      42.028  31.771  29.730  1.00  0.00     0.031 C 
ATOM     62  C   UNL A   1      47.969  31.734  28.505  1.00  0.00     0.029 A 
ATOM     63  C   UNL A   1      46.641  31.354  28.612  1.00  0.00     0.049 A 
ATOM     64  H   UNL A   1      45.768  29.464  28.279  1.00  0.00     0.167 HD
ATOM     65  C   UNL A   1      44.242  31.694  29.142  1.00  0.00     0.074 A 
ATOM     66  C   UNL A   1      43.129  32.499  29.599  1.00  0.00     0.031 C 
ATOM     67  C   UNL A   1      45.509  32.157  28.998  1.00  0.00     0.034 A 
BRANCH  54  68
ATOM     68  C   UNL A   1      49.587  27.860  27.232  1.00  0.00     0.023 A 
ATOM     69  C   UNL A   1      50.039  27.929  25.898  1.00  0.00     0.012 A 
ATOM     70  C   UNL A   1      50.498  27.525  28.252  1.00  0.00     0.148 A 
ATOM     71  C   UNL A   1      51.364  27.635  25.579  1.00  0.00     0.002 A 
ATOM     72  C   UNL A   1      51.828  27.277  27.932  1.00  0.00     0.091 A 
ATOM     73  F   UNL A   1      50.047  27.445  29.512  1.00  0.00    -0.205 F 
ATOM     74  C   UNL A   1      52.260  27.320  26.597  1.00  0.00     0.022 A 
BRANCH  72  75
ATOM     75  S   UNL A   1      53.078  26.940  29.177  1.00  0.00     0.127 S 
ATOM     76  O   UNL A   1      54.124  26.299  28.381  1.00  0.00    -0.237 OA
ATOM     77  O   UNL A   1      53.411  28.284  29.652  1.00  0.00    -0.237 OA
ATOM     78  O   UNL A   1      52.438  26.087  30.170  1.00  0.00    -0.744 OA
ENDBRANCH  72  75
ENDBRANCH  54  68
BRANCH  55  79
ATOM     79  C   UNL A   1      40.003  29.664  29.459  1.00  0.00     0.023 A 
ATOM     80  C   UNL A   1      39.084  29.962  28.436  1.00  0.00     0.012 A 
ATOM     81  C   UNL A   1      39.554  29.613  30.792  1.00  0.00     0.148 A 
ATOM     82  C   UNL A   1      37.750  30.241  28.735  1.00  0.00     0.002 A 
ATOM     83  C   UNL A   1      38.212  29.840  31.080  1.00  0.00     0.091 A 
ATOM     84  F   UNL A   1      40.446  29.340  31.755  1.00  0.00    -0.205 F 
ATOM     85  C   UNL A   1      37.313  30.172  30.055  1.00  0.00     0.022 A 
BRANCH  83  86
ATOM     86  S   UNL A   1      37.537  29.646  32.732  1.00  0.00     0.127 S 
ATOM     87  O   UNL A   1      36.198  30.206  32.578  1.00  0.00    -0.237 OA
ATOM     88  O   UNL A   1      37.583  28.195  32.912  1.00  0.00    -0.237 OA
ATOM     89  O   UNL A   1      38.439  30.383  33.610  1.00  0.00    -0.744 OA
ENDBRANCH  83  86
ENDBRANCH  55  79
BRANCH  67  90
ATOM     90  C   UNL A   1      45.755  33.615  29.286  1.00  0.00     0.023 A 
ATOM     91  C   UNL A   1      46.139  34.022  30.578  1.00  0.00     0.012 A 
ATOM     92  C   UNL A   1      45.676  34.570  28.253  1.00  0.00     0.148 A 
ATOM     93  C   UNL A   1      46.405  35.363  30.848  1.00  0.00     0.002 A 
ATOM     94  C   UNL A   1      45.990  35.897  28.518  1.00  0.00     0.091 A 
ATOM     95  F   UNL A   1      45.289  34.166  27.034  1.00  0.00    -0.205 F 
ATOM     96  C   UNL A   1      46.342  36.298  29.817  1.00  0.00     0.022 A 
BRANCH  94  97
ATOM     97  S   UNL A   1      46.030  37.147  27.227  1.00  0.00     0.127 S 
ATOM     98  O   UNL A   1      46.505  36.376  26.081  1.00  0.00    -0.237 OA
ATOM     99  O   UNL A   1      44.627  37.557  27.147  1.00  0.00    -0.237 OA
ATOM    100  O   UNL A   1      46.932  38.185  27.706  1.00  0.00    -0.744 OA
ENDBRANCH  94  97
ENDBRANCH  67  90
ENDBRANCH  41  42
ENDBRANCH  33  36
ENDBRANCH  31  32
ENDBRANCH  30  31
ENDBRANCH  29  30
ENDBRANCH  28  29
ENDBRANCH   1  28
TORSDOF 21
ENDMDL
