MODEL 1
REMARK VINA RESULT:     -11.0      0.000      0.000
REMARK SMILES C[C@H](C(=O)NCCCCCCNC(=O)c1ccc(-c2c3nc(c(-c4cccc(S(=O)(=O)[O-])c4F)c4ccc([nH]4)c(-c4cccc(S(=O)(=O)[O-])c4F)c4nc(c(-c5cccc(S(=O)(=O)[O-])c5F)c5ccc2[nH]5)C=C4)C=C3)cc1)N1CCc2ccccc21
REMARK SMILES IDX 9 1 8 2 7 3 6 4 5 5 3 6 4 7 2 9 1 10 78 11 79 12 86 13 80 14
REMARK SMILES IDX 81 15 85 16 82 17 84 18 83 19 10 20 11 21 12 22 13 23 14 25
REMARK SMILES IDX 15 26 16 27 77 28 17 29 76 30 18 31 19 32 20 33 70 34 21 35
REMARK SMILES IDX 75 36 69 37 71 38 22 39 74 40 68 41 67 42 23 44 55 45 35 46
REMARK SMILES IDX 54 47 36 48 39 49 53 50 72 51 37 52 38 53 52 55 73 56 40 57
REMARK SMILES IDX 24 58 25 59 33 60 26 61 28 62 34 63 27 64 29 65 30 66 31 67
REMARK SMILES IDX 32 68 56 69 57 70 65 71 58 72 60 73 66 74 59 75 61 76 62 77
REMARK SMILES IDX 63 78 64 79 41 80 42 81 50 82 43 83 45 84 51 85 44 86 46 87
REMARK SMILES IDX 47 88 48 89 49 90
REMARK H PARENT 5 8 12 24 71 43 39 54
REMARK Flexibility Score: inf
ROOT
ATOM      1  C   UNL A   1      31.616  28.337  25.180  1.00  0.00     0.002 C 
ENDROOT
BRANCH   1   2
ATOM      2  C   UNL A   1      30.819  29.343  24.341  1.00  0.00     0.002 C 
BRANCH   2   3
ATOM      3  C   UNL A   1      30.781  29.029  22.842  1.00  0.00     0.021 C 
BRANCH   3   4
ATOM      4  C   UNL A   1      30.669  27.534  22.545  1.00  0.00     0.116 C 
BRANCH   4   5
ATOM      5  N   UNL A   1      31.828  27.073  21.809  1.00  0.00    -0.354 N 
ATOM      6  C   UNL A   1      32.554  25.930  21.997  1.00  0.00     0.242 C 
ATOM      7  O   UNL A   1      33.585  25.810  21.323  1.00  0.00    -0.273 OA
ATOM      8  H   UNL A   1      32.133  27.660  21.080  1.00  0.00     0.163 HD
BRANCH   6   9
ATOM      9  C   UNL A   1      32.025  24.788  22.899  1.00  0.00     0.168 C 
ATOM     10  C   UNL A   1      32.495  23.421  22.381  1.00  0.00     0.042 C 
BRANCH   9  11
ATOM     11  N   UNL A   1      32.330  24.934  24.338  1.00  0.00    -0.359 N 
ATOM     12  C   UNL A   1      31.269  24.609  25.314  1.00  0.00     0.122 C 
ATOM     13  C   UNL A   1      33.522  24.475  24.899  1.00  0.00     0.041 A 
ATOM     14  C   UNL A   1      31.940  24.199  26.634  1.00  0.00     0.059 C 
ATOM     15  C   UNL A   1      33.338  23.948  26.179  1.00  0.00    -0.023 A 
ATOM     16  C   UNL A   1      34.783  24.463  24.330  1.00  0.00     0.026 A 
ATOM     17  C   UNL A   1      34.358  23.312  26.866  1.00  0.00     0.006 A 
ATOM     18  C   UNL A   1      35.831  23.840  25.012  1.00  0.00     0.002 A 
ATOM     19  C   UNL A   1      35.613  23.242  26.260  1.00  0.00     0.000 A 
ENDBRANCH   9  11
ENDBRANCH   6   9
ENDBRANCH   4   5
ENDBRANCH   3   4
ENDBRANCH   2   3
ENDBRANCH   1   2
BRANCH   1  20
ATOM     20  C   UNL A   1      33.138  28.480  25.084  1.00  0.00     0.021 C 
BRANCH  20  21
ATOM     21  C   UNL A   1      33.827  28.783  26.412  1.00  0.00     0.116 C 
BRANCH  21  22
ATOM     22  N   UNL A   1      33.835  30.212  26.690  1.00  0.00    -0.352 N 
ATOM     23  C   UNL A   1      34.644  30.918  27.544  1.00  0.00     0.251 C 
ATOM     24  H   UNL A   1      33.170  30.746  26.196  1.00  0.00     0.163 HD
ATOM     25  O   UNL A   1      34.350  32.062  27.877  1.00  0.00    -0.269 OA
BRANCH  23  26
ATOM     26  C   UNL A   1      35.875  30.285  28.056  1.00  0.00     0.039 A 
ATOM     27  C   UNL A   1      37.041  30.332  27.287  1.00  0.00     0.014 A 
ATOM     28  C   UNL A   1      35.866  29.639  29.296  1.00  0.00     0.014 A 
ATOM     29  C   UNL A   1      38.215  29.764  27.786  1.00  0.00     0.010 A 
ATOM     30  C   UNL A   1      37.052  29.136  29.819  1.00  0.00     0.010 A 
ATOM     31  C   UNL A   1      38.234  29.180  29.065  1.00  0.00    -0.014 A 
BRANCH  31  32
ATOM     32  C   UNL A   1      39.478  28.603  29.630  1.00  0.00     0.031 A 
ATOM     33  C   UNL A   1      40.111  29.222  30.846  1.00  0.00     0.074 A 
ATOM     34  C   UNL A   1      40.082  27.578  28.997  1.00  0.00     0.049 A 
ATOM     35  N   UNL A   1      41.220  28.896  31.453  1.00  0.00    -0.248 NA
ATOM     36  C   UNL A   1      39.419  30.377  31.443  1.00  0.00     0.031 C 
ATOM     37  C   UNL A   1      39.605  26.946  27.765  1.00  0.00     0.029 A 
ATOM     38  N   UNL A   1      41.241  26.904  29.289  1.00  0.00    -0.354 N 
ATOM     39  C   UNL A   1      41.380  29.821  32.478  1.00  0.00     0.074 A 
ATOM     40  C   UNL A   1      40.270  30.744  32.389  1.00  0.00     0.031 C 
ATOM     41  C   UNL A   1      40.462  25.974  27.410  1.00  0.00     0.029 A 
ATOM     42  C   UNL A   1      41.559  25.931  28.371  1.00  0.00     0.049 A 
ATOM     43  H   UNL A   1      41.791  27.099  30.082  1.00  0.00     0.167 HD
ATOM     44  C   UNL A   1      42.343  29.878  33.428  1.00  0.00     0.034 A 
ATOM     45  C   UNL A   1      42.618  25.100  28.311  1.00  0.00     0.034 A 
ATOM     46  C   UNL A   1      43.418  28.929  33.538  1.00  0.00     0.049 A 
ATOM     47  C   UNL A   1      43.652  25.157  29.402  1.00  0.00     0.074 A 
ATOM     48  C   UNL A   1      44.396  28.847  34.513  1.00  0.00     0.029 A 
ATOM     49  N   UNL A   1      43.660  27.901  32.640  1.00  0.00    -0.354 N 
ATOM     50  N   UNL A   1      43.699  25.938  30.454  1.00  0.00    -0.248 NA
ATOM     51  C   UNL A   1      44.759  24.194  29.321  1.00  0.00     0.031 C 
ATOM     52  C   UNL A   1      45.242  27.779  34.193  1.00  0.00     0.029 A 
ATOM     53  C   UNL A   1      44.775  27.183  33.033  1.00  0.00     0.049 A 
ATOM     54  H   UNL A   1      43.118  27.710  31.840  1.00  0.00     0.167 HD
ATOM     55  C   UNL A   1      44.816  25.537  31.178  1.00  0.00     0.074 A 
ATOM     56  C   UNL A   1      45.406  24.429  30.454  1.00  0.00     0.031 C 
ATOM     57  C   UNL A   1      45.317  26.048  32.329  1.00  0.00     0.034 A 
BRANCH  44  58
ATOM     58  C   UNL A   1      42.246  30.971  34.460  1.00  0.00     0.023 A 
ATOM     59  C   UNL A   1      41.581  30.719  35.678  1.00  0.00     0.012 A 
ATOM     60  C   UNL A   1      42.858  32.223  34.254  1.00  0.00     0.148 A 
ATOM     61  C   UNL A   1      41.496  31.704  36.659  1.00  0.00     0.002 A 
ATOM     62  C   UNL A   1      42.806  33.187  35.256  1.00  0.00     0.091 A 
ATOM     63  F   UNL A   1      43.467  32.454  33.082  1.00  0.00    -0.205 F 
ATOM     64  C   UNL A   1      42.116  32.934  36.453  1.00  0.00     0.022 A 
BRANCH  62  65
ATOM     65  S   UNL A   1      43.642  34.771  35.121  1.00  0.00     0.127 S 
ATOM     66  O   UNL A   1      42.928  35.387  34.003  1.00  0.00    -0.237 OA
ATOM     67  O   UNL A   1      43.367  35.376  36.425  1.00  0.00    -0.237 OA
ATOM     68  O   UNL A   1      45.044  34.467  34.875  1.00  0.00    -0.744 OA
ENDBRANCH  62  65
ENDBRANCH  44  58
BRANCH  45  69
ATOM     69  C   UNL A   1      42.713  24.093  27.216  1.00  0.00     0.023 A 
ATOM     70  C   UNL A   1      43.460  24.396  26.062  1.00  0.00     0.012 A 
ATOM     71  C   UNL A   1      42.096  22.831  27.323  1.00  0.00     0.148 A 
ATOM     72  C   UNL A   1      43.565  23.475  25.019  1.00  0.00     0.002 A 
ATOM     73  C   UNL A   1      42.249  21.898  26.303  1.00  0.00     0.091 A 
ATOM     74  F   UNL A   1      41.379  22.564  28.424  1.00  0.00    -0.205 F 
ATOM     75  C   UNL A   1      42.969  22.224  25.144  1.00  0.00     0.022 A 
BRANCH  73  76
ATOM     76  S   UNL A   1      41.626  20.217  26.435  1.00  0.00     0.127 S 
ATOM     77  O   UNL A   1      40.187  20.419  26.287  1.00  0.00    -0.237 OA
ATOM     78  O   UNL A   1      42.278  19.563  25.299  1.00  0.00    -0.237 OA
ATOM     79  O   UNL A   1      42.069  19.736  27.737  1.00  0.00    -0.744 OA
ENDBRANCH  73  76
ENDBRANCH  45  69
BRANCH  57  80
ATOM     80  C   UNL A   1      46.546  25.395  32.907  1.00  0.00     0.023 A 
ATOM     81  C   UNL A   1      47.823  25.874  32.557  1.00  0.00     0.012 A 
ATOM     82  C   UNL A   1      46.430  24.360  33.855  1.00  0.00     0.148 A 
ATOM     83  C   UNL A   1      48.968  25.312  33.119  1.00  0.00     0.002 A 
ATOM     84  C   UNL A   1      47.574  23.837  34.447  1.00  0.00     0.091 A 
ATOM     85  F   UNL A   1      45.205  23.905  34.160  1.00  0.00    -0.205 F 
ATOM     86  C   UNL A   1      48.843  24.303  34.072  1.00  0.00     0.022 A 
BRANCH  84  87
ATOM     87  S   UNL A   1      47.504  22.606  35.754  1.00  0.00     0.127 S 
ATOM     88  O   UNL A   1      46.940  21.456  35.048  1.00  0.00    -0.237 OA
ATOM     89  O   UNL A   1      48.913  22.464  36.123  1.00  0.00    -0.237 OA
ATOM     90  O   UNL A   1      46.661  23.175  36.797  1.00  0.00    -0.744 OA
ENDBRANCH  84  87
ENDBRANCH  57  80
ENDBRANCH  31  32
ENDBRANCH  23  26
ENDBRANCH  21  22
ENDBRANCH  20  21
ENDBRANCH   1  20
TORSDOF 17
ENDMDL
MODEL 2
REMARK VINA RESULT:     -10.9      3.659      8.802
REMARK SMILES C[C@H](C(=O)NCCCCCCNC(=O)c1ccc(-c2c3nc(c(-c4cccc(S(=O)(=O)[O-])c4F)c4ccc([nH]4)c(-c4cccc(S(=O)(=O)[O-])c4F)c4nc(c(-c5cccc(S(=O)(=O)[O-])c5F)c5ccc2[nH]5)C=C4)C=C3)cc1)N1CCc2ccccc21
REMARK SMILES IDX 9 1 8 2 7 3 6 4 5 5 3 6 4 7 2 9 1 10 78 11 79 12 86 13 80 14
REMARK SMILES IDX 81 15 85 16 82 17 84 18 83 19 10 20 11 21 12 22 13 23 14 25
REMARK SMILES IDX 15 26 16 27 77 28 17 29 76 30 18 31 19 32 20 33 70 34 21 35
REMARK SMILES IDX 75 36 69 37 71 38 22 39 74 40 68 41 67 42 23 44 55 45 35 46
REMARK SMILES IDX 54 47 36 48 39 49 53 50 72 51 37 52 38 53 52 55 73 56 40 57
REMARK SMILES IDX 24 58 25 59 33 60 26 61 28 62 34 63 27 64 29 65 30 66 31 67
REMARK SMILES IDX 32 68 56 69 57 70 65 71 58 72 60 73 66 74 59 75 61 76 62 77
REMARK SMILES IDX 63 78 64 79 41 80 42 81 50 82 43 83 45 84 51 85 44 86 46 87
REMARK SMILES IDX 47 88 48 89 49 90
REMARK H PARENT 5 8 12 24 71 43 39 54
REMARK Flexibility Score: inf
ROOT
ATOM      1  C   UNL A   1      31.392  30.592  25.897  1.00  0.00     0.002 C 
ENDROOT
BRANCH   1   2
ATOM      2  C   UNL A   1      32.110  29.557  26.770  1.00  0.00     0.002 C 
BRANCH   2   3
ATOM      3  C   UNL A   1      32.021  28.119  26.251  1.00  0.00     0.021 C 
BRANCH   3   4
ATOM      4  C   UNL A   1      33.382  27.429  26.158  1.00  0.00     0.116 C 
BRANCH   4   5
ATOM      5  N   UNL A   1      33.219  25.993  26.057  1.00  0.00    -0.354 N 
ATOM      6  C   UNL A   1      32.733  25.264  25.008  1.00  0.00     0.242 C 
ATOM      7  O   UNL A   1      32.569  24.053  25.201  1.00  0.00    -0.273 OA
ATOM      8  H   UNL A   1      33.493  25.475  26.849  1.00  0.00     0.163 HD
BRANCH   6   9
ATOM      9  C   UNL A   1      32.541  25.907  23.612  1.00  0.00     0.168 C 
ATOM     10  C   UNL A   1      33.276  25.097  22.534  1.00  0.00     0.042 C 
BRANCH   9  11
ATOM     11  N   UNL A   1      31.136  26.145  23.219  1.00  0.00    -0.359 N 
ATOM     12  C   UNL A   1      30.070  25.488  24.002  1.00  0.00     0.122 C 
ATOM     13  C   UNL A   1      30.655  27.417  22.906  1.00  0.00     0.041 A 
ATOM     14  C   UNL A   1      28.793  26.333  23.880  1.00  0.00     0.059 C 
ATOM     15  C   UNL A   1      29.347  27.614  23.354  1.00  0.00    -0.023 A 
ATOM     16  C   UNL A   1      31.320  28.446  22.263  1.00  0.00     0.026 A 
ATOM     17  C   UNL A   1      28.720  28.846  23.273  1.00  0.00     0.006 A 
ATOM     18  C   UNL A   1      30.700  29.694  22.158  1.00  0.00     0.002 A 
ATOM     19  C   UNL A   1      29.418  29.900  22.685  1.00  0.00     0.000 A 
ENDBRANCH   9  11
ENDBRANCH   6   9
ENDBRANCH   4   5
ENDBRANCH   3   4
ENDBRANCH   2   3
ENDBRANCH   1   2
BRANCH   1  20
ATOM     20  C   UNL A   1      31.307  31.997  26.502  1.00  0.00     0.021 C 
BRANCH  20  21
ATOM     21  C   UNL A   1      32.612  32.501  27.112  1.00  0.00     0.116 C 
BRANCH  21  22
ATOM     22  N   UNL A   1      32.502  33.895  27.519  1.00  0.00    -0.352 N 
ATOM     23  C   UNL A   1      33.130  34.541  28.554  1.00  0.00     0.251 C 
ATOM     24  H   UNL A   1      31.897  34.450  26.976  1.00  0.00     0.163 HD
ATOM     25  O   UNL A   1      32.728  35.634  28.940  1.00  0.00    -0.269 OA
BRANCH  23  26
ATOM     26  C   UNL A   1      34.297  33.904  29.196  1.00  0.00     0.039 A 
ATOM     27  C   UNL A   1      35.576  34.409  28.949  1.00  0.00     0.014 A 
ATOM     28  C   UNL A   1      34.118  32.803  30.038  1.00  0.00     0.014 A 
ATOM     29  C   UNL A   1      36.676  33.830  29.583  1.00  0.00     0.010 A 
ATOM     30  C   UNL A   1      35.207  32.274  30.722  1.00  0.00     0.010 A 
ATOM     31  C   UNL A   1      36.497  32.771  30.491  1.00  0.00    -0.014 A 
BRANCH  31  32
ATOM     32  C   UNL A   1      37.648  32.165  31.203  1.00  0.00     0.031 A 
ATOM     33  C   UNL A   1      38.403  31.022  30.580  1.00  0.00     0.074 A 
ATOM     34  C   UNL A   1      37.958  32.586  32.445  1.00  0.00     0.049 A 
ATOM     35  N   UNL A   1      39.398  30.330  31.066  1.00  0.00    -0.248 NA
ATOM     36  C   UNL A   1      37.963  30.581  29.245  1.00  0.00     0.031 C 
ATOM     37  C   UNL A   1      37.250  33.633  33.184  1.00  0.00     0.029 A 
ATOM     38  N   UNL A   1      38.934  32.169  33.314  1.00  0.00    -0.354 N 
ATOM     39  C   UNL A   1      39.682  29.353  30.119  1.00  0.00     0.074 A 
ATOM     40  C   UNL A   1      38.730  29.520  29.043  1.00  0.00     0.031 C 
ATOM     41  C   UNL A   1      37.816  33.778  34.393  1.00  0.00     0.029 A 
ATOM     42  C   UNL A   1      38.909  32.820  34.525  1.00  0.00     0.049 A 
ATOM     43  H   UNL A   1      39.590  31.469  33.092  1.00  0.00     0.167 HD
ATOM     44  C   UNL A   1      40.666  28.423  30.127  1.00  0.00     0.034 A 
ATOM     45  C   UNL A   1      39.679  32.659  35.619  1.00  0.00     0.034 A 
ATOM     46  C   UNL A   1      41.638  28.292  31.178  1.00  0.00     0.049 A 
ATOM     47  C   UNL A   1      40.792  31.648  35.585  1.00  0.00     0.074 A 
ATOM     48  C   UNL A   1      42.726  27.441  31.242  1.00  0.00     0.029 A 
ATOM     49  N   UNL A   1      41.635  29.030  32.352  1.00  0.00    -0.354 N 
ATOM     50  N   UNL A   1      41.144  30.841  34.613  1.00  0.00    -0.248 NA
ATOM     51  C   UNL A   1      41.639  31.549  36.782  1.00  0.00     0.031 C 
ATOM     52  C   UNL A   1      43.372  27.650  32.467  1.00  0.00     0.029 A 
ATOM     53  C   UNL A   1      42.699  28.649  33.152  1.00  0.00     0.049 A 
ATOM     54  H   UNL A   1      40.974  29.722  32.583  1.00  0.00     0.167 HD
ATOM     55  C   UNL A   1      42.273  30.167  35.066  1.00  0.00     0.074 A 
ATOM     56  C   UNL A   1      42.557  30.676  36.392  1.00  0.00     0.031 C 
ATOM     57  C   UNL A   1      42.999  29.205  34.447  1.00  0.00     0.034 A 
BRANCH  44  58
ATOM     58  C   UNL A   1      40.776  27.510  28.934  1.00  0.00     0.023 A 
ATOM     59  C   UNL A   1      39.895  26.415  28.813  1.00  0.00     0.012 A 
ATOM     60  C   UNL A   1      41.708  27.762  27.907  1.00  0.00     0.148 A 
ATOM     61  C   UNL A   1      39.960  25.567  27.710  1.00  0.00     0.002 A 
ATOM     62  C   UNL A   1      41.737  26.937  26.788  1.00  0.00     0.091 A 
ATOM     63  F   UNL A   1      42.552  28.793  28.048  1.00  0.00    -0.205 F 
ATOM     64  C   UNL A   1      40.874  25.833  26.693  1.00  0.00     0.022 A 
BRANCH  62  65
ATOM     65  S   UNL A   1      42.820  27.242  25.387  1.00  0.00     0.127 S 
ATOM     66  O   UNL A   1      42.706  25.986  24.647  1.00  0.00    -0.237 OA
ATOM     67  O   UNL A   1      42.176  28.389  24.744  1.00  0.00    -0.237 OA
ATOM     68  O   UNL A   1      44.135  27.519  25.948  1.00  0.00    -0.744 OA
ENDBRANCH  62  65
ENDBRANCH  44  58
BRANCH  45  69
ATOM     69  C   UNL A   1      39.471  33.531  36.810  1.00  0.00     0.023 A 
ATOM     70  C   UNL A   1      39.908  34.869  36.770  1.00  0.00     0.012 A 
ATOM     71  C   UNL A   1      38.821  33.056  37.966  1.00  0.00     0.148 A 
ATOM     72  C   UNL A   1      39.731  35.710  37.870  1.00  0.00     0.002 A 
ATOM     73  C   UNL A   1      38.600  33.914  39.037  1.00  0.00     0.091 A 
ATOM     74  F   UNL A   1      38.422  31.776  37.990  1.00  0.00    -0.205 F 
ATOM     75  C   UNL A   1      39.068  35.236  38.998  1.00  0.00     0.022 A 
BRANCH  73  76
ATOM     76  S   UNL A   1      37.641  33.427  40.477  1.00  0.00     0.127 S 
ATOM     77  O   UNL A   1      38.431  32.316  41.001  1.00  0.00    -0.237 OA
ATOM     78  O   UNL A   1      37.675  34.645  41.289  1.00  0.00    -0.237 OA
ATOM     79  O   UNL A   1      36.320  33.083  39.971  1.00  0.00    -0.744 OA
ENDBRANCH  73  76
ENDBRANCH  45  69
BRANCH  57  80
ATOM     80  C   UNL A   1      44.199  28.658  35.175  1.00  0.00     0.023 A 
ATOM     81  C   UNL A   1      45.475  29.205  34.935  1.00  0.00     0.012 A 
ATOM     82  C   UNL A   1      44.049  27.657  36.155  1.00  0.00     0.148 A 
ATOM     83  C   UNL A   1      46.587  28.743  35.636  1.00  0.00     0.002 A 
ATOM     84  C   UNL A   1      45.154  27.235  36.884  1.00  0.00     0.091 A 
ATOM     85  F   UNL A   1      42.829  27.136  36.356  1.00  0.00    -0.205 F 
ATOM     86  C   UNL A   1      46.425  27.767  36.617  1.00  0.00     0.022 A 
BRANCH  84  87
ATOM     87  S   UNL A   1      45.024  26.056  38.233  1.00  0.00     0.127 S 
ATOM     88  O   UNL A   1      44.029  26.697  39.092  1.00  0.00    -0.237 OA
ATOM     89  O   UNL A   1      44.552  24.851  37.549  1.00  0.00    -0.237 OA
ATOM     90  O   UNL A   1      46.360  25.944  38.799  1.00  0.00    -0.744 OA
ENDBRANCH  84  87
ENDBRANCH  57  80
ENDBRANCH  31  32
ENDBRANCH  23  26
ENDBRANCH  21  22
ENDBRANCH  20  21
ENDBRANCH   1  20
TORSDOF 17
ENDMDL
MODEL 3
REMARK VINA RESULT:     -10.9      4.453      9.729
REMARK SMILES C[C@H](C(=O)NCCCCCCNC(=O)c1ccc(-c2c3nc(c(-c4cccc(S(=O)(=O)[O-])c4F)c4ccc([nH]4)c(-c4cccc(S(=O)(=O)[O-])c4F)c4nc(c(-c5cccc(S(=O)(=O)[O-])c5F)c5ccc2[nH]5)C=C4)C=C3)cc1)N1CCc2ccccc21
REMARK SMILES IDX 9 1 8 2 7 3 6 4 5 5 3 6 4 7 2 9 1 10 78 11 79 12 86 13 80 14
REMARK SMILES IDX 81 15 85 16 82 17 84 18 83 19 10 20 11 21 12 22 13 23 14 25
REMARK SMILES IDX 15 26 16 27 77 28 17 29 76 30 18 31 19 32 20 33 70 34 21 35
REMARK SMILES IDX 75 36 69 37 71 38 22 39 74 40 68 41 67 42 23 44 55 45 35 46
REMARK SMILES IDX 54 47 36 48 39 49 53 50 72 51 37 52 38 53 52 55 73 56 40 57
REMARK SMILES IDX 24 58 25 59 33 60 26 61 28 62 34 63 27 64 29 65 30 66 31 67
REMARK SMILES IDX 32 68 56 69 57 70 65 71 58 72 60 73 66 74 59 75 61 76 62 77
REMARK SMILES IDX 63 78 64 79 41 80 42 81 50 82 43 83 45 84 51 85 44 86 46 87
REMARK SMILES IDX 47 88 48 89 49 90
REMARK H PARENT 5 8 12 24 71 43 39 54
REMARK Flexibility Score: inf
ROOT
ATOM      1  C   UNL A   1      35.011  22.591  24.050  1.00  0.00     0.002 C 
ENDROOT
BRANCH   1   2
ATOM      2  C   UNL A   1      34.568  21.836  25.307  1.00  0.00     0.002 C 
BRANCH   2   3
ATOM      3  C   UNL A   1      33.508  20.757  25.059  1.00  0.00     0.021 C 
BRANCH   3   4
ATOM      4  C   UNL A   1      32.111  21.331  24.827  1.00  0.00     0.116 C 
BRANCH   4   5
ATOM      5  N   UNL A   1      31.635  22.008  26.016  1.00  0.00    -0.354 N 
ATOM      6  C   UNL A   1      31.271  23.317  26.160  1.00  0.00     0.242 C 
ATOM      7  O   UNL A   1      31.015  23.700  27.308  1.00  0.00    -0.273 OA
ATOM      8  H   UNL A   1      31.565  21.452  26.825  1.00  0.00     0.163 HD
BRANCH   6   9
ATOM      9  C   UNL A   1      31.053  24.225  24.924  1.00  0.00     0.168 C 
ATOM     10  C   UNL A   1      30.039  25.335  25.236  1.00  0.00     0.042 C 
BRANCH   9  11
ATOM     11  N   UNL A   1      32.286  24.792  24.338  1.00  0.00    -0.359 N 
ATOM     12  C   UNL A   1      32.385  24.879  22.866  1.00  0.00     0.122 C 
ATOM     13  C   UNL A   1      32.882  25.953  24.833  1.00  0.00     0.041 A 
ATOM     14  C   UNL A   1      33.351  26.021  22.516  1.00  0.00     0.059 C 
ATOM     15  C   UNL A   1      33.420  26.746  23.817  1.00  0.00    -0.023 A 
ATOM     16  C   UNL A   1      32.957  26.380  26.146  1.00  0.00     0.026 A 
ATOM     17  C   UNL A   1      33.938  28.007  24.066  1.00  0.00     0.006 A 
ATOM     18  C   UNL A   1      33.488  27.642  26.422  1.00  0.00     0.002 A 
ATOM     19  C   UNL A   1      33.950  28.463  25.383  1.00  0.00     0.000 A 
ENDBRANCH   9  11
ENDBRANCH   6   9
ENDBRANCH   4   5
ENDBRANCH   3   4
ENDBRANCH   2   3
ENDBRANCH   1   2
BRANCH   1  20
ATOM     20  C   UNL A   1      36.513  22.880  23.967  1.00  0.00     0.021 C 
BRANCH  20  21
ATOM     21  C   UNL A   1      37.121  23.426  25.257  1.00  0.00     0.116 C 
BRANCH  21  22
ATOM     22  N   UNL A   1      38.018  22.457  25.871  1.00  0.00    -0.352 N 
ATOM     23  C   UNL A   1      39.212  22.674  26.509  1.00  0.00     0.251 C 
ATOM     24  H   UNL A   1      37.726  21.517  25.823  1.00  0.00     0.163 HD
ATOM     25  O   UNL A   1      39.981  21.742  26.725  1.00  0.00    -0.269 OA
BRANCH  23  26
ATOM     26  C   UNL A   1      39.561  24.044  26.935  1.00  0.00     0.039 A 
ATOM     27  C   UNL A   1      39.285  24.446  28.244  1.00  0.00     0.014 A 
ATOM     28  C   UNL A   1      40.156  24.928  26.029  1.00  0.00     0.014 A 
ATOM     29  C   UNL A   1      39.647  25.729  28.658  1.00  0.00     0.010 A 
ATOM     30  C   UNL A   1      40.577  26.179  26.464  1.00  0.00     0.010 A 
ATOM     31  C   UNL A   1      40.314  26.598  27.777  1.00  0.00    -0.014 A 
BRANCH  31  32
ATOM     32  C   UNL A   1      40.739  27.953  28.207  1.00  0.00     0.031 A 
ATOM     33  C   UNL A   1      42.200  28.313  28.226  1.00  0.00     0.074 A 
ATOM     34  C   UNL A   1      39.819  28.826  28.660  1.00  0.00     0.049 A 
ATOM     35  N   UNL A   1      42.770  29.421  28.616  1.00  0.00    -0.248 NA
ATOM     36  C   UNL A   1      43.148  27.281  27.771  1.00  0.00     0.031 C 
ATOM     37  C   UNL A   1      38.382  28.563  28.763  1.00  0.00     0.029 A 
ATOM     38  N   UNL A   1      39.958  30.103  29.142  1.00  0.00    -0.354 N 
ATOM     39  C   UNL A   1      44.139  29.211  28.489  1.00  0.00     0.074 A 
ATOM     40  C   UNL A   1      44.315  27.856  28.018  1.00  0.00     0.031 C 
ATOM     41  C   UNL A   1      37.773  29.646  29.272  1.00  0.00     0.029 A 
ATOM     42  C   UNL A   1      38.774  30.668  29.555  1.00  0.00     0.049 A 
ATOM     43  H   UNL A   1      40.823  30.570  29.187  1.00  0.00     0.167 HD
ATOM     44  C   UNL A   1      45.154  30.078  28.712  1.00  0.00     0.034 A 
ATOM     45  C   UNL A   1      38.527  31.874  30.104  1.00  0.00     0.034 A 
ATOM     46  C   UNL A   1      44.969  31.439  29.137  1.00  0.00     0.049 A 
ATOM     47  C   UNL A   1      39.669  32.833  30.301  1.00  0.00     0.074 A 
ATOM     48  C   UNL A   1      45.925  32.424  29.308  1.00  0.00     0.029 A 
ATOM     49  N   UNL A   1      43.746  32.006  29.462  1.00  0.00    -0.354 N 
ATOM     50  N   UNL A   1      40.940  32.670  30.024  1.00  0.00    -0.248 NA
ATOM     51  C   UNL A   1      39.339  34.155  30.851  1.00  0.00     0.031 C 
ATOM     52  C   UNL A   1      45.281  33.583  29.757  1.00  0.00     0.029 A 
ATOM     53  C   UNL A   1      43.922  33.325  29.840  1.00  0.00     0.049 A 
ATOM     54  H   UNL A   1      42.880  31.538  29.428  1.00  0.00     0.167 HD
ATOM     55  C   UNL A   1      41.555  33.879  30.330  1.00  0.00     0.074 A 
ATOM     56  C   UNL A   1      40.513  34.771  30.794  1.00  0.00     0.031 C 
ATOM     57  C   UNL A   1      42.865  34.216  30.247  1.00  0.00     0.034 A 
BRANCH  44  58
ATOM     58  C   UNL A   1      46.557  29.598  28.445  1.00  0.00     0.023 A 
ATOM     59  C   UNL A   1      47.150  29.849  27.190  1.00  0.00     0.012 A 
ATOM     60  C   UNL A   1      47.309  28.951  29.446  1.00  0.00     0.148 A 
ATOM     61  C   UNL A   1      48.453  29.435  26.922  1.00  0.00     0.002 A 
ATOM     62  C   UNL A   1      48.624  28.581  29.187  1.00  0.00     0.091 A 
ATOM     63  F   UNL A   1      46.723  28.701  30.625  1.00  0.00    -0.205 F 
ATOM     64  C   UNL A   1      49.194  28.811  27.923  1.00  0.00     0.022 A 
BRANCH  62  65
ATOM     65  S   UNL A   1      49.687  27.845  30.433  1.00  0.00     0.127 S 
ATOM     66  O   UNL A   1      50.933  27.665  29.689  1.00  0.00    -0.237 OA
ATOM     67  O   UNL A   1      49.735  28.892  31.455  1.00  0.00    -0.237 OA
ATOM     68  O   UNL A   1      49.026  26.617  30.851  1.00  0.00    -0.744 OA
ENDBRANCH  62  65
ENDBRANCH  44  58
BRANCH  45  69
ATOM     69  C   UNL A   1      37.128  32.269  30.433  1.00  0.00     0.023 A 
ATOM     70  C   UNL A   1      36.644  32.065  31.740  1.00  0.00     0.012 A 
ATOM     71  C   UNL A   1      36.288  32.868  29.475  1.00  0.00     0.148 A 
ATOM     72  C   UNL A   1      35.338  32.421  32.079  1.00  0.00     0.002 A 
ATOM     73  C   UNL A   1      35.006  33.270  29.834  1.00  0.00     0.091 A 
ATOM     74  F   UNL A   1      36.762  33.044  28.234  1.00  0.00    -0.205 F 
ATOM     75  C   UNL A   1      34.523  33.033  31.130  1.00  0.00     0.022 A 
BRANCH  73  76
ATOM     76  S   UNL A   1      33.934  34.181  28.715  1.00  0.00     0.127 S 
ATOM     77  O   UNL A   1      33.592  33.159  27.730  1.00  0.00    -0.237 OA
ATOM     78  O   UNL A   1      32.838  34.576  29.601  1.00  0.00    -0.237 OA
ATOM     79  O   UNL A   1      34.735  35.293  28.223  1.00  0.00    -0.744 OA
ENDBRANCH  73  76
ENDBRANCH  45  69
BRANCH  57  80
ATOM     80  C   UNL A   1      43.251  35.620  30.632  1.00  0.00     0.023 A 
ATOM     81  C   UNL A   1      43.658  35.899  31.951  1.00  0.00     0.012 A 
ATOM     82  C   UNL A   1      43.285  36.645  29.666  1.00  0.00     0.148 A 
ATOM     83  C   UNL A   1      44.063  37.183  32.311  1.00  0.00     0.002 A 
ATOM     84  C   UNL A   1      43.736  37.911  30.021  1.00  0.00     0.091 A 
ATOM     85  F   UNL A   1      42.875  36.365  28.420  1.00  0.00    -0.205 F 
ATOM     86  C   UNL A   1      44.113  38.185  31.345  1.00  0.00     0.022 A 
BRANCH  84  87
ATOM     87  S   UNL A   1      43.927  39.235  28.821  1.00  0.00     0.127 S 
ATOM     88  O   UNL A   1      42.539  39.496  28.444  1.00  0.00    -0.237 OA
ATOM     89  O   UNL A   1      44.551  40.291  29.620  1.00  0.00    -0.237 OA
ATOM     90  O   UNL A   1      44.773  38.700  27.764  1.00  0.00    -0.744 OA
ENDBRANCH  84  87
ENDBRANCH  57  80
ENDBRANCH  31  32
ENDBRANCH  23  26
ENDBRANCH  21  22
ENDBRANCH  20  21
ENDBRANCH   1  20
TORSDOF 17
ENDMDL
