MODEL 1
REMARK VINA RESULT:     -11.1      0.000      0.000
REMARK SMILES Cc1cc(C(=O)N[C@@H](C)C(=O)NCCCCCCNC(=O)c2ccc(-c3c4nc(c(-c5cccc(S(=O)(=O)[O-])c5F)c5ccc([nH]5)c(-c5cccc(S(=O)(=O)[O-])c5F)c5nc(c(-c6cccc(S(=O)(=O)[O-])c6F)c6ccc3[nH]6)C=C5)C=C4)cc2)cc(C)c1OC(F)F
REMARK SMILES IDX 15 1 14 2 13 3 12 4 10 5 11 6 8 8 9 9 7 10 5 11 6 12 4 14
REMARK SMILES IDX 1 15 2 16 3 17 88 18 86 19 85 20 87 21 89 22 90 23 91 24
REMARK SMILES IDX 92 25 16 26 17 27 18 28 19 29 20 30 21 32 22 33 23 34 84 35
REMARK SMILES IDX 24 36 83 37 25 38 26 39 27 40 77 41 28 42 82 43 76 44 78 45
REMARK SMILES IDX 29 46 81 47 75 48 74 49 30 51 62 52 42 53 61 54 43 55 46 56
REMARK SMILES IDX 60 57 79 58 44 59 45 60 59 62 80 63 47 64 31 65 32 66 40 67
REMARK SMILES IDX 33 68 35 69 41 70 34 71 36 72 37 73 38 74 39 75 63 76 64 77
REMARK SMILES IDX 72 78 65 79 67 80 73 81 66 82 68 83 69 84 70 85 71 86 48 87
REMARK SMILES IDX 49 88 57 89 50 90 52 91 58 92 51 93 53 94 54 95 55 96 56 97
REMARK H PARENT 12 7 7 13 19 31 78 50 46 61
REMARK Flexibility Score: inf
ROOT
ATOM      1  C   UNL A   1      31.897  26.464  26.640  1.00  0.00     0.002 C 
ENDROOT
BRANCH   1   2
ATOM      2  C   UNL A   1      33.042  25.665  26.014  1.00  0.00     0.021 C 
BRANCH   2   3
ATOM      3  C   UNL A   1      32.756  24.185  25.782  1.00  0.00     0.116 C 
BRANCH   3   4
ATOM      4  N   UNL A   1      33.855  23.493  25.135  1.00  0.00    -0.354 N 
ATOM      5  C   UNL A   1      33.911  22.859  23.928  1.00  0.00     0.242 C 
ATOM      6  O   UNL A   1      35.009  22.445  23.546  1.00  0.00    -0.273 OA
ATOM      7  H   UNL A   1      34.695  23.479  25.649  1.00  0.00     0.163 HD
BRANCH   5   8
ATOM      8  C   UNL A   1      32.651  22.656  23.058  1.00  0.00     0.168 C 
ATOM      9  C   UNL A   1      32.236  21.195  22.942  1.00  0.00     0.041 C 
BRANCH   8  10
ATOM     10  N   UNL A   1      32.850  23.324  21.771  1.00  0.00    -0.341 N 
ATOM     11  C   UNL A   1      32.807  24.643  21.389  1.00  0.00     0.251 C 
ATOM     12  O   UNL A   1      33.204  24.918  20.257  1.00  0.00    -0.269 OA
ATOM     13  H   UNL A   1      33.057  22.707  21.032  1.00  0.00     0.164 HD
BRANCH  11  14
ATOM     14  C   UNL A   1      32.205  25.720  22.220  1.00  0.00     0.040 A 
ATOM     15  C   UNL A   1      33.376  29.215  23.040  1.00  0.00     0.048 C 
ATOM     16  C   UNL A   1      32.418  28.057  23.006  1.00  0.00    -0.008 A 
ATOM     17  C   UNL A   1      32.936  26.904  22.364  1.00  0.00     0.021 A 
ATOM     18  C   UNL A   1      31.081  28.027  23.438  1.00  0.00     0.131 A 
ATOM     19  C   UNL A   1      30.370  26.801  23.375  1.00  0.00    -0.008 A 
ATOM     20  C   UNL A   1      30.966  25.649  22.832  1.00  0.00     0.021 A 
ATOM     21  C   UNL A   1      28.920  26.681  23.778  1.00  0.00     0.048 C 
BRANCH  18  22
ATOM     22  O   UNL A   1      30.289  29.063  23.836  1.00  0.00    -0.434 OA
BRANCH  22  23
ATOM     23  C   UNL A   1      29.716  29.987  22.938  1.00  0.00     0.542 C 
ATOM     24  F   UNL A   1      29.695  29.498  21.679  1.00  0.00    -0.167 F 
ATOM     25  F   UNL A   1      28.457  30.284  23.332  1.00  0.00    -0.167 F 
ENDBRANCH  22  23
ENDBRANCH  18  22
ENDBRANCH  11  14
ENDBRANCH   8  10
ENDBRANCH   5   8
ENDBRANCH   3   4
ENDBRANCH   2   3
ENDBRANCH   1   2
BRANCH   1  26
ATOM     26  C   UNL A   1      32.141  27.969  26.789  1.00  0.00     0.002 C 
BRANCH  26  27
ATOM     27  C   UNL A   1      33.530  28.378  27.289  1.00  0.00     0.021 C 
BRANCH  27  28
ATOM     28  C   UNL A   1      34.194  29.526  26.536  1.00  0.00     0.116 C 
BRANCH  28  29
ATOM     29  N   UNL A   1      33.935  30.817  27.148  1.00  0.00    -0.352 N 
ATOM     30  C   UNL A   1      34.626  31.478  28.132  1.00  0.00     0.251 C 
ATOM     31  H   UNL A   1      33.143  31.289  26.804  1.00  0.00     0.163 HD
ATOM     32  O   UNL A   1      34.145  32.499  28.618  1.00  0.00    -0.269 OA
BRANCH  30  33
ATOM     33  C   UNL A   1      35.926  30.967  28.626  1.00  0.00     0.039 A 
ATOM     34  C   UNL A   1      35.927  29.819  29.422  1.00  0.00     0.014 A 
ATOM     35  C   UNL A   1      37.131  31.624  28.355  1.00  0.00     0.014 A 
ATOM     36  C   UNL A   1      37.132  29.308  29.910  1.00  0.00     0.010 A 
ATOM     37  C   UNL A   1      38.340  31.075  28.787  1.00  0.00     0.010 A 
ATOM     38  C   UNL A   1      38.354  29.918  29.579  1.00  0.00    -0.014 A 
BRANCH  38  39
ATOM     39  C   UNL A   1      39.638  29.329  30.044  1.00  0.00     0.031 A 
ATOM     40  C   UNL A   1      40.369  29.898  31.231  1.00  0.00     0.074 A 
ATOM     41  C   UNL A   1      40.173  28.296  29.361  1.00  0.00     0.049 A 
ATOM     42  N   UNL A   1      41.459  29.462  31.811  1.00  0.00    -0.248 NA
ATOM     43  C   UNL A   1      39.825  31.126  31.835  1.00  0.00     0.031 C 
ATOM     44  C   UNL A   1      39.619  27.716  28.135  1.00  0.00     0.029 A 
ATOM     45  N   UNL A   1      41.306  27.556  29.593  1.00  0.00    -0.354 N 
ATOM     46  C   UNL A   1      41.750  30.374  32.818  1.00  0.00     0.074 A 
ATOM     47  C   UNL A   1      40.736  31.404  32.758  1.00  0.00     0.031 C 
ATOM     48  C   UNL A   1      40.403  26.703  27.733  1.00  0.00     0.029 A 
ATOM     49  C   UNL A   1      41.520  26.566  28.662  1.00  0.00     0.049 A 
ATOM     50  H   UNL A   1      41.909  27.718  30.354  1.00  0.00     0.167 HD
ATOM     51  C   UNL A   1      42.752  30.342  33.729  1.00  0.00     0.034 A 
ATOM     52  C   UNL A   1      42.498  25.642  28.574  1.00  0.00     0.034 A 
ATOM     53  C   UNL A   1      43.723  29.286  33.825  1.00  0.00     0.049 A 
ATOM     54  C   UNL A   1      43.547  25.584  29.652  1.00  0.00     0.074 A 
ATOM     55  C   UNL A   1      44.697  29.098  34.792  1.00  0.00     0.029 A 
ATOM     56  N   UNL A   1      43.854  28.244  32.920  1.00  0.00    -0.354 N 
ATOM     57  N   UNL A   1      43.674  26.329  30.722  1.00  0.00    -0.248 NA
ATOM     58  C   UNL A   1      44.561  24.526  29.532  1.00  0.00     0.031 C 
ATOM     59  C   UNL A   1      45.431  27.955  34.457  1.00  0.00     0.029 A 
ATOM     60  C   UNL A   1      44.901  27.420  33.295  1.00  0.00     0.049 A 
ATOM     61  H   UNL A   1      43.284  28.111  32.128  1.00  0.00     0.167 HD
ATOM     62  C   UNL A   1      44.760  25.810  31.420  1.00  0.00     0.074 A 
ATOM     63  C   UNL A   1      45.231  24.667  30.668  1.00  0.00     0.031 C 
ATOM     64  C   UNL A   1      45.329  26.254  32.568  1.00  0.00     0.034 A 
BRANCH  51  65
ATOM     65  C   UNL A   1      42.823  31.452  34.746  1.00  0.00     0.023 A 
ATOM     66  C   UNL A   1      43.652  32.565  34.504  1.00  0.00     0.012 A 
ATOM     67  C   UNL A   1      41.997  31.440  35.888  1.00  0.00     0.148 A 
ATOM     68  C   UNL A   1      43.674  33.640  35.391  1.00  0.00     0.002 A 
ATOM     69  C   UNL A   1      41.996  32.533  36.747  1.00  0.00     0.091 A 
ATOM     70  F   UNL A   1      41.230  30.363  36.111  1.00  0.00    -0.205 F 
ATOM     71  C   UNL A   1      42.839  33.630  36.505  1.00  0.00     0.022 A 
BRANCH  69  72
ATOM     72  S   UNL A   1      40.899  32.655  38.165  1.00  0.00     0.127 S 
ATOM     73  O   UNL A   1      40.750  34.103  38.298  1.00  0.00    -0.237 OA
ATOM     74  O   UNL A   1      39.703  31.961  37.689  1.00  0.00    -0.237 OA
ATOM     75  O   UNL A   1      41.589  31.996  39.266  1.00  0.00    -0.744 OA
ENDBRANCH  69  72
ENDBRANCH  51  65
BRANCH  52  76
ATOM     76  C   UNL A   1      42.486  24.639  27.471  1.00  0.00     0.023 A 
ATOM     77  C   UNL A   1      43.318  24.835  26.350  1.00  0.00     0.012 A 
ATOM     78  C   UNL A   1      41.665  23.497  27.522  1.00  0.00     0.148 A 
ATOM     79  C   UNL A   1      43.299  23.936  25.283  1.00  0.00     0.002 A 
ATOM     80  C   UNL A   1      41.694  22.575  26.483  1.00  0.00     0.091 A 
ATOM     81  F   UNL A   1      40.867  23.334  28.587  1.00  0.00    -0.205 F 
ATOM     82  C   UNL A   1      42.495  22.802  25.353  1.00  0.00     0.022 A 
BRANCH  80  83
ATOM     83  S   UNL A   1      40.793  21.024  26.565  1.00  0.00     0.127 S 
ATOM     84  O   UNL A   1      39.457  21.428  26.137  1.00  0.00    -0.237 OA
ATOM     85  O   UNL A   1      41.522  20.190  25.608  1.00  0.00    -0.237 OA
ATOM     86  O   UNL A   1      40.917  20.583  27.949  1.00  0.00    -0.744 OA
ENDBRANCH  80  83
ENDBRANCH  52  76
BRANCH  64  87
ATOM     87  C   UNL A   1      46.514  25.487  33.095  1.00  0.00     0.023 A 
ATOM     88  C   UNL A   1      47.818  25.906  32.764  1.00  0.00     0.012 A 
ATOM     89  C   UNL A   1      46.340  24.383  33.950  1.00  0.00     0.148 A 
ATOM     90  C   UNL A   1      48.929  25.211  33.240  1.00  0.00     0.002 A 
ATOM     91  C   UNL A   1      47.454  23.725  34.462  1.00  0.00     0.091 A 
ATOM     92  F   UNL A   1      45.093  23.983  34.239  1.00  0.00    -0.205 F 
ATOM     93  C   UNL A   1      48.748  24.128  34.097  1.00  0.00     0.022 A 
BRANCH  91  94
ATOM     94  S   UNL A   1      47.306  22.383  35.647  1.00  0.00     0.127 S 
ATOM     95  O   UNL A   1      48.583  22.465  36.353  1.00  0.00    -0.237 OA
ATOM     96  O   UNL A   1      46.143  22.787  36.439  1.00  0.00    -0.237 OA
ATOM     97  O   UNL A   1      47.100  21.179  34.854  1.00  0.00    -0.744 OA
ENDBRANCH  91  94
ENDBRANCH  64  87
ENDBRANCH  38  39
ENDBRANCH  30  33
ENDBRANCH  28  29
ENDBRANCH  27  28
ENDBRANCH  26  27
ENDBRANCH   1  26
TORSDOF 20
ENDMDL
MODEL 2
REMARK VINA RESULT:     -10.4      1.701      2.034
REMARK SMILES Cc1cc(C(=O)N[C@@H](C)C(=O)NCCCCCCNC(=O)c2ccc(-c3c4nc(c(-c5cccc(S(=O)(=O)[O-])c5F)c5ccc([nH]5)c(-c5cccc(S(=O)(=O)[O-])c5F)c5nc(c(-c6cccc(S(=O)(=O)[O-])c6F)c6ccc3[nH]6)C=C5)C=C4)cc2)cc(C)c1OC(F)F
REMARK SMILES IDX 15 1 14 2 13 3 12 4 10 5 11 6 8 8 9 9 7 10 5 11 6 12 4 14
REMARK SMILES IDX 1 15 2 16 3 17 88 18 86 19 85 20 87 21 89 22 90 23 91 24
REMARK SMILES IDX 92 25 16 26 17 27 18 28 19 29 20 30 21 32 22 33 23 34 84 35
REMARK SMILES IDX 24 36 83 37 25 38 26 39 27 40 77 41 28 42 82 43 76 44 78 45
REMARK SMILES IDX 29 46 81 47 75 48 74 49 30 51 62 52 42 53 61 54 43 55 46 56
REMARK SMILES IDX 60 57 79 58 44 59 45 60 59 62 80 63 47 64 31 65 32 66 40 67
REMARK SMILES IDX 33 68 35 69 41 70 34 71 36 72 37 73 38 74 39 75 63 76 64 77
REMARK SMILES IDX 72 78 65 79 67 80 73 81 66 82 68 83 69 84 70 85 71 86 48 87
REMARK SMILES IDX 49 88 57 89 50 90 52 91 58 92 51 93 53 94 54 95 55 96 56 97
REMARK H PARENT 12 7 7 13 19 31 78 50 46 61
REMARK Flexibility Score: inf
ROOT
ATOM      1  C   UNL A   1      32.028  26.737  26.659  1.00  0.00     0.002 C 
ENDROOT
BRANCH   1   2
ATOM      2  C   UNL A   1      33.115  25.895  25.987  1.00  0.00     0.021 C 
BRANCH   2   3
ATOM      3  C   UNL A   1      32.795  24.411  25.842  1.00  0.00     0.116 C 
BRANCH   3   4
ATOM      4  N   UNL A   1      33.897  23.648  25.288  1.00  0.00    -0.354 N 
ATOM      5  C   UNL A   1      33.970  22.901  24.148  1.00  0.00     0.242 C 
ATOM      6  O   UNL A   1      35.071  22.439  23.832  1.00  0.00    -0.273 OA
ATOM      7  H   UNL A   1      34.726  23.672  25.820  1.00  0.00     0.163 HD
BRANCH   5   8
ATOM      8  C   UNL A   1      32.726  22.631  23.272  1.00  0.00     0.168 C 
ATOM      9  C   UNL A   1      32.370  21.152  23.182  1.00  0.00     0.041 C 
BRANCH   8  10
ATOM     10  N   UNL A   1      32.910  23.281  21.974  1.00  0.00    -0.341 N 
ATOM     11  C   UNL A   1      32.794  24.586  21.561  1.00  0.00     0.251 C 
ATOM     12  O   UNL A   1      33.195  24.860  20.430  1.00  0.00    -0.269 OA
ATOM     13  H   UNL A   1      33.168  22.662  21.254  1.00  0.00     0.164 HD
BRANCH  11  14
ATOM     14  C   UNL A   1      32.111  25.643  22.355  1.00  0.00     0.040 A 
ATOM     15  C   UNL A   1      32.987  29.257  23.010  1.00  0.00     0.048 C 
ATOM     16  C   UNL A   1      32.131  28.021  23.039  1.00  0.00    -0.008 A 
ATOM     17  C   UNL A   1      32.740  26.890  22.439  1.00  0.00     0.021 A 
ATOM     18  C   UNL A   1      30.807  27.895  23.492  1.00  0.00     0.131 A 
ATOM     19  C   UNL A   1      30.204  26.612  23.492  1.00  0.00    -0.008 A 
ATOM     20  C   UNL A   1      30.890  25.492  22.989  1.00  0.00     0.021 A 
ATOM     21  C   UNL A   1      28.774  26.385  23.922  1.00  0.00     0.048 C 
BRANCH  18  22
ATOM     22  O   UNL A   1      29.934  28.875  23.860  1.00  0.00    -0.434 OA
BRANCH  22  23
ATOM     23  C   UNL A   1      29.810  30.099  23.168  1.00  0.00     0.542 C 
ATOM     24  F   UNL A   1      29.109  29.945  22.023  1.00  0.00    -0.167 F 
ATOM     25  F   UNL A   1      29.197  31.009  23.959  1.00  0.00    -0.167 F 
ENDBRANCH  22  23
ENDBRANCH  18  22
ENDBRANCH  11  14
ENDBRANCH   8  10
ENDBRANCH   5   8
ENDBRANCH   3   4
ENDBRANCH   2   3
ENDBRANCH   1   2
BRANCH   1  26
ATOM     26  C   UNL A   1      32.326  28.236  26.776  1.00  0.00     0.002 C 
BRANCH  26  27
ATOM     27  C   UNL A   1      33.730  28.605  27.266  1.00  0.00     0.021 C 
BRANCH  27  28
ATOM     28  C   UNL A   1      34.350  29.844  26.628  1.00  0.00     0.116 C 
BRANCH  28  29
ATOM     29  N   UNL A   1      34.037  31.060  27.355  1.00  0.00    -0.352 N 
ATOM     30  C   UNL A   1      34.680  31.638  28.421  1.00  0.00     0.251 C 
ATOM     31  H   UNL A   1      33.242  31.544  27.035  1.00  0.00     0.163 HD
ATOM     32  O   UNL A   1      34.156  32.593  28.989  1.00  0.00    -0.269 OA
BRANCH  30  33
ATOM     33  C   UNL A   1      35.980  31.114  28.903  1.00  0.00     0.039 A 
ATOM     34  C   UNL A   1      35.971  30.036  29.791  1.00  0.00     0.014 A 
ATOM     35  C   UNL A   1      37.196  31.695  28.529  1.00  0.00     0.014 A 
ATOM     36  C   UNL A   1      37.176  29.516  30.270  1.00  0.00     0.010 A 
ATOM     37  C   UNL A   1      38.401  31.132  28.956  1.00  0.00     0.010 A 
ATOM     38  C   UNL A   1      38.405  30.044  29.840  1.00  0.00    -0.014 A 
BRANCH  38  39
ATOM     39  C   UNL A   1      39.684  29.441  30.299  1.00  0.00     0.031 A 
ATOM     40  C   UNL A   1      40.369  29.931  31.548  1.00  0.00     0.074 A 
ATOM     41  C   UNL A   1      40.256  28.469  29.560  1.00  0.00     0.049 A 
ATOM     42  N   UNL A   1      41.449  29.469  32.127  1.00  0.00    -0.248 NA
ATOM     43  C   UNL A   1      39.788  31.103  32.223  1.00  0.00     0.031 C 
ATOM     44  C   UNL A   1      39.749  27.974  28.278  1.00  0.00     0.029 A 
ATOM     45  N   UNL A   1      41.394  27.730  29.772  1.00  0.00    -0.354 N 
ATOM     46  C   UNL A   1      41.694  30.309  33.208  1.00  0.00     0.074 A 
ATOM     47  C   UNL A   1      40.665  31.325  33.192  1.00  0.00     0.031 C 
ATOM     48  C   UNL A   1      40.561  27.004  27.827  1.00  0.00     0.029 A 
ATOM     49  C   UNL A   1      41.652  26.815  28.778  1.00  0.00     0.049 A 
ATOM     50  H   UNL A   1      41.971  27.845  30.561  1.00  0.00     0.167 HD
ATOM     51  C   UNL A   1      42.669  30.224  34.144  1.00  0.00     0.034 A 
ATOM     52  C   UNL A   1      42.647  25.915  28.652  1.00  0.00     0.034 A 
ATOM     53  C   UNL A   1      43.655  29.177  34.192  1.00  0.00     0.049 A 
ATOM     54  C   UNL A   1      43.664  25.792  29.755  1.00  0.00     0.074 A 
ATOM     55  C   UNL A   1      44.602  28.932  35.172  1.00  0.00     0.029 A 
ATOM     56  N   UNL A   1      43.829  28.207  33.218  1.00  0.00    -0.354 N 
ATOM     57  N   UNL A   1      43.747  26.458  30.881  1.00  0.00    -0.248 NA
ATOM     58  C   UNL A   1      44.699  24.761  29.590  1.00  0.00     0.031 C 
ATOM     59  C   UNL A   1      45.365  27.828  34.777  1.00  0.00     0.029 A 
ATOM     60  C   UNL A   1      44.879  27.373  33.563  1.00  0.00     0.049 A 
ATOM     61  H   UNL A   1      43.286  28.125  32.401  1.00  0.00     0.167 HD
ATOM     62  C   UNL A   1      44.820  25.905  31.571  1.00  0.00     0.074 A 
ATOM     63  C   UNL A   1      45.333  24.826  30.752  1.00  0.00     0.031 C 
ATOM     64  C   UNL A   1      45.347  26.270  32.766  1.00  0.00     0.034 A 
BRANCH  51  65
ATOM     65  C   UNL A   1      42.692  31.256  35.242  1.00  0.00     0.023 A 
ATOM     66  C   UNL A   1      42.043  30.986  36.463  1.00  0.00     0.012 A 
ATOM     67  C   UNL A   1      43.437  32.444  35.102  1.00  0.00     0.148 A 
ATOM     68  C   UNL A   1      42.117  31.890  37.522  1.00  0.00     0.002 A 
ATOM     69  C   UNL A   1      43.540  33.321  36.176  1.00  0.00     0.091 A 
ATOM     70  F   UNL A   1      44.032  32.692  33.926  1.00  0.00    -0.205 F 
ATOM     71  C   UNL A   1      42.874  33.050  37.383  1.00  0.00     0.022 A 
BRANCH  69  72
ATOM     72  S   UNL A   1      44.555  34.803  36.128  1.00  0.00     0.127 S 
ATOM     73  O   UNL A   1      44.530  35.222  37.529  1.00  0.00    -0.237 OA
ATOM     74  O   UNL A   1      45.841  34.279  35.672  1.00  0.00    -0.237 OA
ATOM     75  O   UNL A   1      43.900  35.710  35.196  1.00  0.00    -0.744 OA
ENDBRANCH  69  72
ENDBRANCH  51  65
BRANCH  52  76
ATOM     76  C   UNL A   1      42.685  24.996  27.479  1.00  0.00     0.023 A 
ATOM     77  C   UNL A   1      43.340  25.406  26.301  1.00  0.00     0.012 A 
ATOM     78  C   UNL A   1      42.083  23.724  27.519  1.00  0.00     0.148 A 
ATOM     79  C   UNL A   1      43.357  24.586  25.172  1.00  0.00     0.002 A 
ATOM     80  C   UNL A   1      42.155  22.888  26.411  1.00  0.00     0.091 A 
ATOM     81  F   UNL A   1      41.450  23.355  28.641  1.00  0.00    -0.205 F 
ATOM     82  C   UNL A   1      42.773  23.324  25.230  1.00  0.00     0.022 A 
BRANCH  80  83
ATOM     83  S   UNL A   1      41.549  21.198  26.457  1.00  0.00     0.127 S 
ATOM     84  O   UNL A   1      42.394  20.547  25.460  1.00  0.00    -0.237 OA
ATOM     85  O   UNL A   1      41.819  20.810  27.843  1.00  0.00    -0.237 OA
ATOM     86  O   UNL A   1      40.131  21.292  26.134  1.00  0.00    -0.744 OA
ENDBRANCH  80  83
ENDBRANCH  52  76
BRANCH  64  87
ATOM     87  C   UNL A   1      46.529  25.484  33.272  1.00  0.00     0.023 A 
ATOM     88  C   UNL A   1      46.324  24.424  34.178  1.00  0.00     0.012 A 
ATOM     89  C   UNL A   1      47.832  25.761  32.819  1.00  0.00     0.148 A 
ATOM     90  C   UNL A   1      47.403  23.683  34.659  1.00  0.00     0.002 A 
ATOM     91  C   UNL A   1      48.897  24.985  33.264  1.00  0.00     0.091 A 
ATOM     92  F   UNL A   1      48.014  26.786  31.972  1.00  0.00    -0.205 F 
ATOM     93  C   UNL A   1      48.686  23.956  34.195  1.00  0.00     0.022 A 
BRANCH  91  94
ATOM     94  S   UNL A   1      50.566  25.212  32.640  1.00  0.00     0.127 S 
ATOM     95  O   UNL A   1      50.999  26.403  33.367  1.00  0.00    -0.237 OA
ATOM     96  O   UNL A   1      51.228  23.972  33.051  1.00  0.00    -0.237 OA
ATOM     97  O   UNL A   1      50.430  25.367  31.198  1.00  0.00    -0.744 OA
ENDBRANCH  91  94
ENDBRANCH  64  87
ENDBRANCH  38  39
ENDBRANCH  30  33
ENDBRANCH  28  29
ENDBRANCH  27  28
ENDBRANCH  26  27
ENDBRANCH   1  26
TORSDOF 20
ENDMDL
MODEL 3
REMARK VINA RESULT:     -10.4      2.062      7.692
REMARK SMILES Cc1cc(C(=O)N[C@@H](C)C(=O)NCCCCCCNC(=O)c2ccc(-c3c4nc(c(-c5cccc(S(=O)(=O)[O-])c5F)c5ccc([nH]5)c(-c5cccc(S(=O)(=O)[O-])c5F)c5nc(c(-c6cccc(S(=O)(=O)[O-])c6F)c6ccc3[nH]6)C=C5)C=C4)cc2)cc(C)c1OC(F)F
REMARK SMILES IDX 15 1 14 2 13 3 12 4 10 5 11 6 8 8 9 9 7 10 5 11 6 12 4 14
REMARK SMILES IDX 1 15 2 16 3 17 88 18 86 19 85 20 87 21 89 22 90 23 91 24
REMARK SMILES IDX 92 25 16 26 17 27 18 28 19 29 20 30 21 32 22 33 23 34 84 35
REMARK SMILES IDX 24 36 83 37 25 38 26 39 27 40 77 41 28 42 82 43 76 44 78 45
REMARK SMILES IDX 29 46 81 47 75 48 74 49 30 51 62 52 42 53 61 54 43 55 46 56
REMARK SMILES IDX 60 57 79 58 44 59 45 60 59 62 80 63 47 64 31 65 32 66 40 67
REMARK SMILES IDX 33 68 35 69 41 70 34 71 36 72 37 73 38 74 39 75 63 76 64 77
REMARK SMILES IDX 72 78 65 79 67 80 73 81 66 82 68 83 69 84 70 85 71 86 48 87
REMARK SMILES IDX 49 88 57 89 50 90 52 91 58 92 51 93 53 94 54 95 55 96 56 97
REMARK H PARENT 12 7 7 13 19 31 78 50 46 61
REMARK Flexibility Score: inf
ROOT
ATOM      1  C   UNL A   1      32.123  26.952  26.574  1.00  0.00     0.002 C 
ENDROOT
BRANCH   1   2
ATOM      2  C   UNL A   1      33.311  26.159  26.027  1.00  0.00     0.021 C 
BRANCH   2   3
ATOM      3  C   UNL A   1      33.084  24.658  25.882  1.00  0.00     0.116 C 
BRANCH   3   4
ATOM      4  N   UNL A   1      34.202  23.976  25.258  1.00  0.00    -0.354 N 
ATOM      5  C   UNL A   1      34.249  23.200  24.136  1.00  0.00     0.242 C 
ATOM      6  O   UNL A   1      35.357  22.826  23.741  1.00  0.00    -0.273 OA
ATOM      7  H   UNL A   1      35.066  24.091  25.718  1.00  0.00     0.163 HD
BRANCH   5   8
ATOM      8  C   UNL A   1      32.967  22.793  23.376  1.00  0.00     0.168 C 
ATOM      9  C   UNL A   1      32.694  21.295  23.430  1.00  0.00     0.041 C 
BRANCH   8  10
ATOM     10  N   UNL A   1      33.025  23.341  22.020  1.00  0.00    -0.341 N 
ATOM     11  C   UNL A   1      32.886  24.614  21.524  1.00  0.00     0.251 C 
ATOM     12  O   UNL A   1      33.172  24.794  20.340  1.00  0.00    -0.269 OA
ATOM     13  H   UNL A   1      33.200  22.665  21.327  1.00  0.00     0.164 HD
BRANCH  11  14
ATOM     14  C   UNL A   1      32.302  25.741  22.300  1.00  0.00     0.040 A 
ATOM     15  C   UNL A   1      33.536  29.249  22.953  1.00  0.00     0.048 C 
ATOM     16  C   UNL A   1      32.557  28.109  22.973  1.00  0.00    -0.008 A 
ATOM     17  C   UNL A   1      33.055  26.917  22.389  1.00  0.00     0.021 A 
ATOM     18  C   UNL A   1      31.220  28.124  23.404  1.00  0.00     0.131 A 
ATOM     19  C   UNL A   1      30.487  26.909  23.400  1.00  0.00    -0.008 A 
ATOM     20  C   UNL A   1      31.062  25.722  22.914  1.00  0.00     0.021 A 
ATOM     21  C   UNL A   1      29.035  26.834  23.806  1.00  0.00     0.048 C 
BRANCH  18  22
ATOM     22  O   UNL A   1      30.447  29.191  23.752  1.00  0.00    -0.434 OA
BRANCH  22  23
ATOM     23  C   UNL A   1      29.765  29.991  22.810  1.00  0.00     0.542 C 
ATOM     24  F   UNL A   1      30.299  29.855  21.575  1.00  0.00    -0.167 F 
ATOM     25  F   UNL A   1      28.458  29.647  22.781  1.00  0.00    -0.167 F 
ENDBRANCH  22  23
ENDBRANCH  18  22
ENDBRANCH  11  14
ENDBRANCH   8  10
ENDBRANCH   5   8
ENDBRANCH   3   4
ENDBRANCH   2   3
ENDBRANCH   1   2
BRANCH   1  26
ATOM     26  C   UNL A   1      32.468  28.277  27.262  1.00  0.00     0.002 C 
BRANCH  26  27
ATOM     27  C   UNL A   1      33.593  29.094  26.617  1.00  0.00     0.021 C 
BRANCH  27  28
ATOM     28  C   UNL A   1      34.832  29.311  27.480  1.00  0.00     0.116 C 
BRANCH  28  29
ATOM     29  N   UNL A   1      34.697  30.446  28.374  1.00  0.00    -0.352 N 
ATOM     30  C   UNL A   1      35.543  30.900  29.355  1.00  0.00     0.251 C 
ATOM     31  H   UNL A   1      33.871  30.971  28.259  1.00  0.00     0.163 HD
ATOM     32  O   UNL A   1      35.163  31.794  30.106  1.00  0.00    -0.269 OA
BRANCH  30  33
ATOM     33  C   UNL A   1      36.892  30.312  29.529  1.00  0.00     0.039 A 
ATOM     34  C   UNL A   1      37.935  30.805  28.741  1.00  0.00     0.014 A 
ATOM     35  C   UNL A   1      37.132  29.261  30.419  1.00  0.00     0.014 A 
ATOM     36  C   UNL A   1      39.221  30.274  28.873  1.00  0.00     0.010 A 
ATOM     37  C   UNL A   1      38.431  28.778  30.598  1.00  0.00     0.010 A 
ATOM     38  C   UNL A   1      39.487  29.270  29.820  1.00  0.00    -0.014 A 
BRANCH  38  39
ATOM     39  C   UNL A   1      40.871  28.760  30.004  1.00  0.00     0.031 A 
ATOM     40  C   UNL A   1      41.374  27.577  29.218  1.00  0.00     0.074 A 
ATOM     41  C   UNL A   1      41.671  29.341  30.921  1.00  0.00     0.049 A 
ATOM     42  N   UNL A   1      42.572  27.049  29.204  1.00  0.00    -0.248 NA
ATOM     43  C   UNL A   1      40.407  26.879  28.354  1.00  0.00     0.031 C 
ATOM     44  C   UNL A   1      41.274  30.428  31.819  1.00  0.00     0.029 A 
ATOM     45  N   UNL A   1      42.979  29.096  31.258  1.00  0.00    -0.354 N 
ATOM     46  C   UNL A   1      42.496  25.945  28.364  1.00  0.00     0.074 A 
ATOM     47  C   UNL A   1      41.127  25.861  27.904  1.00  0.00     0.031 C 
ATOM     48  C   UNL A   1      42.319  30.766  32.592  1.00  0.00     0.029 A 
ATOM     49  C   UNL A   1      43.455  29.915  32.256  1.00  0.00     0.049 A 
ATOM     50  H   UNL A   1      43.524  28.399  30.828  1.00  0.00     0.167 HD
ATOM     51  C   UNL A   1      43.482  25.096  27.987  1.00  0.00     0.034 A 
ATOM     52  C   UNL A   1      44.675  29.983  32.825  1.00  0.00     0.034 A 
ATOM     53  C   UNL A   1      44.855  25.218  28.397  1.00  0.00     0.049 A 
ATOM     54  C   UNL A   1      45.769  29.081  32.320  1.00  0.00     0.074 A 
ATOM     55  C   UNL A   1      45.949  24.486  27.968  1.00  0.00     0.029 A 
ATOM     56  N   UNL A   1      45.324  26.121  29.338  1.00  0.00    -0.354 N 
ATOM     57  N   UNL A   1      45.726  28.186  31.364  1.00  0.00    -0.248 NA
ATOM     58  C   UNL A   1      47.092  29.231  32.943  1.00  0.00     0.031 C 
ATOM     59  C   UNL A   1      47.075  24.932  28.668  1.00  0.00     0.029 A 
ATOM     60  C   UNL A   1      46.686  25.955  29.516  1.00  0.00     0.049 A 
ATOM     61  H   UNL A   1      44.768  26.784  29.809  1.00  0.00     0.167 HD
ATOM     62  C   UNL A   1      47.021  27.692  31.248  1.00  0.00     0.074 A 
ATOM     63  C   UNL A   1      47.831  28.412  32.207  1.00  0.00     0.031 C 
ATOM     64  C   UNL A   1      47.492  26.713  30.435  1.00  0.00     0.034 A 
BRANCH  51  65
ATOM     65  C   UNL A   1      43.135  23.986  27.028  1.00  0.00     0.023 A 
ATOM     66  C   UNL A   1      43.506  24.096  25.674  1.00  0.00     0.012 A 
ATOM     67  C   UNL A   1      42.536  22.795  27.487  1.00  0.00     0.148 A 
ATOM     68  C   UNL A   1      43.269  23.049  24.784  1.00  0.00     0.002 A 
ATOM     69  C   UNL A   1      42.339  21.740  26.603  1.00  0.00     0.091 A 
ATOM     70  F   UNL A   1      42.173  22.717  28.775  1.00  0.00    -0.205 F 
ATOM     71  C   UNL A   1      42.697  21.868  25.250  1.00  0.00     0.022 A 
BRANCH  69  72
ATOM     72  S   UNL A   1      41.684  20.149  27.118  1.00  0.00     0.127 S 
ATOM     73  O   UNL A   1      40.564  20.552  27.967  1.00  0.00    -0.237 OA
ATOM     74  O   UNL A   1      41.297  19.547  25.843  1.00  0.00    -0.237 OA
ATOM     75  O   UNL A   1      42.774  19.469  27.807  1.00  0.00    -0.744 OA
ENDBRANCH  69  72
ENDBRANCH  51  65
BRANCH  52  76
ATOM     76  C   UNL A   1      44.956  31.000  33.879  1.00  0.00     0.023 A 
ATOM     77  C   UNL A   1      45.307  32.311  33.498  1.00  0.00     0.012 A 
ATOM     78  C   UNL A   1      44.876  30.684  35.248  1.00  0.00     0.148 A 
ATOM     79  C   UNL A   1      45.616  33.274  34.460  1.00  0.00     0.002 A 
ATOM     80  C   UNL A   1      45.128  31.664  36.202  1.00  0.00     0.091 A 
ATOM     81  F   UNL A   1      44.557  29.429  35.594  1.00  0.00    -0.205 F 
ATOM     82  C   UNL A   1      45.517  32.953  35.811  1.00  0.00     0.022 A 
BRANCH  80  83
ATOM     83  S   UNL A   1      44.886  31.364  37.956  1.00  0.00     0.127 S 
ATOM     84  O   UNL A   1      46.024  30.507  38.275  1.00  0.00    -0.237 OA
ATOM     85  O   UNL A   1      44.955  32.715  38.514  1.00  0.00    -0.237 OA
ATOM     86  O   UNL A   1      43.570  30.746  38.060  1.00  0.00    -0.744 OA
ENDBRANCH  80  83
ENDBRANCH  52  76
BRANCH  64  87
ATOM     87  C   UNL A   1      48.959  26.379  30.533  1.00  0.00     0.023 A 
ATOM     88  C   UNL A   1      49.879  27.031  29.688  1.00  0.00     0.012 A 
ATOM     89  C   UNL A   1      49.430  25.457  31.486  1.00  0.00     0.148 A 
ATOM     90  C   UNL A   1      51.240  26.736  29.761  1.00  0.00     0.002 A 
ATOM     91  C   UNL A   1      50.794  25.206  31.588  1.00  0.00     0.091 A 
ATOM     92  F   UNL A   1      48.539  24.829  32.269  1.00  0.00    -0.205 F 
ATOM     93  C   UNL A   1      51.699  25.833  30.717  1.00  0.00     0.022 A 
BRANCH  91  94
ATOM     94  S   UNL A   1      51.473  24.129  32.855  1.00  0.00     0.127 S 
ATOM     95  O   UNL A   1      52.910  24.297  32.652  1.00  0.00    -0.237 OA
ATOM     96  O   UNL A   1      50.957  24.728  34.087  1.00  0.00    -0.237 OA
ATOM     97  O   UNL A   1      50.946  22.802  32.568  1.00  0.00    -0.744 OA
ENDBRANCH  91  94
ENDBRANCH  64  87
ENDBRANCH  38  39
ENDBRANCH  30  33
ENDBRANCH  28  29
ENDBRANCH  27  28
ENDBRANCH  26  27
ENDBRANCH   1  26
TORSDOF 20
ENDMDL
