MODEL 1
REMARK VINA RESULT:      -9.1      0.000      0.000
REMARK SMILES COc1ccc(Cl)c2c1N[C@@H](c1ccc(C(=O)NCCCCCCNC(=O)c3ccc(-c4c5nc(c(-c6cccc(S(=O)(=O)[O-])c6F)c6ccc([nH]6)c(-c6cccc(S(=O)(=O)[O-])c6F)c6nc(c(-c7cccc(S(=O)(=O)[O-])c7F)c7ccc4[nH]7)C=C6)C=C5)cc3)cc1)[C@@H]1CC=C[C@H]21
REMARK SMILES IDX 22 1 21 2 20 3 19 4 18 5 16 6 17 7 15 9 12 10 13 11 92 12
REMARK SMILES IDX 14 13 91 14 11 15 3 16 4 17 9 18 5 19 8 20 10 21 6 22 97 23
REMARK SMILES IDX 7 25 93 26 96 27 94 28 95 29 2 30 1 31 23 32 24 33 25 34
REMARK SMILES IDX 26 35 27 37 28 38 29 39 90 40 30 41 89 42 31 43 32 44 33 45
REMARK SMILES IDX 83 46 34 47 88 48 82 49 84 50 35 51 87 52 81 53 80 54 36 56
REMARK SMILES IDX 68 57 48 58 67 59 49 60 52 61 66 62 85 63 50 64 51 65 65 67
REMARK SMILES IDX 86 68 53 69 37 70 38 71 46 72 39 73 41 74 47 75 40 76 42 77
REMARK SMILES IDX 43 78 44 79 45 80 69 81 70 82 78 83 71 84 73 85 79 86 72 87
REMARK SMILES IDX 74 88 75 89 76 90 77 91 54 92 55 93 63 94 56 95 58 96 64 97
REMARK SMILES IDX 57 98 59 99 60 100 61 101 62 102
REMARK H PARENT 18 8 10 24 25 36 84 55 52 66
REMARK Flexibility Score: inf
ROOT
ATOM      1  C   UNL A   1      45.813  24.289  27.963  1.00  0.00     0.002 C 
ENDROOT
BRANCH   1   2
ATOM      2  C   UNL A   1      44.432  23.622  27.935  1.00  0.00     0.002 C 
BRANCH   2   3
ATOM      3  C   UNL A   1      43.316  24.422  28.621  1.00  0.00     0.021 C 
BRANCH   3   4
ATOM      4  C   UNL A   1      41.921  24.110  28.078  1.00  0.00     0.116 C 
BRANCH   4   5
ATOM      5  N   UNL A   1      41.787  24.646  26.736  1.00  0.00    -0.352 N 
ATOM      6  C   UNL A   1      41.217  25.797  26.263  1.00  0.00     0.251 C 
ATOM      7  O   UNL A   1      41.221  25.981  25.045  1.00  0.00    -0.269 OA
ATOM      8  H   UNL A   1      42.179  24.076  26.036  1.00  0.00     0.163 HD
BRANCH   6   9
ATOM      9  C   UNL A   1      40.665  26.857  27.151  1.00  0.00     0.039 A 
ATOM     10  C   UNL A   1      39.430  28.726  28.892  1.00  0.00    -0.025 A 
ATOM     11  C   UNL A   1      39.160  27.354  29.000  1.00  0.00     0.006 A 
ATOM     12  C   UNL A   1      40.361  29.137  27.924  1.00  0.00     0.006 A 
ATOM     13  C   UNL A   1      39.785  26.433  28.155  1.00  0.00     0.014 A 
ATOM     14  C   UNL A   1      40.977  28.214  27.069  1.00  0.00     0.014 A 
BRANCH  10  15
ATOM     15  C   UNL A   1      38.770  29.766  29.794  1.00  0.00     0.114 C 
ATOM     16  C   UNL A   1      36.221  32.344  28.918  1.00  0.00     0.142 A 
ATOM     17  C   UNL A   1      35.589  33.462  29.458  1.00  0.00     0.050 A 
ATOM     18  C   UNL A   1      37.323  31.746  29.563  1.00  0.00     0.083 A 
ATOM     19  C   UNL A   1      36.026  33.977  30.673  1.00  0.00     0.025 A 
ATOM     20  C   UNL A   1      37.766  32.264  30.796  1.00  0.00     0.005 A 
ATOM     21  N   UNL A   1      37.974  30.671  28.983  1.00  0.00    -0.375 N 
ATOM     22  C   UNL A   1      37.106  33.387  31.337  1.00  0.00     0.047 A 
ATOM     23  C   UNL A   1      38.987  31.664  31.461  1.00  0.00     0.051 C 
ATOM     24  H   UNL A   1      37.894  30.518  28.014  1.00  0.00     0.161 HD
ATOM     25  Cl  UNL A   1      37.612  34.136  32.813  1.00  0.00    -0.084 Cl
ATOM     26  C   UNL A   1      39.763  30.606  30.627  1.00  0.00     0.031 C 
ATOM     27  C   UNL A   1      38.717  30.895  32.730  1.00  0.00    -0.023 C 
ATOM     28  C   UNL A   1      40.502  29.790  31.704  1.00  0.00     0.034 C 
ATOM     29  C   UNL A   1      39.566  29.870  32.867  1.00  0.00    -0.030 C 
BRANCH  16  30
ATOM     30  O   UNL A   1      35.763  31.918  27.692  1.00  0.00    -0.495 OA
ATOM     31  C   UNL A   1      34.381  31.557  27.725  1.00  0.00     0.278 C 
ENDBRANCH  16  30
ENDBRANCH  10  15
ENDBRANCH   6   9
ENDBRANCH   4   5
ENDBRANCH   3   4
ENDBRANCH   2   3
ENDBRANCH   1   2
BRANCH   1  32
ATOM     32  C   UNL A   1      46.694  23.990  26.747  1.00  0.00     0.021 C 
BRANCH  32  33
ATOM     33  C   UNL A   1      45.999  24.217  25.409  1.00  0.00     0.116 C 
BRANCH  33  34
ATOM     34  N   UNL A   1      46.706  25.207  24.613  1.00  0.00    -0.352 N 
ATOM     35  C   UNL A   1      46.687  26.574  24.749  1.00  0.00     0.251 C 
ATOM     36  H   UNL A   1      47.267  24.854  23.884  1.00  0.00     0.163 HD
ATOM     37  O   UNL A   1      47.111  27.300  23.862  1.00  0.00    -0.269 OA
BRANCH  35  38
ATOM     38  C   UNL A   1      46.141  27.150  25.994  1.00  0.00     0.039 A 
ATOM     39  C   UNL A   1      47.014  27.663  26.954  1.00  0.00     0.014 A 
ATOM     40  C   UNL A   1      44.757  27.187  26.190  1.00  0.00     0.014 A 
ATOM     41  C   UNL A   1      46.493  28.249  28.108  1.00  0.00     0.010 A 
ATOM     42  C   UNL A   1      44.239  27.815  27.317  1.00  0.00     0.010 A 
ATOM     43  C   UNL A   1      45.104  28.337  28.290  1.00  0.00    -0.014 A 
BRANCH  43  44
ATOM     44  C   UNL A   1      44.529  28.932  29.519  1.00  0.00     0.031 A 
ATOM     45  C   UNL A   1      44.054  30.357  29.497  1.00  0.00     0.074 A 
ATOM     46  C   UNL A   1      44.494  28.216  30.659  1.00  0.00     0.049 A 
ATOM     47  N   UNL A   1      43.552  31.069  30.470  1.00  0.00    -0.248 NA
ATOM     48  C   UNL A   1      44.175  31.085  28.221  1.00  0.00     0.031 C 
ATOM     49  C   UNL A   1      44.978  26.842  30.812  1.00  0.00     0.029 A 
ATOM     50  N   UNL A   1      44.046  28.554  31.911  1.00  0.00    -0.354 N 
ATOM     51  C   UNL A   1      43.325  32.330  29.935  1.00  0.00     0.074 A 
ATOM     52  C   UNL A   1      43.764  32.298  28.559  1.00  0.00     0.031 C 
ATOM     53  C   UNL A   1      44.790  26.451  32.084  1.00  0.00     0.029 A 
ATOM     54  C   UNL A   1      44.188  27.548  32.838  1.00  0.00     0.049 A 
ATOM     55  H   UNL A   1      43.658  29.432  32.125  1.00  0.00     0.167 HD
ATOM     56  C   UNL A   1      42.769  33.409  30.530  1.00  0.00     0.034 A 
ATOM     57  C   UNL A   1      43.862  27.514  34.145  1.00  0.00     0.034 A 
ATOM     58  C   UNL A   1      42.276  33.419  31.878  1.00  0.00     0.049 A 
ATOM     59  C   UNL A   1      43.215  28.719  34.773  1.00  0.00     0.074 A 
ATOM     60  C   UNL A   1      41.616  34.438  32.540  1.00  0.00     0.029 A 
ATOM     61  N   UNL A   1      42.386  32.363  32.767  1.00  0.00    -0.354 N 
ATOM     62  N   UNL A   1      42.888  29.859  34.214  1.00  0.00    -0.248 NA
ATOM     63  C   UNL A   1      42.865  28.625  36.198  1.00  0.00     0.031 C 
ATOM     64  C   UNL A   1      41.330  33.999  33.835  1.00  0.00     0.029 A 
ATOM     65  C   UNL A   1      41.809  32.706  33.974  1.00  0.00     0.049 A 
ATOM     66  H   UNL A   1      42.813  31.498  32.568  1.00  0.00     0.167 HD
ATOM     67  C   UNL A   1      42.264  30.604  35.207  1.00  0.00     0.074 A 
ATOM     68  C   UNL A   1      42.254  29.787  36.403  1.00  0.00     0.031 C 
ATOM     69  C   UNL A   1      41.755  31.857  35.134  1.00  0.00     0.034 A 
BRANCH  56  70
ATOM     70  C   UNL A   1      42.588  34.654  29.711  1.00  0.00     0.023 A 
ATOM     71  C   UNL A   1      41.414  34.806  28.948  1.00  0.00     0.012 A 
ATOM     72  C   UNL A   1      43.520  35.707  29.779  1.00  0.00     0.148 A 
ATOM     73  C   UNL A   1      41.172  35.991  28.256  1.00  0.00     0.002 A 
ATOM     74  C   UNL A   1      43.257  36.896  29.109  1.00  0.00     0.091 A 
ATOM     75  F   UNL A   1      44.634  35.528  30.502  1.00  0.00    -0.205 F 
ATOM     76  C   UNL A   1      42.085  37.038  28.345  1.00  0.00     0.022 A 
BRANCH  74  77
ATOM     77  S   UNL A   1      44.340  38.325  29.199  1.00  0.00     0.127 S 
ATOM     78  O   UNL A   1      45.567  37.803  28.596  1.00  0.00    -0.237 OA
ATOM     79  O   UNL A   1      43.624  39.302  28.380  1.00  0.00    -0.237 OA
ATOM     80  O   UNL A   1      44.446  38.665  30.611  1.00  0.00    -0.744 OA
ENDBRANCH  74  77
ENDBRANCH  56  70
BRANCH  57  81
ATOM     81  C   UNL A   1      44.055  26.259  34.920  1.00  0.00     0.023 A 
ATOM     82  C   UNL A   1      43.035  25.289  34.908  1.00  0.00     0.012 A 
ATOM     83  C   UNL A   1      45.248  25.999  35.621  1.00  0.00     0.148 A 
ATOM     84  C   UNL A   1      43.192  24.084  35.593  1.00  0.00     0.002 A 
ATOM     85  C   UNL A   1      45.413  24.781  36.271  1.00  0.00     0.091 A 
ATOM     86  F   UNL A   1      46.201  26.940  35.620  1.00  0.00    -0.205 F 
ATOM     87  C   UNL A   1      44.383  23.827  36.268  1.00  0.00     0.022 A 
BRANCH  85  88
ATOM     88  S   UNL A   1      46.945  24.316  37.085  1.00  0.00     0.127 S 
ATOM     89  O   UNL A   1      46.580  23.045  37.707  1.00  0.00    -0.237 OA
ATOM     90  O   UNL A   1      47.866  24.208  35.953  1.00  0.00    -0.237 OA
ATOM     91  O   UNL A   1      47.249  25.402  38.008  1.00  0.00    -0.744 OA
ENDBRANCH  85  88
ENDBRANCH  57  81
BRANCH  69  92
ATOM     92  C   UNL A   1      41.114  32.439  36.362  1.00  0.00     0.023 A 
ATOM     93  C   UNL A   1      41.805  33.418  37.101  1.00  0.00     0.012 A 
ATOM     94  C   UNL A   1      39.777  32.135  36.682  1.00  0.00     0.148 A 
ATOM     95  C   UNL A   1      41.171  34.089  38.145  1.00  0.00     0.002 A 
ATOM     96  C   UNL A   1      39.141  32.832  37.701  1.00  0.00     0.091 A 
ATOM     97  F   UNL A   1      39.147  31.193  35.964  1.00  0.00    -0.205 F 
ATOM     98  C   UNL A   1      39.837  33.806  38.435  1.00  0.00     0.022 A 
BRANCH  96  99
ATOM     99  S   UNL A   1      37.403  32.602  38.094  1.00  0.00     0.127 S 
ATOM    100  O   UNL A   1      36.754  33.216  36.937  1.00  0.00    -0.237 OA
ATOM    101  O   UNL A   1      37.291  31.144  38.154  1.00  0.00    -0.237 OA
ATOM    102  O   UNL A   1      37.181  33.282  39.362  1.00  0.00    -0.744 OA
ENDBRANCH  96  99
ENDBRANCH  69  92
ENDBRANCH  43  44
ENDBRANCH  35  38
ENDBRANCH  33  34
ENDBRANCH  32  33
ENDBRANCH   1  32
TORSDOF 18
ENDMDL
MODEL 2
REMARK VINA RESULT:      -8.5      3.318      9.737
REMARK SMILES COc1ccc(Cl)c2c1N[C@@H](c1ccc(C(=O)NCCCCCCNC(=O)c3ccc(-c4c5nc(c(-c6cccc(S(=O)(=O)[O-])c6F)c6ccc([nH]6)c(-c6cccc(S(=O)(=O)[O-])c6F)c6nc(c(-c7cccc(S(=O)(=O)[O-])c7F)c7ccc4[nH]7)C=C6)C=C5)cc3)cc1)[C@@H]1CC=C[C@H]21
REMARK SMILES IDX 22 1 21 2 20 3 19 4 18 5 16 6 17 7 15 9 12 10 13 11 92 12
REMARK SMILES IDX 14 13 91 14 11 15 3 16 4 17 9 18 5 19 8 20 10 21 6 22 97 23
REMARK SMILES IDX 7 25 93 26 96 27 94 28 95 29 2 30 1 31 23 32 24 33 25 34
REMARK SMILES IDX 26 35 27 37 28 38 29 39 90 40 30 41 89 42 31 43 32 44 33 45
REMARK SMILES IDX 83 46 34 47 88 48 82 49 84 50 35 51 87 52 81 53 80 54 36 56
REMARK SMILES IDX 68 57 48 58 67 59 49 60 52 61 66 62 85 63 50 64 51 65 65 67
REMARK SMILES IDX 86 68 53 69 37 70 38 71 46 72 39 73 41 74 47 75 40 76 42 77
REMARK SMILES IDX 43 78 44 79 45 80 69 81 70 82 78 83 71 84 73 85 79 86 72 87
REMARK SMILES IDX 74 88 75 89 76 90 77 91 54 92 55 93 63 94 56 95 58 96 64 97
REMARK SMILES IDX 57 98 59 99 60 100 61 101 62 102
REMARK H PARENT 18 8 10 24 25 36 84 55 52 66
REMARK Flexibility Score: inf
ROOT
ATOM      1  C   UNL A   1      34.641  35.261  29.214  1.00  0.00     0.002 C 
ENDROOT
BRANCH   1   2
ATOM      2  C   UNL A   1      33.649  35.024  30.360  1.00  0.00     0.002 C 
BRANCH   2   3
ATOM      3  C   UNL A   1      34.294  34.732  31.721  1.00  0.00     0.021 C 
BRANCH   3   4
ATOM      4  C   UNL A   1      35.753  34.284  31.620  1.00  0.00     0.116 C 
BRANCH   4   5
ATOM      5  N   UNL A   1      36.413  34.473  32.897  1.00  0.00    -0.352 N 
ATOM      6  C   UNL A   1      37.736  34.544  33.242  1.00  0.00     0.251 C 
ATOM      7  O   UNL A   1      38.012  34.680  34.435  1.00  0.00    -0.269 OA
ATOM      8  H   UNL A   1      35.795  34.567  33.658  1.00  0.00     0.163 HD
BRANCH   6   9
ATOM      9  C   UNL A   1      38.840  34.539  32.243  1.00  0.00     0.039 A 
ATOM     10  C   UNL A   1      40.785  34.440  30.179  1.00  0.00    -0.025 A 
ATOM     11  C   UNL A   1      39.415  34.486  29.877  1.00  0.00     0.006 A 
ATOM     12  C   UNL A   1      41.159  34.487  31.532  1.00  0.00     0.006 A 
ATOM     13  C   UNL A   1      38.460  34.555  30.894  1.00  0.00     0.014 A 
ATOM     14  C   UNL A   1      40.201  34.544  32.551  1.00  0.00     0.014 A 
BRANCH  10  15
ATOM     15  C   UNL A   1      41.862  34.364  29.100  1.00  0.00     0.114 C 
ATOM     16  C   UNL A   1      44.461  31.743  28.568  1.00  0.00     0.142 A 
ATOM     17  C   UNL A   1      45.605  31.497  27.811  1.00  0.00     0.050 A 
ATOM     18  C   UNL A   1      43.860  33.019  28.590  1.00  0.00     0.083 A 
ATOM     19  C   UNL A   1      46.145  32.516  27.034  1.00  0.00     0.025 A 
ATOM     20  C   UNL A   1      44.404  34.052  27.800  1.00  0.00     0.005 A 
ATOM     21  N   UNL A   1      42.758  33.258  29.391  1.00  0.00    -0.375 N 
ATOM     22  C   UNL A   1      45.554  33.782  27.029  1.00  0.00     0.047 A 
ATOM     23  C   UNL A   1      43.800  35.438  27.870  1.00  0.00     0.051 C 
ATOM     24  H   UNL A   1      42.579  32.675  30.163  1.00  0.00     0.161 HD
ATOM     25  Cl  UNL A   1      46.334  34.999  26.075  1.00  0.00    -0.084 Cl
ATOM     26  C   UNL A   1      42.706  35.650  28.953  1.00  0.00     0.031 C 
ATOM     27  C   UNL A   1      43.072  35.886  26.626  1.00  0.00    -0.023 C 
ATOM     28  C   UNL A   1      41.907  36.848  28.409  1.00  0.00     0.034 C 
ATOM     29  C   UNL A   1      42.036  36.676  26.929  1.00  0.00    -0.030 C 
BRANCH  16  30
ATOM     30  O   UNL A   1      44.009  30.701  29.346  1.00  0.00    -0.495 OA
ATOM     31  C   UNL A   1      43.810  29.506  28.589  1.00  0.00     0.278 C 
ENDBRANCH  16  30
ENDBRANCH  10  15
ENDBRANCH   6   9
ENDBRANCH   4   5
ENDBRANCH   3   4
ENDBRANCH   2   3
ENDBRANCH   1   2
BRANCH   1  32
ATOM     32  C   UNL A   1      34.447  34.348  27.999  1.00  0.00     0.021 C 
BRANCH  32  33
ATOM     33  C   UNL A   1      35.121  32.988  28.134  1.00  0.00     0.116 C 
BRANCH  33  34
ATOM     34  N   UNL A   1      34.197  31.911  27.811  1.00  0.00    -0.352 N 
ATOM     35  C   UNL A   1      34.480  30.580  27.624  1.00  0.00     0.251 C 
ATOM     36  H   UNL A   1      33.252  32.170  27.714  1.00  0.00     0.163 HD
ATOM     37  O   UNL A   1      33.665  29.832  27.104  1.00  0.00    -0.269 OA
BRANCH  35  38
ATOM     38  C   UNL A   1      35.794  30.071  28.065  1.00  0.00     0.039 A 
ATOM     39  C   UNL A   1      36.887  30.151  27.201  1.00  0.00     0.014 A 
ATOM     40  C   UNL A   1      35.930  29.527  29.347  1.00  0.00     0.014 A 
ATOM     41  C   UNL A   1      38.138  29.713  27.639  1.00  0.00     0.010 A 
ATOM     42  C   UNL A   1      37.186  29.137  29.797  1.00  0.00     0.010 A 
ATOM     43  C   UNL A   1      38.295  29.213  28.942  1.00  0.00    -0.014 A 
BRANCH  43  44
ATOM     44  C   UNL A   1      39.607  28.719  29.418  1.00  0.00     0.031 A 
ATOM     45  C   UNL A   1      40.298  29.429  30.547  1.00  0.00     0.074 A 
ATOM     46  C   UNL A   1      40.199  27.680  28.798  1.00  0.00     0.049 A 
ATOM     47  N   UNL A   1      41.459  29.174  31.087  1.00  0.00    -0.248 NA
ATOM     48  C   UNL A   1      39.602  30.588  31.136  1.00  0.00     0.031 C 
ATOM     49  C   UNL A   1      39.647  26.949  27.656  1.00  0.00     0.029 A 
ATOM     50  N   UNL A   1      41.406  27.072  29.032  1.00  0.00    -0.354 N 
ATOM     51  C   UNL A   1      41.647  30.153  32.055  1.00  0.00     0.074 A 
ATOM     52  C   UNL A   1      40.494  31.022  32.016  1.00  0.00     0.031 C 
ATOM     53  C   UNL A   1      40.509  25.982  27.296  1.00  0.00     0.029 A 
ATOM     54  C   UNL A   1      41.679  26.036  28.170  1.00  0.00     0.049 A 
ATOM     55  H   UNL A   1      42.019  27.349  29.751  1.00  0.00     0.167 HD
ATOM     56  C   UNL A   1      42.675  30.293  32.921  1.00  0.00     0.034 A 
ATOM     57  C   UNL A   1      42.747  25.218  28.099  1.00  0.00     0.034 A 
ATOM     58  C   UNL A   1      43.789  29.392  33.000  1.00  0.00     0.049 A 
ATOM     59  C   UNL A   1      43.862  25.378  29.097  1.00  0.00     0.074 A 
ATOM     60  C   UNL A   1      44.835  29.402  33.904  1.00  0.00     0.029 A 
ATOM     61  N   UNL A   1      44.001  28.322  32.147  1.00  0.00    -0.354 N 
ATOM     62  N   UNL A   1      43.958  26.228  30.090  1.00  0.00    -0.248 NA
ATOM     63  C   UNL A   1      44.999  24.451  28.986  1.00  0.00     0.031 C 
ATOM     64  C   UNL A   1      45.686  28.337  33.594  1.00  0.00     0.029 A 
ATOM     65  C   UNL A   1      45.163  27.665  32.501  1.00  0.00     0.049 A 
ATOM     66  H   UNL A   1      43.412  28.068  31.400  1.00  0.00     0.167 HD
ATOM     67  C   UNL A   1      45.146  25.918  30.742  1.00  0.00     0.074 A 
ATOM     68  C   UNL A   1      45.734  24.799  30.036  1.00  0.00     0.031 C 
ATOM     69  C   UNL A   1      45.701  26.515  31.823  1.00  0.00     0.034 A 
BRANCH  56  70
ATOM     70  C   UNL A   1      42.617  31.420  33.911  1.00  0.00     0.023 A 
ATOM     71  C   UNL A   1      43.342  32.598  33.651  1.00  0.00     0.012 A 
ATOM     72  C   UNL A   1      41.771  31.354  35.035  1.00  0.00     0.148 A 
ATOM     73  C   UNL A   1      43.232  33.697  34.499  1.00  0.00     0.002 A 
ATOM     74  C   UNL A   1      41.643  32.464  35.860  1.00  0.00     0.091 A 
ATOM     75  F   UNL A   1      41.103  30.214  35.265  1.00  0.00    -0.205 F 
ATOM     76  C   UNL A   1      42.376  33.635  35.596  1.00  0.00     0.022 A 
BRANCH  74  77
ATOM     77  S   UNL A   1      40.530  32.509  37.267  1.00  0.00     0.127 S 
ATOM     78  O   UNL A   1      41.394  32.021  38.343  1.00  0.00    -0.237 OA
ATOM     79  O   UNL A   1      40.198  33.931  37.349  1.00  0.00    -0.237 OA
ATOM     80  O   UNL A   1      39.415  31.635  36.931  1.00  0.00    -0.744 OA
ENDBRANCH  74  77
ENDBRANCH  56  70
BRANCH  57  81
ATOM     81  C   UNL A   1      42.764  24.112  27.105  1.00  0.00     0.023 A 
ATOM     82  C   UNL A   1      43.498  24.280  25.915  1.00  0.00     0.012 A 
ATOM     83  C   UNL A   1      42.111  22.889  27.347  1.00  0.00     0.148 A 
ATOM     84  C   UNL A   1      43.568  23.253  24.973  1.00  0.00     0.002 A 
ATOM     85  C   UNL A   1      42.216  21.856  26.422  1.00  0.00     0.091 A 
ATOM     86  F   UNL A   1      41.417  22.757  28.486  1.00  0.00    -0.205 F 
ATOM     87  C   UNL A   1      42.935  22.040  25.229  1.00  0.00     0.022 A 
BRANCH  85  88
ATOM     88  S   UNL A   1      41.518  20.226  26.705  1.00  0.00     0.127 S 
ATOM     89  O   UNL A   1      41.803  19.554  25.439  1.00  0.00    -0.237 OA
ATOM     90  O   UNL A   1      42.306  19.756  27.845  1.00  0.00    -0.237 OA
ATOM     91  O   UNL A   1      40.107  20.444  26.995  1.00  0.00    -0.744 OA
ENDBRANCH  85  88
ENDBRANCH  57  81
BRANCH  69  92
ATOM     92  C   UNL A   1      47.001  25.975  32.348  1.00  0.00     0.023 A 
ATOM     93  C   UNL A   1      48.209  26.570  31.938  1.00  0.00     0.012 A 
ATOM     94  C   UNL A   1      47.011  24.997  33.360  1.00  0.00     0.148 A 
ATOM     95  C   UNL A   1      49.414  26.197  32.531  1.00  0.00     0.002 A 
ATOM     96  C   UNL A   1      48.211  24.654  33.971  1.00  0.00     0.091 A 
ATOM     97  F   UNL A   1      45.845  24.444  33.725  1.00  0.00    -0.205 F 
ATOM     98  C   UNL A   1      49.413  25.251  33.555  1.00  0.00     0.022 A 
BRANCH  96  99
ATOM     99  S   UNL A   1      48.303  23.512  35.354  1.00  0.00     0.127 S 
ATOM    100  O   UNL A   1      47.629  22.334  34.812  1.00  0.00    -0.237 OA
ATOM    101  O   UNL A   1      49.747  23.362  35.534  1.00  0.00    -0.237 OA
ATOM    102  O   UNL A   1      47.616  24.162  36.462  1.00  0.00    -0.744 OA
ENDBRANCH  96  99
ENDBRANCH  69  92
ENDBRANCH  43  44
ENDBRANCH  35  38
ENDBRANCH  33  34
ENDBRANCH  32  33
ENDBRANCH   1  32
TORSDOF 18
ENDMDL
MODEL 3
REMARK VINA RESULT:      -8.5      3.842     10.757
REMARK SMILES COc1ccc(Cl)c2c1N[C@@H](c1ccc(C(=O)NCCCCCCNC(=O)c3ccc(-c4c5nc(c(-c6cccc(S(=O)(=O)[O-])c6F)c6ccc([nH]6)c(-c6cccc(S(=O)(=O)[O-])c6F)c6nc(c(-c7cccc(S(=O)(=O)[O-])c7F)c7ccc4[nH]7)C=C6)C=C5)cc3)cc1)[C@@H]1CC=C[C@H]21
REMARK SMILES IDX 22 1 21 2 20 3 19 4 18 5 16 6 17 7 15 9 12 10 13 11 92 12
REMARK SMILES IDX 14 13 91 14 11 15 3 16 4 17 9 18 5 19 8 20 10 21 6 22 97 23
REMARK SMILES IDX 7 25 93 26 96 27 94 28 95 29 2 30 1 31 23 32 24 33 25 34
REMARK SMILES IDX 26 35 27 37 28 38 29 39 90 40 30 41 89 42 31 43 32 44 33 45
REMARK SMILES IDX 83 46 34 47 88 48 82 49 84 50 35 51 87 52 81 53 80 54 36 56
REMARK SMILES IDX 68 57 48 58 67 59 49 60 52 61 66 62 85 63 50 64 51 65 65 67
REMARK SMILES IDX 86 68 53 69 37 70 38 71 46 72 39 73 41 74 47 75 40 76 42 77
REMARK SMILES IDX 43 78 44 79 45 80 69 81 70 82 78 83 71 84 73 85 79 86 72 87
REMARK SMILES IDX 74 88 75 89 76 90 77 91 54 92 55 93 63 94 56 95 58 96 64 97
REMARK SMILES IDX 57 98 59 99 60 100 61 101 62 102
REMARK H PARENT 18 8 10 24 25 36 84 55 52 66
REMARK Flexibility Score: inf
ROOT
ATOM      1  C   UNL A   1      34.659  34.705  30.082  1.00  0.00     0.002 C 
ENDROOT
BRANCH   1   2
ATOM      2  C   UNL A   1      33.944  34.905  31.424  1.00  0.00     0.002 C 
BRANCH   2   3
ATOM      3  C   UNL A   1      34.834  34.725  32.662  1.00  0.00     0.021 C 
BRANCH   3   4
ATOM      4  C   UNL A   1      36.248  34.246  32.330  1.00  0.00     0.116 C 
BRANCH   4   5
ATOM      5  N   UNL A   1      37.128  34.503  33.454  1.00  0.00    -0.352 N 
ATOM      6  C   UNL A   1      38.492  34.565  33.553  1.00  0.00     0.251 C 
ATOM      7  O   UNL A   1      38.978  34.772  34.666  1.00  0.00    -0.269 OA
ATOM      8  H   UNL A   1      36.657  34.661  34.304  1.00  0.00     0.163 HD
BRANCH   6   9
ATOM      9  C   UNL A   1      39.399  34.467  32.376  1.00  0.00     0.039 A 
ATOM     10  C   UNL A   1      41.294  34.396  30.265  1.00  0.00    -0.025 A 
ATOM     11  C   UNL A   1      41.706  34.545  31.598  1.00  0.00     0.006 A 
ATOM     12  C   UNL A   1      39.920  34.242  30.017  1.00  0.00     0.006 A 
ATOM     13  C   UNL A   1      40.773  34.559  32.638  1.00  0.00     0.014 A 
ATOM     14  C   UNL A   1      38.984  34.269  31.059  1.00  0.00     0.014 A 
BRANCH  10  15
ATOM     15  C   UNL A   1      42.279  34.375  29.099  1.00  0.00     0.114 C 
ATOM     16  C   UNL A   1      44.866  31.820  28.267  1.00  0.00     0.142 A 
ATOM     17  C   UNL A   1      45.948  31.620  27.412  1.00  0.00     0.050 A 
ATOM     18  C   UNL A   1      44.250  33.084  28.382  1.00  0.00     0.083 A 
ATOM     19  C   UNL A   1      46.405  32.673  26.627  1.00  0.00     0.025 A 
ATOM     20  C   UNL A   1      44.710  34.151  27.585  1.00  0.00     0.005 A 
ATOM     21  N   UNL A   1      43.214  33.277  29.279  1.00  0.00    -0.375 N 
ATOM     22  C   UNL A   1      45.796  33.928  26.713  1.00  0.00     0.047 A 
ATOM     23  C   UNL A   1      44.092  35.524  27.751  1.00  0.00     0.051 C 
ATOM     24  H   UNL A   1      43.109  32.665  30.042  1.00  0.00     0.161 HD
ATOM     25  Cl  UNL A   1      46.475  35.189  25.740  1.00  0.00    -0.084 Cl
ATOM     26  C   UNL A   1      43.088  35.679  28.926  1.00  0.00     0.031 C 
ATOM     27  C   UNL A   1      43.256  35.997  26.587  1.00  0.00    -0.023 C 
ATOM     28  C   UNL A   1      42.227  36.879  28.491  1.00  0.00     0.034 C 
ATOM     29  C   UNL A   1      42.236  36.758  27.001  1.00  0.00    -0.030 C 
BRANCH  16  30
ATOM     30  O   UNL A   1      44.498  30.746  29.044  1.00  0.00    -0.495 OA
ATOM     31  C   UNL A   1      44.194  29.590  28.263  1.00  0.00     0.278 C 
ENDBRANCH  16  30
ENDBRANCH  10  15
ENDBRANCH   6   9
ENDBRANCH   4   5
ENDBRANCH   3   4
ENDBRANCH   2   3
ENDBRANCH   1   2
BRANCH   1  32
ATOM     32  C   UNL A   1      34.057  33.614  29.191  1.00  0.00     0.021 C 
BRANCH  32  33
ATOM     33  C   UNL A   1      34.777  32.273  29.285  1.00  0.00     0.116 C 
BRANCH  33  34
ATOM     34  N   UNL A   1      34.136  31.276  28.442  1.00  0.00    -0.352 N 
ATOM     35  C   UNL A   1      34.720  30.217  27.790  1.00  0.00     0.251 C 
ATOM     36  H   UNL A   1      33.163  31.373  28.322  1.00  0.00     0.163 HD
ATOM     37  O   UNL A   1      34.122  29.614  26.911  1.00  0.00    -0.269 OA
BRANCH  35  38
ATOM     38  C   UNL A   1      36.090  29.822  28.175  1.00  0.00     0.039 A 
ATOM     39  C   UNL A   1      37.151  30.094  27.311  1.00  0.00     0.014 A 
ATOM     40  C   UNL A   1      36.308  29.193  29.405  1.00  0.00     0.014 A 
ATOM     41  C   UNL A   1      38.450  29.764  27.699  1.00  0.00     0.010 A 
ATOM     42  C   UNL A   1      37.607  28.908  29.810  1.00  0.00     0.010 A 
ATOM     43  C   UNL A   1      38.685  29.178  28.954  1.00  0.00    -0.014 A 
BRANCH  43  44
ATOM     44  C   UNL A   1      40.052  28.795  29.375  1.00  0.00     0.031 A 
ATOM     45  C   UNL A   1      40.733  27.635  28.706  1.00  0.00     0.074 A 
ATOM     46  C   UNL A   1      40.648  29.445  30.393  1.00  0.00     0.049 A 
ATOM     47  N   UNL A   1      41.910  27.124  28.950  1.00  0.00    -0.248 NA
ATOM     48  C   UNL A   1      39.989  26.947  27.636  1.00  0.00     0.031 C 
ATOM     49  C   UNL A   1      40.061  30.551  31.152  1.00  0.00     0.029 A 
ATOM     50  N   UNL A   1      41.876  29.256  30.974  1.00  0.00    -0.354 N 
ATOM     51  C   UNL A   1      42.036  26.041  28.089  1.00  0.00     0.074 A 
ATOM     52  C   UNL A   1      40.810  25.952  27.330  1.00  0.00     0.031 C 
ATOM     53  C   UNL A   1      40.934  30.949  32.093  1.00  0.00     0.029 A 
ATOM     54  C   UNL A   1      42.134  30.119  32.014  1.00  0.00     0.049 A 
ATOM     55  H   UNL A   1      42.514  28.569  30.676  1.00  0.00     0.167 HD
ATOM     56  C   UNL A   1      43.094  25.217  27.922  1.00  0.00     0.034 A 
ATOM     57  C   UNL A   1      43.218  30.232  32.805  1.00  0.00     0.034 A 
ATOM     58  C   UNL A   1      44.335  25.347  28.632  1.00  0.00     0.049 A 
ATOM     59  C   UNL A   1      44.394  29.322  32.576  1.00  0.00     0.074 A 
ATOM     60  C   UNL A   1      45.495  24.614  28.468  1.00  0.00     0.029 A 
ATOM     61  N   UNL A   1      44.576  26.270  29.636  1.00  0.00    -0.354 N 
ATOM     62  N   UNL A   1      44.544  28.390  31.667  1.00  0.00    -0.248 NA
ATOM     63  C   UNL A   1      45.558  29.496  33.458  1.00  0.00     0.031 C 
ATOM     64  C   UNL A   1      46.441  25.091  29.379  1.00  0.00     0.029 A 
ATOM     65  C   UNL A   1      45.868  26.124  30.104  1.00  0.00     0.049 A 
ATOM     66  H   UNL A   1      43.925  26.930  29.967  1.00  0.00     0.167 HD
ATOM     67  C   UNL A   1      45.829  27.890  31.843  1.00  0.00     0.074 A 
ATOM     68  C   UNL A   1      46.419  28.624  32.944  1.00  0.00     0.031 C 
ATOM     69  C   UNL A   1      46.457  26.905  31.159  1.00  0.00     0.034 A 
BRANCH  56  70
ATOM     70  C   UNL A   1      42.996  24.142  26.880  1.00  0.00     0.023 A 
ATOM     71  C   UNL A   1      43.666  24.314  25.654  1.00  0.00     0.012 A 
ATOM     72  C   UNL A   1      42.335  22.928  27.151  1.00  0.00     0.148 A 
ATOM     73  C   UNL A   1      43.676  23.294  24.705  1.00  0.00     0.002 A 
ATOM     74  C   UNL A   1      42.375  21.905  26.213  1.00  0.00     0.091 A 
ATOM     75  F   UNL A   1      41.695  22.798  28.321  1.00  0.00    -0.205 F 
ATOM     76  C   UNL A   1      43.041  22.087  24.988  1.00  0.00     0.022 A 
BRANCH  74  77
ATOM     77  S   UNL A   1      41.636  20.293  26.496  1.00  0.00     0.127 S 
ATOM     78  O   UNL A   1      42.139  19.532  25.353  1.00  0.00    -0.237 OA
ATOM     79  O   UNL A   1      42.215  19.915  27.785  1.00  0.00    -0.237 OA
ATOM     80  O   UNL A   1      40.195  20.504  26.507  1.00  0.00    -0.744 OA
ENDBRANCH  74  77
ENDBRANCH  56  70
BRANCH  57  81
ATOM     81  C   UNL A   1      43.277  31.314  33.825  1.00  0.00     0.023 A 
ATOM     82  C   UNL A   1      43.950  32.510  33.509  1.00  0.00     0.012 A 
ATOM     83  C   UNL A   1      42.634  31.191  35.072  1.00  0.00     0.148 A 
ATOM     84  C   UNL A   1      43.997  33.561  34.425  1.00  0.00     0.002 A 
ATOM     85  C   UNL A   1      42.653  32.256  35.965  1.00  0.00     0.091 A 
ATOM     86  F   UNL A   1      42.004  30.041  35.348  1.00  0.00    -0.205 F 
ATOM     87  C   UNL A   1      43.343  33.438  35.648  1.00  0.00     0.022 A 
BRANCH  85  88
ATOM     88  S   UNL A   1      41.761  32.231  37.523  1.00  0.00     0.127 S 
ATOM     89  O   UNL A   1      40.443  31.757  37.106  1.00  0.00    -0.237 OA
ATOM     90  O   UNL A   1      42.545  31.272  38.302  1.00  0.00    -0.237 OA
ATOM     91  O   UNL A   1      41.805  33.597  38.027  1.00  0.00    -0.744 OA
ENDBRANCH  85  88
ENDBRANCH  57  81
BRANCH  69  92
ATOM     92  C   UNL A   1      47.868  26.557  31.543  1.00  0.00     0.023 A 
ATOM     93  C   UNL A   1      48.091  25.579  32.530  1.00  0.00     0.012 A 
ATOM     94  C   UNL A   1      48.955  27.078  30.816  1.00  0.00     0.148 A 
ATOM     95  C   UNL A   1      49.383  25.123  32.789  1.00  0.00     0.002 A 
ATOM     96  C   UNL A   1      50.234  26.595  31.055  1.00  0.00     0.091 A 
ATOM     97  F   UNL A   1      48.710  28.014  29.886  1.00  0.00    -0.205 F 
ATOM     98  C   UNL A   1      50.450  25.620  32.043  1.00  0.00     0.022 A 
BRANCH  96  99
ATOM     99  S   UNL A   1      51.660  27.108  30.090  1.00  0.00     0.127 S 
ATOM    100  O   UNL A   1      51.337  26.564  28.772  1.00  0.00    -0.237 OA
ATOM    101  O   UNL A   1      51.587  28.566  30.184  1.00  0.00    -0.237 OA
ATOM    102  O   UNL A   1      52.822  26.513  30.736  1.00  0.00    -0.744 OA
ENDBRANCH  96  99
ENDBRANCH  69  92
ENDBRANCH  43  44
ENDBRANCH  35  38
ENDBRANCH  33  34
ENDBRANCH  32  33
ENDBRANCH   1  32
TORSDOF 18
ENDMDL
