MODEL 1
REMARK VINA RESULT:     -11.4      0.000      0.000
REMARK SMILES O=C(C[C@@H]1C(=O)NCC[N@@H+]1Cc1ccc(F)c(F)c1)NCCCCCCNC(=O)c1ccc(-c2c3nc(c(-c4cccc(S(=O)(=O)[O-])c4F)c4ccc([nH]4)c(-c4cccc(S(=O)(=O)[O-])c4F)c4nc(c(-c5cccc(S(=O)(=O)[O-])c5F)c5ccc2[nH]5)C=C4)C=C3)cc1
REMARK SMILES IDX 23 1 22 2 21 3 20 4 1 5 2 6 3 8 4 9 5 10 10 11 6 12 7 13
REMARK SMILES IDX 9 14 8 16 11 18 12 19 13 20 19 21 14 22 17 23 15 24 18 25
REMARK SMILES IDX 16 26 24 27 25 28 26 29 27 30 28 31 29 33 30 34 31 35 92 36
REMARK SMILES IDX 32 37 91 38 33 39 34 40 35 41 85 42 36 43 90 44 84 45 86 46
REMARK SMILES IDX 37 47 89 48 83 49 82 50 38 52 70 53 50 54 69 55 51 56 54 57
REMARK SMILES IDX 68 58 87 59 52 60 53 61 67 63 88 64 55 65 39 66 40 67 48 68
REMARK SMILES IDX 41 69 43 70 49 71 42 72 44 73 45 74 46 75 47 76 71 77 72 78
REMARK SMILES IDX 80 79 73 80 75 81 81 82 74 83 76 84 77 85 78 86 79 87 56 88
REMARK SMILES IDX 57 89 65 90 58 91 60 92 66 93 59 94 61 95 62 96 63 97 64 98
REMARK H PARENT 20 7 10 15 7 17 27 32 86 51 54 62
REMARK Flexibility Score: inf
ROOT
ATOM      1  C   UNL A   1      35.621  21.145  25.501  1.00  0.00     0.002 C 
ENDROOT
BRANCH   1   2
ATOM      2  C   UNL A   1      34.356  20.525  24.884  1.00  0.00     0.021 C 
BRANCH   2   3
ATOM      3  C   UNL A   1      33.246  21.519  24.531  1.00  0.00     0.116 C 
BRANCH   3   4
ATOM      4  N   UNL A   1      33.781  22.847  24.318  1.00  0.00    -0.356 N 
ATOM      5  O   UNL A   1      32.166  23.667  22.933  1.00  0.00    -0.275 OA
ATOM      6  C   UNL A   1      33.200  23.833  23.575  1.00  0.00     0.226 C 
ATOM      7  H   UNL A   1      34.642  23.058  24.747  1.00  0.00     0.163 HD
BRANCH   6   8
ATOM      8  C   UNL A   1      33.995  25.129  23.454  1.00  0.00     0.175 C 
BRANCH   8   9
ATOM      9  C   UNL A   1      33.648  26.377  24.298  1.00  0.00     0.283 C 
ATOM     10  C   UNL A   1      33.005  26.118  25.682  1.00  0.00     0.279 C 
ATOM     11  N   UNL A   1      33.114  27.575  23.593  1.00  0.00    -0.319 N 
ATOM     12  O   UNL A   1      33.269  25.124  26.361  1.00  0.00    -0.268 OA
ATOM     13  N   UNL A   1      32.266  27.097  26.276  1.00  0.00    -0.345 N 
ATOM     14  C   UNL A   1      32.915  28.709  24.499  1.00  0.00     0.284 C 
ATOM     15  H   UNL A   1      33.899  27.790  22.977  1.00  0.00     0.349 HD
ATOM     16  C   UNL A   1      32.048  28.407  25.725  1.00  0.00     0.177 C 
ATOM     17  H   UNL A   1      31.854  26.892  27.147  1.00  0.00     0.163 HD
BRANCH  11  18
ATOM     18  C   UNL A   1      32.173  27.453  22.483  1.00  0.00     0.299 C 
BRANCH  18  19
ATOM     19  C   UNL A   1      30.725  27.786  22.746  1.00  0.00     0.009 A 
ATOM     20  C   UNL A   1      29.865  26.873  23.376  1.00  0.00     0.013 A 
ATOM     21  C   UNL A   1      30.217  29.047  22.407  1.00  0.00     0.052 A 
ATOM     22  C   UNL A   1      28.508  27.163  23.539  1.00  0.00     0.043 A 
ATOM     23  C   UNL A   1      28.869  29.341  22.587  1.00  0.00     0.159 A 
ATOM     24  C   UNL A   1      28.014  28.394  23.126  1.00  0.00     0.158 A 
ATOM     25  F   UNL A   1      28.410  30.551  22.243  1.00  0.00    -0.204 F 
ATOM     26  F   UNL A   1      26.711  28.662  23.278  1.00  0.00    -0.204 F 
ENDBRANCH  18  19
ENDBRANCH  11  18
ENDBRANCH   8   9
ENDBRANCH   6   8
ENDBRANCH   3   4
ENDBRANCH   2   3
ENDBRANCH   1   2
BRANCH   1  27
ATOM     27  C   UNL A   1      36.887  21.072  24.643  1.00  0.00     0.002 C 
BRANCH  27  28
ATOM     28  C   UNL A   1      37.841  19.927  24.977  1.00  0.00     0.021 C 
BRANCH  28  29
ATOM     29  C   UNL A   1      39.041  20.310  25.836  1.00  0.00     0.116 C 
BRANCH  29  30
ATOM     30  N   UNL A   1      40.033  19.248  25.930  1.00  0.00    -0.352 N 
ATOM     31  C   UNL A   1      41.390  19.346  26.135  1.00  0.00     0.251 C 
ATOM     32  H   UNL A   1      39.684  18.333  25.834  1.00  0.00     0.163 HD
ATOM     33  O   UNL A   1      42.102  18.355  26.044  1.00  0.00    -0.269 OA
BRANCH  31  34
ATOM     34  C   UNL A   1      41.989  20.668  26.437  1.00  0.00     0.039 A 
ATOM     35  C   UNL A   1      42.311  21.523  25.380  1.00  0.00     0.014 A 
ATOM     36  C   UNL A   1      42.213  21.068  27.757  1.00  0.00     0.014 A 
ATOM     37  C   UNL A   1      42.793  22.807  25.650  1.00  0.00     0.010 A 
ATOM     38  C   UNL A   1      42.622  22.372  28.024  1.00  0.00     0.010 A 
ATOM     39  C   UNL A   1      42.917  23.257  26.975  1.00  0.00    -0.014 A 
BRANCH  39  40
ATOM     40  C   UNL A   1      43.336  24.650  27.286  1.00  0.00     0.031 A 
ATOM     41  C   UNL A   1      42.360  25.612  27.912  1.00  0.00     0.074 A 
ATOM     42  C   UNL A   1      44.561  25.078  26.917  1.00  0.00     0.049 A 
ATOM     43  N   UNL A   1      42.519  26.880  28.193  1.00  0.00    -0.248 NA
ATOM     44  C   UNL A   1      41.024  25.090  28.246  1.00  0.00     0.031 C 
ATOM     45  C   UNL A   1      45.572  24.267  26.236  1.00  0.00     0.029 A 
ATOM     46  N   UNL A   1      45.153  26.312  27.034  1.00  0.00    -0.354 N 
ATOM     47  C   UNL A   1      41.296  27.318  28.686  1.00  0.00     0.074 A 
ATOM     48  C   UNL A   1      40.397  26.186  28.652  1.00  0.00     0.031 C 
ATOM     49  C   UNL A   1      46.657  25.022  25.998  1.00  0.00     0.029 A 
ATOM     50  C   UNL A   1      46.409  26.379  26.471  1.00  0.00     0.049 A 
ATOM     51  H   UNL A   1      44.721  27.077  27.477  1.00  0.00     0.167 HD
ATOM     52  C   UNL A   1      40.956  28.546  29.140  1.00  0.00     0.034 A 
ATOM     53  C   UNL A   1      47.257  27.418  26.339  1.00  0.00     0.034 A 
ATOM     54  C   UNL A   1      41.868  29.657  29.222  1.00  0.00     0.049 A 
ATOM     55  C   UNL A   1      46.859  28.763  26.890  1.00  0.00     0.074 A 
ATOM     56  C   UNL A   1      41.649  30.905  29.779  1.00  0.00     0.029 A 
ATOM     57  N   UNL A   1      43.158  29.662  28.722  1.00  0.00    -0.354 N 
ATOM     58  N   UNL A   1      45.762  29.106  27.519  1.00  0.00    -0.248 NA
ATOM     59  C   UNL A   1      47.832  29.856  26.743  1.00  0.00     0.031 C 
ATOM     60  C   UNL A   1      42.795  31.679  29.577  1.00  0.00     0.029 A 
ATOM     61  C   UNL A   1      43.742  30.899  28.935  1.00  0.00     0.049 A 
ATOM     62  H   UNL A   1      43.597  28.899  28.280  1.00  0.00     0.167 HD
ATOM     63  C   UNL A   1      45.933  30.438  27.882  1.00  0.00     0.074 A 
ATOM     64  C   UNL A   1      47.246  30.834  27.420  1.00  0.00     0.031 C 
ATOM     65  C   UNL A   1      45.073  31.263  28.528  1.00  0.00     0.034 A 
BRANCH  52  66
ATOM     66  C   UNL A   1      39.547  28.763  29.626  1.00  0.00     0.023 A 
ATOM     67  C   UNL A   1      39.196  28.411  30.944  1.00  0.00     0.012 A 
ATOM     68  C   UNL A   1      38.600  29.409  28.807  1.00  0.00     0.148 A 
ATOM     69  C   UNL A   1      37.918  28.675  31.432  1.00  0.00     0.002 A 
ATOM     70  C   UNL A   1      37.343  29.713  29.315  1.00  0.00     0.091 A 
ATOM     71  F   UNL A   1      38.949  29.720  27.550  1.00  0.00    -0.205 F 
ATOM     72  C   UNL A   1      36.998  29.337  30.624  1.00  0.00     0.022 A 
BRANCH  70  73
ATOM     73  S   UNL A   1      36.117  30.639  28.386  1.00  0.00     0.127 S 
ATOM     74  O   UNL A   1      35.091  30.872  29.401  1.00  0.00    -0.237 OA
ATOM     75  O   UNL A   1      36.868  31.832  27.995  1.00  0.00    -0.237 OA
ATOM     76  O   UNL A   1      35.714  29.782  27.280  1.00  0.00    -0.744 OA
ENDBRANCH  70  73
ENDBRANCH  52  66
BRANCH  53  77
ATOM     77  C   UNL A   1      48.592  27.232  25.698  1.00  0.00     0.023 A 
ATOM     78  C   UNL A   1      49.691  26.845  26.490  1.00  0.00     0.012 A 
ATOM     79  C   UNL A   1      48.783  27.450  24.320  1.00  0.00     0.148 A 
ATOM     80  C   UNL A   1      50.965  26.728  25.933  1.00  0.00     0.002 A 
ATOM     81  C   UNL A   1      50.044  27.275  23.761  1.00  0.00     0.091 A 
ATOM     82  F   UNL A   1      47.730  27.830  23.584  1.00  0.00    -0.205 F 
ATOM     83  C   UNL A   1      51.141  26.936  24.569  1.00  0.00     0.022 A 
BRANCH  81  84
ATOM     84  S   UNL A   1      50.334  27.395  21.993  1.00  0.00     0.127 S 
ATOM     85  O   UNL A   1      49.314  26.495  21.461  1.00  0.00    -0.237 OA
ATOM     86  O   UNL A   1      50.093  28.817  21.742  1.00  0.00    -0.237 OA
ATOM     87  O   UNL A   1      51.716  26.978  21.795  1.00  0.00    -0.744 OA
ENDBRANCH  81  84
ENDBRANCH  53  77
BRANCH  65  88
ATOM     88  C   UNL A   1      45.536  32.663  28.835  1.00  0.00     0.023 A 
ATOM     89  C   UNL A   1      46.265  32.926  30.011  1.00  0.00     0.012 A 
ATOM     90  C   UNL A   1      45.319  33.704  27.909  1.00  0.00     0.148 A 
ATOM     91  C   UNL A   1      46.740  34.210  30.278  1.00  0.00     0.002 A 
ATOM     92  C   UNL A   1      45.842  34.967  28.155  1.00  0.00     0.091 A 
ATOM     93  F   UNL A   1      44.609  33.437  26.802  1.00  0.00    -0.205 F 
ATOM     94  C   UNL A   1      46.541  35.225  29.345  1.00  0.00     0.022 A 
BRANCH  92  95
ATOM     95  S   UNL A   1      45.725  36.307  26.965  1.00  0.00     0.127 S 
ATOM     96  O   UNL A   1      46.123  37.459  27.774  1.00  0.00    -0.237 OA
ATOM     97  O   UNL A   1      46.701  35.908  25.951  1.00  0.00    -0.237 OA
ATOM     98  O   UNL A   1      44.344  36.318  26.504  1.00  0.00    -0.744 OA
ENDBRANCH  92  95
ENDBRANCH  65  88
ENDBRANCH  39  40
ENDBRANCH  31  34
ENDBRANCH  29  30
ENDBRANCH  28  29
ENDBRANCH  27  28
ENDBRANCH   1  27
TORSDOF 19
ENDMDL
MODEL 2
REMARK VINA RESULT:     -11.3      2.173      2.982
REMARK SMILES O=C(C[C@@H]1C(=O)NCC[N@@H+]1Cc1ccc(F)c(F)c1)NCCCCCCNC(=O)c1ccc(-c2c3nc(c(-c4cccc(S(=O)(=O)[O-])c4F)c4ccc([nH]4)c(-c4cccc(S(=O)(=O)[O-])c4F)c4nc(c(-c5cccc(S(=O)(=O)[O-])c5F)c5ccc2[nH]5)C=C4)C=C3)cc1
REMARK SMILES IDX 23 1 22 2 21 3 20 4 1 5 2 6 3 8 4 9 5 10 10 11 6 12 7 13
REMARK SMILES IDX 9 14 8 16 11 18 12 19 13 20 19 21 14 22 17 23 15 24 18 25
REMARK SMILES IDX 16 26 24 27 25 28 26 29 27 30 28 31 29 33 30 34 31 35 92 36
REMARK SMILES IDX 32 37 91 38 33 39 34 40 35 41 85 42 36 43 90 44 84 45 86 46
REMARK SMILES IDX 37 47 89 48 83 49 82 50 38 52 70 53 50 54 69 55 51 56 54 57
REMARK SMILES IDX 68 58 87 59 52 60 53 61 67 63 88 64 55 65 39 66 40 67 48 68
REMARK SMILES IDX 41 69 43 70 49 71 42 72 44 73 45 74 46 75 47 76 71 77 72 78
REMARK SMILES IDX 80 79 73 80 75 81 81 82 74 83 76 84 77 85 78 86 79 87 56 88
REMARK SMILES IDX 57 89 65 90 58 91 60 92 66 93 59 94 61 95 62 96 63 97 64 98
REMARK H PARENT 20 7 10 15 7 17 27 32 86 51 54 62
REMARK Flexibility Score: inf
ROOT
ATOM      1  C   UNL A   1      35.986  21.559  25.313  1.00  0.00     0.002 C 
ENDROOT
BRANCH   1   2
ATOM      2  C   UNL A   1      34.727  20.736  24.995  1.00  0.00     0.021 C 
BRANCH   2   3
ATOM      3  C   UNL A   1      33.398  21.471  25.192  1.00  0.00     0.116 C 
BRANCH   3   4
ATOM      4  N   UNL A   1      33.534  22.884  24.908  1.00  0.00    -0.356 N 
ATOM      5  O   UNL A   1      32.909  22.872  22.715  1.00  0.00    -0.275 OA
ATOM      6  C   UNL A   1      33.251  23.491  23.719  1.00  0.00     0.226 C 
ATOM      7  H   UNL A   1      33.860  23.458  25.638  1.00  0.00     0.163 HD
BRANCH   6   8
ATOM      8  C   UNL A   1      33.537  24.988  23.654  1.00  0.00     0.175 C 
BRANCH   8   9
ATOM      9  C   UNL A   1      32.465  26.000  23.187  1.00  0.00     0.283 C 
ATOM     10  C   UNL A   1      32.969  27.210  22.363  1.00  0.00     0.279 C 
ATOM     11  N   UNL A   1      31.348  26.321  24.118  1.00  0.00    -0.319 N 
ATOM     12  O   UNL A   1      33.941  27.140  21.608  1.00  0.00    -0.268 OA
ATOM     13  N   UNL A   1      32.220  28.346  22.307  1.00  0.00    -0.345 N 
ATOM     14  C   UNL A   1      30.362  27.219  23.515  1.00  0.00     0.284 C 
ATOM     15  H   UNL A   1      30.924  25.398  24.219  1.00  0.00     0.349 HD
ATOM     16  C   UNL A   1      30.942  28.517  22.943  1.00  0.00     0.177 C 
ATOM     17  H   UNL A   1      32.580  29.105  21.791  1.00  0.00     0.163 HD
BRANCH  11  18
ATOM     18  C   UNL A   1      31.569  26.463  25.555  1.00  0.00     0.299 C 
BRANCH  18  19
ATOM     19  C   UNL A   1      32.355  27.658  26.033  1.00  0.00     0.009 A 
ATOM     20  C   UNL A   1      33.754  27.620  26.145  1.00  0.00     0.013 A 
ATOM     21  C   UNL A   1      31.702  28.862  26.328  1.00  0.00     0.052 A 
ATOM     22  C   UNL A   1      34.461  28.706  26.667  1.00  0.00     0.043 A 
ATOM     23  C   UNL A   1      32.410  29.950  26.830  1.00  0.00     0.159 A 
ATOM     24  C   UNL A   1      33.779  29.863  27.022  1.00  0.00     0.158 A 
ATOM     25  F   UNL A   1      31.756  31.084  27.114  1.00  0.00    -0.204 F 
ATOM     26  F   UNL A   1      34.461  30.898  27.528  1.00  0.00    -0.204 F 
ENDBRANCH  18  19
ENDBRANCH  11  18
ENDBRANCH   8   9
ENDBRANCH   6   8
ENDBRANCH   3   4
ENDBRANCH   2   3
ENDBRANCH   1   2
BRANCH   1  27
ATOM     27  C   UNL A   1      37.228  21.229  24.480  1.00  0.00     0.002 C 
BRANCH  27  28
ATOM     28  C   UNL A   1      38.040  20.028  24.962  1.00  0.00     0.021 C 
BRANCH  28  29
ATOM     29  C   UNL A   1      39.270  20.366  25.795  1.00  0.00     0.116 C 
BRANCH  29  30
ATOM     30  N   UNL A   1      40.211  19.259  25.894  1.00  0.00    -0.352 N 
ATOM     31  C   UNL A   1      41.568  19.292  26.119  1.00  0.00     0.251 C 
ATOM     32  H   UNL A   1      39.821  18.362  25.783  1.00  0.00     0.163 HD
ATOM     33  O   UNL A   1      42.235  18.270  26.029  1.00  0.00    -0.269 OA
BRANCH  31  34
ATOM     34  C   UNL A   1      42.222  20.582  26.444  1.00  0.00     0.039 A 
ATOM     35  C   UNL A   1      42.806  21.323  25.413  1.00  0.00     0.014 A 
ATOM     36  C   UNL A   1      42.242  21.066  27.754  1.00  0.00     0.014 A 
ATOM     37  C   UNL A   1      43.348  22.582  25.687  1.00  0.00     0.010 A 
ATOM     38  C   UNL A   1      42.714  22.351  28.010  1.00  0.00     0.010 A 
ATOM     39  C   UNL A   1      43.274  23.123  26.980  1.00  0.00    -0.014 A 
BRANCH  39  40
ATOM     40  C   UNL A   1      43.757  24.499  27.275  1.00  0.00     0.031 A 
ATOM     41  C   UNL A   1      42.799  25.546  27.781  1.00  0.00     0.074 A 
ATOM     42  C   UNL A   1      45.034  24.834  26.996  1.00  0.00     0.049 A 
ATOM     43  N   UNL A   1      43.018  26.812  28.029  1.00  0.00    -0.248 NA
ATOM     44  C   UNL A   1      41.408  25.124  28.018  1.00  0.00     0.031 C 
ATOM     45  C   UNL A   1      46.042  23.933  26.434  1.00  0.00     0.029 A 
ATOM     46  N   UNL A   1      45.694  26.032  27.119  1.00  0.00    -0.354 N 
ATOM     47  C   UNL A   1      41.790  27.346  28.399  1.00  0.00     0.074 A 
ATOM     48  C   UNL A   1      40.823  26.272  28.330  1.00  0.00     0.031 C 
ATOM     49  C   UNL A   1      47.190  24.607  26.262  1.00  0.00     0.029 A 
ATOM     50  C   UNL A   1      46.994  25.996  26.663  1.00  0.00     0.049 A 
ATOM     51  H   UNL A   1      45.279  26.840  27.495  1.00  0.00     0.167 HD
ATOM     52  C   UNL A   1      41.496  28.612  28.778  1.00  0.00     0.034 A 
ATOM     53  C   UNL A   1      47.917  26.974  26.566  1.00  0.00     0.034 A 
ATOM     54  C   UNL A   1      42.468  29.665  28.897  1.00  0.00     0.049 A 
ATOM     55  C   UNL A   1      47.565  28.362  27.032  1.00  0.00     0.074 A 
ATOM     56  C   UNL A   1      42.287  30.947  29.388  1.00  0.00     0.029 A 
ATOM     57  N   UNL A   1      43.793  29.568  28.509  1.00  0.00    -0.354 N 
ATOM     58  N   UNL A   1      46.445  28.800  27.553  1.00  0.00    -0.248 NA
ATOM     59  C   UNL A   1      48.617  29.385  26.929  1.00  0.00     0.031 C 
ATOM     60  C   UNL A   1      43.495  31.637  29.256  1.00  0.00     0.029 A 
ATOM     61  C   UNL A   1      44.438  30.773  28.726  1.00  0.00     0.049 A 
ATOM     62  H   UNL A   1      44.215  28.761  28.133  1.00  0.00     0.167 HD
ATOM     63  C   UNL A   1      46.673  30.132  27.880  1.00  0.00     0.074 A 
ATOM     64  C   UNL A   1      48.044  30.425  27.518  1.00  0.00     0.031 C 
ATOM     65  C   UNL A   1      45.819  31.036  28.421  1.00  0.00     0.034 A 
BRANCH  52  66
ATOM     66  C   UNL A   1      40.068  28.937  29.134  1.00  0.00     0.023 A 
ATOM     67  C   UNL A   1      39.106  29.083  28.115  1.00  0.00     0.012 A 
ATOM     68  C   UNL A   1      39.663  28.996  30.482  1.00  0.00     0.148 A 
ATOM     69  C   UNL A   1      37.767  29.308  28.432  1.00  0.00     0.002 A 
ATOM     70  C   UNL A   1      38.321  29.173  30.791  1.00  0.00     0.091 A 
ATOM     71  F   UNL A   1      40.598  28.872  31.436  1.00  0.00    -0.205 F 
ATOM     72  C   UNL A   1      37.374  29.339  29.767  1.00  0.00     0.022 A 
BRANCH  70  73
ATOM     73  S   UNL A   1      37.698  29.141  32.475  1.00  0.00     0.127 S 
ATOM     74  O   UNL A   1      36.336  29.643  32.296  1.00  0.00    -0.237 OA
ATOM     75  O   UNL A   1      37.784  27.718  32.805  1.00  0.00    -0.237 OA
ATOM     76  O   UNL A   1      38.581  30.002  33.250  1.00  0.00    -0.744 OA
ENDBRANCH  70  73
ENDBRANCH  52  66
BRANCH  53  77
ATOM     77  C   UNL A   1      49.285  26.677  26.048  1.00  0.00     0.023 A 
ATOM     78  C   UNL A   1      50.196  25.978  26.864  1.00  0.00     0.012 A 
ATOM     79  C   UNL A   1      49.693  27.094  24.767  1.00  0.00     0.148 A 
ATOM     80  C   UNL A   1      51.504  25.744  26.435  1.00  0.00     0.002 A 
ATOM     81  C   UNL A   1      50.979  26.808  24.323  1.00  0.00     0.091 A 
ATOM     82  F   UNL A   1      48.818  27.769  24.009  1.00  0.00    -0.205 F 
ATOM     83  C   UNL A   1      51.893  26.152  25.163  1.00  0.00     0.022 A 
BRANCH  81  84
ATOM     84  S   UNL A   1      51.523  27.181  22.652  1.00  0.00     0.127 S 
ATOM     85  O   UNL A   1      52.776  26.433  22.573  1.00  0.00    -0.237 OA
ATOM     86  O   UNL A   1      50.429  26.636  21.848  1.00  0.00    -0.237 OA
ATOM     87  O   UNL A   1      51.643  28.631  22.595  1.00  0.00    -0.744 OA
ENDBRANCH  81  84
ENDBRANCH  53  77
BRANCH  65  88
ATOM     88  C   UNL A   1      46.348  32.416  28.715  1.00  0.00     0.023 A 
ATOM     89  C   UNL A   1      46.233  33.437  27.752  1.00  0.00     0.012 A 
ATOM     90  C   UNL A   1      46.882  32.717  29.984  1.00  0.00     0.148 A 
ATOM     91  C   UNL A   1      46.675  34.730  28.035  1.00  0.00     0.002 A 
ATOM     92  C   UNL A   1      47.269  34.019  30.277  1.00  0.00     0.091 A 
ATOM     93  F   UNL A   1      46.997  31.727  30.882  1.00  0.00    -0.205 F 
ATOM     94  C   UNL A   1      47.179  35.023  29.300  1.00  0.00     0.022 A 
BRANCH  92  95
ATOM     95  S   UNL A   1      47.833  34.512  31.910  1.00  0.00     0.127 S 
ATOM     96  O   UNL A   1      46.709  34.100  32.750  1.00  0.00    -0.237 OA
ATOM     97  O   UNL A   1      49.044  33.709  32.076  1.00  0.00    -0.237 OA
ATOM     98  O   UNL A   1      48.064  35.949  31.840  1.00  0.00    -0.744 OA
ENDBRANCH  92  95
ENDBRANCH  65  88
ENDBRANCH  39  40
ENDBRANCH  31  34
ENDBRANCH  29  30
ENDBRANCH  28  29
ENDBRANCH  27  28
ENDBRANCH   1  27
TORSDOF 19
ENDMDL
MODEL 3
REMARK VINA RESULT:     -11.2      2.762      8.053
REMARK SMILES O=C(C[C@@H]1C(=O)NCC[N@@H+]1Cc1ccc(F)c(F)c1)NCCCCCCNC(=O)c1ccc(-c2c3nc(c(-c4cccc(S(=O)(=O)[O-])c4F)c4ccc([nH]4)c(-c4cccc(S(=O)(=O)[O-])c4F)c4nc(c(-c5cccc(S(=O)(=O)[O-])c5F)c5ccc2[nH]5)C=C4)C=C3)cc1
REMARK SMILES IDX 23 1 22 2 21 3 20 4 1 5 2 6 3 8 4 9 5 10 10 11 6 12 7 13
REMARK SMILES IDX 9 14 8 16 11 18 12 19 13 20 19 21 14 22 17 23 15 24 18 25
REMARK SMILES IDX 16 26 24 27 25 28 26 29 27 30 28 31 29 33 30 34 31 35 92 36
REMARK SMILES IDX 32 37 91 38 33 39 34 40 35 41 85 42 36 43 90 44 84 45 86 46
REMARK SMILES IDX 37 47 89 48 83 49 82 50 38 52 70 53 50 54 69 55 51 56 54 57
REMARK SMILES IDX 68 58 87 59 52 60 53 61 67 63 88 64 55 65 39 66 40 67 48 68
REMARK SMILES IDX 41 69 43 70 49 71 42 72 44 73 45 74 46 75 47 76 71 77 72 78
REMARK SMILES IDX 80 79 73 80 75 81 81 82 74 83 76 84 77 85 78 86 79 87 56 88
REMARK SMILES IDX 57 89 65 90 58 91 60 92 66 93 59 94 61 95 62 96 63 97 64 98
REMARK H PARENT 20 7 10 15 7 17 27 32 86 51 54 62
REMARK Flexibility Score: inf
ROOT
ATOM      1  C   UNL A   1      34.372  21.436  26.108  1.00  0.00     0.002 C 
ENDROOT
BRANCH   1   2
ATOM      2  C   UNL A   1      33.742  22.676  26.764  1.00  0.00     0.021 C 
BRANCH   2   3
ATOM      3  C   UNL A   1      32.213  22.743  26.700  1.00  0.00     0.116 C 
BRANCH   3   4
ATOM      4  N   UNL A   1      31.769  23.967  26.067  1.00  0.00    -0.356 N 
ATOM      5  O   UNL A   1      29.690  24.116  26.993  1.00  0.00    -0.275 OA
ATOM      6  C   UNL A   1      30.572  24.586  26.277  1.00  0.00     0.226 C 
ATOM      7  H   UNL A   1      32.387  24.391  25.428  1.00  0.00     0.163 HD
BRANCH   6   8
ATOM      8  C   UNL A   1      30.315  25.836  25.441  1.00  0.00     0.175 C 
BRANCH   8   9
ATOM      9  C   UNL A   1      30.966  26.033  24.053  1.00  0.00     0.283 C 
ATOM     10  C   UNL A   1      31.075  24.777  23.155  1.00  0.00     0.279 C 
ATOM     11  N   UNL A   1      32.129  26.958  23.948  1.00  0.00    -0.319 N 
ATOM     12  O   UNL A   1      30.241  23.869  23.182  1.00  0.00    -0.268 OA
ATOM     13  N   UNL A   1      32.004  24.737  22.160  1.00  0.00    -0.345 N 
ATOM     14  C   UNL A   1      32.588  27.119  22.566  1.00  0.00     0.284 C 
ATOM     15  H   UNL A   1      31.695  27.832  24.247  1.00  0.00     0.349 HD
ATOM     16  C   UNL A   1      32.908  25.809  21.840  1.00  0.00     0.177 C 
ATOM     17  H   UNL A   1      32.061  23.914  21.622  1.00  0.00     0.163 HD
BRANCH  11  18
ATOM     18  C   UNL A   1      33.153  27.019  24.988  1.00  0.00     0.299 C 
BRANCH  18  19
ATOM     19  C   UNL A   1      33.281  28.298  25.777  1.00  0.00     0.009 A 
ATOM     20  C   UNL A   1      34.413  28.564  26.564  1.00  0.00     0.013 A 
ATOM     21  C   UNL A   1      32.285  29.279  25.699  1.00  0.00     0.052 A 
ATOM     22  C   UNL A   1      34.482  29.715  27.353  1.00  0.00     0.043 A 
ATOM     23  C   UNL A   1      32.363  30.434  26.472  1.00  0.00     0.159 A 
ATOM     24  C   UNL A   1      33.444  30.638  27.314  1.00  0.00     0.158 A 
ATOM     25  F   UNL A   1      31.390  31.349  26.385  1.00  0.00    -0.204 F 
ATOM     26  F   UNL A   1      33.512  31.735  28.079  1.00  0.00    -0.204 F 
ENDBRANCH  18  19
ENDBRANCH  11  18
ENDBRANCH   8   9
ENDBRANCH   6   8
ENDBRANCH   3   4
ENDBRANCH   2   3
ENDBRANCH   1   2
BRANCH   1  27
ATOM     27  C   UNL A   1      34.742  21.578  24.629  1.00  0.00     0.002 C 
BRANCH  27  28
ATOM     28  C   UNL A   1      36.109  22.202  24.352  1.00  0.00     0.021 C 
BRANCH  28  29
ATOM     29  C   UNL A   1      36.957  22.481  25.587  1.00  0.00     0.116 C 
BRANCH  29  30
ATOM     30  N   UNL A   1      37.895  21.408  25.885  1.00  0.00    -0.352 N 
ATOM     31  C   UNL A   1      39.196  21.492  26.325  1.00  0.00     0.251 C 
ATOM     32  H   UNL A   1      37.549  20.495  25.754  1.00  0.00     0.163 HD
ATOM     33  O   UNL A   1      39.893  20.487  26.390  1.00  0.00    -0.269 OA
BRANCH  31  34
ATOM     34  C   UNL A   1      39.759  22.813  26.691  1.00  0.00     0.039 A 
ATOM     35  C   UNL A   1      40.705  22.884  27.717  1.00  0.00     0.014 A 
ATOM     36  C   UNL A   1      39.370  23.971  26.013  1.00  0.00     0.014 A 
ATOM     37  C   UNL A   1      41.312  24.108  28.014  1.00  0.00     0.010 A 
ATOM     38  C   UNL A   1      40.030  25.172  26.260  1.00  0.00     0.010 A 
ATOM     39  C   UNL A   1      41.007  25.256  27.265  1.00  0.00    -0.014 A 
BRANCH  39  40
ATOM     40  C   UNL A   1      41.709  26.546  27.499  1.00  0.00     0.031 A 
ATOM     41  C   UNL A   1      43.140  26.721  27.061  1.00  0.00     0.074 A 
ATOM     42  C   UNL A   1      41.092  27.526  28.191  1.00  0.00     0.049 A 
ATOM     43  N   UNL A   1      43.936  27.743  27.238  1.00  0.00    -0.248 NA
ATOM     44  C   UNL A   1      43.767  25.592  26.353  1.00  0.00     0.031 C 
ATOM     45  C   UNL A   1      39.734  27.454  28.735  1.00  0.00     0.029 A 
ATOM     46  N   UNL A   1      41.539  28.764  28.584  1.00  0.00    -0.354 N 
ATOM     47  C   UNL A   1      45.166  27.365  26.713  1.00  0.00     0.074 A 
ATOM     48  C   UNL A   1      45.018  26.012  26.222  1.00  0.00     0.031 C 
ATOM     49  C   UNL A   1      39.459  28.595  29.387  1.00  0.00     0.029 A 
ATOM     50  C   UNL A   1      40.629  29.465  29.345  1.00  0.00     0.049 A 
ATOM     51  H   UNL A   1      42.426  29.118  28.346  1.00  0.00     0.167 HD
ATOM     52  C   UNL A   1      46.310  28.083  26.630  1.00  0.00     0.034 A 
ATOM     53  C   UNL A   1      40.730  30.665  29.951  1.00  0.00     0.034 A 
ATOM     54  C   UNL A   1      46.439  29.447  27.071  1.00  0.00     0.049 A 
ATOM     55  C   UNL A   1      42.007  31.453  29.805  1.00  0.00     0.074 A 
ATOM     56  C   UNL A   1      47.522  30.296  26.920  1.00  0.00     0.029 A 
ATOM     57  N   UNL A   1      45.468  30.154  27.758  1.00  0.00    -0.354 N 
ATOM     58  N   UNL A   1      43.096  31.148  29.144  1.00  0.00    -0.248 NA
ATOM     59  C   UNL A   1      42.055  32.767  30.464  1.00  0.00     0.031 C 
ATOM     60  C   UNL A   1      47.220  31.504  27.555  1.00  0.00     0.029 A 
ATOM     61  C   UNL A   1      45.934  31.421  28.062  1.00  0.00     0.049 A 
ATOM     62  H   UNL A   1      44.578  29.806  27.997  1.00  0.00     0.167 HD
ATOM     63  C   UNL A   1      43.937  32.247  29.268  1.00  0.00     0.074 A 
ATOM     64  C   UNL A   1      43.225  33.234  30.051  1.00  0.00     0.031 C 
ATOM     65  C   UNL A   1      45.193  32.420  28.787  1.00  0.00     0.034 A 
BRANCH  52  66
ATOM     66  C   UNL A   1      47.517  27.434  26.007  1.00  0.00     0.023 A 
ATOM     67  C   UNL A   1      47.812  27.656  24.647  1.00  0.00     0.012 A 
ATOM     68  C   UNL A   1      48.414  26.686  26.796  1.00  0.00     0.148 A 
ATOM     69  C   UNL A   1      48.966  27.124  24.075  1.00  0.00     0.002 A 
ATOM     70  C   UNL A   1      49.587  26.200  26.232  1.00  0.00     0.091 A 
ATOM     71  F   UNL A   1      48.106  26.471  28.083  1.00  0.00    -0.205 F 
ATOM     72  C   UNL A   1      49.859  26.409  24.870  1.00  0.00     0.022 A 
BRANCH  70  73
ATOM     73  S   UNL A   1      50.841  25.342  27.188  1.00  0.00     0.127 S 
ATOM     74  O   UNL A   1      51.757  24.894  26.139  1.00  0.00    -0.237 OA
ATOM     75  O   UNL A   1      51.364  26.413  28.036  1.00  0.00    -0.237 OA
ATOM     76  O   UNL A   1      50.150  24.279  27.903  1.00  0.00    -0.744 OA
ENDBRANCH  70  73
ENDBRANCH  52  66
BRANCH  53  77
ATOM     77  C   UNL A   1      39.580  31.229  30.715  1.00  0.00     0.023 A 
ATOM     78  C   UNL A   1      38.526  31.852  30.018  1.00  0.00     0.012 A 
ATOM     79  C   UNL A   1      39.530  31.169  32.121  1.00  0.00     0.148 A 
ATOM     80  C   UNL A   1      37.469  32.449  30.708  1.00  0.00     0.002 A 
ATOM     81  C   UNL A   1      38.446  31.714  32.799  1.00  0.00     0.091 A 
ATOM     82  F   UNL A   1      40.547  30.585  32.769  1.00  0.00    -0.205 F 
ATOM     83  C   UNL A   1      37.425  32.374  32.096  1.00  0.00     0.022 A 
BRANCH  81  84
ATOM     84  S   UNL A   1      38.243  31.549  34.576  1.00  0.00     0.127 S 
ATOM     85  O   UNL A   1      36.958  32.211  34.792  1.00  0.00    -0.237 OA
ATOM     86  O   UNL A   1      38.224  30.096  34.745  1.00  0.00    -0.237 OA
ATOM     87  O   UNL A   1      39.403  32.205  35.164  1.00  0.00    -0.744 OA
ENDBRANCH  81  84
ENDBRANCH  53  77
BRANCH  65  88
ATOM     88  C   UNL A   1      45.867  33.743  29.035  1.00  0.00     0.023 A 
ATOM     89  C   UNL A   1      46.719  33.906  30.145  1.00  0.00     0.012 A 
ATOM     90  C   UNL A   1      45.719  34.801  28.115  1.00  0.00     0.148 A 
ATOM     91  C   UNL A   1      47.386  35.114  30.355  1.00  0.00     0.002 A 
ATOM     92  C   UNL A   1      46.429  35.981  28.301  1.00  0.00     0.091 A 
ATOM     93  F   UNL A   1      44.892  34.632  27.074  1.00  0.00    -0.205 F 
ATOM     94  C   UNL A   1      47.252  36.144  29.427  1.00  0.00     0.022 A 
BRANCH  92  95
ATOM     95  S   UNL A   1      46.400  37.321  27.106  1.00  0.00     0.127 S 
ATOM     96  O   UNL A   1      47.278  38.304  27.740  1.00  0.00    -0.237 OA
ATOM     97  O   UNL A   1      46.959  36.685  25.913  1.00  0.00    -0.237 OA
ATOM     98  O   UNL A   1      45.005  37.721  26.982  1.00  0.00    -0.744 OA
ENDBRANCH  92  95
ENDBRANCH  65  88
ENDBRANCH  39  40
ENDBRANCH  31  34
ENDBRANCH  29  30
ENDBRANCH  28  29
ENDBRANCH  27  28
ENDBRANCH   1  27
TORSDOF 19
ENDMDL
