MODEL 1
REMARK VINA RESULT:     -11.9      0.000      0.000
REMARK SMILES NC(=O)c1ccc(Nc2ccc(C(=O)NCCCCCCNC(=O)c3ccc(-c4c5nc(c(-c6cccc(S(=O)(=O)[O-])c6F)c6ccc([nH]6)c(-c6cccc(S(=O)(=O)[O-])c6F)c6nc(c(-c7cccc(S(=O)(=O)[O-])c7F)c7ccc4[nH]7)C=C6)C=C5)cc3)c(Cl)c2)nn1
REMARK SMILES IDX 18 1 17 2 16 3 15 4 13 5 14 6 12 8 9 9 10 10 90 11 11 12
REMARK SMILES IDX 88 13 89 14 8 15 7 17 4 18 5 19 92 20 6 21 91 22 2 23 1 24
REMARK SMILES IDX 3 27 19 28 20 29 21 30 22 31 23 32 24 34 25 35 26 36 87 37
REMARK SMILES IDX 27 38 86 39 28 40 29 41 30 42 80 43 31 44 85 45 79 46 81 47
REMARK SMILES IDX 32 48 84 49 78 50 77 51 33 53 65 54 45 55 64 56 46 57 49 58
REMARK SMILES IDX 63 59 82 60 47 61 48 62 62 64 83 65 50 66 34 67 35 68 43 69
REMARK SMILES IDX 36 70 38 71 44 72 37 73 39 74 40 75 41 76 42 77 66 78 67 79
REMARK SMILES IDX 75 80 68 81 70 82 76 83 69 84 71 85 72 86 73 87 74 88 51 89
REMARK SMILES IDX 52 90 60 91 53 92 55 93 61 94 54 95 56 96 57 97 58 98 59 99
REMARK H PARENT 15 7 8 16 1 25 1 26 22 33 81 52 49 63
REMARK Flexibility Score: inf
ROOT
ATOM      1  C   UNL A   1      31.997  29.466  26.252  1.00  0.00     0.002 C 
ENDROOT
BRANCH   1   2
ATOM      2  C   UNL A   1      32.856  28.757  25.202  1.00  0.00     0.021 C 
BRANCH   2   3
ATOM      3  C   UNL A   1      32.207  28.675  23.813  1.00  0.00     0.116 C 
BRANCH   3   4
ATOM      4  N   UNL A   1      30.909  28.044  23.934  1.00  0.00    -0.352 N 
ATOM      5  C   UNL A   1      30.492  26.770  24.202  1.00  0.00     0.252 C 
ATOM      6  O   UNL A   1      29.276  26.574  24.091  1.00  0.00    -0.269 OA
ATOM      7  H   UNL A   1      30.163  28.670  23.791  1.00  0.00     0.163 HD
BRANCH   5   8
ATOM      8  C   UNL A   1      31.336  25.657  24.729  1.00  0.00     0.058 A 
ATOM      9  C   UNL A   1      32.601  23.436  25.995  1.00  0.00     0.041 A 
ATOM     10  C   UNL A   1      31.401  23.938  26.488  1.00  0.00     0.027 A 
ATOM     11  C   UNL A   1      33.144  24.027  24.852  1.00  0.00     0.047 A 
ATOM     12  C   UNL A   1      30.804  25.052  25.891  1.00  0.00     0.017 A 
ATOM     13  C   UNL A   1      32.485  25.076  24.182  1.00  0.00     0.055 A 
ATOM     14  Cl  UNL A   1      33.081  25.353  22.590  1.00  0.00    -0.083 Cl
BRANCH   9  15
ATOM     15  N   UNL A   1      33.149  22.233  26.478  1.00  0.00    -0.339 N 
ATOM     16  H   UNL A   1      33.528  22.224  27.387  1.00  0.00     0.168 HD
BRANCH  15  17
ATOM     17  C   UNL A   1      33.182  21.037  25.727  1.00  0.00     0.153 A 
ATOM     18  C   UNL A   1      33.258  18.735  24.237  1.00  0.00     0.150 A 
ATOM     19  C   UNL A   1      34.456  19.318  24.618  1.00  0.00     0.040 A 
ATOM     20  N   UNL A   1      32.072  19.264  24.589  1.00  0.00    -0.143 NA
ATOM     21  C   UNL A   1      34.412  20.486  25.382  1.00  0.00     0.051 A 
ATOM     22  N   UNL A   1      32.044  20.413  25.351  1.00  0.00    -0.132 NA
BRANCH  18  23
ATOM     23  C   UNL A   1      33.207  17.482  23.434  1.00  0.00     0.269 C 
ATOM     24  N   UNL A   1      33.461  16.305  24.094  1.00  0.00    -0.364 N 
ATOM     25  H   UNL A   1      33.438  15.452  23.605  1.00  0.00     0.160 HD
ATOM     26  H   UNL A   1      33.665  16.315  25.057  1.00  0.00     0.160 HD
ATOM     27  O   UNL A   1      32.932  17.468  22.240  1.00  0.00    -0.268 OA
ENDBRANCH  18  23
ENDBRANCH  15  17
ENDBRANCH   9  15
ENDBRANCH   5   8
ENDBRANCH   3   4
ENDBRANCH   2   3
ENDBRANCH   1   2
BRANCH   1  28
ATOM     28  C   UNL A   1      31.551  30.878  25.858  1.00  0.00     0.002 C 
BRANCH  28  29
ATOM     29  C   UNL A   1      31.488  31.885  27.011  1.00  0.00     0.021 C 
BRANCH  29  30
ATOM     30  C   UNL A   1      32.811  32.580  27.322  1.00  0.00     0.116 C 
BRANCH  30  31
ATOM     31  N   UNL A   1      32.613  33.991  27.619  1.00  0.00    -0.352 N 
ATOM     32  C   UNL A   1      33.168  34.752  28.617  1.00  0.00     0.251 C 
ATOM     33  H   UNL A   1      31.996  34.467  27.019  1.00  0.00     0.163 HD
ATOM     34  O   UNL A   1      32.694  35.853  28.886  1.00  0.00    -0.269 OA
BRANCH  32  35
ATOM     35  C   UNL A   1      34.335  34.244  29.368  1.00  0.00     0.039 A 
ATOM     36  C   UNL A   1      34.127  33.524  30.548  1.00  0.00     0.014 A 
ATOM     37  C   UNL A   1      35.634  34.499  28.917  1.00  0.00     0.014 A 
ATOM     38  C   UNL A   1      35.222  33.012  31.248  1.00  0.00     0.010 A 
ATOM     39  C   UNL A   1      36.719  33.936  29.581  1.00  0.00     0.010 A 
ATOM     40  C   UNL A   1      36.526  33.191  30.755  1.00  0.00    -0.014 A 
BRANCH  40  41
ATOM     41  C   UNL A   1      37.701  32.595  31.437  1.00  0.00     0.031 A 
ATOM     42  C   UNL A   1      38.429  31.436  30.816  1.00  0.00     0.074 A 
ATOM     43  C   UNL A   1      38.046  33.033  32.664  1.00  0.00     0.049 A 
ATOM     44  N   UNL A   1      39.418  30.729  31.300  1.00  0.00    -0.248 NA
ATOM     45  C   UNL A   1      37.971  30.994  29.488  1.00  0.00     0.031 C 
ATOM     46  C   UNL A   1      37.366  34.101  33.402  1.00  0.00     0.029 A 
ATOM     47  N   UNL A   1      39.029  32.610  33.523  1.00  0.00    -0.354 N 
ATOM     48  C   UNL A   1      39.674  29.739  30.359  1.00  0.00     0.074 A 
ATOM     49  C   UNL A   1      38.720  29.919  29.287  1.00  0.00     0.031 C 
ATOM     50  C   UNL A   1      37.948  34.243  34.603  1.00  0.00     0.029 A 
ATOM     51  C   UNL A   1      39.018  33.261  34.734  1.00  0.00     0.049 A 
ATOM     52  H   UNL A   1      39.680  31.907  33.294  1.00  0.00     0.167 HD
ATOM     53  C   UNL A   1      40.635  28.784  30.373  1.00  0.00     0.034 A 
ATOM     54  C   UNL A   1      39.776  33.077  35.833  1.00  0.00     0.034 A 
ATOM     55  C   UNL A   1      41.609  28.638  31.420  1.00  0.00     0.049 A 
ATOM     56  C   UNL A   1      40.856  32.031  35.810  1.00  0.00     0.074 A 
ATOM     57  C   UNL A   1      42.685  27.770  31.480  1.00  0.00     0.029 A 
ATOM     58  N   UNL A   1      41.622  29.371  32.596  1.00  0.00    -0.354 N 
ATOM     59  N   UNL A   1      41.194  31.216  34.840  1.00  0.00    -0.248 NA
ATOM     60  C   UNL A   1      41.682  31.899  37.019  1.00  0.00     0.031 C 
ATOM     61  C   UNL A   1      43.335  27.962  32.704  1.00  0.00     0.029 A 
ATOM     62  C   UNL A   1      42.676  28.964  33.398  1.00  0.00     0.049 A 
ATOM     63  H   UNL A   1      40.978  30.077  32.829  1.00  0.00     0.167 HD
ATOM     64  C   UNL A   1      42.283  30.492  35.310  1.00  0.00     0.074 A 
ATOM     65  C   UNL A   1      42.567  30.986  36.642  1.00  0.00     0.031 C 
ATOM     66  C   UNL A   1      42.974  29.495  34.704  1.00  0.00     0.034 A 
BRANCH  53  67
ATOM     67  C   UNL A   1      40.716  27.855  29.190  1.00  0.00     0.023 A 
ATOM     68  C   UNL A   1      39.844  26.749  29.115  1.00  0.00     0.012 A 
ATOM     69  C   UNL A   1      41.607  28.105  28.128  1.00  0.00     0.148 A 
ATOM     70  C   UNL A   1      39.879  25.888  28.020  1.00  0.00     0.002 A 
ATOM     71  C   UNL A   1      41.607  27.266  27.019  1.00  0.00     0.091 A 
ATOM     72  F   UNL A   1      42.443  29.148  28.225  1.00  0.00    -0.205 F 
ATOM     73  C   UNL A   1      40.752  26.152  26.968  1.00  0.00     0.022 A 
BRANCH  71  74
ATOM     74  S   UNL A   1      42.638  27.564  25.578  1.00  0.00     0.127 S 
ATOM     75  O   UNL A   1      42.101  28.834  25.091  1.00  0.00    -0.237 OA
ATOM     76  O   UNL A   1      43.974  27.653  26.167  1.00  0.00    -0.237 OA
ATOM     77  O   UNL A   1      42.438  26.421  24.698  1.00  0.00    -0.744 OA
ENDBRANCH  71  74
ENDBRANCH  53  67
BRANCH  54  78
ATOM     78  C   UNL A   1      39.575  33.945  37.028  1.00  0.00     0.023 A 
ATOM     79  C   UNL A   1      39.974  35.296  36.972  1.00  0.00     0.012 A 
ATOM     80  C   UNL A   1      38.961  33.458  38.198  1.00  0.00     0.148 A 
ATOM     81  C   UNL A   1      39.793  36.136  38.072  1.00  0.00     0.002 A 
ATOM     82  C   UNL A   1      38.734  34.315  39.269  1.00  0.00     0.091 A 
ATOM     83  F   UNL A   1      38.600  32.167  38.236  1.00  0.00    -0.205 F 
ATOM     84  C   UNL A   1      39.164  35.649  39.214  1.00  0.00     0.022 A 
BRANCH  82  85
ATOM     85  S   UNL A   1      37.815  33.808  40.727  1.00  0.00     0.127 S 
ATOM     86  O   UNL A   1      37.596  35.084  41.404  1.00  0.00    -0.237 OA
ATOM     87  O   UNL A   1      36.617  33.210  40.137  1.00  0.00    -0.237 OA
ATOM     88  O   UNL A   1      38.675  32.860  41.423  1.00  0.00    -0.744 OA
ENDBRANCH  82  85
ENDBRANCH  54  78
BRANCH  66  89
ATOM     89  C   UNL A   1      44.114  28.874  35.466  1.00  0.00     0.023 A 
ATOM     90  C   UNL A   1      45.399  29.446  35.381  1.00  0.00     0.012 A 
ATOM     91  C   UNL A   1      43.900  27.774  36.320  1.00  0.00     0.148 A 
ATOM     92  C   UNL A   1      46.461  28.915  36.113  1.00  0.00     0.002 A 
ATOM     93  C   UNL A   1      44.953  27.280  37.081  1.00  0.00     0.091 A 
ATOM     94  F   UNL A   1      42.674  27.233  36.372  1.00  0.00    -0.205 F 
ATOM     95  C   UNL A   1      46.236  27.841  36.970  1.00  0.00     0.022 A 
BRANCH  93  96
ATOM     96  S   UNL A   1      44.738  25.960  38.281  1.00  0.00     0.127 S 
ATOM     97  O   UNL A   1      46.093  25.813  38.808  1.00  0.00    -0.237 OA
ATOM     98  O   UNL A   1      43.779  26.545  39.218  1.00  0.00    -0.237 OA
ATOM     99  O   UNL A   1      44.231  24.817  37.534  1.00  0.00    -0.744 OA
ENDBRANCH  93  96
ENDBRANCH  66  89
ENDBRANCH  40  41
ENDBRANCH  32  35
ENDBRANCH  30  31
ENDBRANCH  29  30
ENDBRANCH  28  29
ENDBRANCH   1  28
TORSDOF 19
ENDMDL
MODEL 2
REMARK VINA RESULT:     -11.5      5.766     11.900
REMARK SMILES NC(=O)c1ccc(Nc2ccc(C(=O)NCCCCCCNC(=O)c3ccc(-c4c5nc(c(-c6cccc(S(=O)(=O)[O-])c6F)c6ccc([nH]6)c(-c6cccc(S(=O)(=O)[O-])c6F)c6nc(c(-c7cccc(S(=O)(=O)[O-])c7F)c7ccc4[nH]7)C=C6)C=C5)cc3)c(Cl)c2)nn1
REMARK SMILES IDX 18 1 17 2 16 3 15 4 13 5 14 6 12 8 9 9 10 10 90 11 11 12
REMARK SMILES IDX 88 13 89 14 8 15 7 17 4 18 5 19 92 20 6 21 91 22 2 23 1 24
REMARK SMILES IDX 3 27 19 28 20 29 21 30 22 31 23 32 24 34 25 35 26 36 87 37
REMARK SMILES IDX 27 38 86 39 28 40 29 41 30 42 80 43 31 44 85 45 79 46 81 47
REMARK SMILES IDX 32 48 84 49 78 50 77 51 33 53 65 54 45 55 64 56 46 57 49 58
REMARK SMILES IDX 63 59 82 60 47 61 48 62 62 64 83 65 50 66 34 67 35 68 43 69
REMARK SMILES IDX 36 70 38 71 44 72 37 73 39 74 40 75 41 76 42 77 66 78 67 79
REMARK SMILES IDX 75 80 68 81 70 82 76 83 69 84 71 85 72 86 73 87 74 88 51 89
REMARK SMILES IDX 52 90 60 91 53 92 55 93 61 94 54 95 56 96 57 97 58 98 59 99
REMARK H PARENT 15 7 8 16 1 25 1 26 22 33 81 52 49 63
REMARK Flexibility Score: inf
ROOT
ATOM      1  C   UNL A   1      37.819  22.647  25.810  1.00  0.00     0.002 C 
ENDROOT
BRANCH   1   2
ATOM      2  C   UNL A   1      37.258  21.900  24.596  1.00  0.00     0.021 C 
BRANCH   2   3
ATOM      3  C   UNL A   1      35.779  22.191  24.310  1.00  0.00     0.116 C 
BRANCH   3   4
ATOM      4  N   UNL A   1      34.981  21.064  24.749  1.00  0.00    -0.352 N 
ATOM      5  C   UNL A   1      33.726  20.934  25.274  1.00  0.00     0.252 C 
ATOM      6  O   UNL A   1      33.426  19.798  25.658  1.00  0.00    -0.269 OA
ATOM      7  H   UNL A   1      35.446  20.202  24.646  1.00  0.00     0.163 HD
BRANCH   5   8
ATOM      8  C   UNL A   1      32.667  21.987  25.304  1.00  0.00     0.058 A 
ATOM      9  C   UNL A   1      30.781  24.074  25.773  1.00  0.00     0.041 A 
ATOM     10  C   UNL A   1      31.525  23.548  26.825  1.00  0.00     0.027 A 
ATOM     11  C   UNL A   1      31.008  23.576  24.489  1.00  0.00     0.047 A 
ATOM     12  C   UNL A   1      32.420  22.496  26.599  1.00  0.00     0.017 A 
ATOM     13  C   UNL A   1      31.991  22.597  24.243  1.00  0.00     0.055 A 
ATOM     14  Cl  UNL A   1      32.408  22.449  22.577  1.00  0.00    -0.083 Cl
BRANCH   9  15
ATOM     15  N   UNL A   1      29.987  25.224  25.939  1.00  0.00    -0.339 N 
ATOM     16  H   UNL A   1      29.460  25.313  26.767  1.00  0.00     0.168 HD
BRANCH  15  17
ATOM     17  C   UNL A   1      29.905  26.258  24.980  1.00  0.00     0.153 A 
ATOM     18  C   UNL A   1      29.743  28.292  23.147  1.00  0.00     0.150 A 
ATOM     19  C   UNL A   1      30.909  28.153  23.882  1.00  0.00     0.040 A 
ATOM     20  N   UNL A   1      28.704  27.451  23.306  1.00  0.00    -0.143 NA
ATOM     21  C   UNL A   1      30.989  27.112  24.809  1.00  0.00     0.051 A 
ATOM     22  N   UNL A   1      28.801  26.422  24.219  1.00  0.00    -0.132 NA
BRANCH  18  23
ATOM     23  C   UNL A   1      29.572  29.363  22.127  1.00  0.00     0.269 C 
ATOM     24  N   UNL A   1      30.705  30.020  21.714  1.00  0.00    -0.364 N 
ATOM     25  H   UNL A   1      30.642  30.735  21.041  1.00  0.00     0.160 HD
ATOM     26  H   UNL A   1      31.581  29.775  22.091  1.00  0.00     0.160 HD
ATOM     27  O   UNL A   1      28.485  29.654  21.643  1.00  0.00    -0.268 OA
ENDBRANCH  18  23
ENDBRANCH  15  17
ENDBRANCH   9  15
ENDBRANCH   5   8
ENDBRANCH   3   4
ENDBRANCH   2   3
ENDBRANCH   1   2
BRANCH   1  28
ATOM     28  C   UNL A   1      39.147  22.095  26.336  1.00  0.00     0.002 C 
BRANCH  28  29
ATOM     29  C   UNL A   1      39.496  20.680  25.864  1.00  0.00     0.021 C 
BRANCH  29  30
ATOM     30  C   UNL A   1      40.372  19.885  26.828  1.00  0.00     0.116 C 
BRANCH  30  31
ATOM     31  N   UNL A   1      41.533  19.323  26.153  1.00  0.00    -0.352 N 
ATOM     32  C   UNL A   1      42.650  19.960  25.676  1.00  0.00     0.251 C 
ATOM     33  H   UNL A   1      41.513  18.348  26.020  1.00  0.00     0.163 HD
ATOM     34  O   UNL A   1      43.407  19.379  24.903  1.00  0.00    -0.269 OA
BRANCH  32  35
ATOM     35  C   UNL A   1      42.942  21.347  26.095  1.00  0.00     0.039 A 
ATOM     36  C   UNL A   1      43.250  21.605  27.434  1.00  0.00     0.014 A 
ATOM     37  C   UNL A   1      42.888  22.393  25.169  1.00  0.00     0.014 A 
ATOM     38  C   UNL A   1      43.558  22.908  27.834  1.00  0.00     0.010 A 
ATOM     39  C   UNL A   1      43.255  23.678  25.556  1.00  0.00     0.010 A 
ATOM     40  C   UNL A   1      43.589  23.950  26.891  1.00  0.00    -0.014 A 
BRANCH  40  41
ATOM     41  C   UNL A   1      43.985  25.329  27.273  1.00  0.00     0.031 A 
ATOM     42  C   UNL A   1      42.961  26.291  27.806  1.00  0.00     0.074 A 
ATOM     43  C   UNL A   1      45.246  25.743  27.038  1.00  0.00     0.049 A 
ATOM     44  N   UNL A   1      43.096  27.556  28.109  1.00  0.00    -0.248 NA
ATOM     45  C   UNL A   1      41.596  25.771  28.002  1.00  0.00     0.031 C 
ATOM     46  C   UNL A   1      46.309  24.924  26.452  1.00  0.00     0.029 A 
ATOM     47  N   UNL A   1      45.837  26.967  27.229  1.00  0.00    -0.354 N 
ATOM     48  C   UNL A   1      41.835  27.993  28.493  1.00  0.00     0.074 A 
ATOM     49  C   UNL A   1      40.939  26.864  28.359  1.00  0.00     0.031 C 
ATOM     50  C   UNL A   1      47.418  25.669  26.325  1.00  0.00     0.029 A 
ATOM     51  C   UNL A   1      47.139  27.024  26.790  1.00  0.00     0.049 A 
ATOM     52  H   UNL A   1      45.373  27.732  27.641  1.00  0.00     0.167 HD
ATOM     53  C   UNL A   1      41.461  29.215  28.941  1.00  0.00     0.034 A 
ATOM     54  C   UNL A   1      48.006  28.054  26.752  1.00  0.00     0.034 A 
ATOM     55  C   UNL A   1      42.364  30.320  29.114  1.00  0.00     0.049 A 
ATOM     56  C   UNL A   1      47.574  29.392  27.286  1.00  0.00     0.074 A 
ATOM     57  C   UNL A   1      42.106  31.566  29.657  1.00  0.00     0.029 A 
ATOM     58  N   UNL A   1      43.698  30.317  28.738  1.00  0.00    -0.354 N 
ATOM     59  N   UNL A   1      46.421  29.740  27.805  1.00  0.00    -0.248 NA
ATOM     60  C   UNL A   1      48.571  30.473  27.260  1.00  0.00     0.031 C 
ATOM     61  C   UNL A   1      43.279  32.325  29.588  1.00  0.00     0.029 A 
ATOM     62  C   UNL A   1      44.274  31.545  29.020  1.00  0.00     0.049 A 
ATOM     63  H   UNL A   1      44.168  29.555  28.330  1.00  0.00     0.167 HD
ATOM     64  C   UNL A   1      46.560  31.069  28.188  1.00  0.00     0.074 A 
ATOM     65  C   UNL A   1      47.919  31.454  27.868  1.00  0.00     0.031 C 
ATOM     66  C   UNL A   1      45.640  31.901  28.737  1.00  0.00     0.034 A 
BRANCH  53  67
ATOM     67  C   UNL A   1      40.018  29.407  29.333  1.00  0.00     0.023 A 
ATOM     68  C   UNL A   1      39.039  29.545  28.328  1.00  0.00     0.012 A 
ATOM     69  C   UNL A   1      39.623  29.389  30.685  1.00  0.00     0.148 A 
ATOM     70  C   UNL A   1      37.694  29.697  28.661  1.00  0.00     0.002 A 
ATOM     71  C   UNL A   1      38.275  29.498  31.008  1.00  0.00     0.091 A 
ATOM     72  F   UNL A   1      40.569  29.277  31.628  1.00  0.00    -0.205 F 
ATOM     73  C   UNL A   1      37.312  29.663  29.999  1.00  0.00     0.022 A 
BRANCH  71  74
ATOM     74  S   UNL A   1      37.671  29.388  32.696  1.00  0.00     0.127 S 
ATOM     75  O   UNL A   1      36.339  29.977  32.571  1.00  0.00    -0.237 OA
ATOM     76  O   UNL A   1      37.678  27.944  32.933  1.00  0.00    -0.237 OA
ATOM     77  O   UNL A   1      38.615  30.140  33.510  1.00  0.00    -0.744 OA
ENDBRANCH  71  74
ENDBRANCH  53  67
BRANCH  54  78
ATOM     78  C   UNL A   1      49.389  27.843  26.241  1.00  0.00     0.023 A 
ATOM     79  C   UNL A   1      50.416  27.512  27.147  1.00  0.00     0.012 A 
ATOM     80  C   UNL A   1      49.688  27.928  24.867  1.00  0.00     0.148 A 
ATOM     81  C   UNL A   1      51.721  27.301  26.699  1.00  0.00     0.002 A 
ATOM     82  C   UNL A   1      50.978  27.663  24.421  1.00  0.00     0.091 A 
ATOM     83  F   UNL A   1      48.701  28.257  24.021  1.00  0.00    -0.205 F 
ATOM     84  C   UNL A   1      51.999  27.366  25.336  1.00  0.00     0.022 A 
BRANCH  82  85
ATOM     85  S   UNL A   1      51.396  27.595  22.675  1.00  0.00     0.127 S 
ATOM     86  O   UNL A   1      50.382  26.679  22.158  1.00  0.00    -0.237 OA
ATOM     87  O   UNL A   1      51.231  28.991  22.269  1.00  0.00    -0.237 OA
ATOM     88  O   UNL A   1      52.772  27.116  22.619  1.00  0.00    -0.744 OA
ENDBRANCH  82  85
ENDBRANCH  54  78
BRANCH  66  89
ATOM     89  C   UNL A   1      46.071  33.312  29.040  1.00  0.00     0.023 A 
ATOM     90  C   UNL A   1      46.734  33.591  30.251  1.00  0.00     0.012 A 
ATOM     91  C   UNL A   1      45.886  34.344  28.098  1.00  0.00     0.148 A 
ATOM     92  C   UNL A   1      47.181  34.881  30.534  1.00  0.00     0.002 A 
ATOM     93  C   UNL A   1      46.376  35.616  28.367  1.00  0.00     0.091 A 
ATOM     94  F   UNL A   1      45.237  34.062  26.959  1.00  0.00    -0.205 F 
ATOM     95  C   UNL A   1      47.013  35.890  29.588  1.00  0.00     0.022 A 
BRANCH  93  96
ATOM     96  S   UNL A   1      46.288  36.956  27.172  1.00  0.00     0.127 S 
ATOM     97  O   UNL A   1      46.900  36.344  25.994  1.00  0.00    -0.237 OA
ATOM     98  O   UNL A   1      44.847  37.181  27.064  1.00  0.00    -0.237 OA
ATOM     99  O   UNL A   1      47.030  38.064  27.758  1.00  0.00    -0.744 OA
ENDBRANCH  93  96
ENDBRANCH  66  89
ENDBRANCH  40  41
ENDBRANCH  32  35
ENDBRANCH  30  31
ENDBRANCH  29  30
ENDBRANCH  28  29
ENDBRANCH   1  28
TORSDOF 19
ENDMDL
MODEL 3
REMARK VINA RESULT:     -11.4      5.358      8.360
REMARK SMILES NC(=O)c1ccc(Nc2ccc(C(=O)NCCCCCCNC(=O)c3ccc(-c4c5nc(c(-c6cccc(S(=O)(=O)[O-])c6F)c6ccc([nH]6)c(-c6cccc(S(=O)(=O)[O-])c6F)c6nc(c(-c7cccc(S(=O)(=O)[O-])c7F)c7ccc4[nH]7)C=C6)C=C5)cc3)c(Cl)c2)nn1
REMARK SMILES IDX 18 1 17 2 16 3 15 4 13 5 14 6 12 8 9 9 10 10 90 11 11 12
REMARK SMILES IDX 88 13 89 14 8 15 7 17 4 18 5 19 92 20 6 21 91 22 2 23 1 24
REMARK SMILES IDX 3 27 19 28 20 29 21 30 22 31 23 32 24 34 25 35 26 36 87 37
REMARK SMILES IDX 27 38 86 39 28 40 29 41 30 42 80 43 31 44 85 45 79 46 81 47
REMARK SMILES IDX 32 48 84 49 78 50 77 51 33 53 65 54 45 55 64 56 46 57 49 58
REMARK SMILES IDX 63 59 82 60 47 61 48 62 62 64 83 65 50 66 34 67 35 68 43 69
REMARK SMILES IDX 36 70 38 71 44 72 37 73 39 74 40 75 41 76 42 77 66 78 67 79
REMARK SMILES IDX 75 80 68 81 70 82 76 83 69 84 71 85 72 86 73 87 74 88 51 89
REMARK SMILES IDX 52 90 60 91 53 92 55 93 61 94 54 95 56 96 57 97 58 98 59 99
REMARK H PARENT 15 7 8 16 1 25 1 26 22 33 81 52 49 63
REMARK Flexibility Score: inf
ROOT
ATOM      1  C   UNL A   1      33.835  23.830  26.129  1.00  0.00     0.002 C 
ENDROOT
BRANCH   1   2
ATOM      2  C   UNL A   1      34.575  25.130  25.797  1.00  0.00     0.021 C 
BRANCH   2   3
ATOM      3  C   UNL A   1      33.659  26.354  25.658  1.00  0.00     0.116 C 
BRANCH   3   4
ATOM      4  N   UNL A   1      33.703  26.824  24.288  1.00  0.00    -0.352 N 
ATOM      5  C   UNL A   1      33.457  26.243  23.075  1.00  0.00     0.252 C 
ATOM      6  O   UNL A   1      33.732  26.936  22.089  1.00  0.00    -0.269 OA
ATOM      7  H   UNL A   1      33.969  27.768  24.215  1.00  0.00     0.163 HD
BRANCH   5   8
ATOM      8  C   UNL A   1      32.782  24.932  22.844  1.00  0.00     0.058 A 
ATOM      9  C   UNL A   1      31.895  22.276  22.304  1.00  0.00     0.041 A 
ATOM     10  C   UNL A   1      33.191  22.665  21.980  1.00  0.00     0.027 A 
ATOM     11  C   UNL A   1      31.062  23.207  22.926  1.00  0.00     0.047 A 
ATOM     12  C   UNL A   1      33.610  23.979  22.208  1.00  0.00     0.017 A 
ATOM     13  C   UNL A   1      31.520  24.496  23.260  1.00  0.00     0.055 A 
ATOM     14  Cl  UNL A   1      30.506  25.312  24.391  1.00  0.00    -0.083 Cl
BRANCH   9  15
ATOM     15  N   UNL A   1      31.490  20.930  22.225  1.00  0.00    -0.339 N 
ATOM     16  H   UNL A   1      30.686  20.714  21.698  1.00  0.00     0.168 HD
BRANCH  15  17
ATOM     17  C   UNL A   1      32.178  19.873  22.862  1.00  0.00     0.153 A 
ATOM     18  C   UNL A   1      33.547  17.840  24.093  1.00  0.00     0.150 A 
ATOM     19  C   UNL A   1      33.355  19.025  24.785  1.00  0.00     0.040 A 
ATOM     20  N   UNL A   1      33.070  17.665  22.848  1.00  0.00    -0.143 NA
ATOM     21  C   UNL A   1      32.653  20.054  24.157  1.00  0.00     0.051 A 
ATOM     22  N   UNL A   1      32.369  18.688  22.242  1.00  0.00    -0.132 NA
BRANCH  18  23
ATOM     23  C   UNL A   1      34.272  16.683  24.688  1.00  0.00     0.269 C 
ATOM     24  N   UNL A   1      35.505  16.934  25.239  1.00  0.00    -0.364 N 
ATOM     25  H   UNL A   1      36.021  16.201  25.644  1.00  0.00     0.160 HD
ATOM     26  H   UNL A   1      35.872  17.848  25.228  1.00  0.00     0.160 HD
ATOM     27  O   UNL A   1      33.806  15.551  24.720  1.00  0.00    -0.268 OA
ENDBRANCH  18  23
ENDBRANCH  15  17
ENDBRANCH   9  15
ENDBRANCH   5   8
ENDBRANCH   3   4
ENDBRANCH   2   3
ENDBRANCH   1   2
BRANCH   1  28
ATOM     28  C   UNL A   1      34.713  22.575  26.093  1.00  0.00     0.002 C 
BRANCH  28  29
ATOM     29  C   UNL A   1      35.753  22.541  24.968  1.00  0.00     0.021 C 
BRANCH  29  30
ATOM     30  C   UNL A   1      37.074  23.230  25.302  1.00  0.00     0.116 C 
BRANCH  30  31
ATOM     31  N   UNL A   1      38.010  22.309  25.930  1.00  0.00    -0.352 N 
ATOM     32  C   UNL A   1      39.200  22.577  26.558  1.00  0.00     0.251 C 
ATOM     33  H   UNL A   1      37.753  21.360  25.901  1.00  0.00     0.163 HD
ATOM     34  O   UNL A   1      39.989  21.667  26.797  1.00  0.00    -0.269 OA
BRANCH  32  35
ATOM     35  C   UNL A   1      39.531  23.965  26.946  1.00  0.00     0.039 A 
ATOM     36  C   UNL A   1      39.280  24.385  28.255  1.00  0.00     0.014 A 
ATOM     37  C   UNL A   1      40.068  24.853  26.010  1.00  0.00     0.014 A 
ATOM     38  C   UNL A   1      39.617  25.685  28.640  1.00  0.00     0.010 A 
ATOM     39  C   UNL A   1      40.461  26.126  26.412  1.00  0.00     0.010 A 
ATOM     40  C   UNL A   1      40.237  26.557  27.728  1.00  0.00    -0.014 A 
BRANCH  40  41
ATOM     41  C   UNL A   1      40.675  27.917  28.130  1.00  0.00     0.031 A 
ATOM     42  C   UNL A   1      42.138  28.263  28.161  1.00  0.00     0.074 A 
ATOM     43  C   UNL A   1      39.760  28.804  28.568  1.00  0.00     0.049 A 
ATOM     44  N   UNL A   1      42.716  29.363  28.567  1.00  0.00    -0.248 NA
ATOM     45  C   UNL A   1      43.078  27.227  27.700  1.00  0.00     0.031 C 
ATOM     46  C   UNL A   1      38.319  28.557  28.657  1.00  0.00     0.029 A 
ATOM     47  N   UNL A   1      39.909  30.078  29.054  1.00  0.00    -0.354 N 
ATOM     48  C   UNL A   1      44.082  29.142  28.448  1.00  0.00     0.074 A 
ATOM     49  C   UNL A   1      44.249  27.791  27.957  1.00  0.00     0.031 C 
ATOM     50  C   UNL A   1      37.718  29.640  29.172  1.00  0.00     0.029 A 
ATOM     51  C   UNL A   1      38.730  30.646  29.479  1.00  0.00     0.049 A 
ATOM     52  H   UNL A   1      40.776  30.542  29.095  1.00  0.00     0.167 HD
ATOM     53  C   UNL A   1      45.105  29.994  28.698  1.00  0.00     0.034 A 
ATOM     54  C   UNL A   1      38.493  31.836  30.064  1.00  0.00     0.034 A 
ATOM     55  C   UNL A   1      44.931  31.350  29.143  1.00  0.00     0.049 A 
ATOM     56  C   UNL A   1      39.643  32.776  30.302  1.00  0.00     0.074 A 
ATOM     57  C   UNL A   1      45.895  32.326  29.328  1.00  0.00     0.029 A 
ATOM     58  N   UNL A   1      43.715  31.921  29.484  1.00  0.00    -0.354 N 
ATOM     59  N   UNL A   1      40.913  32.611  30.023  1.00  0.00    -0.248 NA
ATOM     60  C   UNL A   1      39.325  34.078  30.905  1.00  0.00     0.031 C 
ATOM     61  C   UNL A   1      45.264  33.480  29.803  1.00  0.00     0.029 A 
ATOM     62  C   UNL A   1      43.904  33.231  29.895  1.00  0.00     0.049 A 
ATOM     63  H   UNL A   1      42.845  31.464  29.441  1.00  0.00     0.167 HD
ATOM     64  C   UNL A   1      41.542  33.794  30.392  1.00  0.00     0.074 A 
ATOM     65  C   UNL A   1      40.507  34.678  30.889  1.00  0.00     0.031 C 
ATOM     66  C   UNL A   1      42.859  34.114  30.345  1.00  0.00     0.034 A 
BRANCH  53  67
ATOM     67  C   UNL A   1      46.506  29.503  28.441  1.00  0.00     0.023 A 
ATOM     68  C   UNL A   1      47.103  29.735  27.184  1.00  0.00     0.012 A 
ATOM     69  C   UNL A   1      47.252  28.868  29.453  1.00  0.00     0.148 A 
ATOM     70  C   UNL A   1      48.406  29.315  26.928  1.00  0.00     0.002 A 
ATOM     71  C   UNL A   1      48.567  28.490  29.203  1.00  0.00     0.091 A 
ATOM     72  F   UNL A   1      46.662  28.636  30.634  1.00  0.00    -0.205 F 
ATOM     73  C   UNL A   1      49.141  28.702  27.939  1.00  0.00     0.022 A 
BRANCH  71  74
ATOM     74  S   UNL A   1      49.622  27.764  30.463  1.00  0.00     0.127 S 
ATOM     75  O   UNL A   1      50.778  28.659  30.429  1.00  0.00    -0.237 OA
ATOM     76  O   UNL A   1      48.795  27.883  31.665  1.00  0.00    -0.237 OA
ATOM     77  O   UNL A   1      49.876  26.396  30.034  1.00  0.00    -0.744 OA
ENDBRANCH  71  74
ENDBRANCH  53  67
BRANCH  54  78
ATOM     78  C   UNL A   1      37.098  32.227  30.413  1.00  0.00     0.023 A 
ATOM     79  C   UNL A   1      36.622  31.993  31.718  1.00  0.00     0.012 A 
ATOM     80  C   UNL A   1      36.255  32.860  29.479  1.00  0.00     0.148 A 
ATOM     81  C   UNL A   1      35.323  32.355  32.078  1.00  0.00     0.002 A 
ATOM     82  C   UNL A   1      34.981  33.267  29.859  1.00  0.00     0.091 A 
ATOM     83  F   UNL A   1      36.721  33.062  28.238  1.00  0.00    -0.205 F 
ATOM     84  C   UNL A   1      34.508  33.001  31.153  1.00  0.00     0.022 A 
BRANCH  82  85
ATOM     85  S   UNL A   1      33.913  34.220  28.775  1.00  0.00     0.127 S 
ATOM     86  O   UNL A   1      33.523  33.223  27.782  1.00  0.00    -0.237 OA
ATOM     87  O   UNL A   1      32.844  34.632  29.686  1.00  0.00    -0.237 OA
ATOM     88  O   UNL A   1      34.733  35.320  28.282  1.00  0.00    -0.744 OA
ENDBRANCH  82  85
ENDBRANCH  54  78
BRANCH  66  89
ATOM     89  C   UNL A   1      43.262  35.481  30.831  1.00  0.00     0.023 A 
ATOM     90  C   UNL A   1      43.596  35.665  32.188  1.00  0.00     0.012 A 
ATOM     91  C   UNL A   1      43.380  36.563  29.936  1.00  0.00     0.148 A 
ATOM     92  C   UNL A   1      44.015  36.911  32.652  1.00  0.00     0.002 A 
ATOM     93  C   UNL A   1      43.842  37.789  30.397  1.00  0.00     0.091 A 
ATOM     94  F   UNL A   1      43.039  36.371  28.653  1.00  0.00    -0.205 F 
ATOM     95  C   UNL A   1      44.149  37.969  31.756  1.00  0.00     0.022 A 
BRANCH  93  96
ATOM     96  S   UNL A   1      44.135  39.183  29.301  1.00  0.00     0.127 S 
ATOM     97  O   UNL A   1      44.691  40.173  30.221  1.00  0.00    -0.237 OA
ATOM     98  O   UNL A   1      45.096  38.630  28.346  1.00  0.00    -0.237 OA
ATOM     99  O   UNL A   1      42.840  39.520  28.727  1.00  0.00    -0.744 OA
ENDBRANCH  93  96
ENDBRANCH  66  89
ENDBRANCH  40  41
ENDBRANCH  32  35
ENDBRANCH  30  31
ENDBRANCH  29  30
ENDBRANCH  28  29
ENDBRANCH   1  28
TORSDOF 19
ENDMDL
