MODEL 1
REMARK VINA RESULT:     -11.3      0.000      0.000
REMARK SMILES O=C(CCCNC(=O)[C@@H]1CCCN(S(=O)(=O)c2ccc(F)cc2)C1)NCCCCCCNC(=O)c1ccc(-c2c3nc(c(-c4cccc(S(=O)(=O)[O-])c4F)c4ccc([nH]4)c(-c4cccc(S(=O)(=O)[O-])c4F)c4nc(c(-c5cccc(S(=O)(=O)[O-])c5F)c5ccc2[nH]5)C=C4)C=C3)cc1
REMARK SMILES IDX 27 1 26 2 25 3 1 4 2 5 3 7 4 8 5 9 6 10 7 11 8 13 9 14 10 15
REMARK SMILES IDX 24 16 11 17 13 18 12 19 14 20 15 21 16 22 17 23 18 24 23 25
REMARK SMILES IDX 19 26 22 27 20 28 21 29 28 30 29 31 30 32 31 33 32 34 33 35
REMARK SMILES IDX 34 37 35 38 36 39 97 40 37 41 96 42 38 43 39 44 40 45 90 46
REMARK SMILES IDX 41 47 95 48 89 49 91 50 42 51 94 52 88 53 87 54 43 56 75 57
REMARK SMILES IDX 55 58 74 59 56 60 59 61 73 62 92 63 57 64 58 65 72 67 93 68
REMARK SMILES IDX 60 69 44 70 45 71 53 72 46 73 48 74 54 75 47 76 49 77 50 78
REMARK SMILES IDX 51 79 52 80 76 81 77 82 85 83 78 84 80 85 86 86 79 87 81 88
REMARK SMILES IDX 82 89 83 90 84 91 61 92 62 93 70 94 63 95 65 96 71 97 64 98
REMARK SMILES IDX 66 99 67 100 68 101 69 102
REMARK H PARENT 25 6 6 12 32 36 91 55 59 66
REMARK Flexibility Score: inf
ROOT
ATOM      1  C   UNL A   1      32.322  29.141  27.637  1.00  0.00     0.021 C 
ENDROOT
BRANCH   1   2
ATOM      2  C   UNL A   1      31.436  27.958  27.238  1.00  0.00     0.116 C 
BRANCH   2   3
ATOM      3  N   UNL A   1      32.238  26.808  26.868  1.00  0.00    -0.356 N 
ATOM      4  O   UNL A   1      30.487  25.439  26.286  1.00  0.00    -0.275 OA
ATOM      5  C   UNL A   1      31.686  25.617  26.467  1.00  0.00     0.220 C 
ATOM      6  H   UNL A   1      33.219  26.885  26.907  1.00  0.00     0.163 HD
BRANCH   5   7
ATOM      7  C   UNL A   1      32.688  24.495  26.305  1.00  0.00     0.102 C 
BRANCH   7   8
ATOM      8  C   UNL A   1      32.235  23.159  26.887  1.00  0.00     0.031 C 
BRANCH   8   9
ATOM      9  C   UNL A   1      33.305  22.319  27.584  1.00  0.00     0.116 C 
BRANCH   9  10
ATOM     10  N   UNL A   1      34.649  22.832  27.403  1.00  0.00    -0.356 N 
ATOM     11  C   UNL A   1      35.535  22.679  26.386  1.00  0.00     0.224 C 
ATOM     12  H   UNL A   1      34.976  23.387  28.148  1.00  0.00     0.163 HD
ATOM     13  O   UNL A   1      36.591  23.307  26.508  1.00  0.00    -0.275 OA
BRANCH  11  14
ATOM     14  C   UNL A   1      35.315  21.687  25.241  1.00  0.00     0.093 C 
ATOM     15  C   UNL A   1      36.613  21.477  24.446  1.00  0.00     0.016 C 
ATOM     16  C   UNL A   1      34.204  22.007  24.249  1.00  0.00     0.116 C 
ATOM     17  C   UNL A   1      36.928  22.699  23.587  1.00  0.00     0.018 C 
ATOM     18  N   UNL A   1      34.479  23.222  23.407  1.00  0.00    -0.197 NA
ATOM     19  C   UNL A   1      35.773  23.085  22.669  1.00  0.00     0.102 C 
BRANCH  18  20
ATOM     20  S   UNL A   1      33.096  23.506  22.378  1.00  0.00     0.243 S 
ATOM     21  O   UNL A   1      33.569  23.420  21.004  1.00  0.00    -0.207 OA
ATOM     22  O   UNL A   1      32.056  22.620  22.849  1.00  0.00    -0.207 OA
BRANCH  20  23
ATOM     23  C   UNL A   1      32.554  25.174  22.654  1.00  0.00     0.082 A 
ATOM     24  C   UNL A   1      31.192  25.493  22.612  1.00  0.00     0.025 A 
ATOM     25  C   UNL A   1      33.484  26.130  23.084  1.00  0.00     0.025 A 
ATOM     26  C   UNL A   1      30.774  26.794  22.903  1.00  0.00     0.040 A 
ATOM     27  C   UNL A   1      33.052  27.412  23.432  1.00  0.00     0.040 A 
ATOM     28  C   UNL A   1      31.706  27.741  23.310  1.00  0.00     0.123 A 
ATOM     29  F   UNL A   1      31.299  28.983  23.600  1.00  0.00    -0.207 F 
ENDBRANCH  20  23
ENDBRANCH  18  20
ENDBRANCH  11  14
ENDBRANCH   9  10
ENDBRANCH   8   9
ENDBRANCH   7   8
ENDBRANCH   5   7
ENDBRANCH   2   3
ENDBRANCH   1   2
BRANCH   1  30
ATOM     30  C   UNL A   1      32.717  30.067  26.477  1.00  0.00     0.002 C 
BRANCH  30  31
ATOM     31  C   UNL A   1      31.600  30.985  25.974  1.00  0.00     0.002 C 
BRANCH  31  32
ATOM     32  C   UNL A   1      31.408  32.261  26.795  1.00  0.00     0.021 C 
BRANCH  32  33
ATOM     33  C   UNL A   1      32.683  32.894  27.340  1.00  0.00     0.116 C 
BRANCH  33  34
ATOM     34  N   UNL A   1      32.481  34.269  27.771  1.00  0.00    -0.352 N 
ATOM     35  C   UNL A   1      33.073  34.984  28.785  1.00  0.00     0.251 C 
ATOM     36  H   UNL A   1      31.811  34.770  27.251  1.00  0.00     0.163 HD
ATOM     37  O   UNL A   1      32.621  36.090  29.076  1.00  0.00    -0.269 OA
BRANCH  35  38
ATOM     38  C   UNL A   1      34.231  34.439  29.536  1.00  0.00     0.039 A 
ATOM     39  C   UNL A   1      33.998  33.802  30.759  1.00  0.00     0.014 A 
ATOM     40  C   UNL A   1      35.542  34.575  29.072  1.00  0.00     0.014 A 
ATOM     41  C   UNL A   1      35.065  33.251  31.478  1.00  0.00     0.010 A 
ATOM     42  C   UNL A   1      36.593  33.954  29.746  1.00  0.00     0.010 A 
ATOM     43  C   UNL A   1      36.369  33.288  30.960  1.00  0.00    -0.014 A 
BRANCH  43  44
ATOM     44  C   UNL A   1      37.497  32.613  31.656  1.00  0.00     0.031 A 
ATOM     45  C   UNL A   1      38.205  31.442  31.025  1.00  0.00     0.074 A 
ATOM     46  C   UNL A   1      37.838  33.007  32.902  1.00  0.00     0.049 A 
ATOM     47  N   UNL A   1      39.180  30.716  31.507  1.00  0.00    -0.248 NA
ATOM     48  C   UNL A   1      37.742  31.011  29.695  1.00  0.00     0.031 C 
ATOM     49  C   UNL A   1      37.174  34.069  33.661  1.00  0.00     0.029 A 
ATOM     50  N   UNL A   1      38.811  32.549  33.756  1.00  0.00    -0.354 N 
ATOM     51  C   UNL A   1      39.424  29.727  30.562  1.00  0.00     0.074 A 
ATOM     52  C   UNL A   1      38.476  29.925  29.489  1.00  0.00     0.031 C 
ATOM     53  C   UNL A   1      37.768  34.192  34.859  1.00  0.00     0.029 A 
ATOM     54  C   UNL A   1      38.839  33.206  34.965  1.00  0.00     0.049 A 
ATOM     55  H   UNL A   1      39.431  31.821  33.525  1.00  0.00     0.167 HD
ATOM     56  C   UNL A   1      40.374  28.762  30.569  1.00  0.00     0.034 A 
ATOM     57  C   UNL A   1      39.640  33.041  36.038  1.00  0.00     0.034 A 
ATOM     58  C   UNL A   1      41.365  28.614  31.599  1.00  0.00     0.049 A 
ATOM     59  C   UNL A   1      40.741  32.018  35.983  1.00  0.00     0.074 A 
ATOM     60  C   UNL A   1      42.427  27.726  31.644  1.00  0.00     0.029 A 
ATOM     61  N   UNL A   1      41.427  29.372  32.756  1.00  0.00    -0.354 N 
ATOM     62  N   UNL A   1      41.053  31.199  35.008  1.00  0.00    -0.248 NA
ATOM     63  C   UNL A   1      41.627  31.919  37.154  1.00  0.00     0.031 C 
ATOM     64  C   UNL A   1      43.130  27.946  32.829  1.00  0.00     0.029 A 
ATOM     65  C   UNL A   1      42.512  28.976  33.519  1.00  0.00     0.049 A 
ATOM     66  H   UNL A   1      40.794  30.086  32.999  1.00  0.00     0.167 HD
ATOM     67  C   UNL A   1      42.187  30.515  35.431  1.00  0.00     0.074 A 
ATOM     68  C   UNL A   1      42.518  31.024  36.745  1.00  0.00     0.031 C 
ATOM     69  C   UNL A   1      42.879  29.543  34.791  1.00  0.00     0.034 A 
BRANCH  56  70
ATOM     70  C   UNL A   1      40.462  27.836  29.385  1.00  0.00     0.023 A 
ATOM     71  C   UNL A   1      39.510  26.806  29.252  1.00  0.00     0.012 A 
ATOM     72  C   UNL A   1      41.392  28.060  28.352  1.00  0.00     0.148 A 
ATOM     73  C   UNL A   1      39.489  26.002  28.114  1.00  0.00     0.002 A 
ATOM     74  C   UNL A   1      41.342  27.277  27.203  1.00  0.00     0.091 A 
ATOM     75  F   UNL A   1      42.297  29.036  28.507  1.00  0.00    -0.205 F 
ATOM     76  C   UNL A   1      40.395  26.246  27.085  1.00  0.00     0.022 A 
BRANCH  74  77
ATOM     77  S   UNL A   1      42.410  27.560  25.786  1.00  0.00     0.127 S 
ATOM     78  O   UNL A   1      42.129  28.963  25.481  1.00  0.00    -0.237 OA
ATOM     79  O   UNL A   1      43.739  27.312  26.347  1.00  0.00    -0.237 OA
ATOM     80  O   UNL A   1      41.991  26.607  24.768  1.00  0.00    -0.744 OA
ENDBRANCH  74  77
ENDBRANCH  56  70
BRANCH  57  81
ATOM     81  C   UNL A   1      39.491  33.950  37.211  1.00  0.00     0.023 A 
ATOM     82  C   UNL A   1      39.874  35.299  37.085  1.00  0.00     0.012 A 
ATOM     83  C   UNL A   1      38.912  33.512  38.417  1.00  0.00     0.148 A 
ATOM     84  C   UNL A   1      39.703  36.190  38.145  1.00  0.00     0.002 A 
ATOM     85  C   UNL A   1      38.694  34.417  39.451  1.00  0.00     0.091 A 
ATOM     86  F   UNL A   1      38.570  32.219  38.527  1.00  0.00    -0.205 F 
ATOM     87  C   UNL A   1      39.100  35.753  39.322  1.00  0.00     0.022 A 
BRANCH  85  88
ATOM     88  S   UNL A   1      37.792  33.964  40.937  1.00  0.00     0.127 S 
ATOM     89  O   UNL A   1      38.730  33.059  41.595  1.00  0.00    -0.237 OA
ATOM     90  O   UNL A   1      37.617  35.258  41.600  1.00  0.00    -0.237 OA
ATOM     91  O   UNL A   1      36.550  33.366  40.466  1.00  0.00    -0.744 OA
ENDBRANCH  85  88
ENDBRANCH  57  81
BRANCH  69  92
ATOM     92  C   UNL A   1      44.092  28.963  35.465  1.00  0.00     0.023 A 
ATOM     93  C   UNL A   1      45.338  29.598  35.313  1.00  0.00     0.012 A 
ATOM     94  C   UNL A   1      43.963  27.888  36.369  1.00  0.00     0.148 A 
ATOM     95  C   UNL A   1      46.444  29.170  36.046  1.00  0.00     0.002 A 
ATOM     96  C   UNL A   1      45.060  27.492  37.125  1.00  0.00     0.091 A 
ATOM     97  F   UNL A   1      42.769  27.290  36.485  1.00  0.00    -0.205 F 
ATOM     98  C   UNL A   1      46.302  28.128  36.962  1.00  0.00     0.022 A 
BRANCH  96  99
ATOM     99  S   UNL A   1      44.950  26.227  38.398  1.00  0.00     0.127 S 
ATOM    100  O   UNL A   1      46.354  26.058  38.769  1.00  0.00    -0.237 OA
ATOM    101  O   UNL A   1      44.125  26.882  39.414  1.00  0.00    -0.237 OA
ATOM    102  O   UNL A   1      44.329  25.072  37.766  1.00  0.00    -0.744 OA
ENDBRANCH  96  99
ENDBRANCH  69  92
ENDBRANCH  43  44
ENDBRANCH  35  38
ENDBRANCH  33  34
ENDBRANCH  32  33
ENDBRANCH  31  32
ENDBRANCH  30  31
ENDBRANCH   1  30
TORSDOF 22
ENDMDL
MODEL 2
REMARK VINA RESULT:     -10.1      3.326      8.030
REMARK SMILES O=C(CCCNC(=O)[C@@H]1CCCN(S(=O)(=O)c2ccc(F)cc2)C1)NCCCCCCNC(=O)c1ccc(-c2c3nc(c(-c4cccc(S(=O)(=O)[O-])c4F)c4ccc([nH]4)c(-c4cccc(S(=O)(=O)[O-])c4F)c4nc(c(-c5cccc(S(=O)(=O)[O-])c5F)c5ccc2[nH]5)C=C4)C=C3)cc1
REMARK SMILES IDX 27 1 26 2 25 3 1 4 2 5 3 7 4 8 5 9 6 10 7 11 8 13 9 14 10 15
REMARK SMILES IDX 24 16 11 17 13 18 12 19 14 20 15 21 16 22 17 23 18 24 23 25
REMARK SMILES IDX 19 26 22 27 20 28 21 29 28 30 29 31 30 32 31 33 32 34 33 35
REMARK SMILES IDX 34 37 35 38 36 39 97 40 37 41 96 42 38 43 39 44 40 45 90 46
REMARK SMILES IDX 41 47 95 48 89 49 91 50 42 51 94 52 88 53 87 54 43 56 75 57
REMARK SMILES IDX 55 58 74 59 56 60 59 61 73 62 92 63 57 64 58 65 72 67 93 68
REMARK SMILES IDX 60 69 44 70 45 71 53 72 46 73 48 74 54 75 47 76 49 77 50 78
REMARK SMILES IDX 51 79 52 80 76 81 77 82 85 83 78 84 80 85 86 86 79 87 81 88
REMARK SMILES IDX 82 89 83 90 84 91 61 92 62 93 70 94 63 95 65 96 71 97 64 98
REMARK SMILES IDX 66 99 67 100 68 101 69 102
REMARK H PARENT 25 6 6 12 32 36 91 55 59 66
REMARK Flexibility Score: inf
ROOT
ATOM      1  C   UNL A   1      33.257  28.324  27.225  1.00  0.00     0.021 C 
ENDROOT
BRANCH   1   2
ATOM      2  C   UNL A   1      32.137  27.607  26.468  1.00  0.00     0.116 C 
BRANCH   2   3
ATOM      3  N   UNL A   1      32.494  26.229  26.191  1.00  0.00    -0.356 N 
ATOM      4  O   UNL A   1      30.437  25.321  26.666  1.00  0.00    -0.275 OA
ATOM      5  C   UNL A   1      31.617  25.187  26.364  1.00  0.00     0.220 C 
ATOM      6  H   UNL A   1      33.403  26.033  25.867  1.00  0.00     0.163 HD
BRANCH   5   7
ATOM      7  C   UNL A   1      32.242  23.820  26.197  1.00  0.00     0.102 C 
BRANCH   7   8
ATOM      8  C   UNL A   1      32.185  22.945  27.447  1.00  0.00     0.031 C 
BRANCH   8   9
ATOM      9  C   UNL A   1      33.385  22.033  27.699  1.00  0.00     0.116 C 
BRANCH   9  10
ATOM     10  N   UNL A   1      34.661  22.679  27.459  1.00  0.00    -0.356 N 
ATOM     11  C   UNL A   1      35.487  22.652  26.382  1.00  0.00     0.224 C 
ATOM     12  H   UNL A   1      34.984  23.231  28.206  1.00  0.00     0.163 HD
ATOM     13  O   UNL A   1      36.487  23.373  26.467  1.00  0.00    -0.275 OA
BRANCH  11  14
ATOM     14  C   UNL A   1      35.285  21.691  25.208  1.00  0.00     0.093 C 
ATOM     15  C   UNL A   1      36.594  21.501  24.426  1.00  0.00     0.016 C 
ATOM     16  C   UNL A   1      34.188  22.039  24.208  1.00  0.00     0.116 C 
ATOM     17  C   UNL A   1      36.922  22.746  23.606  1.00  0.00     0.018 C 
ATOM     18  N   UNL A   1      34.476  23.275  23.403  1.00  0.00    -0.197 NA
ATOM     19  C   UNL A   1      35.781  23.157  22.681  1.00  0.00     0.102 C 
BRANCH  18  20
ATOM     20  S   UNL A   1      33.109  23.587  22.361  1.00  0.00     0.243 S 
ATOM     21  O   UNL A   1      33.587  23.469  20.992  1.00  0.00    -0.207 OA
ATOM     22  O   UNL A   1      32.040  22.740  22.837  1.00  0.00    -0.207 OA
BRANCH  20  23
ATOM     23  C   UNL A   1      32.616  25.274  22.613  1.00  0.00     0.082 A 
ATOM     24  C   UNL A   1      33.566  26.302  22.594  1.00  0.00     0.025 A 
ATOM     25  C   UNL A   1      31.250  25.585  22.658  1.00  0.00     0.025 A 
ATOM     26  C   UNL A   1      33.155  27.631  22.721  1.00  0.00     0.040 A 
ATOM     27  C   UNL A   1      30.843  26.920  22.724  1.00  0.00     0.040 A 
ATOM     28  C   UNL A   1      31.798  27.928  22.785  1.00  0.00     0.123 A 
ATOM     29  F   UNL A   1      31.409  29.205  22.894  1.00  0.00    -0.207 F 
ENDBRANCH  20  23
ENDBRANCH  18  20
ENDBRANCH  11  14
ENDBRANCH   9  10
ENDBRANCH   8   9
ENDBRANCH   7   8
ENDBRANCH   5   7
ENDBRANCH   2   3
ENDBRANCH   1   2
BRANCH   1  30
ATOM     30  C   UNL A   1      33.715  29.647  26.594  1.00  0.00     0.002 C 
BRANCH  30  31
ATOM     31  C   UNL A   1      33.850  30.816  27.572  1.00  0.00     0.002 C 
BRANCH  31  32
ATOM     32  C   UNL A   1      35.257  31.410  27.661  1.00  0.00     0.021 C 
BRANCH  32  33
ATOM     33  C   UNL A   1      35.335  32.858  28.132  1.00  0.00     0.116 C 
BRANCH  33  34
ATOM     34  N   UNL A   1      34.645  33.071  29.395  1.00  0.00    -0.352 N 
ATOM     35  C   UNL A   1      34.972  32.676  30.669  1.00  0.00     0.251 C 
ATOM     36  H   UNL A   1      33.805  33.582  29.324  1.00  0.00     0.163 HD
ATOM     37  O   UNL A   1      34.147  32.824  31.569  1.00  0.00    -0.269 OA
BRANCH  35  38
ATOM     38  C   UNL A   1      36.291  32.066  30.971  1.00  0.00     0.039 A 
ATOM     39  C   UNL A   1      36.324  30.823  31.612  1.00  0.00     0.014 A 
ATOM     40  C   UNL A   1      37.491  32.713  30.664  1.00  0.00     0.014 A 
ATOM     41  C   UNL A   1      37.551  30.207  31.884  1.00  0.00     0.010 A 
ATOM     42  C   UNL A   1      38.709  32.062  30.859  1.00  0.00     0.010 A 
ATOM     43  C   UNL A   1      38.755  30.803  31.475  1.00  0.00    -0.014 A 
BRANCH  43  44
ATOM     44  C   UNL A   1      40.060  30.114  31.659  1.00  0.00     0.031 A 
ATOM     45  C   UNL A   1      40.958  30.456  32.820  1.00  0.00     0.074 A 
ATOM     46  C   UNL A   1      40.479  29.228  30.730  1.00  0.00     0.049 A 
ATOM     47  N   UNL A   1      42.142  29.981  33.111  1.00  0.00    -0.248 NA
ATOM     48  C   UNL A   1      40.481  31.482  33.762  1.00  0.00     0.031 C 
ATOM     49  C   UNL A   1      39.746  28.874  29.512  1.00  0.00     0.029 A 
ATOM     50  N   UNL A   1      41.629  28.480  30.653  1.00  0.00    -0.354 N 
ATOM     51  C   UNL A   1      42.564  30.670  34.241  1.00  0.00     0.074 A 
ATOM     52  C   UNL A   1      41.524  31.619  34.570  1.00  0.00     0.031 C 
ATOM     53  C   UNL A   1      40.454  27.968  28.820  1.00  0.00     0.029 A 
ATOM     54  C   UNL A   1      41.700  27.691  29.527  1.00  0.00     0.049 A 
ATOM     55  H   UNL A   1      42.334  28.505  31.339  1.00  0.00     0.167 HD
ATOM     56  C   UNL A   1      43.698  30.504  34.961  1.00  0.00     0.034 A 
ATOM     57  C   UNL A   1      42.656  26.835  29.112  1.00  0.00     0.034 A 
ATOM     58  C   UNL A   1      44.695  29.509  34.677  1.00  0.00     0.049 A 
ATOM     59  C   UNL A   1      43.866  26.609  29.977  1.00  0.00     0.074 A 
ATOM     60  C   UNL A   1      45.831  29.203  35.408  1.00  0.00     0.029 A 
ATOM     61  N   UNL A   1      44.676  28.653  33.589  1.00  0.00    -0.354 N 
ATOM     62  N   UNL A   1      44.167  27.159  31.128  1.00  0.00    -0.248 NA
ATOM     63  C   UNL A   1      44.850  25.619  29.511  1.00  0.00     0.031 C 
ATOM     64  C   UNL A   1      46.500  28.163  34.760  1.00  0.00     0.029 A 
ATOM     65  C   UNL A   1      45.776  27.816  33.631  1.00  0.00     0.049 A 
ATOM     66  H   UNL A   1      43.982  28.643  32.890  1.00  0.00     0.167 HD
ATOM     67  C   UNL A   1      45.351  26.559  31.540  1.00  0.00     0.074 A 
ATOM     68  C   UNL A   1      45.709  25.593  30.524  1.00  0.00     0.031 C 
ATOM     69  C   UNL A   1      46.082  26.802  32.654  1.00  0.00     0.034 A 
BRANCH  56  70
ATOM     70  C   UNL A   1      43.896  31.352  36.190  1.00  0.00     0.023 A 
ATOM     71  C   UNL A   1      43.435  30.872  37.431  1.00  0.00     0.012 A 
ATOM     72  C   UNL A   1      44.640  32.547  36.139  1.00  0.00     0.148 A 
ATOM     73  C   UNL A   1      43.701  31.575  38.606  1.00  0.00     0.002 A 
ATOM     74  C   UNL A   1      44.933  33.223  37.319  1.00  0.00     0.091 A 
ATOM     75  F   UNL A   1      45.056  32.991  34.945  1.00  0.00    -0.205 F 
ATOM     76  C   UNL A   1      44.460  32.741  38.551  1.00  0.00     0.022 A 
BRANCH  74  77
ATOM     77  S   UNL A   1      45.970  34.690  37.369  1.00  0.00     0.127 S 
ATOM     78  O   UNL A   1      47.011  34.346  36.401  1.00  0.00    -0.237 OA
ATOM     79  O   UNL A   1      45.047  35.735  36.925  1.00  0.00    -0.237 OA
ATOM     80  O   UNL A   1      46.420  34.819  38.747  1.00  0.00    -0.744 OA
ENDBRANCH  74  77
ENDBRANCH  56  70
BRANCH  57  81
ATOM     81  C   UNL A   1      42.443  26.046  27.864  1.00  0.00     0.023 A 
ATOM     82  C   UNL A   1      42.719  26.646  26.620  1.00  0.00     0.012 A 
ATOM     83  C   UNL A   1      42.040  24.698  27.902  1.00  0.00     0.148 A 
ATOM     84  C   UNL A   1      42.579  25.923  25.435  1.00  0.00     0.002 A 
ATOM     85  C   UNL A   1      41.956  23.967  26.721  1.00  0.00     0.091 A 
ATOM     86  F   UNL A   1      41.763  24.148  29.093  1.00  0.00    -0.205 F 
ATOM     87  C   UNL A   1      42.212  24.581  25.486  1.00  0.00     0.022 A 
BRANCH  85  88
ATOM     88  S   UNL A   1      41.633  22.199  26.718  1.00  0.00     0.127 S 
ATOM     89  O   UNL A   1      40.186  22.157  26.912  1.00  0.00    -0.237 OA
ATOM     90  O   UNL A   1      42.086  21.804  25.383  1.00  0.00    -0.237 OA
ATOM     91  O   UNL A   1      42.441  21.659  27.803  1.00  0.00    -0.744 OA
ENDBRANCH  85  88
ENDBRANCH  57  81
BRANCH  69  92
ATOM     92  C   UNL A   1      47.336  26.002  32.879  1.00  0.00     0.023 A 
ATOM     93  C   UNL A   1      48.562  26.486  32.387  1.00  0.00     0.012 A 
ATOM     94  C   UNL A   1      47.318  24.860  33.706  1.00  0.00     0.148 A 
ATOM     95  C   UNL A   1      49.757  25.843  32.710  1.00  0.00     0.002 A 
ATOM     96  C   UNL A   1      48.516  24.248  34.056  1.00  0.00     0.091 A 
ATOM     97  F   UNL A   1      46.136  24.411  34.151  1.00  0.00    -0.205 F 
ATOM     98  C   UNL A   1      49.735  24.735  33.556  1.00  0.00     0.022 A 
BRANCH  96  99
ATOM     99  S   UNL A   1      48.597  22.877  35.216  1.00  0.00     0.127 S 
ATOM    100  O   UNL A   1      48.007  23.468  36.416  1.00  0.00    -0.237 OA
ATOM    101  O   UNL A   1      47.765  21.867  34.561  1.00  0.00    -0.237 OA
ATOM    102  O   UNL A   1      50.006  22.524  35.324  1.00  0.00    -0.744 OA
ENDBRANCH  96  99
ENDBRANCH  69  92
ENDBRANCH  43  44
ENDBRANCH  35  38
ENDBRANCH  33  34
ENDBRANCH  32  33
ENDBRANCH  31  32
ENDBRANCH  30  31
ENDBRANCH   1  30
TORSDOF 22
ENDMDL
MODEL 3
REMARK VINA RESULT:     -10.0      8.188     11.665
REMARK SMILES O=C(CCCNC(=O)[C@@H]1CCCN(S(=O)(=O)c2ccc(F)cc2)C1)NCCCCCCNC(=O)c1ccc(-c2c3nc(c(-c4cccc(S(=O)(=O)[O-])c4F)c4ccc([nH]4)c(-c4cccc(S(=O)(=O)[O-])c4F)c4nc(c(-c5cccc(S(=O)(=O)[O-])c5F)c5ccc2[nH]5)C=C4)C=C3)cc1
REMARK SMILES IDX 27 1 26 2 25 3 1 4 2 5 3 7 4 8 5 9 6 10 7 11 8 13 9 14 10 15
REMARK SMILES IDX 24 16 11 17 13 18 12 19 14 20 15 21 16 22 17 23 18 24 23 25
REMARK SMILES IDX 19 26 22 27 20 28 21 29 28 30 29 31 30 32 31 33 32 34 33 35
REMARK SMILES IDX 34 37 35 38 36 39 97 40 37 41 96 42 38 43 39 44 40 45 90 46
REMARK SMILES IDX 41 47 95 48 89 49 91 50 42 51 94 52 88 53 87 54 43 56 75 57
REMARK SMILES IDX 55 58 74 59 56 60 59 61 73 62 92 63 57 64 58 65 72 67 93 68
REMARK SMILES IDX 60 69 44 70 45 71 53 72 46 73 48 74 54 75 47 76 49 77 50 78
REMARK SMILES IDX 51 79 52 80 76 81 77 82 85 83 78 84 80 85 86 86 79 87 81 88
REMARK SMILES IDX 82 89 83 90 84 91 61 92 62 93 70 94 63 95 65 96 71 97 64 98
REMARK SMILES IDX 66 99 67 100 68 101 69 102
REMARK H PARENT 25 6 6 12 32 36 91 55 59 66
REMARK Flexibility Score: inf
ROOT
ATOM      1  C   UNL A   1      39.548  28.718  27.335  1.00  0.00     0.021 C 
ENDROOT
BRANCH   1   2
ATOM      2  C   UNL A   1      38.848  29.716  28.260  1.00  0.00     0.116 C 
BRANCH   2   3
ATOM      3  N   UNL A   1      37.478  29.941  27.842  1.00  0.00    -0.356 N 
ATOM      4  O   UNL A   1      37.011  31.613  29.348  1.00  0.00    -0.275 OA
ATOM      5  C   UNL A   1      36.652  30.846  28.463  1.00  0.00     0.220 C 
ATOM      6  H   UNL A   1      37.125  29.423  27.083  1.00  0.00     0.163 HD
BRANCH   5   7
ATOM      7  C   UNL A   1      35.215  30.793  27.994  1.00  0.00     0.102 C 
BRANCH   7   8
ATOM      8  C   UNL A   1      34.837  29.504  27.269  1.00  0.00     0.031 C 
BRANCH   8   9
ATOM      9  C   UNL A   1      33.457  29.468  26.613  1.00  0.00     0.116 C 
BRANCH   9  10
ATOM     10  N   UNL A   1      32.666  28.315  26.997  1.00  0.00    -0.356 N 
ATOM     11  C   UNL A   1      31.981  27.412  26.249  1.00  0.00     0.224 C 
ATOM     12  H   UNL A   1      32.616  28.161  27.968  1.00  0.00     0.163 HD
ATOM     13  O   UNL A   1      31.452  26.495  26.885  1.00  0.00    -0.275 OA
BRANCH  11  14
ATOM     14  C   UNL A   1      31.748  27.590  24.747  1.00  0.00     0.093 C 
ATOM     15  C   UNL A   1      30.284  27.299  24.384  1.00  0.00     0.016 C 
ATOM     16  C   UNL A   1      32.633  26.780  23.807  1.00  0.00     0.116 C 
ATOM     17  C   UNL A   1      29.994  25.802  24.451  1.00  0.00     0.018 C 
ATOM     18  N   UNL A   1      32.385  25.299  23.871  1.00  0.00    -0.197 NA
ATOM     19  C   UNL A   1      30.950  24.980  23.592  1.00  0.00     0.102 C 
BRANCH  18  20
ATOM     20  S   UNL A   1      33.515  24.502  22.803  1.00  0.00     0.243 S 
ATOM     21  O   UNL A   1      32.820  23.358  22.233  1.00  0.00    -0.207 OA
ATOM     22  O   UNL A   1      34.051  25.534  21.944  1.00  0.00    -0.207 OA
BRANCH  20  23
ATOM     23  C   UNL A   1      34.847  23.879  23.798  1.00  0.00     0.082 A 
ATOM     24  C   UNL A   1      35.813  23.033  23.242  1.00  0.00     0.025 A 
ATOM     25  C   UNL A   1      35.018  24.379  25.097  1.00  0.00     0.025 A 
ATOM     26  C   UNL A   1      36.895  22.609  24.017  1.00  0.00     0.040 A 
ATOM     27  C   UNL A   1      36.135  23.998  25.845  1.00  0.00     0.040 A 
ATOM     28  C   UNL A   1      37.047  23.095  25.311  1.00  0.00     0.123 A 
ATOM     29  F   UNL A   1      38.092  22.695  26.045  1.00  0.00    -0.207 F 
ENDBRANCH  20  23
ENDBRANCH  18  20
ENDBRANCH  11  14
ENDBRANCH   9  10
ENDBRANCH   8   9
ENDBRANCH   7   8
ENDBRANCH   5   7
ENDBRANCH   2   3
ENDBRANCH   1   2
BRANCH   1  30
ATOM     30  C   UNL A   1      41.067  28.611  27.537  1.00  0.00     0.002 C 
BRANCH  30  31
ATOM     31  C   UNL A   1      41.509  27.566  28.564  1.00  0.00     0.002 C 
BRANCH  31  32
ATOM     32  C   UNL A   1      40.581  26.356  28.680  1.00  0.00     0.021 C 
BRANCH  32  33
ATOM     33  C   UNL A   1      40.930  25.168  27.790  1.00  0.00     0.116 C 
BRANCH  33  34
ATOM     34  N   UNL A   1      41.612  24.109  28.517  1.00  0.00    -0.352 N 
ATOM     35  C   UNL A   1      42.947  23.929  28.788  1.00  0.00     0.251 C 
ATOM     36  H   UNL A   1      41.021  23.406  28.873  1.00  0.00     0.163 HD
ATOM     37  O   UNL A   1      43.316  22.862  29.278  1.00  0.00    -0.269 OA
BRANCH  35  38
ATOM     38  C   UNL A   1      43.943  24.987  28.489  1.00  0.00     0.039 A 
ATOM     39  C   UNL A   1      44.335  25.183  27.160  1.00  0.00     0.014 A 
ATOM     40  C   UNL A   1      44.521  25.764  29.497  1.00  0.00     0.014 A 
ATOM     41  C   UNL A   1      45.250  26.193  26.840  1.00  0.00     0.010 A 
ATOM     42  C   UNL A   1      45.367  26.823  29.169  1.00  0.00     0.010 A 
ATOM     43  C   UNL A   1      45.746  27.048  27.837  1.00  0.00    -0.014 A 
BRANCH  43  44
ATOM     44  C   UNL A   1      46.634  28.194  27.502  1.00  0.00     0.031 A 
ATOM     45  C   UNL A   1      48.132  28.028  27.478  1.00  0.00     0.074 A 
ATOM     46  C   UNL A   1      46.093  29.413  27.294  1.00  0.00     0.049 A 
ATOM     47  N   UNL A   1      49.053  28.926  27.242  1.00  0.00    -0.248 NA
ATOM     48  C   UNL A   1      48.668  26.691  27.783  1.00  0.00     0.031 C 
ATOM     49  C   UNL A   1      44.665  29.727  27.378  1.00  0.00     0.029 A 
ATOM     50  N   UNL A   1      46.680  30.618  26.992  1.00  0.00    -0.354 N 
ATOM     51  C   UNL A   1      50.271  28.277  27.404  1.00  0.00     0.074 A 
ATOM     52  C   UNL A   1      49.976  26.914  27.786  1.00  0.00     0.031 C 
ATOM     53  C   UNL A   1      44.485  31.031  27.116  1.00  0.00     0.029 A 
ATOM     54  C   UNL A   1      45.782  31.654  26.869  1.00  0.00     0.049 A 
ATOM     55  H   UNL A   1      47.650  30.729  26.872  1.00  0.00     0.167 HD
ATOM     56  C   UNL A   1      51.521  28.760  27.216  1.00  0.00     0.034 A 
ATOM     57  C   UNL A   1      45.977  32.958  26.583  1.00  0.00     0.034 A 
ATOM     58  C   UNL A   1      51.811  30.092  26.762  1.00  0.00     0.049 A 
ATOM     59  C   UNL A   1      47.370  33.447  26.297  1.00  0.00     0.074 A 
ATOM     60  C   UNL A   1      53.044  30.641  26.451  1.00  0.00     0.029 A 
ATOM     61  N   UNL A   1      50.866  31.080  26.542  1.00  0.00    -0.354 N 
ATOM     62  N   UNL A   1      48.494  32.773  26.300  1.00  0.00    -0.248 NA
ATOM     63  C   UNL A   1      47.523  34.864  25.929  1.00  0.00     0.031 C 
ATOM     64  C   UNL A   1      52.844  31.962  26.046  1.00  0.00     0.029 A 
ATOM     65  C   UNL A   1      51.486  32.233  26.095  1.00  0.00     0.049 A 
ATOM     66  H   UNL A   1      49.897  30.976  26.683  1.00  0.00     0.167 HD
ATOM     67  C   UNL A   1      49.479  33.670  25.903  1.00  0.00     0.074 A 
ATOM     68  C   UNL A   1      48.820  34.934  25.652  1.00  0.00     0.031 C 
ATOM     69  C   UNL A   1      50.812  33.463  25.773  1.00  0.00     0.034 A 
BRANCH  56  70
ATOM     70  C   UNL A   1      52.686  27.825  27.409  1.00  0.00     0.023 A 
ATOM     71  C   UNL A   1      53.320  27.775  28.667  1.00  0.00     0.012 A 
ATOM     72  C   UNL A   1      53.066  26.917  26.403  1.00  0.00     0.148 A 
ATOM     73  C   UNL A   1      54.325  26.842  28.917  1.00  0.00     0.002 A 
ATOM     74  C   UNL A   1      54.043  25.965  26.672  1.00  0.00     0.091 A 
ATOM     75  F   UNL A   1      52.459  26.993  25.210  1.00  0.00    -0.205 F 
ATOM     76  C   UNL A   1      54.676  25.930  27.926  1.00  0.00     0.022 A 
BRANCH  74  77
ATOM     77  S   UNL A   1      54.515  24.693  25.493  1.00  0.00     0.127 S 
ATOM     78  O   UNL A   1      53.286  23.904  25.405  1.00  0.00    -0.237 OA
ATOM     79  O   UNL A   1      54.821  25.479  24.297  1.00  0.00    -0.237 OA
ATOM     80  O   UNL A   1      55.655  24.003  26.077  1.00  0.00    -0.744 OA
ENDBRANCH  74  77
ENDBRANCH  56  70
BRANCH  57  81
ATOM     81  C   UNL A   1      44.799  33.862  26.446  1.00  0.00     0.023 A 
ATOM     82  C   UNL A   1      44.146  33.951  25.201  1.00  0.00     0.012 A 
ATOM     83  C   UNL A   1      44.282  34.574  27.544  1.00  0.00     0.148 A 
ATOM     84  C   UNL A   1      43.012  34.749  25.049  1.00  0.00     0.002 A 
ATOM     85  C   UNL A   1      43.119  35.324  27.399  1.00  0.00     0.091 A 
ATOM     86  F   UNL A   1      44.927  34.493  28.718  1.00  0.00    -0.205 F 
ATOM     87  C   UNL A   1      42.490  35.423  26.150  1.00  0.00     0.022 A 
BRANCH  85  88
ATOM     88  S   UNL A   1      42.307  36.100  28.801  1.00  0.00     0.127 S 
ATOM     89  O   UNL A   1      43.088  35.589  29.923  1.00  0.00    -0.237 OA
ATOM     90  O   UNL A   1      42.494  37.524  28.519  1.00  0.00    -0.237 OA
ATOM     91  O   UNL A   1      40.919  35.660  28.734  1.00  0.00    -0.744 OA
ENDBRANCH  85  88
ENDBRANCH  57  81
BRANCH  69  92
ATOM     92  C   UNL A   1      51.673  34.607  25.312  1.00  0.00     0.023 A 
ATOM     93  C   UNL A   1      52.063  34.678  23.962  1.00  0.00     0.012 A 
ATOM     94  C   UNL A   1      51.960  35.682  26.178  1.00  0.00     0.148 A 
ATOM     95  C   UNL A   1      52.732  35.802  23.478  1.00  0.00     0.002 A 
ATOM     96  C   UNL A   1      52.592  36.815  25.680  1.00  0.00     0.091 A 
ATOM     97  F   UNL A   1      51.591  35.584  27.463  1.00  0.00    -0.205 F 
ATOM     98  C   UNL A   1      52.983  36.875  24.332  1.00  0.00     0.022 A 
BRANCH  96  99
ATOM     99  S   UNL A   1      52.869  38.285  26.677  1.00  0.00     0.127 S 
ATOM    100  O   UNL A   1      51.502  38.669  27.025  1.00  0.00    -0.237 OA
ATOM    101  O   UNL A   1      53.658  37.758  27.792  1.00  0.00    -0.237 OA
ATOM    102  O   UNL A   1      53.581  39.224  25.822  1.00  0.00    -0.744 OA
ENDBRANCH  96  99
ENDBRANCH  69  92
ENDBRANCH  43  44
ENDBRANCH  35  38
ENDBRANCH  33  34
ENDBRANCH  32  33
ENDBRANCH  31  32
ENDBRANCH  30  31
ENDBRANCH   1  30
TORSDOF 22
ENDMDL
