MODEL 1
REMARK VINA RESULT:     -11.7      0.000      0.000
REMARK SMILES CC1(C)C(NC(=O)[C@@H]2CCC[C@@H](C(=O)NCCCCCCNC(=O)c3ccc(-c4c5nc(c(-c6cccc(S(=O)(=O)[O-])c6F)c6ccc([nH]6)c(-c6cccc(S(=O)(=O)[O-])c6F)c6nc(c(-c7cccc(S(=O)(=O)[O-])c7F)c7ccc4[nH]7)C=C6)C=C5)cc3)C2)C1(C)C
REMARK SMILES IDX 19 1 18 2 17 3 16 4 15 5 13 6 14 7 12 9 8 10 9 11 88 12
REMARK SMILES IDX 10 13 11 14 6 15 5 16 7 18 4 19 1 20 2 21 3 22 89 23 90 24
REMARK SMILES IDX 91 25 20 26 21 27 22 28 23 29 24 31 25 32 26 33 87 34 27 35
REMARK SMILES IDX 86 36 28 37 29 38 30 39 80 40 31 41 85 42 79 43 81 44 32 45
REMARK SMILES IDX 84 46 78 47 77 48 33 50 65 51 45 52 64 53 46 54 49 55 63 56
REMARK SMILES IDX 82 57 47 58 48 59 62 61 83 62 50 63 34 64 35 65 43 66 36 67
REMARK SMILES IDX 38 68 44 69 37 70 39 71 40 72 41 73 42 74 66 75 67 76 75 77
REMARK SMILES IDX 68 78 70 79 76 80 69 81 71 82 72 83 73 84 74 85 51 86 52 87
REMARK SMILES IDX 60 88 53 89 55 90 61 91 54 92 56 93 57 94 58 95 59 96
REMARK H PARENT 15 8 5 17 22 30 81 49 49 60
REMARK Flexibility Score: inf
ROOT
ATOM      1  C   UNL A   1      34.355  31.154  28.237  1.00  0.00     0.002 C 
ENDROOT
BRANCH   1   2
ATOM      2  C   UNL A   1      34.496  30.135  27.103  1.00  0.00     0.002 C 
BRANCH   2   3
ATOM      3  C   UNL A   1      33.762  28.810  27.338  1.00  0.00     0.021 C 
BRANCH   3   4
ATOM      4  C   UNL A   1      32.241  28.933  27.311  1.00  0.00     0.116 C 
BRANCH   4   5
ATOM      5  N   UNL A   1      31.633  27.615  27.369  1.00  0.00    -0.356 N 
ATOM      6  C   UNL A   1      31.156  26.836  26.367  1.00  0.00     0.223 C 
ATOM      7  O   UNL A   1      30.496  25.838  26.655  1.00  0.00    -0.275 OA
ATOM      8  H   UNL A   1      31.556  27.230  28.272  1.00  0.00     0.163 HD
BRANCH   6   9
ATOM      9  C   UNL A   1      31.475  27.216  24.933  1.00  0.00     0.079 C 
ATOM     10  C   UNL A   1      32.401  25.128  23.674  1.00  0.00     0.079 C 
ATOM     11  C   UNL A   1      31.087  25.085  22.883  1.00  0.00     0.013 C 
ATOM     12  C   UNL A   1      32.688  26.404  24.475  1.00  0.00     0.027 C 
ATOM     13  C   UNL A   1      29.917  25.690  23.640  1.00  0.00     0.002 C 
ATOM     14  C   UNL A   1      30.229  27.119  24.053  1.00  0.00     0.013 C 
BRANCH  10  15
ATOM     15  C   UNL A   1      33.565  24.757  22.752  1.00  0.00     0.223 C 
ATOM     16  N   UNL A   1      34.408  23.720  23.067  1.00  0.00    -0.352 N 
ATOM     17  H   UNL A   1      35.175  23.601  22.461  1.00  0.00     0.163 HD
ATOM     18  O   UNL A   1      33.797  25.413  21.734  1.00  0.00    -0.275 OA
BRANCH  16  19
ATOM     19  C   UNL A   1      34.328  22.789  24.149  1.00  0.00     0.094 C 
ATOM     20  C   UNL A   1      35.348  20.514  24.902  1.00  0.00     0.014 C 
ATOM     21  C   UNL A   1      35.547  21.986  24.592  1.00  0.00    -0.007 C 
ATOM     22  C   UNL A   1      36.890  22.251  23.946  1.00  0.00     0.014 C 
ATOM     23  C   UNL A   1      34.903  23.038  25.522  1.00  0.00    -0.007 C 
ATOM     24  C   UNL A   1      34.029  22.585  26.676  1.00  0.00     0.014 C 
ATOM     25  C   UNL A   1      35.586  24.352  25.810  1.00  0.00     0.014 C 
ENDBRANCH  16  19
ENDBRANCH  10  15
ENDBRANCH   6   9
ENDBRANCH   4   5
ENDBRANCH   3   4
ENDBRANCH   2   3
ENDBRANCH   1   2
BRANCH   1  26
ATOM     26  C   UNL A   1      33.123  32.053  28.132  1.00  0.00     0.021 C 
BRANCH  26  27
ATOM     27  C   UNL A   1      33.278  33.213  27.158  1.00  0.00     0.116 C 
BRANCH  27  28
ATOM     28  N   UNL A   1      32.801  34.464  27.722  1.00  0.00    -0.352 N 
ATOM     29  C   UNL A   1      33.156  35.067  28.904  1.00  0.00     0.251 C 
ATOM     30  H   UNL A   1      32.132  34.946  27.184  1.00  0.00     0.163 HD
ATOM     31  O   UNL A   1      32.514  36.018  29.331  1.00  0.00    -0.269 OA
BRANCH  29  32
ATOM     32  C   UNL A   1      34.310  34.540  29.661  1.00  0.00     0.039 A 
ATOM     33  C   UNL A   1      34.089  33.945  30.905  1.00  0.00     0.014 A 
ATOM     34  C   UNL A   1      35.602  34.621  29.135  1.00  0.00     0.014 A 
ATOM     35  C   UNL A   1      35.163  33.385  31.599  1.00  0.00     0.010 A 
ATOM     36  C   UNL A   1      36.655  33.991  29.788  1.00  0.00     0.010 A 
ATOM     37  C   UNL A   1      36.449  33.377  31.032  1.00  0.00    -0.014 A 
BRANCH  37  38
ATOM     38  C   UNL A   1      37.591  32.731  31.728  1.00  0.00     0.031 A 
ATOM     39  C   UNL A   1      38.285  31.550  31.106  1.00  0.00     0.074 A 
ATOM     40  C   UNL A   1      37.952  33.158  32.954  1.00  0.00     0.049 A 
ATOM     41  N   UNL A   1      39.268  30.829  31.580  1.00  0.00    -0.248 NA
ATOM     42  C   UNL A   1      37.794  31.102  29.792  1.00  0.00     0.031 C 
ATOM     43  C   UNL A   1      37.308  34.246  33.694  1.00  0.00     0.029 A 
ATOM     44  N   UNL A   1      38.934  32.715  33.803  1.00  0.00    -0.354 N 
ATOM     45  C   UNL A   1      39.488  29.826  30.644  1.00  0.00     0.074 A 
ATOM     46  C   UNL A   1      38.510  30.006  29.594  1.00  0.00     0.031 C 
ATOM     47  C   UNL A   1      37.918  34.392  34.880  1.00  0.00     0.029 A 
ATOM     48  C   UNL A   1      38.970  33.388  35.002  1.00  0.00     0.049 A 
ATOM     49  H   UNL A   1      39.553  31.984  33.576  1.00  0.00     0.167 HD
ATOM     50  C   UNL A   1      40.436  28.858  30.643  1.00  0.00     0.034 A 
ATOM     51  C   UNL A   1      39.755  33.210  36.082  1.00  0.00     0.034 A 
ATOM     52  C   UNL A   1      41.425  28.702  31.674  1.00  0.00     0.049 A 
ATOM     53  C   UNL A   1      40.816  32.144  36.047  1.00  0.00     0.074 A 
ATOM     54  C   UNL A   1      42.480  27.809  31.725  1.00  0.00     0.029 A 
ATOM     55  N   UNL A   1      41.475  29.447  32.843  1.00  0.00    -0.354 N 
ATOM     56  N   UNL A   1      41.109  31.302  35.085  1.00  0.00    -0.248 NA
ATOM     57  C   UNL A   1      41.679  32.026  37.231  1.00  0.00     0.031 C 
ATOM     58  C   UNL A   1      43.145  27.988  32.943  1.00  0.00     0.029 A 
ATOM     59  C   UNL A   1      42.532  29.023  33.630  1.00  0.00     0.049 A 
ATOM     60  H   UNL A   1      40.851  30.171  33.078  1.00  0.00     0.167 HD
ATOM     61  C   UNL A   1      42.211  30.580  35.531  1.00  0.00     0.074 A 
ATOM     62  C   UNL A   1      42.544  31.098  36.842  1.00  0.00     0.031 C 
ATOM     63  C   UNL A   1      42.880  29.576  34.914  1.00  0.00     0.034 A 
BRANCH  50  64
ATOM     64  C   UNL A   1      40.469  27.915  29.467  1.00  0.00     0.023 A 
ATOM     65  C   UNL A   1      39.601  26.803  29.434  1.00  0.00     0.012 A 
ATOM     66  C   UNL A   1      41.328  28.149  28.376  1.00  0.00     0.148 A 
ATOM     67  C   UNL A   1      39.618  25.917  28.358  1.00  0.00     0.002 A 
ATOM     68  C   UNL A   1      41.304  27.291  27.284  1.00  0.00     0.091 A 
ATOM     69  F   UNL A   1      42.162  29.198  28.432  1.00  0.00    -0.205 F 
ATOM     70  C   UNL A   1      40.461  26.167  27.279  1.00  0.00     0.022 A 
BRANCH  68  71
ATOM     71  S   UNL A   1      42.291  27.571  25.809  1.00  0.00     0.127 S 
ATOM     72  O   UNL A   1      43.650  27.444  26.336  1.00  0.00    -0.237 OA
ATOM     73  O   UNL A   1      41.869  26.469  24.944  1.00  0.00    -0.237 OA
ATOM     74  O   UNL A   1      41.929  28.896  25.328  1.00  0.00    -0.744 OA
ENDBRANCH  68  71
ENDBRANCH  50  64
BRANCH  51  75
ATOM     75  C   UNL A   1      39.607  34.104  37.265  1.00  0.00     0.023 A 
ATOM     76  C   UNL A   1      40.047  35.440  37.183  1.00  0.00     0.012 A 
ATOM     77  C   UNL A   1      39.006  33.649  38.454  1.00  0.00     0.148 A 
ATOM     78  C   UNL A   1      39.922  36.297  38.277  1.00  0.00     0.002 A 
ATOM     79  C   UNL A   1      38.833  34.524  39.520  1.00  0.00     0.091 A 
ATOM     80  F   UNL A   1      38.599  32.373  38.511  1.00  0.00    -0.205 F 
ATOM     81  C   UNL A   1      39.306  35.843  39.441  1.00  0.00     0.022 A 
BRANCH  79  82
ATOM     82  S   UNL A   1      37.937  34.067  41.007  1.00  0.00     0.127 S 
ATOM     83  O   UNL A   1      36.799  33.334  40.458  1.00  0.00    -0.237 OA
ATOM     84  O   UNL A   1      38.922  33.243  41.709  1.00  0.00    -0.237 OA
ATOM     85  O   UNL A   1      37.614  35.320  41.678  1.00  0.00    -0.744 OA
ENDBRANCH  79  82
ENDBRANCH  51  75
BRANCH  63  86
ATOM     86  C   UNL A   1      44.073  28.989  35.625  1.00  0.00     0.023 A 
ATOM     87  C   UNL A   1      45.351  29.559  35.453  1.00  0.00     0.012 A 
ATOM     88  C   UNL A   1      43.910  27.916  36.524  1.00  0.00     0.148 A 
ATOM     89  C   UNL A   1      46.453  29.046  36.135  1.00  0.00     0.002 A 
ATOM     90  C   UNL A   1      45.003  27.446  37.242  1.00  0.00     0.091 A 
ATOM     91  F   UNL A   1      42.690  27.377  36.662  1.00  0.00    -0.205 F 
ATOM     92  C   UNL A   1      46.277  28.000  37.038  1.00  0.00     0.022 A 
BRANCH  90  93
ATOM     93  S   UNL A   1      44.855  26.171  38.499  1.00  0.00     0.127 S 
ATOM     94  O   UNL A   1      46.257  25.919  38.832  1.00  0.00    -0.237 OA
ATOM     95  O   UNL A   1      44.093  26.855  39.544  1.00  0.00    -0.237 OA
ATOM     96  O   UNL A   1      44.156  25.061  37.867  1.00  0.00    -0.744 OA
ENDBRANCH  90  93
ENDBRANCH  63  86
ENDBRANCH  37  38
ENDBRANCH  29  32
ENDBRANCH  27  28
ENDBRANCH  26  27
ENDBRANCH   1  26
TORSDOF 18
ENDMDL
MODEL 2
REMARK VINA RESULT:     -11.3      5.930     12.057
REMARK SMILES CC1(C)C(NC(=O)[C@@H]2CCC[C@@H](C(=O)NCCCCCCNC(=O)c3ccc(-c4c5nc(c(-c6cccc(S(=O)(=O)[O-])c6F)c6ccc([nH]6)c(-c6cccc(S(=O)(=O)[O-])c6F)c6nc(c(-c7cccc(S(=O)(=O)[O-])c7F)c7ccc4[nH]7)C=C6)C=C5)cc3)C2)C1(C)C
REMARK SMILES IDX 19 1 18 2 17 3 16 4 15 5 13 6 14 7 12 9 8 10 9 11 88 12
REMARK SMILES IDX 10 13 11 14 6 15 5 16 7 18 4 19 1 20 2 21 3 22 89 23 90 24
REMARK SMILES IDX 91 25 20 26 21 27 22 28 23 29 24 31 25 32 26 33 87 34 27 35
REMARK SMILES IDX 86 36 28 37 29 38 30 39 80 40 31 41 85 42 79 43 81 44 32 45
REMARK SMILES IDX 84 46 78 47 77 48 33 50 65 51 45 52 64 53 46 54 49 55 63 56
REMARK SMILES IDX 82 57 47 58 48 59 62 61 83 62 50 63 34 64 35 65 43 66 36 67
REMARK SMILES IDX 38 68 44 69 37 70 39 71 40 72 41 73 42 74 66 75 67 76 75 77
REMARK SMILES IDX 68 78 70 79 76 80 69 81 71 82 72 83 73 84 74 85 51 86 52 87
REMARK SMILES IDX 60 88 53 89 55 90 61 91 54 92 56 93 57 94 58 95 59 96
REMARK H PARENT 15 8 5 17 22 30 81 49 49 60
REMARK Flexibility Score: inf
ROOT
ATOM      1  C   UNL A   1      39.651  22.251  25.882  1.00  0.00     0.002 C 
ENDROOT
BRANCH   1   2
ATOM      2  C   UNL A   1      38.779  23.277  26.611  1.00  0.00     0.002 C 
BRANCH   2   3
ATOM      3  C   UNL A   1      37.460  23.612  25.905  1.00  0.00     0.021 C 
BRANCH   3   4
ATOM      4  C   UNL A   1      36.948  22.501  24.994  1.00  0.00     0.116 C 
BRANCH   4   5
ATOM      5  N   UNL A   1      36.259  23.072  23.850  1.00  0.00    -0.356 N 
ATOM      6  C   UNL A   1      34.958  22.967  23.481  1.00  0.00     0.223 C 
ATOM      7  O   UNL A   1      34.624  23.364  22.365  1.00  0.00    -0.275 OA
ATOM      8  H   UNL A   1      36.821  23.617  23.253  1.00  0.00     0.163 HD
BRANCH   6   9
ATOM      9  C   UNL A   1      33.964  22.385  24.470  1.00  0.00     0.079 C 
ATOM     10  C   UNL A   1      32.143  24.171  25.014  1.00  0.00     0.079 C 
ATOM     11  C   UNL A   1      31.144  23.322  24.217  1.00  0.00     0.013 C 
ATOM     12  C   UNL A   1      33.476  23.510  25.385  1.00  0.00     0.027 C 
ATOM     13  C   UNL A   1      31.806  22.478  23.142  1.00  0.00     0.002 C 
ATOM     14  C   UNL A   1      32.879  21.587  23.747  1.00  0.00     0.013 C 
BRANCH  10  15
ATOM     15  C   UNL A   1      31.443  24.773  26.235  1.00  0.00     0.223 C 
ATOM     16  N   UNL A   1      31.284  26.131  26.356  1.00  0.00    -0.352 N 
ATOM     17  H   UNL A   1      30.895  26.437  27.207  1.00  0.00     0.163 HD
ATOM     18  O   UNL A   1      31.054  24.052  27.157  1.00  0.00    -0.275 OA
BRANCH  16  19
ATOM     19  C   UNL A   1      31.602  27.164  25.419  1.00  0.00     0.094 C 
ATOM     20  C   UNL A   1      31.224  29.715  25.060  1.00  0.00     0.014 C 
ATOM     21  C   UNL A   1      31.845  28.597  25.877  1.00  0.00    -0.007 C 
ATOM     22  C   UNL A   1      31.854  28.918  27.357  1.00  0.00     0.014 C 
ATOM     23  C   UNL A   1      32.979  27.757  25.250  1.00  0.00    -0.007 C 
ATOM     24  C   UNL A   1      33.396  28.010  23.814  1.00  0.00     0.014 C 
ATOM     25  C   UNL A   1      34.118  27.229  26.087  1.00  0.00     0.014 C 
ENDBRANCH  16  19
ENDBRANCH  10  15
ENDBRANCH   6   9
ENDBRANCH   4   5
ENDBRANCH   3   4
ENDBRANCH   2   3
ENDBRANCH   1   2
BRANCH   1  26
ATOM     26  C   UNL A   1      39.788  20.909  26.602  1.00  0.00     0.021 C 
BRANCH  26  27
ATOM     27  C   UNL A   1      39.921  19.712  25.669  1.00  0.00     0.116 C 
BRANCH  27  28
ATOM     28  N   UNL A   1      41.007  18.831  26.067  1.00  0.00    -0.352 N 
ATOM     29  C   UNL A   1      42.297  19.155  26.408  1.00  0.00     0.251 C 
ATOM     30  H   UNL A   1      40.787  17.872  26.097  1.00  0.00     0.163 HD
ATOM     31  O   UNL A   1      43.144  18.279  26.524  1.00  0.00    -0.269 OA
BRANCH  29  32
ATOM     32  C   UNL A   1      42.652  20.574  26.613  1.00  0.00     0.039 A 
ATOM     33  C   UNL A   1      42.571  21.113  27.899  1.00  0.00     0.014 A 
ATOM     34  C   UNL A   1      43.078  21.363  25.541  1.00  0.00     0.014 A 
ATOM     35  C   UNL A   1      42.966  22.434  28.117  1.00  0.00     0.010 A 
ATOM     36  C   UNL A   1      43.549  22.650  25.775  1.00  0.00     0.010 A 
ATOM     37  C   UNL A   1      43.487  23.203  27.062  1.00  0.00    -0.014 A 
BRANCH  37  38
ATOM     38  C   UNL A   1      43.971  24.589  27.288  1.00  0.00     0.031 A 
ATOM     39  C   UNL A   1      43.023  25.650  27.775  1.00  0.00     0.074 A 
ATOM     40  C   UNL A   1      45.243  24.908  26.980  1.00  0.00     0.049 A 
ATOM     41  N   UNL A   1      43.248  26.921  27.988  1.00  0.00    -0.248 NA
ATOM     42  C   UNL A   1      41.632  25.239  28.031  1.00  0.00     0.031 C 
ATOM     43  C   UNL A   1      46.237  23.984  26.429  1.00  0.00     0.029 A 
ATOM     44  N   UNL A   1      45.911  26.103  27.064  1.00  0.00    -0.354 N 
ATOM     45  C   UNL A   1      42.027  27.465  28.367  1.00  0.00     0.074 A 
ATOM     46  C   UNL A   1      41.055  26.396  28.316  1.00  0.00     0.031 C 
ATOM     47  C   UNL A   1      47.390  24.644  26.235  1.00  0.00     0.029 A 
ATOM     48  C   UNL A   1      47.209  26.042  26.612  1.00  0.00     0.049 A 
ATOM     49  H   UNL A   1      45.500  26.927  27.414  1.00  0.00     0.167 HD
ATOM     50  C   UNL A   1      41.744  28.733  28.750  1.00  0.00     0.034 A 
ATOM     51  C   UNL A   1      48.144  27.006  26.504  1.00  0.00     0.034 A 
ATOM     52  C   UNL A   1      42.721  29.785  28.829  1.00  0.00     0.049 A 
ATOM     53  C   UNL A   1      47.812  28.401  26.958  1.00  0.00     0.074 A 
ATOM     54  C   UNL A   1      42.554  31.080  29.286  1.00  0.00     0.029 A 
ATOM     55  N   UNL A   1      44.044  29.669  28.429  1.00  0.00    -0.354 N 
ATOM     56  N   UNL A   1      46.692  28.862  27.459  1.00  0.00    -0.248 NA
ATOM     57  C   UNL A   1      48.885  29.402  26.865  1.00  0.00     0.031 C 
ATOM     58  C   UNL A   1      43.767  31.759  29.125  1.00  0.00     0.029 A 
ATOM     59  C   UNL A   1      44.701  30.873  28.611  1.00  0.00     0.049 A 
ATOM     60  H   UNL A   1      44.454  28.850  28.068  1.00  0.00     0.167 HD
ATOM     61  C   UNL A   1      46.934  30.194  27.777  1.00  0.00     0.074 A 
ATOM     62  C   UNL A   1      48.315  30.460  27.428  1.00  0.00     0.031 C 
ATOM     63  C   UNL A   1      46.087  31.114  28.301  1.00  0.00     0.034 A 
BRANCH  50  64
ATOM     64  C   UNL A   1      40.324  29.041  29.150  1.00  0.00     0.023 A 
ATOM     65  C   UNL A   1      39.376  29.387  28.165  1.00  0.00     0.012 A 
ATOM     66  C   UNL A   1      39.915  28.947  30.495  1.00  0.00     0.148 A 
ATOM     67  C   UNL A   1      38.058  29.679  28.513  1.00  0.00     0.002 A 
ATOM     68  C   UNL A   1      38.588  29.189  30.830  1.00  0.00     0.091 A 
ATOM     69  F   UNL A   1      40.832  28.637  31.422  1.00  0.00    -0.205 F 
ATOM     70  C   UNL A   1      37.662  29.569  29.844  1.00  0.00     0.022 A 
BRANCH  68  71
ATOM     71  S   UNL A   1      37.959  28.994  32.501  1.00  0.00     0.127 S 
ATOM     72  O   UNL A   1      38.154  27.561  32.724  1.00  0.00    -0.237 OA
ATOM     73  O   UNL A   1      38.858  29.857  33.269  1.00  0.00    -0.237 OA
ATOM     74  O   UNL A   1      36.574  29.438  32.464  1.00  0.00    -0.744 OA
ENDBRANCH  68  71
ENDBRANCH  50  64
BRANCH  51  75
ATOM     75  C   UNL A   1      49.504  26.667  25.998  1.00  0.00     0.023 A 
ATOM     76  C   UNL A   1      50.368  25.893  26.796  1.00  0.00     0.012 A 
ATOM     77  C   UNL A   1      49.933  27.080  24.721  1.00  0.00     0.148 A 
ATOM     78  C   UNL A   1      51.648  25.565  26.347  1.00  0.00     0.002 A 
ATOM     79  C   UNL A   1      51.187  26.702  24.257  1.00  0.00     0.091 A 
ATOM     80  F   UNL A   1      49.097  27.821  23.981  1.00  0.00    -0.205 F 
ATOM     81  C   UNL A   1      52.053  25.960  25.075  1.00  0.00     0.022 A 
BRANCH  79  82
ATOM     82  S   UNL A   1      51.743  27.054  22.587  1.00  0.00     0.127 S 
ATOM     83  O   UNL A   1      50.566  26.700  21.798  1.00  0.00    -0.237 OA
ATOM     84  O   UNL A   1      52.028  28.487  22.661  1.00  0.00    -0.237 OA
ATOM     85  O   UNL A   1      52.918  26.218  22.375  1.00  0.00    -0.744 OA
ENDBRANCH  79  82
ENDBRANCH  51  75
BRANCH  63  86
ATOM     86  C   UNL A   1      46.634  32.491  28.575  1.00  0.00     0.023 A 
ATOM     87  C   UNL A   1      47.185  32.797  29.836  1.00  0.00     0.012 A 
ATOM     88  C   UNL A   1      46.668  33.461  27.553  1.00  0.00     0.148 A 
ATOM     89  C   UNL A   1      47.727  34.056  30.087  1.00  0.00     0.002 A 
ATOM     90  C   UNL A   1      47.259  34.696  27.793  1.00  0.00     0.091 A 
ATOM     91  F   UNL A   1      46.125  33.158  26.365  1.00  0.00    -0.205 F 
ATOM     92  C   UNL A   1      47.775  35.000  29.063  1.00  0.00     0.022 A 
BRANCH  90  93
ATOM     93  S   UNL A   1      47.457  35.936  26.509  1.00  0.00     0.127 S 
ATOM     94  O   UNL A   1      48.232  35.204  25.507  1.00  0.00    -0.237 OA
ATOM     95  O   UNL A   1      46.072  36.210  26.128  1.00  0.00    -0.237 OA
ATOM     96  O   UNL A   1      48.147  37.057  27.133  1.00  0.00    -0.744 OA
ENDBRANCH  90  93
ENDBRANCH  63  86
ENDBRANCH  37  38
ENDBRANCH  29  32
ENDBRANCH  27  28
ENDBRANCH  26  27
ENDBRANCH   1  26
TORSDOF 18
ENDMDL
MODEL 3
REMARK VINA RESULT:     -11.3      6.194     10.621
REMARK SMILES CC1(C)C(NC(=O)[C@@H]2CCC[C@@H](C(=O)NCCCCCCNC(=O)c3ccc(-c4c5nc(c(-c6cccc(S(=O)(=O)[O-])c6F)c6ccc([nH]6)c(-c6cccc(S(=O)(=O)[O-])c6F)c6nc(c(-c7cccc(S(=O)(=O)[O-])c7F)c7ccc4[nH]7)C=C6)C=C5)cc3)C2)C1(C)C
REMARK SMILES IDX 19 1 18 2 17 3 16 4 15 5 13 6 14 7 12 9 8 10 9 11 88 12
REMARK SMILES IDX 10 13 11 14 6 15 5 16 7 18 4 19 1 20 2 21 3 22 89 23 90 24
REMARK SMILES IDX 91 25 20 26 21 27 22 28 23 29 24 31 25 32 26 33 87 34 27 35
REMARK SMILES IDX 86 36 28 37 29 38 30 39 80 40 31 41 85 42 79 43 81 44 32 45
REMARK SMILES IDX 84 46 78 47 77 48 33 50 65 51 45 52 64 53 46 54 49 55 63 56
REMARK SMILES IDX 82 57 47 58 48 59 62 61 83 62 50 63 34 64 35 65 43 66 36 67
REMARK SMILES IDX 38 68 44 69 37 70 39 71 40 72 41 73 42 74 66 75 67 76 75 77
REMARK SMILES IDX 68 78 70 79 76 80 69 81 71 82 72 83 73 84 74 85 51 86 52 87
REMARK SMILES IDX 60 88 53 89 55 90 61 91 54 92 56 93 57 94 58 95 59 96
REMARK H PARENT 15 8 5 17 22 30 81 49 49 60
REMARK Flexibility Score: inf
ROOT
ATOM      1  C   UNL A   1      40.875  21.342  27.574  1.00  0.00     0.002 C 
ENDROOT
BRANCH   1   2
ATOM      2  C   UNL A   1      40.309  22.615  26.939  1.00  0.00     0.002 C 
BRANCH   2   3
ATOM      3  C   UNL A   1      38.990  22.419  26.182  1.00  0.00     0.021 C 
BRANCH   3   4
ATOM      4  C   UNL A   1      38.129  23.676  26.106  1.00  0.00     0.116 C 
BRANCH   4   5
ATOM      5  N   UNL A   1      37.265  23.620  24.940  1.00  0.00    -0.356 N 
ATOM      6  C   UNL A   1      36.014  23.113  24.812  1.00  0.00     0.223 C 
ATOM      7  O   UNL A   1      35.539  22.985  23.684  1.00  0.00    -0.275 OA
ATOM      8  H   UNL A   1      37.646  24.009  24.119  1.00  0.00     0.163 HD
BRANCH   6   9
ATOM      9  C   UNL A   1      35.244  22.746  26.067  1.00  0.00     0.079 C 
ATOM     10  C   UNL A   1      32.768  23.524  25.818  1.00  0.00     0.079 C 
ATOM     11  C   UNL A   1      32.369  22.047  25.698  1.00  0.00     0.013 C 
ATOM     12  C   UNL A   1      34.186  23.822  26.319  1.00  0.00     0.027 C 
ATOM     13  C   UNL A   1      33.481  21.174  25.145  1.00  0.00     0.002 C 
ATOM     14  C   UNL A   1      34.736  21.307  25.994  1.00  0.00     0.013 C 
BRANCH  10  15
ATOM     15  C   UNL A   1      31.706  24.277  26.624  1.00  0.00     0.223 C 
ATOM     16  N   UNL A   1      31.783  25.637  26.790  1.00  0.00    -0.352 N 
ATOM     17  H   UNL A   1      31.105  26.029  27.387  1.00  0.00     0.163 HD
ATOM     18  O   UNL A   1      30.790  23.669  27.182  1.00  0.00    -0.275 OA
BRANCH  16  19
ATOM     19  C   UNL A   1      32.707  26.566  26.216  1.00  0.00     0.094 C 
ATOM     20  C   UNL A   1      33.227  27.711  23.936  1.00  0.00     0.014 C 
ATOM     21  C   UNL A   1      32.280  27.521  25.107  1.00  0.00    -0.007 C 
ATOM     22  C   UNL A   1      30.830  27.563  24.674  1.00  0.00     0.014 C 
ATOM     23  C   UNL A   1      32.699  28.048  26.497  1.00  0.00    -0.007 C 
ATOM     24  C   UNL A   1      34.068  28.673  26.682  1.00  0.00     0.014 C 
ATOM     25  C   UNL A   1      31.683  28.612  27.460  1.00  0.00     0.014 C 
ENDBRANCH  16  19
ENDBRANCH  10  15
ENDBRANCH   6   9
ENDBRANCH   4   5
ENDBRANCH   3   4
ENDBRANCH   2   3
ENDBRANCH   1   2
BRANCH   1  26
ATOM     26  C   UNL A   1      41.112  20.194  26.593  1.00  0.00     0.021 C 
BRANCH  26  27
ATOM     27  C   UNL A   1      42.363  19.375  26.883  1.00  0.00     0.116 C 
BRANCH  27  28
ATOM     28  N   UNL A   1      43.168  19.173  25.690  1.00  0.00    -0.352 N 
ATOM     29  C   UNL A   1      43.808  20.108  24.914  1.00  0.00     0.251 C 
ATOM     30  H   UNL A   1      43.269  18.238  25.398  1.00  0.00     0.163 HD
ATOM     31  O   UNL A   1      44.278  19.795  23.828  1.00  0.00    -0.269 OA
BRANCH  29  32
ATOM     32  C   UNL A   1      43.904  21.500  25.400  1.00  0.00     0.039 A 
ATOM     33  C   UNL A   1      44.536  21.749  26.620  1.00  0.00     0.014 A 
ATOM     34  C   UNL A   1      43.385  22.555  24.643  1.00  0.00     0.014 A 
ATOM     35  C   UNL A   1      44.690  23.066  27.058  1.00  0.00     0.010 A 
ATOM     36  C   UNL A   1      43.614  23.868  25.040  1.00  0.00     0.010 A 
ATOM     37  C   UNL A   1      44.257  24.137  26.256  1.00  0.00    -0.014 A 
BRANCH  37  38
ATOM     38  C   UNL A   1      44.470  25.545  26.676  1.00  0.00     0.031 A 
ATOM     39  C   UNL A   1      45.839  26.161  26.591  1.00  0.00     0.074 A 
ATOM     40  C   UNL A   1      43.447  26.243  27.207  1.00  0.00     0.049 A 
ATOM     41  N   UNL A   1      46.229  27.356  26.950  1.00  0.00    -0.248 NA
ATOM     42  C   UNL A   1      46.921  25.315  26.058  1.00  0.00     0.031 C 
ATOM     43  C   UNL A   1      42.090  25.731  27.411  1.00  0.00     0.029 A 
ATOM     44  N   UNL A   1      43.395  27.525  27.692  1.00  0.00    -0.354 N 
ATOM     45  C   UNL A   1      47.599  27.395  26.721  1.00  0.00     0.074 A 
ATOM     46  C   UNL A   1      47.982  26.090  26.230  1.00  0.00     0.031 C 
ATOM     47  C   UNL A   1      41.337  26.693  27.969  1.00  0.00     0.029 A 
ATOM     48  C   UNL A   1      42.164  27.874  28.196  1.00  0.00     0.049 A 
ATOM     49  H   UNL A   1      44.166  28.137  27.682  1.00  0.00     0.167 HD
ATOM     50  C   UNL A   1      48.459  28.430  26.879  1.00  0.00     0.034 A 
ATOM     51  C   UNL A   1      41.749  29.013  28.784  1.00  0.00     0.034 A 
ATOM     52  C   UNL A   1      48.068  29.735  27.338  1.00  0.00     0.049 A 
ATOM     53  C   UNL A   1      42.716  30.156  28.925  1.00  0.00     0.074 A 
ATOM     54  C   UNL A   1      48.844  30.874  27.451  1.00  0.00     0.029 A 
ATOM     55  N   UNL A   1      46.796  30.073  27.774  1.00  0.00    -0.354 N 
ATOM     56  N   UNL A   1      43.974  30.224  28.561  1.00  0.00    -0.248 NA
ATOM     57  C   UNL A   1      42.198  31.393  29.527  1.00  0.00     0.031 C 
ATOM     58  C   UNL A   1      48.050  31.891  27.992  1.00  0.00     0.029 A 
ATOM     59  C   UNL A   1      46.768  31.398  28.175  1.00  0.00     0.049 A 
ATOM     60  H   UNL A   1      46.025  29.460  27.797  1.00  0.00     0.167 HD
ATOM     61  C   UNL A   1      44.387  31.519  28.852  1.00  0.00     0.074 A 
ATOM     62  C   UNL A   1      43.240  32.207  29.408  1.00  0.00     0.031 C 
ATOM     63  C   UNL A   1      45.609  32.084  28.684  1.00  0.00     0.034 A 
BRANCH  50  64
ATOM     64  C   UNL A   1      49.903  28.200  26.513  1.00  0.00     0.023 A 
ATOM     65  C   UNL A   1      50.307  28.284  25.165  1.00  0.00     0.012 A 
ATOM     66  C   UNL A   1      50.868  27.942  27.506  1.00  0.00     0.148 A 
ATOM     67  C   UNL A   1      51.637  28.072  24.804  1.00  0.00     0.002 A 
ATOM     68  C   UNL A   1      52.200  27.783  27.146  1.00  0.00     0.091 A 
ATOM     69  F   UNL A   1      50.464  27.844  28.781  1.00  0.00    -0.205 F 
ATOM     70  C   UNL A   1      52.585  27.832  25.796  1.00  0.00     0.022 A 
BRANCH  68  71
ATOM     71  S   UNL A   1      53.510  27.551  28.354  1.00  0.00     0.127 S 
ATOM     72  O   UNL A   1      53.122  26.282  28.971  1.00  0.00    -0.237 OA
ATOM     73  O   UNL A   1      54.700  27.477  27.506  1.00  0.00    -0.237 OA
ATOM     74  O   UNL A   1      53.458  28.712  29.231  1.00  0.00    -0.744 OA
ENDBRANCH  68  71
ENDBRANCH  50  64
BRANCH  51  75
ATOM     75  C   UNL A   1      40.332  29.148  29.227  1.00  0.00     0.023 A 
ATOM     76  C   UNL A   1      39.329  29.405  28.272  1.00  0.00     0.012 A 
ATOM     77  C   UNL A   1      39.971  28.992  30.579  1.00  0.00     0.148 A 
ATOM     78  C   UNL A   1      37.996  29.539  28.661  1.00  0.00     0.002 A 
ATOM     79  C   UNL A   1      38.635  29.071  30.951  1.00  0.00     0.091 A 
ATOM     80  F   UNL A   1      40.943  28.754  31.471  1.00  0.00    -0.205 F 
ATOM     81  C   UNL A   1      37.647  29.362  29.998  1.00  0.00     0.022 A 
BRANCH  79  82
ATOM     82  S   UNL A   1      38.078  28.729  32.624  1.00  0.00     0.127 S 
ATOM     83  O   UNL A   1      38.247  27.280  32.706  1.00  0.00    -0.237 OA
ATOM     84  O   UNL A   1      39.027  29.507  33.420  1.00  0.00    -0.237 OA
ATOM     85  O   UNL A   1      36.704  29.208  32.691  1.00  0.00    -0.744 OA
ENDBRANCH  79  82
ENDBRANCH  51  75
BRANCH  63  86
ATOM     86  C   UNL A   1      45.766  33.534  29.063  1.00  0.00     0.023 A 
ATOM     87  C   UNL A   1      46.262  33.883  30.336  1.00  0.00     0.012 A 
ATOM     88  C   UNL A   1      45.490  34.550  28.127  1.00  0.00     0.148 A 
ATOM     89  C   UNL A   1      46.446  35.221  30.682  1.00  0.00     0.002 A 
ATOM     90  C   UNL A   1      45.728  35.878  28.460  1.00  0.00     0.091 A 
ATOM     91  F   UNL A   1      45.004  34.199  26.928  1.00  0.00    -0.205 F 
ATOM     92  C   UNL A   1      46.192  36.216  29.741  1.00  0.00     0.022 A 
BRANCH  90  93
ATOM     93  S   UNL A   1      45.526  37.219  27.282  1.00  0.00     0.127 S 
ATOM     94  O   UNL A   1      45.976  38.370  28.062  1.00  0.00    -0.237 OA
ATOM     95  O   UNL A   1      46.431  36.821  26.203  1.00  0.00    -0.237 OA
ATOM     96  O   UNL A   1      44.116  37.226  26.917  1.00  0.00    -0.744 OA
ENDBRANCH  90  93
ENDBRANCH  63  86
ENDBRANCH  37  38
ENDBRANCH  29  32
ENDBRANCH  27  28
ENDBRANCH  26  27
ENDBRANCH   1  26
TORSDOF 18
ENDMDL
