MODEL 1
REMARK VINA RESULT:     -12.2      0.000      0.000
REMARK SMILES Cc1cc(OC(F)(F)F)cc2c1O[C@H](C(F)(F)F)C(C(=O)NCCCCCCNC(=O)c1ccc(-c3c4nc(c(-c5cccc(S(=O)(=O)[O-])c5F)c5ccc([nH]5)c(-c5cccc(S(=O)(=O)[O-])c5F)c5nc(c(-c6cccc(S(=O)(=O)[O-])c6F)c6ccc3[nH]6)C=C5)C=C4)cc1)=C2
REMARK SMILES IDX 26 1 25 2 24 3 23 4 22 5 20 6 21 7 19 9 1 10 2 11 3 12 12 13
REMARK SMILES IDX 4 14 11 15 13 16 10 17 95 18 14 19 5 20 6 21 7 22 8 23 9 24
REMARK SMILES IDX 15 25 16 26 17 27 18 28 27 29 28 30 29 31 30 32 31 34 32 35
REMARK SMILES IDX 33 36 94 37 34 38 93 39 35 40 36 41 37 42 87 43 38 44 92 45
REMARK SMILES IDX 86 46 88 47 39 48 91 49 85 50 84 51 40 53 72 54 52 55 71 56
REMARK SMILES IDX 53 57 56 58 70 59 89 60 54 61 55 62 69 64 90 65 57 66 41 67
REMARK SMILES IDX 42 68 50 69 43 70 45 71 51 72 44 73 46 74 47 75 48 76 49 77
REMARK SMILES IDX 73 78 74 79 82 80 75 81 77 82 83 83 76 84 78 85 79 86 80 87
REMARK SMILES IDX 81 88 58 89 59 90 67 91 60 92 62 93 68 94 61 95 63 96 64 97
REMARK SMILES IDX 65 98 66 99
REMARK H PARENT 22 8 29 33 88 52 56 63
REMARK Flexibility Score: inf
ROOT
ATOM      1  C   UNL A   1      34.603  22.144  23.978  1.00  0.00     0.002 C 
ENDROOT
BRANCH   1   2
ATOM      2  C   UNL A   1      34.035  20.812  24.486  1.00  0.00     0.002 C 
BRANCH   2   3
ATOM      3  C   UNL A   1      32.771  20.923  25.345  1.00  0.00     0.021 C 
BRANCH   3   4
ATOM      4  C   UNL A   1      31.791  21.990  24.866  1.00  0.00     0.116 C 
BRANCH   4   5
ATOM      5  N   UNL A   1      30.884  22.401  25.926  1.00  0.00    -0.352 N 
ATOM      6  C   UNL A   1      30.437  23.564  26.451  1.00  0.00     0.251 C 
ATOM      7  O   UNL A   1      29.623  23.442  27.375  1.00  0.00    -0.270 OA
ATOM      8  H   UNL A   1      30.489  21.623  26.382  1.00  0.00     0.163 HD
BRANCH   6   9
ATOM      9  C   UNL A   1      30.846  24.932  26.010  1.00  0.00     0.067 C 
ATOM     10  C   UNL A   1      32.789  29.675  25.431  1.00  0.00     0.048 C 
ATOM     11  C   UNL A   1      31.722  28.855  24.757  1.00  0.00    -0.005 A 
ATOM     12  C   UNL A   1      31.070  29.372  23.626  1.00  0.00     0.054 A 
ATOM     13  C   UNL A   1      31.407  27.561  25.190  1.00  0.00     0.131 A 
ATOM     14  C   UNL A   1      30.095  28.626  22.961  1.00  0.00     0.130 A 
ATOM     15  C   UNL A   1      30.432  26.805  24.537  1.00  0.00     0.021 A 
ATOM     16  O   UNL A   1      32.050  27.101  26.300  1.00  0.00    -0.475 OA
ATOM     17  C   UNL A   1      29.781  27.343  23.424  1.00  0.00     0.058 A 
ATOM     18  C   UNL A   1      30.084  25.484  25.049  1.00  0.00     0.025 C 
ATOM     19  C   UNL A   1      32.049  25.670  26.530  1.00  0.00     0.314 C 
BRANCH  14  20
ATOM     20  O   UNL A   1      29.385  29.021  21.863  1.00  0.00    -0.406 OA
BRANCH  20  21
ATOM     21  C   UNL A   1      28.507  30.125  22.011  1.00  0.00     0.573 C 
ATOM     22  F   UNL A   1      27.777  30.023  23.141  1.00  0.00    -0.132 F 
ATOM     23  F   UNL A   1      29.183  31.291  22.008  1.00  0.00    -0.132 F 
ATOM     24  F   UNL A   1      27.651  30.136  20.964  1.00  0.00    -0.132 F 
ENDBRANCH  20  21
ENDBRANCH  14  20
BRANCH  19  25
ATOM     25  C   UNL A   1      33.374  25.075  26.022  1.00  0.00     0.429 C 
ATOM     26  F   UNL A   1      33.701  23.965  26.723  1.00  0.00    -0.167 F 
ATOM     27  F   UNL A   1      33.305  24.701  24.721  1.00  0.00    -0.167 F 
ATOM     28  F   UNL A   1      34.402  25.947  26.124  1.00  0.00    -0.167 F 
ENDBRANCH  19  25
ENDBRANCH   6   9
ENDBRANCH   4   5
ENDBRANCH   3   4
ENDBRANCH   2   3
ENDBRANCH   1   2
BRANCH   1  29
ATOM     29  C   UNL A   1      36.110  22.335  24.171  1.00  0.00     0.021 C 
BRANCH  29  30
ATOM     30  C   UNL A   1      36.574  22.273  25.623  1.00  0.00     0.116 C 
BRANCH  30  31
ATOM     31  N   UNL A   1      37.444  21.132  25.858  1.00  0.00    -0.352 N 
ATOM     32  C   UNL A   1      38.789  21.127  26.130  1.00  0.00     0.251 C 
ATOM     33  H   UNL A   1      37.012  20.249  25.818  1.00  0.00     0.163 HD
ATOM     34  O   UNL A   1      39.430  20.082  26.094  1.00  0.00    -0.269 OA
BRANCH  32  35
ATOM     35  C   UNL A   1      39.456  22.402  26.454  1.00  0.00     0.039 A 
ATOM     36  C   UNL A   1      39.102  23.555  25.751  1.00  0.00     0.014 A 
ATOM     37  C   UNL A   1      40.421  22.449  27.467  1.00  0.00     0.014 A 
ATOM     38  C   UNL A   1      39.690  24.773  26.093  1.00  0.00     0.010 A 
ATOM     39  C   UNL A   1      40.971  23.672  27.836  1.00  0.00     0.010 A 
ATOM     40  C   UNL A   1      40.617  24.841  27.145  1.00  0.00    -0.014 A 
BRANCH  40  41
ATOM     41  C   UNL A   1      41.251  26.127  27.518  1.00  0.00     0.031 A 
ATOM     42  C   UNL A   1      42.670  26.403  27.113  1.00  0.00     0.074 A 
ATOM     43  C   UNL A   1      40.568  27.019  28.261  1.00  0.00     0.049 A 
ATOM     44  N   UNL A   1      43.398  27.463  27.347  1.00  0.00    -0.248 NA
ATOM     45  C   UNL A   1      43.370  25.347  26.361  1.00  0.00     0.031 C 
ATOM     46  C   UNL A   1      39.207  26.832  28.765  1.00  0.00     0.029 A 
ATOM     47  N   UNL A   1      40.933  28.253  28.734  1.00  0.00    -0.354 N 
ATOM     48  C   UNL A   1      44.642  27.196  26.790  1.00  0.00     0.074 A 
ATOM     49  C   UNL A   1      44.584  25.863  26.233  1.00  0.00     0.031 C 
ATOM     50  C   UNL A   1      38.847  27.918  29.469  1.00  0.00     0.029 A 
ATOM     51  C   UNL A   1      39.955  28.871  29.476  1.00  0.00     0.049 A 
ATOM     52  H   UNL A   1      41.813  28.658  28.558  1.00  0.00     0.167 HD
ATOM     53  C   UNL A   1      45.722  28.005  26.716  1.00  0.00     0.034 A 
ATOM     54  C   UNL A   1      39.948  30.075  30.082  1.00  0.00     0.034 A 
ATOM     55  C   UNL A   1      45.760  29.347  27.222  1.00  0.00     0.049 A 
ATOM     56  C   UNL A   1      41.152  30.966  29.961  1.00  0.00     0.074 A 
ATOM     57  C   UNL A   1      46.783  30.271  27.121  1.00  0.00     0.029 A 
ATOM     58  N   UNL A   1      44.730  29.957  27.918  1.00  0.00    -0.354 N 
ATOM     59  N   UNL A   1      42.271  30.750  29.313  1.00  0.00    -0.248 NA
ATOM     60  C   UNL A   1      41.086  32.277  30.624  1.00  0.00     0.031 C 
ATOM     61  C   UNL A   1      46.372  31.444  27.760  1.00  0.00     0.029 A 
ATOM     62  C   UNL A   1      45.092  31.247  28.255  1.00  0.00     0.049 A 
ATOM     63  H   UNL A   1      43.869  29.535  28.139  1.00  0.00     0.167 HD
ATOM     64  C   UNL A   1      43.030  31.903  29.467  1.00  0.00     0.074 A 
ATOM     65  C   UNL A   1      42.243  32.822  30.263  1.00  0.00     0.031 C 
ATOM     66  C   UNL A   1      44.274  32.168  29.001  1.00  0.00     0.034 A 
BRANCH  53  67
ATOM     67  C   UNL A   1      46.932  27.493  25.989  1.00  0.00     0.023 A 
ATOM     68  C   UNL A   1      47.052  27.746  24.608  1.00  0.00     0.012 A 
ATOM     69  C   UNL A   1      47.978  26.847  26.674  1.00  0.00     0.148 A 
ATOM     70  C   UNL A   1      48.194  27.354  23.914  1.00  0.00     0.002 A 
ATOM     71  C   UNL A   1      49.125  26.482  25.980  1.00  0.00     0.091 A 
ATOM     72  F   UNL A   1      47.830  26.605  27.984  1.00  0.00    -0.205 F 
ATOM     73  C   UNL A   1      49.233  26.730  24.601  1.00  0.00     0.022 A 
BRANCH  71  74
ATOM     74  S   UNL A   1      50.543  25.717  26.774  1.00  0.00     0.127 S 
ATOM     75  O   UNL A   1      49.971  24.457  27.248  1.00  0.00    -0.237 OA
ATOM     76  O   UNL A   1      51.481  25.582  25.660  1.00  0.00    -0.237 OA
ATOM     77  O   UNL A   1      50.964  26.637  27.821  1.00  0.00    -0.744 OA
ENDBRANCH  71  74
ENDBRANCH  53  67
BRANCH  54  78
ATOM     78  C   UNL A   1      38.716  30.535  30.779  1.00  0.00     0.023 A 
ATOM     79  C   UNL A   1      38.624  30.380  32.175  1.00  0.00     0.012 A 
ATOM     80  C   UNL A   1      37.675  31.180  30.083  1.00  0.00     0.148 A 
ATOM     81  C   UNL A   1      37.509  30.850  32.868  1.00  0.00     0.002 A 
ATOM     82  C   UNL A   1      36.584  31.677  30.785  1.00  0.00     0.091 A 
ATOM     83  F   UNL A   1      37.789  31.313  28.754  1.00  0.00    -0.205 F 
ATOM     84  C   UNL A   1      36.494  31.506  32.176  1.00  0.00     0.022 A 
BRANCH  82  85
ATOM     85  S   UNL A   1      35.271  32.620  30.000  1.00  0.00     0.127 S 
ATOM     86  O   UNL A   1      34.766  31.666  29.015  1.00  0.00    -0.237 OA
ATOM     87  O   UNL A   1      34.374  32.876  31.127  1.00  0.00    -0.237 OA
ATOM     88  O   UNL A   1      35.909  33.807  29.451  1.00  0.00    -0.744 OA
ENDBRANCH  82  85
ENDBRANCH  54  78
BRANCH  66  89
ATOM     89  C   UNL A   1      44.885  33.504  29.317  1.00  0.00     0.023 A 
ATOM     90  C   UNL A   1      45.662  33.643  30.483  1.00  0.00     0.012 A 
ATOM     91  C   UNL A   1      44.827  34.558  28.385  1.00  0.00     0.148 A 
ATOM     92  C   UNL A   1      46.378  34.816  30.717  1.00  0.00     0.002 A 
ATOM     93  C   UNL A   1      45.570  35.711  28.609  1.00  0.00     0.091 A 
ATOM     94  F   UNL A   1      44.077  34.396  27.286  1.00  0.00    -0.205 F 
ATOM     95  C   UNL A   1      46.343  35.842  29.775  1.00  0.00     0.022 A 
BRANCH  93  96
ATOM     96  S   UNL A   1      45.658  37.055  27.420  1.00  0.00     0.127 S 
ATOM     97  O   UNL A   1      46.601  37.966  28.070  1.00  0.00    -0.237 OA
ATOM     98  O   UNL A   1      46.181  36.380  26.232  1.00  0.00    -0.237 OA
ATOM     99  O   UNL A   1      44.301  37.566  27.284  1.00  0.00    -0.744 OA
ENDBRANCH  93  96
ENDBRANCH  66  89
ENDBRANCH  40  41
ENDBRANCH  32  35
ENDBRANCH  30  31
ENDBRANCH  29  30
ENDBRANCH   1  29
TORSDOF 19
ENDMDL
MODEL 2
REMARK VINA RESULT:     -12.2      5.350     10.431
REMARK SMILES Cc1cc(OC(F)(F)F)cc2c1O[C@H](C(F)(F)F)C(C(=O)NCCCCCCNC(=O)c1ccc(-c3c4nc(c(-c5cccc(S(=O)(=O)[O-])c5F)c5ccc([nH]5)c(-c5cccc(S(=O)(=O)[O-])c5F)c5nc(c(-c6cccc(S(=O)(=O)[O-])c6F)c6ccc3[nH]6)C=C5)C=C4)cc1)=C2
REMARK SMILES IDX 26 1 25 2 24 3 23 4 22 5 20 6 21 7 19 9 1 10 2 11 3 12 12 13
REMARK SMILES IDX 4 14 11 15 13 16 10 17 95 18 14 19 5 20 6 21 7 22 8 23 9 24
REMARK SMILES IDX 15 25 16 26 17 27 18 28 27 29 28 30 29 31 30 32 31 34 32 35
REMARK SMILES IDX 33 36 94 37 34 38 93 39 35 40 36 41 37 42 87 43 38 44 92 45
REMARK SMILES IDX 86 46 88 47 39 48 91 49 85 50 84 51 40 53 72 54 52 55 71 56
REMARK SMILES IDX 53 57 56 58 70 59 89 60 54 61 55 62 69 64 90 65 57 66 41 67
REMARK SMILES IDX 42 68 50 69 43 70 45 71 51 72 44 73 46 74 47 75 48 76 49 77
REMARK SMILES IDX 73 78 74 79 82 80 75 81 77 82 83 83 76 84 78 85 79 86 80 87
REMARK SMILES IDX 81 88 58 89 59 90 67 91 60 92 62 93 68 94 61 95 63 96 64 97
REMARK SMILES IDX 65 98 66 99
REMARK H PARENT 22 8 29 33 88 52 56 63
REMARK Flexibility Score: inf
ROOT
ATOM      1  C   UNL A   1      31.818  29.016  25.437  1.00  0.00     0.002 C 
ENDROOT
BRANCH   1   2
ATOM      2  C   UNL A   1      31.462  28.720  23.974  1.00  0.00     0.002 C 
BRANCH   2   3
ATOM      3  C   UNL A   1      30.266  27.784  23.767  1.00  0.00     0.021 C 
BRANCH   3   4
ATOM      4  C   UNL A   1      30.658  26.352  23.415  1.00  0.00     0.116 C 
BRANCH   4   5
ATOM      5  N   UNL A   1      31.578  26.308  22.290  1.00  0.00    -0.352 N 
ATOM      6  C   UNL A   1      32.673  25.599  21.933  1.00  0.00     0.251 C 
ATOM      7  O   UNL A   1      33.153  25.896  20.833  1.00  0.00    -0.270 OA
ATOM      8  H   UNL A   1      31.340  26.973  21.604  1.00  0.00     0.163 HD
BRANCH   6   9
ATOM      9  C   UNL A   1      33.317  24.525  22.750  1.00  0.00     0.067 C 
ATOM     10  C   UNL A   1      36.397  21.482  25.553  1.00  0.00     0.048 C 
ATOM     11  C   UNL A   1      35.088  21.321  24.829  1.00  0.00    -0.005 A 
ATOM     12  C   UNL A   1      34.394  20.104  24.928  1.00  0.00     0.054 A 
ATOM     13  C   UNL A   1      34.510  22.375  24.111  1.00  0.00     0.131 A 
ATOM     14  C   UNL A   1      33.163  19.931  24.292  1.00  0.00     0.130 A 
ATOM     15  C   UNL A   1      33.283  22.216  23.466  1.00  0.00     0.021 A 
ATOM     16  O   UNL A   1      35.222  23.534  24.026  1.00  0.00    -0.475 OA
ATOM     17  C   UNL A   1      32.615  20.992  23.562  1.00  0.00     0.058 A 
ATOM     18  C   UNL A   1      32.737  23.313  22.677  1.00  0.00     0.025 C 
ATOM     19  C   UNL A   1      34.503  24.736  23.649  1.00  0.00     0.314 C 
BRANCH  14  20
ATOM     20  O   UNL A   1      32.401  18.798  24.302  1.00  0.00    -0.406 OA
BRANCH  20  21
ATOM     21  C   UNL A   1      32.800  17.728  23.462  1.00  0.00     0.573 C 
ATOM     22  F   UNL A   1      32.093  17.717  22.313  1.00  0.00    -0.132 F 
ATOM     23  F   UNL A   1      34.119  17.791  23.185  1.00  0.00    -0.132 F 
ATOM     24  F   UNL A   1      32.565  16.563  24.107  1.00  0.00    -0.132 F 
ENDBRANCH  20  21
ENDBRANCH  14  20
BRANCH  19  25
ATOM     25  C   UNL A   1      34.150  25.532  24.918  1.00  0.00     0.429 C 
ATOM     26  F   UNL A   1      34.112  26.858  24.657  1.00  0.00    -0.167 F 
ATOM     27  F   UNL A   1      32.931  25.202  25.410  1.00  0.00    -0.167 F 
ATOM     28  F   UNL A   1      35.040  25.331  25.916  1.00  0.00    -0.167 F 
ENDBRANCH  19  25
ENDBRANCH   6   9
ENDBRANCH   4   5
ENDBRANCH   3   4
ENDBRANCH   2   3
ENDBRANCH   1   2
BRANCH   1  29
ATOM     29  C   UNL A   1      31.651  30.475  25.875  1.00  0.00     0.021 C 
BRANCH  29  30
ATOM     30  C   UNL A   1      32.734  30.978  26.824  1.00  0.00     0.116 C 
BRANCH  30  31
ATOM     31  N   UNL A   1      32.713  32.427  26.938  1.00  0.00    -0.352 N 
ATOM     32  C   UNL A   1      33.500  33.232  27.723  1.00  0.00     0.251 C 
ATOM     33  H   UNL A   1      32.049  32.892  26.379  1.00  0.00     0.163 HD
ATOM     34  O   UNL A   1      33.225  34.418  27.873  1.00  0.00    -0.269 OA
BRANCH  32  35
ATOM     35  C   UNL A   1      34.675  32.646  28.392  1.00  0.00     0.039 A 
ATOM     36  C   UNL A   1      34.496  31.577  29.272  1.00  0.00     0.014 A 
ATOM     37  C   UNL A   1      35.954  33.152  28.133  1.00  0.00     0.014 A 
ATOM     38  C   UNL A   1      35.612  30.984  29.865  1.00  0.00     0.010 A 
ATOM     39  C   UNL A   1      37.066  32.530  28.688  1.00  0.00     0.010 A 
ATOM     40  C   UNL A   1      36.903  31.448  29.566  1.00  0.00    -0.014 A 
BRANCH  40  41
ATOM     41  C   UNL A   1      38.096  30.829  30.189  1.00  0.00     0.031 A 
ATOM     42  C   UNL A   1      38.525  31.257  31.562  1.00  0.00     0.074 A 
ATOM     43  C   UNL A   1      38.816  29.923  29.500  1.00  0.00     0.049 A 
ATOM     44  N   UNL A   1      39.540  30.837  32.272  1.00  0.00    -0.248 NA
ATOM     45  C   UNL A   1      37.723  32.302  32.220  1.00  0.00     0.031 C 
ATOM     46  C   UNL A   1      38.531  29.477  28.136  1.00  0.00     0.029 A 
ATOM     47  N   UNL A   1      39.946  29.228  29.849  1.00  0.00    -0.354 N 
ATOM     48  C   UNL A   1      39.509  31.577  33.447  1.00  0.00     0.074 A 
ATOM     49  C   UNL A   1      38.396  32.494  33.347  1.00  0.00     0.031 C 
ATOM     50  C   UNL A   1      39.456  28.575  27.766  1.00  0.00     0.029 A 
ATOM     51  C   UNL A   1      40.405  28.389  28.862  1.00  0.00     0.049 A 
ATOM     52  H   UNL A   1      40.386  29.322  30.725  1.00  0.00     0.167 HD
ATOM     53  C   UNL A   1      40.314  31.473  34.528  1.00  0.00     0.034 A 
ATOM     54  C   UNL A   1      41.463  27.555  28.847  1.00  0.00     0.034 A 
ATOM     55  C   UNL A   1      41.384  30.525  34.648  1.00  0.00     0.049 A 
ATOM     56  C   UNL A   1      42.325  27.438  30.073  1.00  0.00     0.074 A 
ATOM     57  C   UNL A   1      42.202  30.291  35.738  1.00  0.00     0.029 A 
ATOM     58  N   UNL A   1      41.782  29.654  33.648  1.00  0.00    -0.354 N 
ATOM     59  N   UNL A   1      42.198  28.049  31.226  1.00  0.00    -0.248 NA
ATOM     60  C   UNL A   1      43.455  26.499  30.011  1.00  0.00     0.031 C 
ATOM     61  C   UNL A   1      43.099  29.276  35.396  1.00  0.00     0.029 A 
ATOM     62  C   UNL A   1      42.836  28.879  34.094  1.00  0.00     0.049 A 
ATOM     63  H   UNL A   1      41.375  29.595  32.754  1.00  0.00     0.167 HD
ATOM     64  C   UNL A   1      43.212  27.550  32.035  1.00  0.00     0.074 A 
ATOM     65  C   UNL A   1      43.942  26.581  31.245  1.00  0.00     0.031 C 
ATOM     66  C   UNL A   1      43.516  27.880  33.312  1.00  0.00     0.034 A 
BRANCH  53  67
ATOM     67  C   UNL A   1      40.017  32.353  35.709  1.00  0.00     0.023 A 
ATOM     68  C   UNL A   1      40.688  33.587  35.821  1.00  0.00     0.012 A 
ATOM     69  C   UNL A   1      39.027  32.008  36.647  1.00  0.00     0.148 A 
ATOM     70  C   UNL A   1      40.385  34.464  36.860  1.00  0.00     0.002 A 
ATOM     71  C   UNL A   1      38.712  32.900  37.665  1.00  0.00     0.091 A 
ATOM     72  F   UNL A   1      38.416  30.822  36.524  1.00  0.00    -0.205 F 
ATOM     73  C   UNL A   1      39.392  34.125  37.776  1.00  0.00     0.022 A 
BRANCH  71  74
ATOM     74  S   UNL A   1      37.417  32.586  38.870  1.00  0.00     0.127 S 
ATOM     75  O   UNL A   1      37.718  31.214  39.275  1.00  0.00    -0.237 OA
ATOM     76  O   UNL A   1      37.694  33.599  39.887  1.00  0.00    -0.237 OA
ATOM     77  O   UNL A   1      36.156  32.758  38.161  1.00  0.00    -0.744 OA
ENDBRANCH  71  74
ENDBRANCH  53  67
BRANCH  54  78
ATOM     78  C   UNL A   1      41.701  26.698  27.653  1.00  0.00     0.023 A 
ATOM     79  C   UNL A   1      42.345  27.255  26.532  1.00  0.00     0.012 A 
ATOM     80  C   UNL A   1      41.358  25.333  27.647  1.00  0.00     0.148 A 
ATOM     81  C   UNL A   1      42.636  26.468  25.419  1.00  0.00     0.002 A 
ATOM     82  C   UNL A   1      41.681  24.547  26.548  1.00  0.00     0.091 A 
ATOM     83  F   UNL A   1      40.744  24.830  28.728  1.00  0.00    -0.205 F 
ATOM     84  C   UNL A   1      42.312  25.114  25.429  1.00  0.00     0.022 A 
BRANCH  82  85
ATOM     85  S   UNL A   1      41.393  22.774  26.503  1.00  0.00     0.127 S 
ATOM     86  O   UNL A   1      41.923  22.351  27.797  1.00  0.00    -0.237 OA
ATOM     87  O   UNL A   1      39.937  22.712  26.382  1.00  0.00    -0.237 OA
ATOM     88  O   UNL A   1      42.119  22.284  25.340  1.00  0.00    -0.744 OA
ENDBRANCH  82  85
ENDBRANCH  54  78
BRANCH  66  89
ATOM     89  C   UNL A   1      44.682  27.194  33.968  1.00  0.00     0.023 A 
ATOM     90  C   UNL A   1      45.948  27.809  33.930  1.00  0.00     0.012 A 
ATOM     91  C   UNL A   1      44.487  26.041  34.753  1.00  0.00     0.148 A 
ATOM     92  C   UNL A   1      47.007  27.286  34.669  1.00  0.00     0.002 A 
ATOM     93  C   UNL A   1      45.540  25.545  35.512  1.00  0.00     0.091 A 
ATOM     94  F   UNL A   1      43.271  25.478  34.766  1.00  0.00    -0.205 F 
ATOM     95  C   UNL A   1      46.800  26.164  35.469  1.00  0.00     0.022 A 
BRANCH  93  96
ATOM     96  S   UNL A   1      45.355  24.156  36.637  1.00  0.00     0.127 S 
ATOM     97  O   UNL A   1      44.489  24.724  37.671  1.00  0.00    -0.237 OA
ATOM     98  O   UNL A   1      44.712  23.156  35.785  1.00  0.00    -0.237 OA
ATOM     99  O   UNL A   1      46.698  23.809  37.080  1.00  0.00    -0.744 OA
ENDBRANCH  93  96
ENDBRANCH  66  89
ENDBRANCH  40  41
ENDBRANCH  32  35
ENDBRANCH  30  31
ENDBRANCH  29  30
ENDBRANCH   1  29
TORSDOF 19
ENDMDL
MODEL 3
REMARK VINA RESULT:     -12.1      4.837      9.773
REMARK SMILES Cc1cc(OC(F)(F)F)cc2c1O[C@H](C(F)(F)F)C(C(=O)NCCCCCCNC(=O)c1ccc(-c3c4nc(c(-c5cccc(S(=O)(=O)[O-])c5F)c5ccc([nH]5)c(-c5cccc(S(=O)(=O)[O-])c5F)c5nc(c(-c6cccc(S(=O)(=O)[O-])c6F)c6ccc3[nH]6)C=C5)C=C4)cc1)=C2
REMARK SMILES IDX 26 1 25 2 24 3 23 4 22 5 20 6 21 7 19 9 1 10 2 11 3 12 12 13
REMARK SMILES IDX 4 14 11 15 13 16 10 17 95 18 14 19 5 20 6 21 7 22 8 23 9 24
REMARK SMILES IDX 15 25 16 26 17 27 18 28 27 29 28 30 29 31 30 32 31 34 32 35
REMARK SMILES IDX 33 36 94 37 34 38 93 39 35 40 36 41 37 42 87 43 38 44 92 45
REMARK SMILES IDX 86 46 88 47 39 48 91 49 85 50 84 51 40 53 72 54 52 55 71 56
REMARK SMILES IDX 53 57 56 58 70 59 89 60 54 61 55 62 69 64 90 65 57 66 41 67
REMARK SMILES IDX 42 68 50 69 43 70 45 71 51 72 44 73 46 74 47 75 48 76 49 77
REMARK SMILES IDX 73 78 74 79 82 80 75 81 77 82 83 83 76 84 78 85 79 86 80 87
REMARK SMILES IDX 81 88 58 89 59 90 67 91 60 92 62 93 68 94 61 95 63 96 64 97
REMARK SMILES IDX 65 98 66 99
REMARK H PARENT 22 8 29 33 88 52 56 63
REMARK Flexibility Score: inf
ROOT
ATOM      1  C   UNL A   1      32.546  28.853  24.409  1.00  0.00     0.002 C 
ENDROOT
BRANCH   1   2
ATOM      2  C   UNL A   1      32.153  28.167  23.093  1.00  0.00     0.002 C 
BRANCH   2   3
ATOM      3  C   UNL A   1      33.281  27.407  22.387  1.00  0.00     0.021 C 
BRANCH   3   4
ATOM      4  C   UNL A   1      32.798  26.228  21.547  1.00  0.00     0.116 C 
BRANCH   4   5
ATOM      5  N   UNL A   1      31.660  25.564  22.159  1.00  0.00    -0.352 N 
ATOM      6  C   UNL A   1      31.451  24.500  22.968  1.00  0.00     0.251 C 
ATOM      7  O   UNL A   1      30.268  24.294  23.266  1.00  0.00    -0.270 OA
ATOM      8  H   UNL A   1      30.814  26.007  21.921  1.00  0.00     0.163 HD
BRANCH   6   9
ATOM      9  C   UNL A   1      32.512  23.593  23.502  1.00  0.00     0.067 C 
ATOM     10  C   UNL A   1      36.828  21.302  25.154  1.00  0.00     0.048 C 
ATOM     11  C   UNL A   1      35.437  20.854  24.793  1.00  0.00    -0.005 A 
ATOM     12  C   UNL A   1      35.078  19.510  24.983  1.00  0.00     0.054 A 
ATOM     13  C   UNL A   1      34.470  21.757  24.335  1.00  0.00     0.131 A 
ATOM     14  C   UNL A   1      33.787  19.067  24.686  1.00  0.00     0.130 A 
ATOM     15  C   UNL A   1      33.177  21.328  24.030  1.00  0.00     0.021 A 
ATOM     16  O   UNL A   1      34.862  23.049  24.150  1.00  0.00    -0.475 OA
ATOM     17  C   UNL A   1      32.843  19.983  24.209  1.00  0.00     0.058 A 
ATOM     18  C   UNL A   1      32.210  22.281  23.497  1.00  0.00     0.025 C 
ATOM     19  C   UNL A   1      33.825  24.058  24.068  1.00  0.00     0.314 C 
BRANCH  14  20
ATOM     20  O   UNL A   1      33.322  17.790  24.815  1.00  0.00    -0.406 OA
BRANCH  20  21
ATOM     21  C   UNL A   1      33.923  16.787  24.013  1.00  0.00     0.573 C 
ATOM     22  F   UNL A   1      33.160  15.675  23.964  1.00  0.00    -0.132 F 
ATOM     23  F   UNL A   1      34.158  17.235  22.763  1.00  0.00    -0.132 F 
ATOM     24  F   UNL A   1      35.111  16.450  24.566  1.00  0.00    -0.132 F 
ENDBRANCH  20  21
ENDBRANCH  14  20
BRANCH  19  25
ATOM     25  C   UNL A   1      33.671  24.737  25.440  1.00  0.00     0.429 C 
ATOM     26  F   UNL A   1      34.789  25.427  25.762  1.00  0.00    -0.167 F 
ATOM     27  F   UNL A   1      32.649  25.628  25.462  1.00  0.00    -0.167 F 
ATOM     28  F   UNL A   1      33.434  23.848  26.431  1.00  0.00    -0.167 F 
ENDBRANCH  19  25
ENDBRANCH   6   9
ENDBRANCH   4   5
ENDBRANCH   3   4
ENDBRANCH   2   3
ENDBRANCH   1   2
BRANCH   1  29
ATOM     29  C   UNL A   1      33.966  28.562  24.906  1.00  0.00     0.021 C 
BRANCH  29  30
ATOM     30  C   UNL A   1      34.141  28.673  26.417  1.00  0.00     0.116 C 
BRANCH  30  31
ATOM     31  N   UNL A   1      33.826  30.010  26.895  1.00  0.00    -0.352 N 
ATOM     32  C   UNL A   1      34.502  30.766  27.818  1.00  0.00     0.251 C 
ATOM     33  H   UNL A   1      33.025  30.427  26.503  1.00  0.00     0.163 HD
ATOM     34  O   UNL A   1      34.000  31.788  28.277  1.00  0.00    -0.269 OA
BRANCH  32  35
ATOM     35  C   UNL A   1      35.838  30.327  28.261  1.00  0.00     0.039 A 
ATOM     36  C   UNL A   1      35.965  29.648  29.475  1.00  0.00     0.014 A 
ATOM     37  C   UNL A   1      36.959  30.577  27.461  1.00  0.00     0.014 A 
ATOM     38  C   UNL A   1      37.219  29.182  29.871  1.00  0.00     0.010 A 
ATOM     39  C   UNL A   1      38.198  30.071  27.836  1.00  0.00     0.010 A 
ATOM     40  C   UNL A   1      38.339  29.379  29.048  1.00  0.00    -0.014 A 
BRANCH  40  41
ATOM     41  C   UNL A   1      39.677  28.890  29.456  1.00  0.00     0.031 A 
ATOM     42  C   UNL A   1      40.427  29.598  30.547  1.00  0.00     0.074 A 
ATOM     43  C   UNL A   1      40.233  27.847  28.812  1.00  0.00     0.049 A 
ATOM     44  N   UNL A   1      41.606  29.325  31.041  1.00  0.00    -0.248 NA
ATOM     45  C   UNL A   1      39.778  30.772  31.154  1.00  0.00     0.031 C 
ATOM     46  C   UNL A   1      39.625  27.122  27.695  1.00  0.00     0.029 A 
ATOM     47  N   UNL A   1      41.442  27.226  28.994  1.00  0.00    -0.354 N 
ATOM     48  C   UNL A   1      41.848  30.301  31.998  1.00  0.00     0.074 A 
ATOM     49  C   UNL A   1      40.709  31.192  31.999  1.00  0.00     0.031 C 
ATOM     50  C   UNL A   1      40.461  26.147  27.298  1.00  0.00     0.029 A 
ATOM     51  C   UNL A   1      41.667  26.186  28.123  1.00  0.00     0.049 A 
ATOM     52  H   UNL A   1      42.089  27.499  29.684  1.00  0.00     0.167 HD
ATOM     53  C   UNL A   1      42.907  30.421  32.830  1.00  0.00     0.034 A 
ATOM     54  C   UNL A   1      42.719  25.353  28.010  1.00  0.00     0.034 A 
ATOM     55  C   UNL A   1      44.011  29.504  32.866  1.00  0.00     0.049 A 
ATOM     56  C   UNL A   1      43.871  25.489  28.966  1.00  0.00     0.074 A 
ATOM     57  C   UNL A   1      45.090  29.498  33.730  1.00  0.00     0.029 A 
ATOM     58  N   UNL A   1      44.174  28.432  32.005  1.00  0.00    -0.354 N 
ATOM     59  N   UNL A   1      44.020  26.336  29.955  1.00  0.00    -0.248 NA
ATOM     60  C   UNL A   1      44.986  24.542  28.813  1.00  0.00     0.031 C 
ATOM     61  C   UNL A   1      45.910  28.419  33.390  1.00  0.00     0.029 A 
ATOM     62  C   UNL A   1      45.338  27.756  32.316  1.00  0.00     0.049 A 
ATOM     63  H   UNL A   1      43.554  28.188  31.281  1.00  0.00     0.167 HD
ATOM     64  C   UNL A   1      45.227  26.008  30.560  1.00  0.00     0.074 A 
ATOM     65  C   UNL A   1      45.770  24.880  29.831  1.00  0.00     0.031 C 
ATOM     66  C   UNL A   1      45.836  26.601  31.614  1.00  0.00     0.034 A 
BRANCH  53  67
ATOM     67  C   UNL A   1      42.887  31.538  33.833  1.00  0.00     0.023 A 
ATOM     68  C   UNL A   1      43.389  32.799  33.453  1.00  0.00     0.012 A 
ATOM     69  C   UNL A   1      42.303  31.372  35.101  1.00  0.00     0.148 A 
ATOM     70  C   UNL A   1      43.318  33.881  34.329  1.00  0.00     0.002 A 
ATOM     71  C   UNL A   1      42.213  32.462  35.960  1.00  0.00     0.091 A 
ATOM     72  F   UNL A   1      41.849  30.158  35.441  1.00  0.00    -0.205 F 
ATOM     73  C   UNL A   1      42.723  33.714  35.577  1.00  0.00     0.022 A 
BRANCH  71  74
ATOM     74  S   UNL A   1      41.423  32.372  37.570  1.00  0.00     0.127 S 
ATOM     75  O   UNL A   1      42.232  31.353  38.238  1.00  0.00    -0.237 OA
ATOM     76  O   UNL A   1      41.609  33.730  38.079  1.00  0.00    -0.237 OA
ATOM     77  O   UNL A   1      40.038  31.995  37.320  1.00  0.00    -0.744 OA
ENDBRANCH  71  74
ENDBRANCH  53  67
BRANCH  54  78
ATOM     78  C   UNL A   1      42.678  24.256  27.006  1.00  0.00     0.023 A 
ATOM     79  C   UNL A   1      43.351  24.427  25.781  1.00  0.00     0.012 A 
ATOM     80  C   UNL A   1      42.040  23.031  27.279  1.00  0.00     0.148 A 
ATOM     81  C   UNL A   1      43.382  23.399  24.839  1.00  0.00     0.002 A 
ATOM     82  C   UNL A   1      42.104  21.999  26.351  1.00  0.00     0.091 A 
ATOM     83  F   UNL A   1      41.405  22.896  28.452  1.00  0.00    -0.205 F 
ATOM     84  C   UNL A   1      42.766  22.183  25.126  1.00  0.00     0.022 A 
BRANCH  82  85
ATOM     85  S   UNL A   1      41.426  20.364  26.666  1.00  0.00     0.127 S 
ATOM     86  O   UNL A   1      42.088  20.002  27.916  1.00  0.00    -0.237 OA
ATOM     87  O   UNL A   1      39.997  20.653  26.785  1.00  0.00    -0.237 OA
ATOM     88  O   UNL A   1      41.787  19.556  25.510  1.00  0.00    -0.744 OA
ENDBRANCH  82  85
ENDBRANCH  54  78
BRANCH  66  89
ATOM     89  C   UNL A   1      47.158  26.055  32.075  1.00  0.00     0.023 A 
ATOM     90  C   UNL A   1      48.344  26.571  31.516  1.00  0.00     0.012 A 
ATOM     91  C   UNL A   1      47.227  25.164  33.163  1.00  0.00     0.148 A 
ATOM     92  C   UNL A   1      49.584  26.209  32.039  1.00  0.00     0.002 A 
ATOM     93  C   UNL A   1      48.466  24.834  33.700  1.00  0.00     0.091 A 
ATOM     94  F   UNL A   1      46.081  24.688  33.670  1.00  0.00    -0.205 F 
ATOM     95  C   UNL A   1      49.644  25.353  33.138  1.00  0.00     0.022 A 
BRANCH  93  96
ATOM     96  S   UNL A   1      48.647  23.806  35.162  1.00  0.00     0.127 S 
ATOM     97  O   UNL A   1      48.293  22.485  34.642  1.00  0.00    -0.237 OA
ATOM     98  O   UNL A   1      50.064  23.976  35.483  1.00  0.00    -0.237 OA
ATOM     99  O   UNL A   1      47.727  24.345  36.154  1.00  0.00    -0.744 OA
ENDBRANCH  93  96
ENDBRANCH  66  89
ENDBRANCH  40  41
ENDBRANCH  32  35
ENDBRANCH  30  31
ENDBRANCH  29  30
ENDBRANCH   1  29
TORSDOF 19
ENDMDL
