MODEL 1
REMARK VINA RESULT:     -12.2      0.000      0.000
REMARK SMILES O=C(NCCCCCCNC(=O)[C@H]1CC2(CCN(C(=O)C3CC3)CC2)CN1C(=O)CCn1cccn1)c1ccc(-c2c3nc(c(-c4cccc(S(=O)(=O)[O-])c4F)c4ccc([nH]4)c(-c4cccc(S(=O)(=O)[O-])c4F)c4nc(c(-c5cccc(S(=O)(=O)[O-])c5F)c5ccc2[nH]5)C=C4)C=C3)cc1
REMARK SMILES IDX 7 1 6 2 5 3 4 4 3 5 1 6 2 7 37 9 38 10 99 11 39 12 98 13
REMARK SMILES IDX 40 14 41 15 42 16 92 17 43 18 97 19 91 20 93 21 44 22 96 23
REMARK SMILES IDX 90 24 89 25 45 27 77 28 57 29 76 30 58 31 61 32 75 33 94 34
REMARK SMILES IDX 59 35 60 36 74 38 95 39 62 40 46 41 47 42 55 43 48 44 50 45
REMARK SMILES IDX 56 46 49 47 51 48 52 49 53 50 54 51 78 52 79 53 87 54 80 55
REMARK SMILES IDX 82 56 88 57 81 58 83 59 84 60 85 61 86 62 63 63 64 64 72 65
REMARK SMILES IDX 65 66 67 67 73 68 66 69 68 70 69 71 70 72 71 73 8 74 9 75
REMARK SMILES IDX 10 76 11 77 12 79 13 80 14 81 27 82 15 83 26 84 16 85 25 86
REMARK SMILES IDX 17 87 24 88 18 89 19 90 20 91 28 92 29 93 30 94 31 95 32 96
REMARK SMILES IDX 33 97 36 98 34 99 35 100 21 101 22 102 23 103
REMARK H PARENT 3 8 93 26 61 37 10 78
REMARK Flexibility Score: inf
ROOT
ATOM      1  C   UNL A   1      40.435  21.701  26.923  1.00  0.00     0.002 C 
ENDROOT
BRANCH   1   2
ATOM      2  C   UNL A   1      41.713  21.503  26.094  1.00  0.00     0.002 C 
BRANCH   2   3
ATOM      3  C   UNL A   1      42.708  22.674  26.183  1.00  0.00     0.021 C 
BRANCH   3   4
ATOM      4  C   UNL A   1      42.690  23.559  24.943  1.00  0.00     0.116 C 
BRANCH   4   5
ATOM      5  N   UNL A   1      43.958  24.180  24.713  1.00  0.00    -0.352 N 
ATOM      6  O   UNL A   1      45.703  25.495  24.859  1.00  0.00    -0.269 OA
ATOM      7  C   UNL A   1      44.543  25.291  25.222  1.00  0.00     0.251 C 
ATOM      8  H   UNL A   1      44.517  23.706  24.055  1.00  0.00     0.163 HD
BRANCH   7   9
ATOM      9  C   UNL A   1      43.826  26.297  26.046  1.00  0.00     0.039 A 
ATOM     10  C   UNL A   1      42.731  27.089  25.686  1.00  0.00     0.014 A 
ATOM     11  C   UNL A   1      44.384  26.479  27.313  1.00  0.00     0.014 A 
ATOM     12  C   UNL A   1      42.408  28.216  26.443  1.00  0.00     0.010 A 
ATOM     13  C   UNL A   1      43.985  27.525  28.115  1.00  0.00     0.010 A 
ATOM     14  C   UNL A   1      43.124  28.491  27.615  1.00  0.00    -0.014 A 
BRANCH  14  15
ATOM     15  C   UNL A   1      42.713  29.547  28.545  1.00  0.00     0.031 A 
ATOM     16  C   UNL A   1      43.540  30.765  28.239  1.00  0.00     0.074 A 
ATOM     17  C   UNL A   1      41.647  29.446  29.396  1.00  0.00     0.049 A 
ATOM     18  N   UNL A   1      44.549  31.191  28.930  1.00  0.00    -0.248 NA
ATOM     19  C   UNL A   1      43.510  31.360  26.880  1.00  0.00     0.031 C 
ATOM     20  C   UNL A   1      40.730  28.317  29.629  1.00  0.00     0.029 A 
ATOM     21  N   UNL A   1      41.099  30.393  30.232  1.00  0.00    -0.354 N 
ATOM     22  C   UNL A   1      44.981  32.346  28.274  1.00  0.00     0.074 A 
ATOM     23  C   UNL A   1      44.538  32.212  26.923  1.00  0.00     0.031 C 
ATOM     24  C   UNL A   1      39.625  28.729  30.310  1.00  0.00     0.029 A 
ATOM     25  C   UNL A   1      39.790  30.116  30.698  1.00  0.00     0.049 A 
ATOM     26  H   UNL A   1      41.585  31.209  30.490  1.00  0.00     0.167 HD
ATOM     27  C   UNL A   1      45.281  33.456  29.008  1.00  0.00     0.034 A 
ATOM     28  C   UNL A   1      38.935  30.966  31.364  1.00  0.00     0.034 A 
ATOM     29  C   UNL A   1      45.485  33.065  30.385  1.00  0.00     0.049 A 
ATOM     30  C   UNL A   1      39.776  32.035  31.949  1.00  0.00     0.074 A 
ATOM     31  C   UNL A   1      46.353  32.236  31.065  1.00  0.00     0.029 A 
ATOM     32  N   UNL A   1      44.367  33.194  31.167  1.00  0.00    -0.354 N 
ATOM     33  N   UNL A   1      40.647  31.778  32.885  1.00  0.00    -0.248 NA
ATOM     34  C   UNL A   1      40.056  33.168  31.084  1.00  0.00     0.031 C 
ATOM     35  C   UNL A   1      45.542  31.572  32.035  1.00  0.00     0.029 A 
ATOM     36  C   UNL A   1      44.266  32.133  32.015  1.00  0.00     0.049 A 
ATOM     37  H   UNL A   1      43.731  33.944  31.122  1.00  0.00     0.167 HD
ATOM     38  C   UNL A   1      41.811  32.351  32.398  1.00  0.00     0.074 A 
ATOM     39  C   UNL A   1      41.377  33.208  31.282  1.00  0.00     0.031 C 
ATOM     40  C   UNL A   1      43.030  31.801  32.680  1.00  0.00     0.034 A 
BRANCH  27  41
ATOM     41  C   UNL A   1      44.819  34.878  28.676  1.00  0.00     0.023 A 
ATOM     42  C   UNL A   1      43.415  35.066  28.610  1.00  0.00     0.012 A 
ATOM     43  C   UNL A   1      45.616  35.913  28.126  1.00  0.00     0.148 A 
ATOM     44  C   UNL A   1      42.839  36.151  27.942  1.00  0.00     0.002 A 
ATOM     45  C   UNL A   1      45.037  37.015  27.497  1.00  0.00     0.091 A 
ATOM     46  F   UNL A   1      46.944  35.820  28.127  1.00  0.00    -0.205 F 
ATOM     47  C   UNL A   1      43.650  37.122  27.374  1.00  0.00     0.022 A 
BRANCH  45  48
ATOM     48  S   UNL A   1      46.019  38.329  26.750  1.00  0.00     0.127 S 
ATOM     49  O   UNL A   1      44.978  39.217  26.237  1.00  0.00    -0.237 OA
ATOM     50  O   UNL A   1      46.752  38.839  27.908  1.00  0.00    -0.237 OA
ATOM     51  O   UNL A   1      46.850  37.685  25.743  1.00  0.00    -0.744 OA
ENDBRANCH  45  48
ENDBRANCH  27  41
BRANCH  28  52
ATOM     52  C   UNL A   1      37.459  31.209  31.189  1.00  0.00     0.023 A 
ATOM     53  C   UNL A   1      36.599  31.549  32.270  1.00  0.00     0.012 A 
ATOM     54  C   UNL A   1      36.963  31.433  29.892  1.00  0.00     0.148 A 
ATOM     55  C   UNL A   1      35.313  32.094  32.052  1.00  0.00     0.002 A 
ATOM     56  C   UNL A   1      35.697  31.981  29.679  1.00  0.00     0.091 A 
ATOM     57  F   UNL A   1      37.777  31.197  28.859  1.00  0.00    -0.205 F 
ATOM     58  C   UNL A   1      34.867  32.320  30.753  1.00  0.00     0.022 A 
BRANCH  56  59
ATOM     59  S   UNL A   1      35.098  32.332  28.020  1.00  0.00     0.127 S 
ATOM     60  O   UNL A   1      36.105  33.275  27.534  1.00  0.00    -0.237 OA
ATOM     61  O   UNL A   1      35.139  31.013  27.395  1.00  0.00    -0.237 OA
ATOM     62  O   UNL A   1      33.769  32.906  28.191  1.00  0.00    -0.744 OA
ENDBRANCH  56  59
ENDBRANCH  28  52
BRANCH  40  63
ATOM     63  C   UNL A   1      43.105  30.718  33.721  1.00  0.00     0.023 A 
ATOM     64  C   UNL A   1      43.167  29.331  33.454  1.00  0.00     0.012 A 
ATOM     65  C   UNL A   1      43.285  31.167  35.035  1.00  0.00     0.148 A 
ATOM     66  C   UNL A   1      43.379  28.419  34.497  1.00  0.00     0.002 A 
ATOM     67  C   UNL A   1      43.535  30.267  36.054  1.00  0.00     0.091 A 
ATOM     68  F   UNL A   1      43.252  32.490  35.251  1.00  0.00    -0.205 F 
ATOM     69  C   UNL A   1      43.569  28.888  35.797  1.00  0.00     0.022 A 
BRANCH  67  70
ATOM     70  S   UNL A   1      43.899  30.839  37.709  1.00  0.00     0.127 S 
ATOM     71  O   UNL A   1      42.576  31.230  38.189  1.00  0.00    -0.237 OA
ATOM     72  O   UNL A   1      44.452  29.637  38.335  1.00  0.00    -0.237 OA
ATOM     73  O   UNL A   1      44.856  31.929  37.562  1.00  0.00    -0.744 OA
ENDBRANCH  67  70
ENDBRANCH  40  63
ENDBRANCH  14  15
ENDBRANCH   7   9
ENDBRANCH   4   5
ENDBRANCH   3   4
ENDBRANCH   2   3
ENDBRANCH   1   2
BRANCH   1  74
ATOM     74  C   UNL A   1      39.174  21.639  26.085  1.00  0.00     0.021 C 
BRANCH  74  75
ATOM     75  C   UNL A   1      38.488  22.979  26.077  1.00  0.00     0.116 C 
BRANCH  75  76
ATOM     76  N   UNL A   1      37.658  23.165  24.681  1.00  0.00    -0.354 N 
ATOM     77  C   UNL A   1      35.753  23.603  24.094  1.00  0.00     0.242 C 
ATOM     78  H   UNL A   1      38.244  23.025  23.902  1.00  0.00     0.163 HD
ATOM     79  O   UNL A   1      35.198  23.637  22.936  1.00  0.00    -0.273 OA
BRANCH  77  80
ATOM     80  C   UNL A   1      34.401  24.196  25.206  1.00  0.00     0.175 C 
ATOM     81  C   UNL A   1      33.662  25.515  24.865  1.00  0.00     0.044 C 
ATOM     82  N   UNL A   1      33.298  23.304  25.636  1.00  0.00    -0.330 N 
ATOM     83  C   UNL A   1      32.223  25.461  25.375  1.00  0.00    -0.006 C 
ATOM     84  C   UNL A   1      32.140  24.097  26.085  1.00  0.00     0.127 C 
ATOM     85  C   UNL A   1      31.162  25.481  24.232  1.00  0.00     0.030 C 
ATOM     86  C   UNL A   1      32.036  26.759  26.178  1.00  0.00     0.030 C 
ATOM     87  C   UNL A   1      31.211  26.729  23.350  1.00  0.00     0.120 C 
ATOM     88  C   UNL A   1      32.147  27.994  25.243  1.00  0.00     0.120 C 
ATOM     89  N   UNL A   1      31.171  27.947  24.149  1.00  0.00    -0.342 N 
ATOM     90  C   UNL A   1      30.438  29.108  23.892  1.00  0.00     0.225 C 
ATOM     91  O   UNL A   1      30.637  30.130  24.550  1.00  0.00    -0.275 OA
BRANCH  82  92
ATOM     92  C   UNL A   1      33.297  21.926  25.736  1.00  0.00     0.225 C 
ATOM     93  O   UNL A   1      34.222  21.337  26.306  1.00  0.00    -0.275 OA
BRANCH  92  94
ATOM     94  C   UNL A   1      32.143  21.097  25.187  1.00  0.00     0.124 C 
BRANCH  94  95
ATOM     95  C   UNL A   1      32.451  20.340  23.904  1.00  0.00     0.154 C 
BRANCH  95  96
ATOM     96  N   UNL A   1      32.456  18.905  24.092  1.00  0.00    -0.272 N 
ATOM     97  C   UNL A   1      33.227  17.731  22.846  1.00  0.00     0.108 A 
ATOM     98  N   UNL A   1      32.441  18.095  25.790  1.00  0.00    -0.182 NA
ATOM     99  C   UNL A   1      33.746  16.219  23.795  1.00  0.00     0.042 A 
ATOM    100  C   UNL A   1      33.231  16.531  25.658  1.00  0.00     0.135 A 
ENDBRANCH  95  96
ENDBRANCH  94  95
ENDBRANCH  92  94
ENDBRANCH  82  92
BRANCH  90 101
ATOM    101  C   UNL A   1      29.337  29.209  22.886  1.00  0.00     0.079 C 
ATOM    102  C   UNL A   1      27.877  28.874  22.987  1.00  0.00     0.014 C 
ATOM    103  C   UNL A   1      28.316  30.317  22.969  1.00  0.00     0.014 C 
ENDBRANCH  90 101
ENDBRANCH  77  80
ENDBRANCH  75  76
ENDBRANCH  74  75
ENDBRANCH   1  74
TORSDOF 21
ENDMDL
MODEL 2
REMARK VINA RESULT:     -12.2      2.054      2.548
REMARK SMILES O=C(NCCCCCCNC(=O)[C@H]1CC2(CCN(C(=O)C3CC3)CC2)CN1C(=O)CCn1cccn1)c1ccc(-c2c3nc(c(-c4cccc(S(=O)(=O)[O-])c4F)c4ccc([nH]4)c(-c4cccc(S(=O)(=O)[O-])c4F)c4nc(c(-c5cccc(S(=O)(=O)[O-])c5F)c5ccc2[nH]5)C=C4)C=C3)cc1
REMARK SMILES IDX 7 1 6 2 5 3 4 4 3 5 1 6 2 7 37 9 38 10 99 11 39 12 98 13
REMARK SMILES IDX 40 14 41 15 42 16 92 17 43 18 97 19 91 20 93 21 44 22 96 23
REMARK SMILES IDX 90 24 89 25 45 27 77 28 57 29 76 30 58 31 61 32 75 33 94 34
REMARK SMILES IDX 59 35 60 36 74 38 95 39 62 40 46 41 47 42 55 43 48 44 50 45
REMARK SMILES IDX 56 46 49 47 51 48 52 49 53 50 54 51 78 52 79 53 87 54 80 55
REMARK SMILES IDX 82 56 88 57 81 58 83 59 84 60 85 61 86 62 63 63 64 64 72 65
REMARK SMILES IDX 65 66 67 67 73 68 66 69 68 70 69 71 70 72 71 73 8 74 9 75
REMARK SMILES IDX 10 76 11 77 12 79 13 80 14 81 27 82 15 83 26 84 16 85 25 86
REMARK SMILES IDX 17 87 24 88 18 89 19 90 20 91 28 92 29 93 30 94 31 95 32 96
REMARK SMILES IDX 33 97 36 98 34 99 35 100 21 101 22 102 23 103
REMARK H PARENT 3 8 93 26 61 37 10 78
REMARK Flexibility Score: inf
ROOT
ATOM      1  C   UNL A   1      40.622  22.966  26.668  1.00  0.00     0.002 C 
ENDROOT
BRANCH   1   2
ATOM      2  C   UNL A   1      41.921  22.451  26.030  1.00  0.00     0.002 C 
BRANCH   2   3
ATOM      3  C   UNL A   1      42.896  23.564  25.604  1.00  0.00     0.021 C 
BRANCH   3   4
ATOM      4  C   UNL A   1      44.180  23.568  26.423  1.00  0.00     0.116 C 
BRANCH   4   5
ATOM      5  N   UNL A   1      43.982  23.016  27.728  1.00  0.00    -0.352 N 
ATOM      6  O   UNL A   1      43.409  22.751  29.825  1.00  0.00    -0.269 OA
ATOM      7  C   UNL A   1      43.540  23.547  28.893  1.00  0.00     0.251 C 
ATOM      8  H   UNL A   1      44.212  22.060  27.792  1.00  0.00     0.163 HD
BRANCH   7   9
ATOM      9  C   UNL A   1      43.353  25.003  29.118  1.00  0.00     0.039 A 
ATOM     10  C   UNL A   1      44.065  25.843  29.981  1.00  0.00     0.014 A 
ATOM     11  C   UNL A   1      42.289  25.547  28.396  1.00  0.00     0.014 A 
ATOM     12  C   UNL A   1      43.540  27.089  30.329  1.00  0.00     0.010 A 
ATOM     13  C   UNL A   1      41.839  26.822  28.656  1.00  0.00     0.010 A 
ATOM     14  C   UNL A   1      42.351  27.530  29.735  1.00  0.00    -0.014 A 
BRANCH  14  15
ATOM     15  C   UNL A   1      41.852  28.895  29.917  1.00  0.00     0.031 A 
ATOM     16  C   UNL A   1      42.993  29.834  29.633  1.00  0.00     0.074 A 
ATOM     17  C   UNL A   1      40.539  29.210  30.134  1.00  0.00     0.049 A 
ATOM     18  N   UNL A   1      43.693  30.468  30.519  1.00  0.00    -0.248 NA
ATOM     19  C   UNL A   1      43.668  29.802  28.313  1.00  0.00     0.031 C 
ATOM     20  C   UNL A   1      39.371  28.325  30.286  1.00  0.00     0.029 A 
ATOM     21  N   UNL A   1      39.933  30.443  30.215  1.00  0.00    -0.354 N 
ATOM     22  C   UNL A   1      44.617  31.218  29.788  1.00  0.00     0.074 A 
ATOM     23  C   UNL A   1      44.755  30.547  28.534  1.00  0.00     0.031 C 
ATOM     24  C   UNL A   1      38.214  29.033  30.166  1.00  0.00     0.029 A 
ATOM     25  C   UNL A   1      38.524  30.446  30.068  1.00  0.00     0.049 A 
ATOM     26  H   UNL A   1      40.445  31.270  30.366  1.00  0.00     0.167 HD
ATOM     27  C   UNL A   1      44.837  32.520  30.130  1.00  0.00     0.034 A 
ATOM     28  C   UNL A   1      37.696  31.533  29.900  1.00  0.00     0.034 A 
ATOM     29  C   UNL A   1      44.354  32.737  31.475  1.00  0.00     0.049 A 
ATOM     30  C   UNL A   1      38.444  32.712  30.394  1.00  0.00     0.074 A 
ATOM     31  C   UNL A   1      44.641  32.236  32.728  1.00  0.00     0.029 A 
ATOM     32  N   UNL A   1      43.077  33.232  31.530  1.00  0.00    -0.354 N 
ATOM     33  N   UNL A   1      38.762  32.836  31.652  1.00  0.00    -0.248 NA
ATOM     34  C   UNL A   1      39.315  33.362  29.429  1.00  0.00     0.031 C 
ATOM     35  C   UNL A   1      43.371  32.079  33.361  1.00  0.00     0.029 A 
ATOM     36  C   UNL A   1      42.388  32.634  32.541  1.00  0.00     0.049 A 
ATOM     37  H   UNL A   1      42.713  33.921  30.928  1.00  0.00     0.167 HD
ATOM     38  C   UNL A   1      40.122  33.099  31.609  1.00  0.00     0.074 A 
ATOM     39  C   UNL A   1      40.404  33.424  30.201  1.00  0.00     0.031 C 
ATOM     40  C   UNL A   1      40.948  32.667  32.608  1.00  0.00     0.034 A 
BRANCH  27  41
ATOM     41  C   UNL A   1      44.903  33.688  29.141  1.00  0.00     0.023 A 
ATOM     42  C   UNL A   1      43.798  33.807  28.261  1.00  0.00     0.012 A 
ATOM     43  C   UNL A   1      46.055  34.440  28.804  1.00  0.00     0.148 A 
ATOM     44  C   UNL A   1      43.871  34.531  27.067  1.00  0.00     0.002 A 
ATOM     45  C   UNL A   1      46.110  35.195  27.633  1.00  0.00     0.091 A 
ATOM     46  F   UNL A   1      47.149  34.382  29.562  1.00  0.00    -0.205 F 
ATOM     47  C   UNL A   1      45.033  35.217  26.745  1.00  0.00     0.022 A 
BRANCH  45  48
ATOM     48  S   UNL A   1      47.575  36.130  27.152  1.00  0.00     0.127 S 
ATOM     49  O   UNL A   1      47.620  37.159  28.188  1.00  0.00    -0.237 OA
ATOM     50  O   UNL A   1      48.616  35.108  27.248  1.00  0.00    -0.237 OA
ATOM     51  O   UNL A   1      47.318  36.607  25.800  1.00  0.00    -0.744 OA
ENDBRANCH  45  48
ENDBRANCH  27  41
BRANCH  28  52
ATOM     52  C   UNL A   1      36.527  31.744  28.973  1.00  0.00     0.023 A 
ATOM     53  C   UNL A   1      35.968  30.699  28.186  1.00  0.00     0.012 A 
ATOM     54  C   UNL A   1      35.751  32.907  29.124  1.00  0.00     0.148 A 
ATOM     55  C   UNL A   1      34.691  30.821  27.591  1.00  0.00     0.002 A 
ATOM     56  C   UNL A   1      34.486  33.022  28.544  1.00  0.00     0.091 A 
ATOM     57  F   UNL A   1      36.216  33.874  29.922  1.00  0.00    -0.205 F 
ATOM     58  C   UNL A   1      33.946  31.981  27.781  1.00  0.00     0.022 A 
BRANCH  56  59
ATOM     59  S   UNL A   1      33.470  34.483  28.799  1.00  0.00     0.127 S 
ATOM     60  O   UNL A   1      33.237  34.434  30.242  1.00  0.00    -0.237 OA
ATOM     61  O   UNL A   1      34.358  35.553  28.355  1.00  0.00    -0.237 OA
ATOM     62  O   UNL A   1      32.275  34.281  27.990  1.00  0.00    -0.744 OA
ENDBRANCH  56  59
ENDBRANCH  28  52
BRANCH  40  63
ATOM     63  C   UNL A   1      40.328  32.122  33.866  1.00  0.00     0.023 A 
ATOM     64  C   UNL A   1      39.924  30.781  34.062  1.00  0.00     0.012 A 
ATOM     65  C   UNL A   1      40.315  33.003  34.954  1.00  0.00     0.148 A 
ATOM     66  C   UNL A   1      39.490  30.351  35.324  1.00  0.00     0.002 A 
ATOM     67  C   UNL A   1      39.927  32.564  36.205  1.00  0.00     0.091 A 
ATOM     68  F   UNL A   1      40.735  34.259  34.743  1.00  0.00    -0.205 F 
ATOM     69  C   UNL A   1      39.498  31.242  36.397  1.00  0.00     0.022 A 
BRANCH  67  70
ATOM     70  S   UNL A   1      40.035  33.645  37.627  1.00  0.00     0.127 S 
ATOM     71  O   UNL A   1      39.096  34.705  37.268  1.00  0.00    -0.237 OA
ATOM     72  O   UNL A   1      39.592  32.769  38.713  1.00  0.00    -0.237 OA
ATOM     73  O   UNL A   1      41.430  34.054  37.723  1.00  0.00    -0.744 OA
ENDBRANCH  67  70
ENDBRANCH  40  63
ENDBRANCH  14  15
ENDBRANCH   7   9
ENDBRANCH   4   5
ENDBRANCH   3   4
ENDBRANCH   2   3
ENDBRANCH   1   2
BRANCH   1  74
ATOM     74  C   UNL A   1      39.383  22.325  26.077  1.00  0.00     0.021 C 
BRANCH  74  75
ATOM     75  C   UNL A   1      38.177  23.192  26.329  1.00  0.00     0.116 C 
BRANCH  75  76
ATOM     76  N   UNL A   1      37.331  23.377  24.943  1.00  0.00    -0.354 N 
ATOM     77  C   UNL A   1      35.434  23.874  24.377  1.00  0.00     0.242 C 
ATOM     78  H   UNL A   1      37.898  23.197  24.158  1.00  0.00     0.163 HD
ATOM     79  O   UNL A   1      34.862  23.902  23.227  1.00  0.00    -0.273 OA
BRANCH  77  80
ATOM     80  C   UNL A   1      34.125  24.543  25.496  1.00  0.00     0.175 C 
ATOM     81  C   UNL A   1      33.459  25.900  25.157  1.00  0.00     0.044 C 
ATOM     82  N   UNL A   1      32.977  23.715  25.935  1.00  0.00    -0.330 N 
ATOM     83  C   UNL A   1      32.023  25.928  25.676  1.00  0.00    -0.006 C 
ATOM     84  C   UNL A   1      31.868  24.572  26.389  1.00  0.00     0.127 C 
ATOM     85  C   UNL A   1      30.956  26.006  24.540  1.00  0.00     0.030 C 
ATOM     86  C   UNL A   1      31.913  27.236  26.477  1.00  0.00     0.030 C 
ATOM     87  C   UNL A   1      31.070  27.247  23.655  1.00  0.00     0.120 C 
ATOM     88  C   UNL A   1      32.087  28.462  25.539  1.00  0.00     0.120 C 
ATOM     89  N   UNL A   1      31.103  28.467  24.451  1.00  0.00    -0.342 N 
ATOM     90  C   UNL A   1      30.434  29.667  24.197  1.00  0.00     0.225 C 
ATOM     91  O   UNL A   1      30.695  30.678  24.851  1.00  0.00    -0.275 OA
BRANCH  82  92
ATOM     92  C   UNL A   1      32.899  22.339  26.038  1.00  0.00     0.225 C 
ATOM     93  O   UNL A   1      33.228  21.769  27.083  1.00  0.00    -0.275 OA
BRANCH  92  94
ATOM     94  C   UNL A   1      32.370  21.491  24.888  1.00  0.00     0.124 C 
BRANCH  94  95
ATOM     95  C   UNL A   1      33.380  20.526  24.287  1.00  0.00     0.154 C 
BRANCH  95  96
ATOM     96  N   UNL A   1      32.934  19.150  24.342  1.00  0.00    -0.272 N 
ATOM     97  C   UNL A   1      33.388  17.893  23.022  1.00  0.00     0.108 A 
ATOM     98  N   UNL A   1      32.562  18.257  25.956  1.00  0.00    -0.182 NA
ATOM     99  C   UNL A   1      33.358  16.227  23.846  1.00  0.00     0.042 A 
ATOM    100  C   UNL A   1      32.844  16.540  25.709  1.00  0.00     0.135 A 
ENDBRANCH  95  96
ENDBRANCH  94  95
ENDBRANCH  92  94
ENDBRANCH  82  92
BRANCH  90 101
ATOM    101  C   UNL A   1      29.334  29.827  23.197  1.00  0.00     0.079 C 
ATOM    102  C   UNL A   1      28.709  31.059  22.610  1.00  0.00     0.014 C 
ATOM    103  C   UNL A   1      29.638  30.217  21.771  1.00  0.00     0.014 C 
ENDBRANCH  90 101
ENDBRANCH  77  80
ENDBRANCH  75  76
ENDBRANCH  74  75
ENDBRANCH   1  74
TORSDOF 21
ENDMDL
MODEL 3
REMARK VINA RESULT:     -12.1      5.403     12.743
REMARK SMILES O=C(NCCCCCCNC(=O)[C@H]1CC2(CCN(C(=O)C3CC3)CC2)CN1C(=O)CCn1cccn1)c1ccc(-c2c3nc(c(-c4cccc(S(=O)(=O)[O-])c4F)c4ccc([nH]4)c(-c4cccc(S(=O)(=O)[O-])c4F)c4nc(c(-c5cccc(S(=O)(=O)[O-])c5F)c5ccc2[nH]5)C=C4)C=C3)cc1
REMARK SMILES IDX 7 1 6 2 5 3 4 4 3 5 1 6 2 7 37 9 38 10 99 11 39 12 98 13
REMARK SMILES IDX 40 14 41 15 42 16 92 17 43 18 97 19 91 20 93 21 44 22 96 23
REMARK SMILES IDX 90 24 89 25 45 27 77 28 57 29 76 30 58 31 61 32 75 33 94 34
REMARK SMILES IDX 59 35 60 36 74 38 95 39 62 40 46 41 47 42 55 43 48 44 50 45
REMARK SMILES IDX 56 46 49 47 51 48 52 49 53 50 54 51 78 52 79 53 87 54 80 55
REMARK SMILES IDX 82 56 88 57 81 58 83 59 84 60 85 61 86 62 63 63 64 64 72 65
REMARK SMILES IDX 65 66 67 67 73 68 66 69 68 70 69 71 70 72 71 73 8 74 9 75
REMARK SMILES IDX 10 76 11 77 12 79 13 80 14 81 27 82 15 83 26 84 16 85 25 86
REMARK SMILES IDX 17 87 24 88 18 89 19 90 20 91 28 92 29 93 30 94 31 95 32 96
REMARK SMILES IDX 33 97 36 98 34 99 35 100 21 101 22 102 23 103
REMARK H PARENT 3 8 93 26 61 37 10 78
REMARK Flexibility Score: inf
ROOT
ATOM      1  C   UNL A   1      38.011  31.668  32.826  1.00  0.00     0.002 C 
ENDROOT
BRANCH   1   2
ATOM      2  C   UNL A   1      37.112  30.425  32.758  1.00  0.00     0.002 C 
BRANCH   2   3
ATOM      3  C   UNL A   1      35.713  30.693  32.173  1.00  0.00     0.021 C 
BRANCH   3   4
ATOM      4  C   UNL A   1      35.484  32.163  31.842  1.00  0.00     0.116 C 
BRANCH   4   5
ATOM      5  N   UNL A   1      34.957  32.336  30.523  1.00  0.00    -0.352 N 
ATOM      6  O   UNL A   1      34.563  32.118  28.380  1.00  0.00    -0.269 OA
ATOM      7  C   UNL A   1      35.297  31.811  29.322  1.00  0.00     0.251 C 
ATOM      8  H   UNL A   1      34.196  32.960  30.480  1.00  0.00     0.163 HD
BRANCH   7   9
ATOM      9  C   UNL A   1      36.540  31.035  29.082  1.00  0.00     0.039 A 
ATOM     10  C   UNL A   1      36.667  29.671  28.798  1.00  0.00     0.014 A 
ATOM     11  C   UNL A   1      37.705  31.791  29.222  1.00  0.00     0.014 A 
ATOM     12  C   UNL A   1      37.903  29.040  28.949  1.00  0.00     0.010 A 
ATOM     13  C   UNL A   1      38.940  31.183  29.256  1.00  0.00     0.010 A 
ATOM     14  C   UNL A   1      39.029  29.799  29.292  1.00  0.00    -0.014 A 
BRANCH  14  15
ATOM     15  C   UNL A   1      40.379  29.229  29.283  1.00  0.00     0.031 A 
ATOM     16  C   UNL A   1      40.822  29.094  30.714  1.00  0.00     0.074 A 
ATOM     17  C   UNL A   1      41.006  28.761  28.161  1.00  0.00     0.049 A 
ATOM     18  N   UNL A   1      41.657  29.871  31.327  1.00  0.00    -0.248 NA
ATOM     19  C   UNL A   1      40.024  28.280  31.663  1.00  0.00     0.031 C 
ATOM     20  C   UNL A   1      40.551  28.753  26.760  1.00  0.00     0.029 A 
ATOM     21  N   UNL A   1      42.214  28.113  28.036  1.00  0.00    -0.354 N 
ATOM     22  C   UNL A   1      41.764  29.349  32.618  1.00  0.00     0.074 A 
ATOM     23  C   UNL A   1      40.557  28.618  32.841  1.00  0.00     0.031 C 
ATOM     24  C   UNL A   1      41.320  27.918  26.010  1.00  0.00     0.029 A 
ATOM     25  C   UNL A   1      42.418  27.422  26.816  1.00  0.00     0.049 A 
ATOM     26  H   UNL A   1      42.894  28.129  28.748  1.00  0.00     0.167 HD
ATOM     27  C   UNL A   1      42.998  29.226  33.186  1.00  0.00     0.034 A 
ATOM     28  C   UNL A   1      43.424  26.533  26.508  1.00  0.00     0.034 A 
ATOM     29  C   UNL A   1      43.928  30.067  32.469  1.00  0.00     0.049 A 
ATOM     30  C   UNL A   1      44.525  26.796  27.464  1.00  0.00     0.074 A 
ATOM     31  C   UNL A   1      44.052  31.416  32.208  1.00  0.00     0.029 A 
ATOM     32  N   UNL A   1      44.624  29.410  31.488  1.00  0.00    -0.354 N 
ATOM     33  N   UNL A   1      45.179  27.924  27.453  1.00  0.00    -0.248 NA
ATOM     34  C   UNL A   1      44.443  26.097  28.735  1.00  0.00     0.031 C 
ATOM     35  C   UNL A   1      44.471  31.491  30.845  1.00  0.00     0.029 A 
ATOM     36  C   UNL A   1      44.736  30.202  30.385  1.00  0.00     0.049 A 
ATOM     37  H   UNL A   1      44.990  28.499  31.569  1.00  0.00     0.167 HD
ATOM     38  C   UNL A   1      45.119  28.336  28.775  1.00  0.00     0.074 A 
ATOM     39  C   UNL A   1      44.660  27.154  29.523  1.00  0.00     0.031 C 
ATOM     40  C   UNL A   1      45.075  29.665  29.090  1.00  0.00     0.034 A 
BRANCH  27  41
ATOM     41  C   UNL A   1      43.502  27.984  33.928  1.00  0.00     0.023 A 
ATOM     42  C   UNL A   1      43.741  26.844  33.119  1.00  0.00     0.012 A 
ATOM     43  C   UNL A   1      43.447  27.760  35.326  1.00  0.00     0.148 A 
ATOM     44  C   UNL A   1      43.806  25.553  33.653  1.00  0.00     0.002 A 
ATOM     45  C   UNL A   1      43.554  26.475  35.857  1.00  0.00     0.091 A 
ATOM     46  F   UNL A   1      43.212  28.766  36.165  1.00  0.00    -0.205 F 
ATOM     47  C   UNL A   1      43.700  25.365  35.023  1.00  0.00     0.022 A 
BRANCH  45  48
ATOM     48  S   UNL A   1      43.446  26.147  37.627  1.00  0.00     0.127 S 
ATOM     49  O   UNL A   1      42.005  26.227  37.852  1.00  0.00    -0.237 OA
ATOM     50  O   UNL A   1      44.011  24.801  37.708  1.00  0.00    -0.237 OA
ATOM     51  O   UNL A   1      44.243  27.179  38.275  1.00  0.00    -0.744 OA
ENDBRANCH  45  48
ENDBRANCH  27  41
BRANCH  28  52
ATOM     52  C   UNL A   1      43.380  25.212  25.788  1.00  0.00     0.023 A 
ATOM     53  C   UNL A   1      44.387  24.797  24.873  1.00  0.00     0.012 A 
ATOM     54  C   UNL A   1      42.510  24.214  26.264  1.00  0.00     0.148 A 
ATOM     55  C   UNL A   1      44.513  23.449  24.468  1.00  0.00     0.002 A 
ATOM     56  C   UNL A   1      42.642  22.881  25.872  1.00  0.00     0.091 A 
ATOM     57  F   UNL A   1      41.604  24.559  27.185  1.00  0.00    -0.205 F 
ATOM     58  C   UNL A   1      43.644  22.488  24.978  1.00  0.00     0.022 A 
BRANCH  56  59
ATOM     59  S   UNL A   1      41.571  21.600  26.540  1.00  0.00     0.127 S 
ATOM     60  O   UNL A   1      42.202  20.386  26.022  1.00  0.00    -0.237 OA
ATOM     61  O   UNL A   1      41.715  21.802  27.979  1.00  0.00    -0.237 OA
ATOM     62  O   UNL A   1      40.246  21.868  25.996  1.00  0.00    -0.744 OA
ENDBRANCH  56  59
ENDBRANCH  28  52
BRANCH  40  63
ATOM     63  C   UNL A   1      45.340  30.669  28.002  1.00  0.00     0.023 A 
ATOM     64  C   UNL A   1      44.347  31.344  27.255  1.00  0.00     0.012 A 
ATOM     65  C   UNL A   1      46.678  31.054  27.858  1.00  0.00     0.148 A 
ATOM     66  C   UNL A   1      44.705  32.366  26.365  1.00  0.00     0.002 A 
ATOM     67  C   UNL A   1      47.022  32.089  27.010  1.00  0.00     0.091 A 
ATOM     68  F   UNL A   1      47.593  30.416  28.604  1.00  0.00    -0.205 F 
ATOM     69  C   UNL A   1      46.043  32.742  26.247  1.00  0.00     0.022 A 
BRANCH  67  70
ATOM     70  S   UNL A   1      48.710  32.676  26.922  1.00  0.00     0.127 S 
ATOM     71  O   UNL A   1      49.004  32.954  28.326  1.00  0.00    -0.237 OA
ATOM     72  O   UNL A   1      49.408  31.517  26.363  1.00  0.00    -0.237 OA
ATOM     73  O   UNL A   1      48.692  33.840  26.046  1.00  0.00    -0.744 OA
ENDBRANCH  67  70
ENDBRANCH  40  63
ENDBRANCH  14  15
ENDBRANCH   7   9
ENDBRANCH   4   5
ENDBRANCH   3   4
ENDBRANCH   2   3
ENDBRANCH   1   2
BRANCH   1  74
ATOM     74  C   UNL A   1      38.890  31.692  34.060  1.00  0.00     0.021 C 
BRANCH  74  75
ATOM     75  C   UNL A   1      38.508  30.574  34.994  1.00  0.00     0.116 C 
BRANCH  75  76
ATOM     76  N   UNL A   1      39.635  30.426  36.169  1.00  0.00    -0.354 N 
ATOM     77  C   UNL A   1      41.215  31.491  36.899  1.00  0.00     0.242 C 
ATOM     78  H   UNL A   1      39.517  29.584  36.665  1.00  0.00     0.163 HD
ATOM     79  O   UNL A   1      42.094  31.217  37.795  1.00  0.00    -0.273 OA
BRANCH  77  80
ATOM     80  C   UNL A   1      41.629  33.235  36.448  1.00  0.00     0.175 C 
ATOM     81  C   UNL A   1      42.160  33.545  35.025  1.00  0.00     0.044 C 
ATOM     82  N   UNL A   1      40.683  34.349  36.695  1.00  0.00    -0.330 N 
ATOM     83  C   UNL A   1      41.752  34.955  34.605  1.00  0.00    -0.006 C 
ATOM     84  C   UNL A   1      41.014  35.503  35.840  1.00  0.00     0.127 C 
ATOM     85  C   UNL A   1      40.765  34.978  33.397  1.00  0.00     0.030 C 
ATOM     86  C   UNL A   1      43.053  35.621  34.127  1.00  0.00     0.030 C 
ATOM     87  C   UNL A   1      41.317  34.340  32.122  1.00  0.00     0.120 C 
ATOM     88  C   UNL A   1      43.596  34.902  32.862  1.00  0.00     0.120 C 
ATOM     89  N   UNL A   1      42.617  34.895  31.769  1.00  0.00    -0.342 N 
ATOM     90  C   UNL A   1      43.071  35.258  30.499  1.00  0.00     0.225 C 
ATOM     91  O   UNL A   1      44.255  35.542  30.316  1.00  0.00    -0.275 OA
BRANCH  82  92
ATOM     92  C   UNL A   1      39.676  34.428  37.636  1.00  0.00     0.225 C 
ATOM     93  O   UNL A   1      39.826  35.102  38.661  1.00  0.00    -0.275 OA
BRANCH  92  94
ATOM     94  C   UNL A   1      38.341  33.725  37.424  1.00  0.00     0.124 C 
BRANCH  94  95
ATOM     95  C   UNL A   1      38.022  32.635  38.436  1.00  0.00     0.154 C 
BRANCH  95  96
ATOM     96  N   UNL A   1      37.154  33.099  39.497  1.00  0.00    -0.272 N 
ATOM     97  C   UNL A   1      35.484  32.312  39.844  1.00  0.00     0.108 A 
ATOM     98  N   UNL A   1      37.798  33.919  41.063  1.00  0.00    -0.182 NA
ATOM     99  C   UNL A   1      35.131  32.595  41.647  1.00  0.00     0.042 A 
ATOM    100  C   UNL A   1      36.651  33.605  42.357  1.00  0.00     0.135 A 
ENDBRANCH  95  96
ENDBRANCH  94  95
ENDBRANCH  92  94
ENDBRANCH  82  92
BRANCH  90 101
ATOM    101  C   UNL A   1      42.194  35.401  29.296  1.00  0.00     0.079 C 
ATOM    102  C   UNL A   1      42.166  36.444  28.217  1.00  0.00     0.014 C 
ATOM    103  C   UNL A   1      42.715  35.071  27.919  1.00  0.00     0.014 C 
ENDBRANCH  90 101
ENDBRANCH  77  80
ENDBRANCH  75  76
ENDBRANCH  74  75
ENDBRANCH   1  74
TORSDOF 21
ENDMDL
