MODEL 1
REMARK VINA RESULT:     -12.5      0.000      0.000
REMARK SMILES Cc1ccc(NC(=O)[C@H]2CC(Cl)=CC[C@@H]2C(=O)NCCCCCCNC(=O)c2ccc(-c3c4nc(c(-c5cccc(S(=O)(=O)[O-])c5F)c5ccc([nH]5)c(-c5cccc(S(=O)(=O)[O-])c5F)c5nc(c(-c6cccc(S(=O)(=O)[O-])c6F)c6ccc3[nH]6)C=C5)C=C4)cc2)cc1[N+](=O)[O-]
REMARK SMILES IDX 21 1 20 2 19 3 18 4 16 5 17 6 15 8 9 9 10 10 11 11 14 12
REMARK SMILES IDX 12 13 13 14 7 15 6 16 8 18 5 19 1 20 2 21 3 22 92 23 4 24
REMARK SMILES IDX 91 25 93 26 94 27 95 28 22 29 23 30 24 31 25 32 26 33 27 35
REMARK SMILES IDX 28 36 29 37 90 38 30 39 89 40 31 41 32 42 33 43 83 44 34 45
REMARK SMILES IDX 88 46 82 47 84 48 35 49 87 50 81 51 80 52 36 54 68 55 48 56
REMARK SMILES IDX 67 57 49 58 52 59 66 60 85 61 50 62 51 63 65 65 86 66 53 67
REMARK SMILES IDX 37 68 38 69 46 70 39 71 41 72 47 73 40 74 42 75 43 76 44 77
REMARK SMILES IDX 45 78 69 79 70 80 78 81 71 82 73 83 79 84 72 85 74 86 75 87
REMARK SMILES IDX 76 88 77 89 54 90 55 91 63 92 56 93 58 94 64 95 57 96 59 97
REMARK SMILES IDX 60 98 61 99 62 100
REMARK H PARENT 18 7 6 17 25 34 84 53 52 64
REMARK Flexibility Score: inf
ROOT
ATOM      1  C   UNL A   1      32.681  27.816  26.874  1.00  0.00     0.002 C 
ENDROOT
BRANCH   1   2
ATOM      2  C   UNL A   1      31.189  27.458  26.957  1.00  0.00     0.021 C 
BRANCH   2   3
ATOM      3  C   UNL A   1      30.699  26.452  25.916  1.00  0.00     0.116 C 
BRANCH   3   4
ATOM      4  N   UNL A   1      30.917  25.078  26.336  1.00  0.00    -0.356 N 
ATOM      5  C   UNL A   1      31.901  24.186  26.072  1.00  0.00     0.224 C 
ATOM      6  O   UNL A   1      31.792  23.065  26.579  1.00  0.00    -0.275 OA
ATOM      7  H   UNL A   1      30.213  24.728  26.929  1.00  0.00     0.163 HD
BRANCH   5   8
ATOM      8  C   UNL A   1      33.088  24.537  25.180  1.00  0.00     0.095 C 
ATOM      9  C   UNL A   1      33.262  23.438  24.106  1.00  0.00     0.097 C 
ATOM     10  C   UNL A   1      34.626  23.546  23.396  1.00  0.00     0.062 C 
ATOM     11  C   UNL A   1      35.750  23.570  24.377  1.00  0.00     0.015 C 
ATOM     12  C   UNL A   1      34.331  24.667  26.109  1.00  0.00     0.043 C 
ATOM     13  Cl  UNL A   1      37.241  22.874  23.868  1.00  0.00    -0.089 Cl
ATOM     14  C   UNL A   1      35.615  24.078  25.605  1.00  0.00    -0.010 C 
BRANCH   9  15
ATOM     15  C   UNL A   1      32.196  23.523  23.022  1.00  0.00     0.228 C 
ATOM     16  N   UNL A   1      31.685  22.448  22.356  1.00  0.00    -0.326 N 
ATOM     17  H   UNL A   1      31.082  22.696  21.617  1.00  0.00     0.169 HD
ATOM     18  O   UNL A   1      31.679  24.619  22.769  1.00  0.00    -0.274 OA
BRANCH  16  19
ATOM     19  C   UNL A   1      31.841  21.061  22.507  1.00  0.00     0.048 A 
ATOM     20  C   UNL A   1      33.358  17.042  23.006  1.00  0.00     0.052 C 
ATOM     21  C   UNL A   1      32.717  18.395  22.917  1.00  0.00     0.027 A 
ATOM     22  C   UNL A   1      32.270  18.829  21.664  1.00  0.00     0.012 A 
ATOM     23  C   UNL A   1      32.597  19.295  23.986  1.00  0.00     0.274 A 
ATOM     24  C   UNL A   1      31.815  20.137  21.470  1.00  0.00     0.027 A 
ATOM     25  C   UNL A   1      32.120  20.604  23.798  1.00  0.00     0.112 A 
BRANCH  23  26
ATOM     26  N   UNL A   1      33.062  18.948  25.323  1.00  0.00     0.063 N 
ATOM     27  O   UNL A   1      34.121  19.462  25.701  1.00  0.00    -0.258 OA
ATOM     28  O   UNL A   1      32.379  18.144  25.973  1.00  0.00    -0.258 OA
ENDBRANCH  23  26
ENDBRANCH  16  19
ENDBRANCH   9  15
ENDBRANCH   5   8
ENDBRANCH   3   4
ENDBRANCH   2   3
ENDBRANCH   1   2
BRANCH   1  29
ATOM     29  C   UNL A   1      33.103  28.709  25.704  1.00  0.00     0.002 C 
BRANCH  29  30
ATOM     30  C   UNL A   1      33.536  30.125  26.079  1.00  0.00     0.021 C 
BRANCH  30  31
ATOM     31  C   UNL A   1      33.373  30.449  27.556  1.00  0.00     0.116 C 
BRANCH  31  32
ATOM     32  N   UNL A   1      34.184  31.562  27.994  1.00  0.00    -0.352 N 
ATOM     33  C   UNL A   1      35.367  31.573  28.703  1.00  0.00     0.251 C 
ATOM     34  H   UNL A   1      33.837  32.451  27.749  1.00  0.00     0.163 HD
ATOM     35  O   UNL A   1      35.670  32.626  29.263  1.00  0.00    -0.269 OA
BRANCH  33  36
ATOM     36  C   UNL A   1      36.323  30.427  28.668  1.00  0.00     0.039 A 
ATOM     37  C   UNL A   1      36.588  29.766  29.882  1.00  0.00     0.014 A 
ATOM     38  C   UNL A   1      37.107  30.125  27.559  1.00  0.00     0.014 A 
ATOM     39  C   UNL A   1      37.754  29.015  30.041  1.00  0.00     0.010 A 
ATOM     40  C   UNL A   1      38.294  29.449  27.725  1.00  0.00     0.010 A 
ATOM     41  C   UNL A   1      38.648  28.960  28.982  1.00  0.00    -0.014 A 
BRANCH  41  42
ATOM     42  C   UNL A   1      40.024  28.507  29.056  1.00  0.00     0.031 A 
ATOM     43  C   UNL A   1      40.353  27.089  28.840  1.00  0.00     0.074 A 
ATOM     44  C   UNL A   1      40.978  29.464  28.999  1.00  0.00     0.049 A 
ATOM     45  N   UNL A   1      41.538  26.607  28.985  1.00  0.00    -0.248 NA
ATOM     46  C   UNL A   1      39.361  26.083  28.471  1.00  0.00     0.031 C 
ATOM     47  C   UNL A   1      42.357  29.328  28.551  1.00  0.00     0.029 A 
ATOM     48  N   UNL A   1      40.924  30.752  29.541  1.00  0.00    -0.354 N 
ATOM     49  C   UNL A   1      41.534  25.346  28.437  1.00  0.00     0.074 A 
ATOM     50  C   UNL A   1      40.142  25.015  28.268  1.00  0.00     0.031 C 
ATOM     51  C   UNL A   1      43.081  30.329  29.076  1.00  0.00     0.029 A 
ATOM     52  C   UNL A   1      42.218  31.014  30.024  1.00  0.00     0.049 A 
ATOM     53  H   UNL A   1      40.144  31.351  29.577  1.00  0.00     0.167 HD
ATOM     54  C   UNL A   1      42.723  24.802  28.061  1.00  0.00     0.034 A 
ATOM     55  C   UNL A   1      42.494  31.202  31.349  1.00  0.00     0.034 A 
ATOM     56  C   UNL A   1      43.844  25.593  28.581  1.00  0.00     0.049 A 
ATOM     57  C   UNL A   1      43.494  30.195  31.894  1.00  0.00     0.074 A 
ATOM     58  C   UNL A   1      44.731  26.487  28.008  1.00  0.00     0.029 A 
ATOM     59  N   UNL A   1      44.003  25.711  29.958  1.00  0.00    -0.354 N 
ATOM     60  N   UNL A   1      43.919  29.151  31.236  1.00  0.00    -0.248 NA
ATOM     61  C   UNL A   1      44.088  30.275  33.226  1.00  0.00     0.031 C 
ATOM     62  C   UNL A   1      45.331  27.237  29.061  1.00  0.00     0.029 A 
ATOM     63  C   UNL A   1      44.851  26.760  30.271  1.00  0.00     0.049 A 
ATOM     64  H   UNL A   1      43.570  25.126  30.621  1.00  0.00     0.167 HD
ATOM     65  C   UNL A   1      44.697  28.365  32.045  1.00  0.00     0.074 A 
ATOM     66  C   UNL A   1      44.838  29.158  33.255  1.00  0.00     0.031 C 
ATOM     67  C   UNL A   1      45.097  27.109  31.668  1.00  0.00     0.034 A 
BRANCH  54  68
ATOM     68  C   UNL A   1      42.920  23.651  27.091  1.00  0.00     0.023 A 
ATOM     69  C   UNL A   1      43.669  23.923  25.923  1.00  0.00     0.012 A 
ATOM     70  C   UNL A   1      42.338  22.361  27.168  1.00  0.00     0.148 A 
ATOM     71  C   UNL A   1      43.821  22.987  24.892  1.00  0.00     0.002 A 
ATOM     72  C   UNL A   1      42.549  21.402  26.170  1.00  0.00     0.091 A 
ATOM     73  F   UNL A   1      41.490  22.064  28.155  1.00  0.00    -0.205 F 
ATOM     74  C   UNL A   1      43.276  21.720  25.021  1.00  0.00     0.022 A 
BRANCH  72  75
ATOM     75  S   UNL A   1      41.915  19.719  26.302  1.00  0.00     0.127 S 
ATOM     76  O   UNL A   1      42.322  19.340  27.654  1.00  0.00    -0.237 OA
ATOM     77  O   UNL A   1      40.475  19.909  26.131  1.00  0.00    -0.237 OA
ATOM     78  O   UNL A   1      42.548  18.963  25.227  1.00  0.00    -0.744 OA
ENDBRANCH  72  75
ENDBRANCH  54  68
BRANCH  55  79
ATOM     79  C   UNL A   1      41.371  31.831  32.108  1.00  0.00     0.023 A 
ATOM     80  C   UNL A   1      41.046  33.164  31.756  1.00  0.00     0.012 A 
ATOM     81  C   UNL A   1      40.417  31.065  32.803  1.00  0.00     0.148 A 
ATOM     82  C   UNL A   1      39.765  33.674  31.967  1.00  0.00     0.002 A 
ATOM     83  C   UNL A   1      39.138  31.585  33.017  1.00  0.00     0.091 A 
ATOM     84  F   UNL A   1      40.739  29.817  33.166  1.00  0.00    -0.205 F 
ATOM     85  C   UNL A   1      38.800  32.872  32.564  1.00  0.00     0.022 A 
BRANCH  83  86
ATOM     86  S   UNL A   1      37.822  30.603  33.755  1.00  0.00     0.127 S 
ATOM     87  O   UNL A   1      37.977  30.922  35.171  1.00  0.00    -0.237 OA
ATOM     88  O   UNL A   1      36.622  31.157  33.128  1.00  0.00    -0.237 OA
ATOM     89  O   UNL A   1      38.116  29.232  33.366  1.00  0.00    -0.744 OA
ENDBRANCH  83  86
ENDBRANCH  55  79
BRANCH  67  90
ATOM     90  C   UNL A   1      45.723  26.066  32.584  1.00  0.00     0.023 A 
ATOM     91  C   UNL A   1      47.113  25.972  32.788  1.00  0.00     0.012 A 
ATOM     92  C   UNL A   1      44.910  25.241  33.408  1.00  0.00     0.148 A 
ATOM     93  C   UNL A   1      47.673  25.080  33.712  1.00  0.00     0.002 A 
ATOM     94  C   UNL A   1      45.465  24.443  34.406  1.00  0.00     0.091 A 
ATOM     95  F   UNL A   1      43.582  25.210  33.225  1.00  0.00    -0.205 F 
ATOM     96  C   UNL A   1      46.849  24.333  34.540  1.00  0.00     0.022 A 
BRANCH  94  97
ATOM     97  S   UNL A   1      44.415  23.676  35.650  1.00  0.00     0.127 S 
ATOM     98  O   UNL A   1      45.392  23.041  36.531  1.00  0.00    -0.237 OA
ATOM     99  O   UNL A   1      43.723  24.826  36.239  1.00  0.00    -0.237 OA
ATOM    100  O   UNL A   1      43.544  22.784  34.896  1.00  0.00    -0.744 OA
ENDBRANCH  94  97
ENDBRANCH  67  90
ENDBRANCH  41  42
ENDBRANCH  33  36
ENDBRANCH  31  32
ENDBRANCH  30  31
ENDBRANCH  29  30
ENDBRANCH   1  29
TORSDOF 19
ENDMDL
MODEL 2
REMARK VINA RESULT:     -12.4      1.587      3.122
REMARK SMILES Cc1ccc(NC(=O)[C@H]2CC(Cl)=CC[C@@H]2C(=O)NCCCCCCNC(=O)c2ccc(-c3c4nc(c(-c5cccc(S(=O)(=O)[O-])c5F)c5ccc([nH]5)c(-c5cccc(S(=O)(=O)[O-])c5F)c5nc(c(-c6cccc(S(=O)(=O)[O-])c6F)c6ccc3[nH]6)C=C5)C=C4)cc2)cc1[N+](=O)[O-]
REMARK SMILES IDX 21 1 20 2 19 3 18 4 16 5 17 6 15 8 9 9 10 10 11 11 14 12
REMARK SMILES IDX 12 13 13 14 7 15 6 16 8 18 5 19 1 20 2 21 3 22 92 23 4 24
REMARK SMILES IDX 91 25 93 26 94 27 95 28 22 29 23 30 24 31 25 32 26 33 27 35
REMARK SMILES IDX 28 36 29 37 90 38 30 39 89 40 31 41 32 42 33 43 83 44 34 45
REMARK SMILES IDX 88 46 82 47 84 48 35 49 87 50 81 51 80 52 36 54 68 55 48 56
REMARK SMILES IDX 67 57 49 58 52 59 66 60 85 61 50 62 51 63 65 65 86 66 53 67
REMARK SMILES IDX 37 68 38 69 46 70 39 71 41 72 47 73 40 74 42 75 43 76 44 77
REMARK SMILES IDX 45 78 69 79 70 80 78 81 71 82 73 83 79 84 72 85 74 86 75 87
REMARK SMILES IDX 76 88 77 89 54 90 55 91 63 92 56 93 58 94 64 95 57 96 59 97
REMARK SMILES IDX 60 98 61 99 62 100
REMARK H PARENT 18 7 6 17 25 34 84 53 52 64
REMARK Flexibility Score: inf
ROOT
ATOM      1  C   UNL A   1      32.352  27.673  26.433  1.00  0.00     0.002 C 
ENDROOT
BRANCH   1   2
ATOM      2  C   UNL A   1      31.522  26.486  26.945  1.00  0.00     0.021 C 
BRANCH   2   3
ATOM      3  C   UNL A   1      30.443  25.981  25.986  1.00  0.00     0.116 C 
BRANCH   3   4
ATOM      4  N   UNL A   1      30.149  24.573  26.185  1.00  0.00    -0.356 N 
ATOM      5  C   UNL A   1      30.877  23.449  25.982  1.00  0.00     0.224 C 
ATOM      6  O   UNL A   1      30.329  22.372  26.239  1.00  0.00    -0.275 OA
ATOM      7  H   UNL A   1      29.244  24.402  26.536  1.00  0.00     0.163 HD
BRANCH   5   8
ATOM      8  C   UNL A   1      32.306  23.500  25.450  1.00  0.00     0.095 C 
ATOM      9  C   UNL A   1      32.531  22.319  24.478  1.00  0.00     0.097 C 
ATOM     10  C   UNL A   1      34.027  22.111  24.172  1.00  0.00     0.062 C 
ATOM     11  C   UNL A   1      34.827  21.979  25.426  1.00  0.00     0.015 C 
ATOM     12  C   UNL A   1      33.252  23.447  26.686  1.00  0.00     0.043 C 
ATOM     13  Cl  UNL A   1      36.222  20.973  25.357  1.00  0.00    -0.089 Cl
ATOM     14  C   UNL A   1      34.474  22.585  26.563  1.00  0.00    -0.010 C 
BRANCH   9  15
ATOM     15  C   UNL A   1      31.837  22.538  23.140  1.00  0.00     0.228 C 
ATOM     16  N   UNL A   1      31.693  23.753  22.537  1.00  0.00    -0.326 N 
ATOM     17  H   UNL A   1      31.129  23.724  21.730  1.00  0.00     0.169 HD
ATOM     18  O   UNL A   1      31.445  21.557  22.496  1.00  0.00    -0.274 OA
BRANCH  16  19
ATOM     19  C   UNL A   1      32.184  25.035  22.828  1.00  0.00     0.048 A 
ATOM     20  C   UNL A   1      33.530  29.142  22.685  1.00  0.00     0.052 C 
ATOM     21  C   UNL A   1      33.009  27.748  22.870  1.00  0.00     0.027 A 
ATOM     22  C   UNL A   1      33.938  26.704  22.942  1.00  0.00     0.012 A 
ATOM     23  C   UNL A   1      31.651  27.399  22.901  1.00  0.00     0.274 A 
ATOM     24  C   UNL A   1      33.528  25.368  22.947  1.00  0.00     0.027 A 
ATOM     25  C   UNL A   1      31.235  26.057  22.927  1.00  0.00     0.112 A 
BRANCH  23  26
ATOM     26  N   UNL A   1      30.607  28.412  22.800  1.00  0.00     0.063 N 
ATOM     27  O   UNL A   1      29.959  28.447  21.749  1.00  0.00    -0.258 OA
ATOM     28  O   UNL A   1      30.464  29.179  23.762  1.00  0.00    -0.258 OA
ENDBRANCH  23  26
ENDBRANCH  16  19
ENDBRANCH   9  15
ENDBRANCH   5   8
ENDBRANCH   3   4
ENDBRANCH   2   3
ENDBRANCH   1   2
BRANCH   1  29
ATOM     29  C   UNL A   1      31.633  29.021  26.345  1.00  0.00     0.002 C 
BRANCH  29  30
ATOM     30  C   UNL A   1      32.432  30.228  26.833  1.00  0.00     0.021 C 
BRANCH  30  31
ATOM     31  C   UNL A   1      33.713  29.863  27.568  1.00  0.00     0.116 C 
BRANCH  31  32
ATOM     32  N   UNL A   1      34.549  31.002  27.870  1.00  0.00    -0.352 N 
ATOM     33  C   UNL A   1      35.772  31.061  28.504  1.00  0.00     0.251 C 
ATOM     34  H   UNL A   1      34.189  31.871  27.577  1.00  0.00     0.163 HD
ATOM     35  O   UNL A   1      36.108  32.153  28.962  1.00  0.00    -0.269 OA
BRANCH  33  36
ATOM     36  C   UNL A   1      36.723  29.911  28.502  1.00  0.00     0.039 A 
ATOM     37  C   UNL A   1      36.979  29.279  29.734  1.00  0.00     0.014 A 
ATOM     38  C   UNL A   1      37.513  29.579  27.404  1.00  0.00     0.014 A 
ATOM     39  C   UNL A   1      38.142  28.528  29.917  1.00  0.00     0.010 A 
ATOM     40  C   UNL A   1      38.696  28.903  27.593  1.00  0.00     0.010 A 
ATOM     41  C   UNL A   1      39.041  28.443  28.864  1.00  0.00    -0.014 A 
BRANCH  41  42
ATOM     42  C   UNL A   1      40.415  27.986  28.957  1.00  0.00     0.031 A 
ATOM     43  C   UNL A   1      40.742  26.566  28.752  1.00  0.00     0.074 A 
ATOM     44  C   UNL A   1      41.372  28.940  28.905  1.00  0.00     0.049 A 
ATOM     45  N   UNL A   1      41.924  26.082  28.913  1.00  0.00    -0.248 NA
ATOM     46  C   UNL A   1      39.752  25.561  28.377  1.00  0.00     0.031 C 
ATOM     47  C   UNL A   1      42.756  28.798  28.473  1.00  0.00     0.029 A 
ATOM     48  N   UNL A   1      41.316  30.232  29.439  1.00  0.00    -0.354 N 
ATOM     49  C   UNL A   1      41.922  24.817  28.373  1.00  0.00     0.074 A 
ATOM     50  C   UNL A   1      40.532  24.490  28.189  1.00  0.00     0.031 C 
ATOM     51  C   UNL A   1      43.476  29.800  29.002  1.00  0.00     0.029 A 
ATOM     52  C   UNL A   1      42.604  30.492  29.935  1.00  0.00     0.049 A 
ATOM     53  H   UNL A   1      40.537  30.833  29.463  1.00  0.00     0.167 HD
ATOM     54  C   UNL A   1      43.114  24.268  28.013  1.00  0.00     0.034 A 
ATOM     55  C   UNL A   1      42.866  30.687  31.262  1.00  0.00     0.034 A 
ATOM     56  C   UNL A   1      44.232  25.059  28.542  1.00  0.00     0.049 A 
ATOM     57  C   UNL A   1      43.857  29.681  31.825  1.00  0.00     0.074 A 
ATOM     58  C   UNL A   1      45.127  25.947  27.973  1.00  0.00     0.029 A 
ATOM     59  N   UNL A   1      44.374  25.184  29.919  1.00  0.00    -0.354 N 
ATOM     60  N   UNL A   1      44.287  28.631  31.177  1.00  0.00    -0.248 NA
ATOM     61  C   UNL A   1      44.436  29.766  33.163  1.00  0.00     0.031 C 
ATOM     62  C   UNL A   1      45.718  26.701  29.029  1.00  0.00     0.029 A 
ATOM     63  C   UNL A   1      45.222  26.232  30.236  1.00  0.00     0.049 A 
ATOM     64  H   UNL A   1      43.932  24.604  30.581  1.00  0.00     0.167 HD
ATOM     65  C   UNL A   1      45.053  27.847  31.999  1.00  0.00     0.074 A 
ATOM     66  C   UNL A   1      45.182  28.647  33.207  1.00  0.00     0.031 C 
ATOM     67  C   UNL A   1      45.454  26.589  31.634  1.00  0.00     0.034 A 
BRANCH  54  68
ATOM     68  C   UNL A   1      43.318  23.112  27.051  1.00  0.00     0.023 A 
ATOM     69  C   UNL A   1      44.096  23.370  25.899  1.00  0.00     0.012 A 
ATOM     70  C   UNL A   1      42.720  21.828  27.121  1.00  0.00     0.148 A 
ATOM     71  C   UNL A   1      44.260  22.428  24.875  1.00  0.00     0.002 A 
ATOM     72  C   UNL A   1      42.941  20.864  26.131  1.00  0.00     0.091 A 
ATOM     73  F   UNL A   1      41.847  21.546  28.089  1.00  0.00    -0.205 F 
ATOM     74  C   UNL A   1      43.697  21.168  24.997  1.00  0.00     0.022 A 
BRANCH  72  75
ATOM     75  S   UNL A   1      42.285  19.189  26.254  1.00  0.00     0.127 S 
ATOM     76  O   UNL A   1      40.915  19.357  25.770  1.00  0.00    -0.237 OA
ATOM     77  O   UNL A   1      43.160  18.438  25.354  1.00  0.00    -0.237 OA
ATOM     78  O   UNL A   1      42.406  18.809  27.657  1.00  0.00    -0.744 OA
ENDBRANCH  72  75
ENDBRANCH  54  68
BRANCH  55  79
ATOM     79  C   UNL A   1      41.736  31.324  32.005  1.00  0.00     0.023 A 
ATOM     80  C   UNL A   1      41.414  32.653  31.636  1.00  0.00     0.012 A 
ATOM     81  C   UNL A   1      40.777  30.565  32.701  1.00  0.00     0.148 A 
ATOM     82  C   UNL A   1      40.130  33.163  31.830  1.00  0.00     0.002 A 
ATOM     83  C   UNL A   1      39.496  31.086  32.898  1.00  0.00     0.091 A 
ATOM     84  F   UNL A   1      41.098  29.321  33.080  1.00  0.00    -0.205 F 
ATOM     85  C   UNL A   1      39.161  32.367  32.428  1.00  0.00     0.022 A 
BRANCH  83  86
ATOM     86  S   UNL A   1      38.175  30.111  33.636  1.00  0.00     0.127 S 
ATOM     87  O   UNL A   1      36.989  30.782  33.113  1.00  0.00    -0.237 OA
ATOM     88  O   UNL A   1      38.419  28.777  33.088  1.00  0.00    -0.237 OA
ATOM     89  O   UNL A   1      38.393  30.212  35.072  1.00  0.00    -0.744 OA
ENDBRANCH  83  86
ENDBRANCH  55  79
BRANCH  67  90
ATOM     90  C   UNL A   1      46.065  25.549  32.563  1.00  0.00     0.023 A 
ATOM     91  C   UNL A   1      47.443  25.508  32.853  1.00  0.00     0.012 A 
ATOM     92  C   UNL A   1      45.240  24.669  33.313  1.00  0.00     0.148 A 
ATOM     93  C   UNL A   1      47.982  24.616  33.789  1.00  0.00     0.002 A 
ATOM     94  C   UNL A   1      45.765  23.868  34.325  1.00  0.00     0.091 A 
ATOM     95  F   UNL A   1      43.928  24.586  33.044  1.00  0.00    -0.205 F 
ATOM     96  C   UNL A   1      47.141  23.814  34.545  1.00  0.00     0.022 A 
BRANCH  94  97
ATOM     97  S   UNL A   1      44.674  23.024  35.481  1.00  0.00     0.127 S 
ATOM     98  O   UNL A   1      44.085  21.981  34.645  1.00  0.00    -0.237 OA
ATOM     99  O   UNL A   1      45.604  22.532  36.501  1.00  0.00    -0.237 OA
ATOM    100  O   UNL A   1      43.769  24.063  35.956  1.00  0.00    -0.744 OA
ENDBRANCH  94  97
ENDBRANCH  67  90
ENDBRANCH  41  42
ENDBRANCH  33  36
ENDBRANCH  31  32
ENDBRANCH  30  31
ENDBRANCH  29  30
ENDBRANCH   1  29
TORSDOF 19
ENDMDL
MODEL 3
REMARK VINA RESULT:     -11.8      2.249      3.655
REMARK SMILES Cc1ccc(NC(=O)[C@H]2CC(Cl)=CC[C@@H]2C(=O)NCCCCCCNC(=O)c2ccc(-c3c4nc(c(-c5cccc(S(=O)(=O)[O-])c5F)c5ccc([nH]5)c(-c5cccc(S(=O)(=O)[O-])c5F)c5nc(c(-c6cccc(S(=O)(=O)[O-])c6F)c6ccc3[nH]6)C=C5)C=C4)cc2)cc1[N+](=O)[O-]
REMARK SMILES IDX 21 1 20 2 19 3 18 4 16 5 17 6 15 8 9 9 10 10 11 11 14 12
REMARK SMILES IDX 12 13 13 14 7 15 6 16 8 18 5 19 1 20 2 21 3 22 92 23 4 24
REMARK SMILES IDX 91 25 93 26 94 27 95 28 22 29 23 30 24 31 25 32 26 33 27 35
REMARK SMILES IDX 28 36 29 37 90 38 30 39 89 40 31 41 32 42 33 43 83 44 34 45
REMARK SMILES IDX 88 46 82 47 84 48 35 49 87 50 81 51 80 52 36 54 68 55 48 56
REMARK SMILES IDX 67 57 49 58 52 59 66 60 85 61 50 62 51 63 65 65 86 66 53 67
REMARK SMILES IDX 37 68 38 69 46 70 39 71 41 72 47 73 40 74 42 75 43 76 44 77
REMARK SMILES IDX 45 78 69 79 70 80 78 81 71 82 73 83 79 84 72 85 74 86 75 87
REMARK SMILES IDX 76 88 77 89 54 90 55 91 63 92 56 93 58 94 64 95 57 96 59 97
REMARK SMILES IDX 60 98 61 99 62 100
REMARK H PARENT 18 7 6 17 25 34 84 53 52 64
REMARK Flexibility Score: inf
ROOT
ATOM      1  C   UNL A   1      32.347  28.418  26.001  1.00  0.00     0.002 C 
ENDROOT
BRANCH   1   2
ATOM      2  C   UNL A   1      31.786  27.363  26.966  1.00  0.00     0.021 C 
BRANCH   2   3
ATOM      3  C   UNL A   1      30.756  26.406  26.364  1.00  0.00     0.116 C 
BRANCH   3   4
ATOM      4  N   UNL A   1      31.005  25.025  26.741  1.00  0.00    -0.356 N 
ATOM      5  C   UNL A   1      31.872  24.093  26.279  1.00  0.00     0.224 C 
ATOM      6  O   UNL A   1      31.830  22.978  26.809  1.00  0.00    -0.275 OA
ATOM      7  H   UNL A   1      30.432  24.706  27.476  1.00  0.00     0.163 HD
BRANCH   5   8
ATOM      8  C   UNL A   1      32.851  24.393  25.148  1.00  0.00     0.095 C 
ATOM      9  C   UNL A   1      33.020  23.131  24.271  1.00  0.00     0.097 C 
ATOM     10  C   UNL A   1      34.233  23.251  23.329  1.00  0.00     0.062 C 
ATOM     11  C   UNL A   1      35.476  23.595  24.081  1.00  0.00     0.015 C 
ATOM     12  C   UNL A   1      34.186  24.844  25.811  1.00  0.00     0.043 C 
ATOM     13  Cl  UNL A   1      36.959  22.986  23.453  1.00  0.00    -0.089 Cl
ATOM     14  C   UNL A   1      35.452  24.316  25.205  1.00  0.00    -0.010 C 
BRANCH   9  15
ATOM     15  C   UNL A   1      31.804  22.880  23.389  1.00  0.00     0.228 C 
ATOM     16  N   UNL A   1      30.994  23.860  22.896  1.00  0.00    -0.326 N 
ATOM     17  H   UNL A   1      30.197  23.512  22.433  1.00  0.00     0.169 HD
ATOM     18  O   UNL A   1      31.562  21.727  23.009  1.00  0.00    -0.274 OA
BRANCH  16  19
ATOM     19  C   UNL A   1      31.062  25.262  22.911  1.00  0.00     0.048 A 
ATOM     20  C   UNL A   1      30.696  29.487  22.068  1.00  0.00     0.052 C 
ATOM     21  C   UNL A   1      30.815  28.057  22.504  1.00  0.00     0.027 A 
ATOM     22  C   UNL A   1      32.015  27.387  22.239  1.00  0.00     0.012 A 
ATOM     23  C   UNL A   1      29.784  27.313  23.095  1.00  0.00     0.274 A 
ATOM     24  C   UNL A   1      32.142  26.013  22.464  1.00  0.00     0.027 A 
ATOM     25  C   UNL A   1      29.916  25.936  23.342  1.00  0.00     0.112 A 
BRANCH  23  26
ATOM     26  N   UNL A   1      28.486  27.913  23.382  1.00  0.00     0.063 N 
ATOM     27  O   UNL A   1      28.372  29.127  23.183  1.00  0.00    -0.258 OA
ATOM     28  O   UNL A   1      27.602  27.169  23.829  1.00  0.00    -0.258 OA
ENDBRANCH  23  26
ENDBRANCH  16  19
ENDBRANCH   9  15
ENDBRANCH   5   8
ENDBRANCH   3   4
ENDBRANCH   2   3
ENDBRANCH   1   2
BRANCH   1  29
ATOM     29  C   UNL A   1      31.770  29.831  26.125  1.00  0.00     0.002 C 
BRANCH  29  30
ATOM     30  C   UNL A   1      32.598  30.809  26.956  1.00  0.00     0.021 C 
BRANCH  30  31
ATOM     31  C   UNL A   1      34.002  30.317  27.272  1.00  0.00     0.116 C 
BRANCH  31  32
ATOM     32  N   UNL A   1      34.956  31.384  27.468  1.00  0.00    -0.352 N 
ATOM     33  C   UNL A   1      36.194  31.366  28.076  1.00  0.00     0.251 C 
ATOM     34  H   UNL A   1      34.680  32.259  27.111  1.00  0.00     0.163 HD
ATOM     35  O   UNL A   1      36.650  32.450  28.439  1.00  0.00    -0.269 OA
BRANCH  33  36
ATOM     36  C   UNL A   1      37.022  30.127  28.155  1.00  0.00     0.039 A 
ATOM     37  C   UNL A   1      36.970  29.386  29.350  1.00  0.00     0.014 A 
ATOM     38  C   UNL A   1      37.983  29.794  27.204  1.00  0.00     0.014 A 
ATOM     39  C   UNL A   1      38.003  28.508  29.685  1.00  0.00     0.010 A 
ATOM     40  C   UNL A   1      39.041  28.988  27.555  1.00  0.00     0.010 A 
ATOM     41  C   UNL A   1      39.083  28.406  28.821  1.00  0.00    -0.014 A 
BRANCH  41  42
ATOM     42  C   UNL A   1      40.366  27.805  29.136  1.00  0.00     0.031 A 
ATOM     43  C   UNL A   1      40.625  26.393  28.811  1.00  0.00     0.074 A 
ATOM     44  C   UNL A   1      41.379  28.657  29.416  1.00  0.00     0.049 A 
ATOM     45  N   UNL A   1      41.704  25.776  29.148  1.00  0.00    -0.248 NA
ATOM     46  C   UNL A   1      39.670  25.544  28.105  1.00  0.00     0.031 C 
ATOM     47  C   UNL A   1      42.810  28.426  29.267  1.00  0.00     0.029 A 
ATOM     48  N   UNL A   1      41.302  29.875  30.098  1.00  0.00    -0.354 N 
ATOM     49  C   UNL A   1      41.728  24.590  28.451  1.00  0.00     0.074 A 
ATOM     50  C   UNL A   1      40.392  24.429  27.939  1.00  0.00     0.031 C 
ATOM     51  C   UNL A   1      43.468  29.281  30.066  1.00  0.00     0.029 A 
ATOM     52  C   UNL A   1      42.465  29.943  30.883  1.00  0.00     0.049 A 
ATOM     53  H   UNL A   1      40.583  30.545  30.041  1.00  0.00     0.167 HD
ATOM     54  C   UNL A   1      42.926  23.970  28.277  1.00  0.00     0.034 A 
ATOM     55  C   UNL A   1      42.442  29.953  32.249  1.00  0.00     0.034 A 
ATOM     56  C   UNL A   1      43.955  24.576  29.130  1.00  0.00     0.049 A 
ATOM     57  C   UNL A   1      43.208  28.793  32.863  1.00  0.00     0.074 A 
ATOM     58  C   UNL A   1      45.017  25.429  28.887  1.00  0.00     0.029 A 
ATOM     59  N   UNL A   1      43.800  24.522  30.511  1.00  0.00    -0.354 N 
ATOM     60  N   UNL A   1      43.692  27.789  32.182  1.00  0.00    -0.248 NA
ATOM     61  C   UNL A   1      43.484  28.661  34.291  1.00  0.00     0.031 C 
ATOM     62  C   UNL A   1      45.414  25.990  30.136  1.00  0.00     0.029 A 
ATOM     63  C   UNL A   1      44.632  25.435  31.137  1.00  0.00     0.049 A 
ATOM     64  H   UNL A   1      43.182  23.917  30.980  1.00  0.00     0.167 HD
ATOM     65  C   UNL A   1      44.199  26.840  33.030  1.00  0.00     0.074 A 
ATOM     66  C   UNL A   1      44.118  27.475  34.336  1.00  0.00     0.031 C 
ATOM     67  C   UNL A   1      44.576  25.599  32.589  1.00  0.00     0.034 A 
BRANCH  54  68
ATOM     68  C   UNL A   1      43.251  22.920  27.230  1.00  0.00     0.023 A 
ATOM     69  C   UNL A   1      44.055  23.331  26.141  1.00  0.00     0.012 A 
ATOM     70  C   UNL A   1      42.744  21.598  27.161  1.00  0.00     0.148 A 
ATOM     71  C   UNL A   1      44.327  22.497  25.049  1.00  0.00     0.002 A 
ATOM     72  C   UNL A   1      43.073  20.742  26.104  1.00  0.00     0.091 A 
ATOM     73  F   UNL A   1      41.854  21.171  28.060  1.00  0.00    -0.205 F 
ATOM     74  C   UNL A   1      43.851  21.196  25.036  1.00  0.00     0.022 A 
BRANCH  72  75
ATOM     75  S   UNL A   1      42.534  19.022  26.052  1.00  0.00     0.127 S 
ATOM     76  O   UNL A   1      41.128  19.150  25.669  1.00  0.00    -0.237 OA
ATOM     77  O   UNL A   1      43.396  18.450  25.017  1.00  0.00    -0.237 OA
ATOM     78  O   UNL A   1      42.768  18.484  27.387  1.00  0.00    -0.744 OA
ENDBRANCH  72  75
ENDBRANCH  54  68
BRANCH  55  79
ATOM     79  C   UNL A   1      41.227  30.609  32.819  1.00  0.00     0.023 A 
ATOM     80  C   UNL A   1      40.303  29.758  33.474  1.00  0.00     0.012 A 
ATOM     81  C   UNL A   1      41.179  31.990  33.088  1.00  0.00     0.148 A 
ATOM     82  C   UNL A   1      39.452  30.244  34.467  1.00  0.00     0.002 A 
ATOM     83  C   UNL A   1      40.319  32.470  34.078  1.00  0.00     0.091 A 
ATOM     84  F   UNL A   1      42.029  32.797  32.441  1.00  0.00    -0.205 F 
ATOM     85  C   UNL A   1      39.486  31.594  34.794  1.00  0.00     0.022 A 
BRANCH  83  86
ATOM     86  S   UNL A   1      40.322  34.197  34.585  1.00  0.00     0.127 S 
ATOM     87  O   UNL A   1      39.302  34.198  35.630  1.00  0.00    -0.237 OA
ATOM     88  O   UNL A   1      41.691  34.388  35.063  1.00  0.00    -0.237 OA
ATOM     89  O   UNL A   1      40.007  34.943  33.375  1.00  0.00    -0.744 OA
ENDBRANCH  83  86
ENDBRANCH  55  79
BRANCH  67  90
ATOM     90  C   UNL A   1      44.890  24.400  33.474  1.00  0.00     0.023 A 
ATOM     91  C   UNL A   1      43.952  23.381  33.730  1.00  0.00     0.012 A 
ATOM     92  C   UNL A   1      46.210  24.174  33.950  1.00  0.00     0.148 A 
ATOM     93  C   UNL A   1      44.282  22.231  34.458  1.00  0.00     0.002 A 
ATOM     94  C   UNL A   1      46.561  22.977  34.570  1.00  0.00     0.091 A 
ATOM     95  F   UNL A   1      47.143  25.128  33.818  1.00  0.00    -0.205 F 
ATOM     96  C   UNL A   1      45.593  22.015  34.856  1.00  0.00     0.022 A 
BRANCH  94  97
ATOM     97  S   UNL A   1      48.291  22.571  34.857  1.00  0.00     0.127 S 
ATOM     98  O   UNL A   1      48.980  23.526  33.993  1.00  0.00    -0.237 OA
ATOM     99  O   UNL A   1      48.448  22.828  36.291  1.00  0.00    -0.237 OA
ATOM    100  O   UNL A   1      48.403  21.165  34.491  1.00  0.00    -0.744 OA
ENDBRANCH  94  97
ENDBRANCH  67  90
ENDBRANCH  41  42
ENDBRANCH  33  36
ENDBRANCH  31  32
ENDBRANCH  30  31
ENDBRANCH  29  30
ENDBRANCH   1  29
TORSDOF 19
ENDMDL
