MODEL 1
REMARK VINA RESULT:     -13.3      0.000      0.000
REMARK SMILES Cc1ccc(NC(=O)c2cnn3c2NC2=C(C(=O)CCC2)[C@H]3c2ccc(C(=O)NCCCCCCNC(=O)c3ccc(-c4c5nc(c(-c6cccc(S(=O)(=O)[O-])c6F)c6ccc([nH]6)c(-c6cccc(S(=O)(=O)[O-])c6F)c6nc(c(-c7cccc(S(=O)(=O)[O-])c7F)c7ccc4[nH]7)C=C6)C=C5)cc3)cc2)cc1
REMARK SMILES IDX 32 1 31 2 30 3 29 4 27 5 28 6 26 8 23 9 24 10 103 11 25 12
REMARK SMILES IDX 102 13 22 14 9 15 10 16 13 17 11 18 12 19 14 20 15 21 16 23
REMARK SMILES IDX 21 24 17 25 20 26 18 27 19 28 7 29 6 30 8 32 5 33 1 34 2 35
REMARK SMILES IDX 3 36 105 37 4 38 104 39 33 40 34 41 35 42 36 43 37 44 38 46
REMARK SMILES IDX 39 47 40 48 101 49 41 50 100 51 42 52 43 53 44 54 94 55
REMARK SMILES IDX 45 56 99 57 93 58 95 59 46 60 98 61 92 62 91 63 47 65 79 66
REMARK SMILES IDX 59 67 78 68 60 69 63 70 77 71 96 72 61 73 62 74 76 76 97 77
REMARK SMILES IDX 64 78 48 79 49 80 57 81 50 82 52 83 58 84 51 85 53 86 54 87
REMARK SMILES IDX 55 88 56 89 80 90 81 91 89 92 82 93 84 94 90 95 83 96 85 97
REMARK SMILES IDX 86 98 87 99 88 100 65 101 66 102 74 103 67 104 69 105 75 106
REMARK SMILES IDX 68 107 70 108 71 109 72 110 73 111
REMARK H PARENT 29 7 14 22 6 31 36 45 95 64 63 75
REMARK Flexibility Score: inf
ROOT
ATOM      1  C   UNL A   1      38.293  28.832  29.204  1.00  0.00     0.002 C 
ENDROOT
BRANCH   1   2
ATOM      2  C   UNL A   1      36.947  29.562  29.039  1.00  0.00     0.021 C 
BRANCH   2   3
ATOM      3  C   UNL A   1      36.837  30.466  27.808  1.00  0.00     0.116 C 
BRANCH   3   4
ATOM      4  N   UNL A   1      35.690  31.353  27.896  1.00  0.00    -0.352 N 
ATOM      5  C   UNL A   1      34.357  31.226  27.592  1.00  0.00     0.251 C 
ATOM      6  O   UNL A   1      33.626  32.164  27.923  1.00  0.00    -0.269 OA
ATOM      7  H   UNL A   1      35.920  32.242  28.249  1.00  0.00     0.163 HD
BRANCH   5   8
ATOM      8  C   UNL A   1      33.728  30.023  26.964  1.00  0.00     0.039 A 
ATOM      9  C   UNL A   1      32.168  27.914  25.838  1.00  0.00    -0.019 A 
ATOM     10  C   UNL A   1      32.100  29.213  25.314  1.00  0.00     0.007 A 
ATOM     11  C   UNL A   1      33.196  27.662  26.770  1.00  0.00     0.007 A 
ATOM     12  C   UNL A   1      32.855  30.250  25.885  1.00  0.00     0.014 A 
ATOM     13  C   UNL A   1      33.956  28.702  27.338  1.00  0.00     0.014 A 
BRANCH   9  14
ATOM     14  C   UNL A   1      31.028  26.878  25.546  1.00  0.00     0.175 C 
ATOM     15  C   UNL A   1      32.059  25.683  22.343  1.00  0.00     0.102 A 
ATOM     16  C   UNL A   1      30.741  26.187  22.117  1.00  0.00     0.151 A 
ATOM     17  C   UNL A   1      32.137  25.619  23.718  1.00  0.00     0.142 A 
ATOM     18  N   UNL A   1      30.160  26.662  23.224  1.00  0.00    -0.178 NA
ATOM     19  N   UNL A   1      31.105  26.439  24.149  1.00  0.00    -0.237 N 
ATOM     20  N   UNL A   1      32.922  25.030  24.679  1.00  0.00    -0.343 N 
ATOM     21  C   UNL A   1      32.401  24.874  25.977  1.00  0.00     0.026 C 
ATOM     22  H   UNL A   1      33.833  24.724  24.464  1.00  0.00     0.168 HD
ATOM     23  C   UNL A   1      31.291  25.586  26.300  1.00  0.00     0.044 C 
ATOM     24  C   UNL A   1      32.789  23.703  26.835  1.00  0.00     0.055 C 
ATOM     25  C   UNL A   1      30.135  24.691  26.604  1.00  0.00     0.163 C 
ATOM     26  C   UNL A   1      31.620  22.736  27.041  1.00  0.00     0.014 C 
ATOM     27  O   UNL A   1      29.040  25.153  26.909  1.00  0.00    -0.294 OA
ATOM     28  C   UNL A   1      30.352  23.203  26.335  1.00  0.00     0.081 C 
BRANCH  15  29
ATOM     29  C   UNL A   1      33.039  25.262  21.370  1.00  0.00     0.261 C 
ATOM     30  N   UNL A   1      33.755  24.097  21.591  1.00  0.00    -0.322 N 
ATOM     31  H   UNL A   1      34.583  24.029  21.062  1.00  0.00     0.170 HD
ATOM     32  O   UNL A   1      33.279  25.939  20.370  1.00  0.00    -0.269 OA
BRANCH  30  33
ATOM     33  C   UNL A   1      33.518  22.987  22.436  1.00  0.00     0.041 A 
ATOM     34  C   UNL A   1      32.880  19.751  25.247  1.00  0.00     0.044 C 
ATOM     35  C   UNL A   1      33.127  20.845  24.247  1.00  0.00    -0.051 A 
ATOM     36  C   UNL A   1      32.149  21.167  23.309  1.00  0.00     0.005 A 
ATOM     37  C   UNL A   1      34.317  21.579  24.252  1.00  0.00     0.005 A 
ATOM     38  C   UNL A   1      32.363  22.202  22.393  1.00  0.00     0.026 A 
ATOM     39  C   UNL A   1      34.513  22.634  23.349  1.00  0.00     0.026 A 
ENDBRANCH  30  33
ENDBRANCH  15  29
ENDBRANCH   9  14
ENDBRANCH   5   8
ENDBRANCH   3   4
ENDBRANCH   2   3
ENDBRANCH   1   2
BRANCH   1  40
ATOM     40  C   UNL A   1      38.669  27.801  28.125  1.00  0.00     0.002 C 
BRANCH  40  41
ATOM     41  C   UNL A   1      39.294  26.498  28.625  1.00  0.00     0.021 C 
BRANCH  41  42
ATOM     42  C   UNL A   1      38.953  25.279  27.779  1.00  0.00     0.116 C 
BRANCH  42  43
ATOM     43  N   UNL A   1      39.744  25.175  26.574  1.00  0.00    -0.352 N 
ATOM     44  C   UNL A   1      41.067  25.560  26.315  1.00  0.00     0.251 C 
ATOM     45  H   UNL A   1      39.278  24.765  25.809  1.00  0.00     0.163 HD
ATOM     46  O   UNL A   1      41.454  25.562  25.173  1.00  0.00    -0.269 OA
BRANCH  44  47
ATOM     47  C   UNL A   1      41.991  25.811  27.452  1.00  0.00     0.039 A 
ATOM     48  C   UNL A   1      42.500  27.114  27.602  1.00  0.00     0.014 A 
ATOM     49  C   UNL A   1      42.524  24.778  28.210  1.00  0.00     0.014 A 
ATOM     50  C   UNL A   1      43.693  27.320  28.294  1.00  0.00     0.010 A 
ATOM     51  C   UNL A   1      43.756  24.950  28.794  1.00  0.00     0.010 A 
ATOM     52  C   UNL A   1      44.367  26.208  28.778  1.00  0.00    -0.014 A 
BRANCH  52  53
ATOM     53  C   UNL A   1      45.724  26.192  29.300  1.00  0.00     0.031 A 
ATOM     54  C   UNL A   1      46.808  25.670  28.444  1.00  0.00     0.074 A 
ATOM     55  C   UNL A   1      45.989  26.965  30.377  1.00  0.00     0.049 A 
ATOM     56  N   UNL A   1      48.046  25.620  28.790  1.00  0.00    -0.248 NA
ATOM     57  C   UNL A   1      46.559  25.127  27.113  1.00  0.00     0.031 C 
ATOM     58  C   UNL A   1      47.266  27.570  30.736  1.00  0.00     0.029 A 
ATOM     59  N   UNL A   1      45.185  27.179  31.503  1.00  0.00    -0.354 N 
ATOM     60  C   UNL A   1      48.783  25.313  27.667  1.00  0.00     0.074 A 
ATOM     61  C   UNL A   1      47.807  24.917  26.684  1.00  0.00     0.031 C 
ATOM     62  C   UNL A   1      47.269  27.820  32.053  1.00  0.00     0.029 A 
ATOM     63  C   UNL A   1      46.076  27.192  32.593  1.00  0.00     0.049 A 
ATOM     64  H   UNL A   1      44.209  27.294  31.527  1.00  0.00     0.167 HD
ATOM     65  C   UNL A   1      50.123  25.562  27.688  1.00  0.00     0.034 A 
ATOM     66  C   UNL A   1      46.073  26.252  33.584  1.00  0.00     0.034 A 
ATOM     67  C   UNL A   1      50.555  25.884  29.056  1.00  0.00     0.049 A 
ATOM     68  C   UNL A   1      47.408  25.543  33.750  1.00  0.00     0.074 A 
ATOM     69  C   UNL A   1      50.825  27.068  29.722  1.00  0.00     0.029 A 
ATOM     70  N   UNL A   1      50.488  24.891  30.025  1.00  0.00    -0.354 N 
ATOM     71  N   UNL A   1      48.388  25.616  32.892  1.00  0.00    -0.248 NA
ATOM     72  C   UNL A   1      47.746  24.698  34.892  1.00  0.00     0.031 C 
ATOM     73  C   UNL A   1      50.822  26.791  31.118  1.00  0.00     0.029 A 
ATOM     74  C   UNL A   1      50.591  25.436  31.293  1.00  0.00     0.049 A 
ATOM     75  H   UNL A   1      50.382  23.932  29.836  1.00  0.00     0.167 HD
ATOM     76  C   UNL A   1      49.418  24.795  33.276  1.00  0.00     0.074 A 
ATOM     77  C   UNL A   1      48.989  24.295  34.571  1.00  0.00     0.031 C 
ATOM     78  C   UNL A   1      50.502  24.570  32.466  1.00  0.00     0.034 A 
BRANCH  65  79
ATOM     79  C   UNL A   1      51.047  25.724  26.489  1.00  0.00     0.023 A 
ATOM     80  C   UNL A   1      52.304  25.076  26.560  1.00  0.00     0.012 A 
ATOM     81  C   UNL A   1      50.843  26.529  25.343  1.00  0.00     0.148 A 
ATOM     82  C   UNL A   1      53.307  25.256  25.599  1.00  0.00     0.002 A 
ATOM     83  C   UNL A   1      51.841  26.709  24.378  1.00  0.00     0.091 A 
ATOM     84  F   UNL A   1      49.687  27.158  25.161  1.00  0.00    -0.205 F 
ATOM     85  C   UNL A   1      53.080  26.080  24.508  1.00  0.00     0.022 A 
BRANCH  83  86
ATOM     86  S   UNL A   1      51.620  27.782  22.944  1.00  0.00     0.127 S 
ATOM     87  O   UNL A   1      51.074  28.994  23.556  1.00  0.00    -0.237 OA
ATOM     88  O   UNL A   1      52.984  27.915  22.436  1.00  0.00    -0.237 OA
ATOM     89  O   UNL A   1      50.701  27.094  22.046  1.00  0.00    -0.744 OA
ENDBRANCH  83  86
ENDBRANCH  65  79
BRANCH  66  90
ATOM     90  C   UNL A   1      44.728  25.660  33.845  1.00  0.00     0.023 A 
ATOM     91  C   UNL A   1      44.545  24.313  33.452  1.00  0.00     0.012 A 
ATOM     92  C   UNL A   1      43.847  26.216  34.792  1.00  0.00     0.148 A 
ATOM     93  C   UNL A   1      43.603  23.500  34.083  1.00  0.00     0.002 A 
ATOM     94  C   UNL A   1      42.907  25.397  35.418  1.00  0.00     0.091 A 
ATOM     95  F   UNL A   1      44.002  27.503  35.130  1.00  0.00    -0.205 F 
ATOM     96  C   UNL A   1      42.810  24.034  35.092  1.00  0.00     0.022 A 
BRANCH  94  97
ATOM     97  S   UNL A   1      41.870  25.979  36.770  1.00  0.00     0.127 S 
ATOM     98  O   UNL A   1      41.073  24.792  37.060  1.00  0.00    -0.237 OA
ATOM     99  O   UNL A   1      42.860  26.325  37.790  1.00  0.00    -0.237 OA
ATOM    100  O   UNL A   1      41.150  27.122  36.228  1.00  0.00    -0.744 OA
ENDBRANCH  94  97
ENDBRANCH  66  90
BRANCH  78 101
ATOM    101  C   UNL A   1      51.573  23.501  32.658  1.00  0.00     0.023 A 
ATOM    102  C   UNL A   1      52.945  23.760  32.489  1.00  0.00     0.012 A 
ATOM    103  C   UNL A   1      51.236  22.221  33.180  1.00  0.00     0.148 A 
ATOM    104  C   UNL A   1      53.926  22.802  32.782  1.00  0.00     0.002 A 
ATOM    105  C   UNL A   1      52.218  21.317  33.579  1.00  0.00     0.091 A 
ATOM    106  F   UNL A   1      49.951  21.852  33.281  1.00  0.00    -0.205 F 
ATOM    107  C   UNL A   1      53.566  21.592  33.355  1.00  0.00     0.022 A 
BRANCH 105 108
ATOM    108  S   UNL A   1      51.787  19.860  34.545  1.00  0.00     0.127 S 
ATOM    109  O   UNL A   1      51.922  20.347  35.914  1.00  0.00    -0.237 OA
ATOM    110  O   UNL A   1      50.408  19.599  34.126  1.00  0.00    -0.237 OA
ATOM    111  O   UNL A   1      52.738  18.842  34.121  1.00  0.00    -0.744 OA
ENDBRANCH 105 108
ENDBRANCH  78 101
ENDBRANCH  52  53
ENDBRANCH  44  47
ENDBRANCH  42  43
ENDBRANCH  41  42
ENDBRANCH  40  41
ENDBRANCH   1  40
TORSDOF 19
ENDMDL
MODEL 2
REMARK VINA RESULT:     -12.9      2.133      4.316
REMARK SMILES Cc1ccc(NC(=O)c2cnn3c2NC2=C(C(=O)CCC2)[C@H]3c2ccc(C(=O)NCCCCCCNC(=O)c3ccc(-c4c5nc(c(-c6cccc(S(=O)(=O)[O-])c6F)c6ccc([nH]6)c(-c6cccc(S(=O)(=O)[O-])c6F)c6nc(c(-c7cccc(S(=O)(=O)[O-])c7F)c7ccc4[nH]7)C=C6)C=C5)cc3)cc2)cc1
REMARK SMILES IDX 32 1 31 2 30 3 29 4 27 5 28 6 26 8 23 9 24 10 103 11 25 12
REMARK SMILES IDX 102 13 22 14 9 15 10 16 13 17 11 18 12 19 14 20 15 21 16 23
REMARK SMILES IDX 21 24 17 25 20 26 18 27 19 28 7 29 6 30 8 32 5 33 1 34 2 35
REMARK SMILES IDX 3 36 105 37 4 38 104 39 33 40 34 41 35 42 36 43 37 44 38 46
REMARK SMILES IDX 39 47 40 48 101 49 41 50 100 51 42 52 43 53 44 54 94 55
REMARK SMILES IDX 45 56 99 57 93 58 95 59 46 60 98 61 92 62 91 63 47 65 79 66
REMARK SMILES IDX 59 67 78 68 60 69 63 70 77 71 96 72 61 73 62 74 76 76 97 77
REMARK SMILES IDX 64 78 48 79 49 80 57 81 50 82 52 83 58 84 51 85 53 86 54 87
REMARK SMILES IDX 55 88 56 89 80 90 81 91 89 92 82 93 84 94 90 95 83 96 85 97
REMARK SMILES IDX 86 98 87 99 88 100 65 101 66 102 74 103 67 104 69 105 75 106
REMARK SMILES IDX 68 107 70 108 71 109 72 110 73 111
REMARK H PARENT 29 7 14 22 6 31 36 45 95 64 63 75
REMARK Flexibility Score: inf
ROOT
ATOM      1  C   UNL A   1      42.205  22.512  26.403  1.00  0.00     0.002 C 
ENDROOT
BRANCH   1   2
ATOM      2  C   UNL A   1      41.531  21.139  26.220  1.00  0.00     0.021 C 
BRANCH   2   3
ATOM      3  C   UNL A   1      40.002  21.140  26.310  1.00  0.00     0.116 C 
BRANCH   3   4
ATOM      4  N   UNL A   1      39.498  22.398  26.833  1.00  0.00    -0.352 N 
ATOM      5  C   UNL A   1      38.352  23.127  26.630  1.00  0.00     0.251 C 
ATOM      6  O   UNL A   1      38.191  24.111  27.357  1.00  0.00    -0.269 OA
ATOM      7  H   UNL A   1      40.114  22.822  27.472  1.00  0.00     0.163 HD
BRANCH   5   8
ATOM      8  C   UNL A   1      37.270  22.778  25.657  1.00  0.00     0.039 A 
ATOM      9  C   UNL A   1      35.185  22.517  23.725  1.00  0.00    -0.019 A 
ATOM     10  C   UNL A   1      36.418  23.088  23.375  1.00  0.00     0.007 A 
ATOM     11  C   UNL A   1      35.118  21.882  24.982  1.00  0.00     0.007 A 
ATOM     12  C   UNL A   1      37.432  23.231  24.335  1.00  0.00     0.014 A 
ATOM     13  C   UNL A   1      36.138  22.022  25.942  1.00  0.00     0.014 A 
BRANCH   9  14
ATOM     14  C   UNL A   1      33.914  22.766  22.842  1.00  0.00     0.175 C 
ATOM     15  C   UNL A   1      31.462  23.275  25.388  1.00  0.00     0.102 A 
ATOM     16  C   UNL A   1      30.951  22.177  24.629  1.00  0.00     0.151 A 
ATOM     17  C   UNL A   1      32.457  23.778  24.577  1.00  0.00     0.142 A 
ATOM     18  N   UNL A   1      31.727  21.846  23.592  1.00  0.00    -0.178 NA
ATOM     19  N   UNL A   1      32.715  22.747  23.687  1.00  0.00    -0.237 N 
ATOM     20  N   UNL A   1      33.209  24.921  24.458  1.00  0.00    -0.343 N 
ATOM     21  C   UNL A   1      33.824  25.202  23.223  1.00  0.00     0.026 C 
ATOM     22  H   UNL A   1      33.316  25.533  25.222  1.00  0.00     0.168 HD
ATOM     23  C   UNL A   1      33.912  24.193  22.319  1.00  0.00     0.044 C 
ATOM     24  C   UNL A   1      34.017  26.616  22.754  1.00  0.00     0.055 C 
ATOM     25  C   UNL A   1      33.135  24.496  21.081  1.00  0.00     0.163 C 
ATOM     26  C   UNL A   1      33.127  26.944  21.552  1.00  0.00     0.014 C 
ATOM     27  O   UNL A   1      33.088  23.696  20.152  1.00  0.00    -0.294 OA
ATOM     28  C   UNL A   1      32.273  25.755  21.123  1.00  0.00     0.081 C 
BRANCH  15  29
ATOM     29  C   UNL A   1      30.996  23.786  26.655  1.00  0.00     0.261 C 
ATOM     30  N   UNL A   1      30.780  25.146  26.798  1.00  0.00    -0.322 N 
ATOM     31  H   UNL A   1      30.752  25.452  27.734  1.00  0.00     0.170 HD
ATOM     32  O   UNL A   1      30.825  23.042  27.621  1.00  0.00    -0.269 OA
BRANCH  30  33
ATOM     33  C   UNL A   1      30.592  26.179  25.849  1.00  0.00     0.041 A 
ATOM     34  C   UNL A   1      30.307  29.354  22.913  1.00  0.00     0.044 C 
ATOM     35  C   UNL A   1      30.380  28.278  23.960  1.00  0.00    -0.051 A 
ATOM     36  C   UNL A   1      29.575  27.146  23.854  1.00  0.00     0.005 A 
ATOM     37  C   UNL A   1      31.268  28.370  25.035  1.00  0.00     0.005 A 
ATOM     38  C   UNL A   1      29.658  26.130  24.811  1.00  0.00     0.026 A 
ATOM     39  C   UNL A   1      31.367  27.334  25.975  1.00  0.00     0.026 A 
ENDBRANCH  30  33
ENDBRANCH  15  29
ENDBRANCH   9  14
ENDBRANCH   5   8
ENDBRANCH   3   4
ENDBRANCH   2   3
ENDBRANCH   1   2
BRANCH   1  40
ATOM     40  C   UNL A   1      42.883  23.130  25.167  1.00  0.00     0.002 C 
BRANCH  40  41
ATOM     41  C   UNL A   1      43.844  24.289  25.434  1.00  0.00     0.021 C 
BRANCH  41  42
ATOM     42  C   UNL A   1      43.342  25.640  24.944  1.00  0.00     0.116 C 
BRANCH  42  43
ATOM     43  N   UNL A   1      41.988  25.936  25.358  1.00  0.00    -0.352 N 
ATOM     44  C   UNL A   1      41.447  26.129  26.636  1.00  0.00     0.251 C 
ATOM     45  H   UNL A   1      41.340  26.014  24.620  1.00  0.00     0.163 HD
ATOM     46  O   UNL A   1      40.248  26.162  26.755  1.00  0.00    -0.269 OA
BRANCH  44  47
ATOM     47  C   UNL A   1      42.352  26.430  27.775  1.00  0.00     0.039 A 
ATOM     48  C   UNL A   1      42.963  27.697  27.804  1.00  0.00     0.014 A 
ATOM     49  C   UNL A   1      42.772  25.449  28.662  1.00  0.00     0.014 A 
ATOM     50  C   UNL A   1      44.147  27.883  28.517  1.00  0.00     0.010 A 
ATOM     51  C   UNL A   1      43.996  25.586  29.274  1.00  0.00     0.010 A 
ATOM     52  C   UNL A   1      44.710  26.782  29.146  1.00  0.00    -0.014 A 
BRANCH  52  53
ATOM     53  C   UNL A   1      46.044  26.716  29.721  1.00  0.00     0.031 A 
ATOM     54  C   UNL A   1      47.157  26.235  28.879  1.00  0.00     0.074 A 
ATOM     55  C   UNL A   1      46.271  27.417  30.855  1.00  0.00     0.049 A 
ATOM     56  N   UNL A   1      48.380  26.147  29.272  1.00  0.00    -0.248 NA
ATOM     57  C   UNL A   1      46.958  25.780  27.508  1.00  0.00     0.031 C 
ATOM     58  C   UNL A   1      47.538  27.982  31.303  1.00  0.00     0.029 A 
ATOM     59  N   UNL A   1      45.424  27.569  31.958  1.00  0.00    -0.354 N 
ATOM     60  C   UNL A   1      49.159  25.902  28.162  1.00  0.00     0.074 A 
ATOM     61  C   UNL A   1      48.221  25.581  27.118  1.00  0.00     0.031 C 
ATOM     62  C   UNL A   1      47.488  28.148  32.633  1.00  0.00     0.029 A 
ATOM     63  C   UNL A   1      46.268  27.502  33.083  1.00  0.00     0.049 A 
ATOM     64  H   UNL A   1      44.448  27.695  31.950  1.00  0.00     0.167 HD
ATOM     65  C   UNL A   1      50.499  26.133  28.254  1.00  0.00     0.034 A 
ATOM     66  C   UNL A   1      46.214  26.502  34.011  1.00  0.00     0.034 A 
ATOM     67  C   UNL A   1      50.878  26.363  29.656  1.00  0.00     0.049 A 
ATOM     68  C   UNL A   1      47.534  25.768  34.186  1.00  0.00     0.074 A 
ATOM     69  C   UNL A   1      51.132  27.499  30.406  1.00  0.00     0.029 A 
ATOM     70  N   UNL A   1      50.760  25.312  30.557  1.00  0.00    -0.354 N 
ATOM     71  N   UNL A   1      48.550  25.882  33.376  1.00  0.00    -0.248 NA
ATOM     72  C   UNL A   1      47.815  24.848  35.285  1.00  0.00     0.031 C 
ATOM     73  C   UNL A   1      51.067  27.135  31.781  1.00  0.00     0.029 A 
ATOM     74  C   UNL A   1      50.816  25.775  31.860  1.00  0.00     0.049 A 
ATOM     75  H   UNL A   1      50.652  24.368  30.304  1.00  0.00     0.167 HD
ATOM     76  C   UNL A   1      49.555  25.026  33.749  1.00  0.00     0.074 A 
ATOM     77  C   UNL A   1      49.067  24.450  34.991  1.00  0.00     0.031 C 
ATOM     78  C   UNL A   1      50.669  24.838  32.972  1.00  0.00     0.034 A 
BRANCH  65  79
ATOM     79  C   UNL A   1      51.475  26.358  27.106  1.00  0.00     0.023 A 
ATOM     80  C   UNL A   1      52.451  25.355  26.893  1.00  0.00     0.012 A 
ATOM     81  C   UNL A   1      51.588  27.501  26.281  1.00  0.00     0.148 A 
ATOM     82  C   UNL A   1      53.497  25.497  25.971  1.00  0.00     0.002 A 
ATOM     83  C   UNL A   1      52.629  27.647  25.356  1.00  0.00     0.091 A 
ATOM     84  F   UNL A   1      50.705  28.491  26.377  1.00  0.00    -0.205 F 
ATOM     85  C   UNL A   1      53.592  26.648  25.206  1.00  0.00     0.022 A 
BRANCH  83  86
ATOM     86  S   UNL A   1      52.823  29.126  24.341  1.00  0.00     0.127 S 
ATOM     87  O   UNL A   1      51.495  29.256  23.740  1.00  0.00    -0.237 OA
ATOM     88  O   UNL A   1      53.148  30.149  25.333  1.00  0.00    -0.237 OA
ATOM     89  O   UNL A   1      53.890  28.841  23.389  1.00  0.00    -0.744 OA
ENDBRANCH  83  86
ENDBRANCH  65  79
BRANCH  66  90
ATOM     90  C   UNL A   1      44.854  25.913  34.179  1.00  0.00     0.023 A 
ATOM     91  C   UNL A   1      44.673  24.596  33.691  1.00  0.00     0.012 A 
ATOM     92  C   UNL A   1      43.942  26.416  35.125  1.00  0.00     0.148 A 
ATOM     93  C   UNL A   1      43.697  23.756  34.229  1.00  0.00     0.002 A 
ATOM     94  C   UNL A   1      42.968  25.570  35.658  1.00  0.00     0.091 A 
ATOM     95  F   UNL A   1      44.096  27.676  35.553  1.00  0.00    -0.205 F 
ATOM     96  C   UNL A   1      42.870  24.233  35.238  1.00  0.00     0.022 A 
BRANCH  94  97
ATOM     97  S   UNL A   1      41.883  26.076  37.003  1.00  0.00     0.127 S 
ATOM     98  O   UNL A   1      42.846  26.383  38.055  1.00  0.00    -0.237 OA
ATOM     99  O   UNL A   1      41.203  27.237  36.429  1.00  0.00    -0.237 OA
ATOM    100  O   UNL A   1      41.014  24.934  37.238  1.00  0.00    -0.744 OA
ENDBRANCH  94  97
ENDBRANCH  66  90
BRANCH  78 101
ATOM    101  C   UNL A   1      51.720  23.746  33.139  1.00  0.00     0.023 A 
ATOM    102  C   UNL A   1      53.098  24.021  33.210  1.00  0.00     0.012 A 
ATOM    103  C   UNL A   1      51.335  22.400  33.396  1.00  0.00     0.148 A 
ATOM    104  C   UNL A   1      54.044  23.022  33.481  1.00  0.00     0.002 A 
ATOM    105  C   UNL A   1      52.267  21.438  33.780  1.00  0.00     0.091 A 
ATOM    106  F   UNL A   1      50.055  22.028  33.254  1.00  0.00    -0.205 F 
ATOM    107  C   UNL A   1      53.628  21.737  33.796  1.00  0.00     0.022 A 
BRANCH 105 108
ATOM    108  S   UNL A   1      51.728  19.847  34.429  1.00  0.00     0.127 S 
ATOM    109  O   UNL A   1      52.736  18.939  33.889  1.00  0.00    -0.237 OA
ATOM    110  O   UNL A   1      51.807  20.051  35.877  1.00  0.00    -0.237 OA
ATOM    111  O   UNL A   1      50.371  19.684  33.926  1.00  0.00    -0.744 OA
ENDBRANCH 105 108
ENDBRANCH  78 101
ENDBRANCH  52  53
ENDBRANCH  44  47
ENDBRANCH  42  43
ENDBRANCH  41  42
ENDBRANCH  40  41
ENDBRANCH   1  40
TORSDOF 19
ENDMDL
MODEL 3
REMARK VINA RESULT:     -12.7      5.807     14.361
REMARK SMILES Cc1ccc(NC(=O)c2cnn3c2NC2=C(C(=O)CCC2)[C@H]3c2ccc(C(=O)NCCCCCCNC(=O)c3ccc(-c4c5nc(c(-c6cccc(S(=O)(=O)[O-])c6F)c6ccc([nH]6)c(-c6cccc(S(=O)(=O)[O-])c6F)c6nc(c(-c7cccc(S(=O)(=O)[O-])c7F)c7ccc4[nH]7)C=C6)C=C5)cc3)cc2)cc1
REMARK SMILES IDX 32 1 31 2 30 3 29 4 27 5 28 6 26 8 23 9 24 10 103 11 25 12
REMARK SMILES IDX 102 13 22 14 9 15 10 16 13 17 11 18 12 19 14 20 15 21 16 23
REMARK SMILES IDX 21 24 17 25 20 26 18 27 19 28 7 29 6 30 8 32 5 33 1 34 2 35
REMARK SMILES IDX 3 36 105 37 4 38 104 39 33 40 34 41 35 42 36 43 37 44 38 46
REMARK SMILES IDX 39 47 40 48 101 49 41 50 100 51 42 52 43 53 44 54 94 55
REMARK SMILES IDX 45 56 99 57 93 58 95 59 46 60 98 61 92 62 91 63 47 65 79 66
REMARK SMILES IDX 59 67 78 68 60 69 63 70 77 71 96 72 61 73 62 74 76 76 97 77
REMARK SMILES IDX 64 78 48 79 49 80 57 81 50 82 52 83 58 84 51 85 53 86 54 87
REMARK SMILES IDX 55 88 56 89 80 90 81 91 89 92 82 93 84 94 90 95 83 96 85 97
REMARK SMILES IDX 86 98 87 99 88 100 65 101 66 102 74 103 67 104 69 105 75 106
REMARK SMILES IDX 68 107 70 108 71 109 72 110 73 111
REMARK H PARENT 29 7 14 22 6 31 36 45 95 64 63 75
REMARK Flexibility Score: inf
ROOT
ATOM      1  C   UNL A   1      43.673  24.074  28.079  1.00  0.00     0.002 C 
ENDROOT
BRANCH   1   2
ATOM      2  C   UNL A   1      43.686  23.280  29.399  1.00  0.00     0.021 C 
BRANCH   2   3
ATOM      3  C   UNL A   1      44.248  24.029  30.610  1.00  0.00     0.116 C 
BRANCH   3   4
ATOM      4  N   UNL A   1      44.200  23.216  31.813  1.00  0.00    -0.352 N 
ATOM      5  C   UNL A   1      44.596  23.407  33.114  1.00  0.00     0.251 C 
ATOM      6  O   UNL A   1      44.276  22.530  33.920  1.00  0.00    -0.269 OA
ATOM      7  H   UNL A   1      43.797  22.331  31.661  1.00  0.00     0.163 HD
BRANCH   5   8
ATOM      8  C   UNL A   1      45.311  24.618  33.627  1.00  0.00     0.039 A 
ATOM      9  C   UNL A   1      46.607  27.087  34.233  1.00  0.00    -0.019 A 
ATOM     10  C   UNL A   1      45.258  27.062  33.852  1.00  0.00     0.007 A 
ATOM     11  C   UNL A   1      47.205  25.844  34.522  1.00  0.00     0.007 A 
ATOM     12  C   UNL A   1      44.631  25.846  33.536  1.00  0.00     0.014 A 
ATOM     13  C   UNL A   1      46.574  24.624  34.210  1.00  0.00     0.014 A 
BRANCH   9  14
ATOM     14  C   UNL A   1      47.437  28.413  34.134  1.00  0.00     0.175 C 
ATOM     15  C   UNL A   1      45.082  30.740  35.471  1.00  0.00     0.102 A 
ATOM     16  C   UNL A   1      45.371  31.250  34.168  1.00  0.00     0.151 A 
ATOM     17  C   UNL A   1      46.080  29.811  35.671  1.00  0.00     0.142 A 
ATOM     18  N   UNL A   1      46.273  30.520  33.503  1.00  0.00    -0.178 NA
ATOM     19  N   UNL A   1      46.565  29.563  34.395  1.00  0.00    -0.237 N 
ATOM     20  N   UNL A   1      46.643  29.111  36.710  1.00  0.00    -0.343 N 
ATOM     21  C   UNL A   1      47.934  28.574  36.544  1.00  0.00     0.026 C 
ATOM     22  H   UNL A   1      46.152  28.985  37.554  1.00  0.00     0.168 HD
ATOM     23  C   UNL A   1      48.428  28.498  35.282  1.00  0.00     0.044 C 
ATOM     24  C   UNL A   1      48.883  28.461  37.704  1.00  0.00     0.055 C 
ATOM     25  C   UNL A   1      49.641  29.352  35.115  1.00  0.00     0.163 C 
ATOM     26  C   UNL A   1      50.063  29.427  37.571  1.00  0.00     0.014 C 
ATOM     27  O   UNL A   1      50.224  29.419  34.037  1.00  0.00    -0.294 OA
ATOM     28  C   UNL A   1      49.990  30.257  36.294  1.00  0.00     0.081 C 
BRANCH  15  29
ATOM     29  C   UNL A   1      44.049  31.156  36.390  1.00  0.00     0.261 C 
ATOM     30  N   UNL A   1      42.920  30.368  36.540  1.00  0.00    -0.322 N 
ATOM     31  H   UNL A   1      42.152  30.839  36.938  1.00  0.00     0.170 HD
ATOM     32  O   UNL A   1      44.135  32.215  37.013  1.00  0.00    -0.269 OA
BRANCH  30  33
ATOM     33  C   UNL A   1      42.664  29.012  36.225  1.00  0.00     0.041 A 
ATOM     34  C   UNL A   1      41.819  24.817  35.544  1.00  0.00     0.044 C 
ATOM     35  C   UNL A   1      42.153  26.266  35.759  1.00  0.00    -0.051 A 
ATOM     36  C   UNL A   1      41.605  27.239  34.927  1.00  0.00     0.005 A 
ATOM     37  C   UNL A   1      42.985  26.672  36.807  1.00  0.00     0.005 A 
ATOM     38  C   UNL A   1      41.892  28.592  35.139  1.00  0.00     0.026 A 
ATOM     39  C   UNL A   1      43.244  28.031  37.031  1.00  0.00     0.026 A 
ENDBRANCH  30  33
ENDBRANCH  15  29
ENDBRANCH   9  14
ENDBRANCH   5   8
ENDBRANCH   3   4
ENDBRANCH   2   3
ENDBRANCH   1   2
BRANCH   1  40
ATOM     40  C   UNL A   1      44.575  23.558  26.943  1.00  0.00     0.002 C 
BRANCH  40  41
ATOM     41  C   UNL A   1      43.877  22.779  25.828  1.00  0.00     0.021 C 
BRANCH  41  42
ATOM     42  C   UNL A   1      42.547  23.378  25.389  1.00  0.00     0.116 C 
BRANCH  42  43
ATOM     43  N   UNL A   1      41.407  22.550  25.718  1.00  0.00    -0.352 N 
ATOM     44  C   UNL A   1      40.295  22.811  26.531  1.00  0.00     0.251 C 
ATOM     45  H   UNL A   1      41.413  21.658  25.301  1.00  0.00     0.163 HD
ATOM     46  O   UNL A   1      39.568  21.894  26.822  1.00  0.00    -0.269 OA
BRANCH  44  47
ATOM     47  C   UNL A   1      39.962  24.214  26.886  1.00  0.00     0.039 A 
ATOM     48  C   UNL A   1      40.563  25.238  26.131  1.00  0.00     0.014 A 
ATOM     49  C   UNL A   1      39.272  24.537  28.047  1.00  0.00     0.014 A 
ATOM     50  C   UNL A   1      40.700  26.515  26.675  1.00  0.00     0.010 A 
ATOM     51  C   UNL A   1      39.501  25.756  28.639  1.00  0.00     0.010 A 
ATOM     52  C   UNL A   1      40.270  26.720  27.978  1.00  0.00    -0.014 A 
BRANCH  52  53
ATOM     53  C   UNL A   1      40.545  27.891  28.794  1.00  0.00     0.031 A 
ATOM     54  C   UNL A   1      39.627  29.045  28.712  1.00  0.00     0.074 A 
ATOM     55  C   UNL A   1      41.400  27.744  29.831  1.00  0.00     0.049 A 
ATOM     56  N   UNL A   1      39.758  30.127  29.396  1.00  0.00    -0.248 NA
ATOM     57  C   UNL A   1      38.481  29.068  27.810  1.00  0.00     0.031 C 
ATOM     58  C   UNL A   1      41.417  28.505  31.074  1.00  0.00     0.029 A 
ATOM     59  N   UNL A   1      42.588  27.006  29.870  1.00  0.00    -0.354 N 
ATOM     60  C   UNL A   1      38.600  30.860  29.246  1.00  0.00     0.074 A 
ATOM     61  C   UNL A   1      37.890  30.210  28.175  1.00  0.00     0.031 C 
ATOM     62  C   UNL A   1      42.646  28.433  31.606  1.00  0.00     0.029 A 
ATOM     63  C   UNL A   1      43.488  27.797  30.609  1.00  0.00     0.049 A 
ATOM     64  H   UNL A   1      42.758  26.125  29.467  1.00  0.00     0.167 HD
ATOM     65  C   UNL A   1      38.345  31.850  30.147  1.00  0.00     0.034 A 
ATOM     66  C   UNL A   1      44.620  28.349  30.081  1.00  0.00     0.034 A 
ATOM     67  C   UNL A   1      39.535  32.102  30.972  1.00  0.00     0.049 A 
ATOM     68  C   UNL A   1      44.682  29.861  30.230  1.00  0.00     0.074 A 
ATOM     69  C   UNL A   1      39.916  31.718  32.247  1.00  0.00     0.029 A 
ATOM     70  N   UNL A   1      40.668  32.628  30.363  1.00  0.00    -0.354 N 
ATOM     71  N   UNL A   1      43.670  30.605  30.583  1.00  0.00    -0.248 NA
ATOM     72  C   UNL A   1      45.884  30.655  29.993  1.00  0.00     0.031 C 
ATOM     73  C   UNL A   1      41.319  31.930  32.363  1.00  0.00     0.029 A 
ATOM     74  C   UNL A   1      41.777  32.478  31.176  1.00  0.00     0.049 A 
ATOM     75  H   UNL A   1      40.679  33.050  29.474  1.00  0.00     0.167 HD
ATOM     76  C   UNL A   1      44.016  31.932  30.536  1.00  0.00     0.074 A 
ATOM     77  C   UNL A   1      45.434  31.902  30.224  1.00  0.00     0.031 C 
ATOM     78  C   UNL A   1      43.087  32.926  30.710  1.00  0.00     0.034 A 
BRANCH  65  79
ATOM     79  C   UNL A   1      36.996  32.483  30.460  1.00  0.00     0.023 A 
ATOM     80  C   UNL A   1      36.452  32.223  31.741  1.00  0.00     0.012 A 
ATOM     81  C   UNL A   1      36.166  33.226  29.588  1.00  0.00     0.148 A 
ATOM     82  C   UNL A   1      35.160  32.619  32.112  1.00  0.00     0.002 A 
ATOM     83  C   UNL A   1      34.876  33.626  29.955  1.00  0.00     0.091 A 
ATOM     84  F   UNL A   1      36.591  33.553  28.371  1.00  0.00    -0.205 F 
ATOM     85  C   UNL A   1      34.366  33.315  31.216  1.00  0.00     0.022 A 
BRANCH  83  86
ATOM     86  S   UNL A   1      33.782  34.519  28.831  1.00  0.00     0.127 S 
ATOM     87  O   UNL A   1      33.438  33.482  27.858  1.00  0.00    -0.237 OA
ATOM     88  O   UNL A   1      32.685  34.919  29.710  1.00  0.00    -0.237 OA
ATOM     89  O   UNL A   1      34.558  35.625  28.284  1.00  0.00    -0.744 OA
ENDBRANCH  83  86
ENDBRANCH  65  79
BRANCH  66  90
ATOM     90  C   UNL A   1      45.213  27.553  28.968  1.00  0.00     0.023 A 
ATOM     91  C   UNL A   1      44.806  27.902  27.657  1.00  0.00     0.012 A 
ATOM     92  C   UNL A   1      46.401  26.817  29.135  1.00  0.00     0.148 A 
ATOM     93  C   UNL A   1      45.626  27.649  26.557  1.00  0.00     0.002 A 
ATOM     94  C   UNL A   1      47.215  26.567  28.029  1.00  0.00     0.091 A 
ATOM     95  F   UNL A   1      46.759  26.455  30.374  1.00  0.00    -0.205 F 
ATOM     96  C   UNL A   1      46.847  27.015  26.750  1.00  0.00     0.022 A 
BRANCH  94  97
ATOM     97  S   UNL A   1      48.836  25.799  28.182  1.00  0.00     0.127 S 
ATOM     98  O   UNL A   1      48.738  25.167  29.493  1.00  0.00    -0.237 OA
ATOM     99  O   UNL A   1      48.846  24.873  27.048  1.00  0.00    -0.237 OA
ATOM    100  O   UNL A   1      49.787  26.894  28.063  1.00  0.00    -0.744 OA
ENDBRANCH  94  97
ENDBRANCH  66  90
BRANCH  78 101
ATOM    101  C   UNL A   1      43.285  34.413  30.432  1.00  0.00     0.023 A 
ATOM    102  C   UNL A   1      43.675  35.327  31.428  1.00  0.00     0.012 A 
ATOM    103  C   UNL A   1      43.240  34.915  29.101  1.00  0.00     0.148 A 
ATOM    104  C   UNL A   1      43.968  36.666  31.136  1.00  0.00     0.002 A 
ATOM    105  C   UNL A   1      43.645  36.214  28.802  1.00  0.00     0.091 A 
ATOM    106  F   UNL A   1      42.785  34.143  28.105  1.00  0.00    -0.205 F 
ATOM    107  C   UNL A   1      43.982  37.104  29.820  1.00  0.00     0.022 A 
BRANCH 105 108
ATOM    108  S   UNL A   1      43.908  36.722  27.094  1.00  0.00     0.127 S 
ATOM    109  O   UNL A   1      42.542  36.803  26.584  1.00  0.00    -0.237 OA
ATOM    110  O   UNL A   1      44.578  38.015  27.247  1.00  0.00    -0.237 OA
ATOM    111  O   UNL A   1      44.752  35.680  26.525  1.00  0.00    -0.744 OA
ENDBRANCH 105 108
ENDBRANCH  78 101
ENDBRANCH  52  53
ENDBRANCH  44  47
ENDBRANCH  42  43
ENDBRANCH  41  42
ENDBRANCH  40  41
ENDBRANCH   1  40
TORSDOF 19
ENDMDL
