MODEL 1
REMARK VINA RESULT:     -12.8      0.000      0.000
REMARK SMILES O=C(NCCCCCCNC(=O)[C@@H](Cc1c[nH]c2ccccc12)Nc1ncnc2ccccc12)c1ccc(-c2c3nc(c(-c4cccc(S(=O)(=O)[O-])c4F)c4ccc([nH]4)c(-c4cccc(S(=O)(=O)[O-])c4F)c4nc(c(-c5cccc(S(=O)(=O)[O-])c5F)c5ccc2[nH]5)C=C4)C=C3)cc1
REMARK SMILES IDX 6 1 5 2 4 3 3 4 1 5 2 6 35 8 36 9 97 10 37 11 96 12 38 13
REMARK SMILES IDX 39 14 40 15 90 16 41 17 95 18 89 19 91 20 42 21 94 22 88 23
REMARK SMILES IDX 87 24 43 26 75 27 55 28 74 29 56 30 59 31 73 32 92 33 57 34
REMARK SMILES IDX 58 35 72 37 93 38 60 39 44 40 45 41 53 42 46 43 48 44 54 45
REMARK SMILES IDX 47 46 49 47 50 48 51 49 52 50 76 51 77 52 85 53 78 54 80 55
REMARK SMILES IDX 86 56 79 57 81 58 82 59 83 60 84 61 61 62 62 63 70 64 63 65
REMARK SMILES IDX 65 66 71 67 64 68 66 69 67 70 68 71 69 72 7 73 8 74 9 75
REMARK SMILES IDX 10 76 11 77 12 79 13 80 14 81 15 82 16 83 23 84 17 85 18 86
REMARK SMILES IDX 22 87 19 89 21 90 20 91 24 92 25 94 26 95 34 96 27 97 29 98
REMARK SMILES IDX 33 99 28 100 30 101 32 102 31 103
REMARK H PARENT 3 7 91 25 59 36 10 78 17 88 24 93
REMARK Flexibility Score: inf
ROOT
ATOM      1  C   UNL A   1      31.392  30.951  25.656  1.00  0.00     0.002 C 
ENDROOT
BRANCH   1   2
ATOM      2  C   UNL A   1      31.363  31.864  26.884  1.00  0.00     0.021 C 
BRANCH   2   3
ATOM      3  C   UNL A   1      32.699  32.504  27.250  1.00  0.00     0.116 C 
BRANCH   3   4
ATOM      4  N   UNL A   1      32.546  33.901  27.624  1.00  0.00    -0.352 N 
ATOM      5  O   UNL A   1      32.635  35.717  28.938  1.00  0.00    -0.269 OA
ATOM      6  C   UNL A   1      33.101  34.612  28.658  1.00  0.00     0.251 C 
ATOM      7  H   UNL A   1      31.947  34.421  27.040  1.00  0.00     0.163 HD
BRANCH   6   8
ATOM      8  C   UNL A   1      34.244  34.076  29.433  1.00  0.00     0.039 A 
ATOM      9  C   UNL A   1      34.047  33.197  30.501  1.00  0.00     0.014 A 
ATOM     10  C   UNL A   1      35.547  34.386  29.024  1.00  0.00     0.014 A 
ATOM     11  C   UNL A   1      35.138  32.713  31.221  1.00  0.00     0.010 A 
ATOM     12  C   UNL A   1      36.643  33.841  29.701  1.00  0.00     0.010 A 
ATOM     13  C   UNL A   1      36.449  33.011  30.815  1.00  0.00    -0.014 A 
BRANCH  13  14
ATOM     14  C   UNL A   1      37.599  32.363  31.499  1.00  0.00     0.031 A 
ATOM     15  C   UNL A   1      38.357  31.233  30.859  1.00  0.00     0.074 A 
ATOM     16  C   UNL A   1      37.941  32.790  32.732  1.00  0.00     0.049 A 
ATOM     17  N   UNL A   1      39.381  30.565  31.324  1.00  0.00    -0.248 NA
ATOM     18  C   UNL A   1      37.904  30.788  29.532  1.00  0.00     0.031 C 
ATOM     19  C   UNL A   1      37.248  33.842  33.479  1.00  0.00     0.029 A 
ATOM     20  N   UNL A   1      38.942  32.388  33.580  1.00  0.00    -0.354 N 
ATOM     21  C   UNL A   1      39.678  29.601  30.367  1.00  0.00     0.074 A 
ATOM     22  C   UNL A   1      38.717  29.765  29.297  1.00  0.00     0.031 C 
ATOM     23  C   UNL A   1      37.851  34.013  34.664  1.00  0.00     0.029 A 
ATOM     24  C   UNL A   1      38.941  33.051  34.785  1.00  0.00     0.049 A 
ATOM     25  H   UNL A   1      39.599  31.691  33.348  1.00  0.00     0.167 HD
ATOM     26  C   UNL A   1      40.668  28.676  30.374  1.00  0.00     0.034 A 
ATOM     27  C   UNL A   1      39.714  32.894  35.875  1.00  0.00     0.034 A 
ATOM     28  C   UNL A   1      41.635  28.532  31.433  1.00  0.00     0.049 A 
ATOM     29  C   UNL A   1      40.809  31.865  35.850  1.00  0.00     0.074 A 
ATOM     30  C   UNL A   1      42.715  27.669  31.498  1.00  0.00     0.029 A 
ATOM     31  N   UNL A   1      41.630  29.253  32.616  1.00  0.00    -0.354 N 
ATOM     32  N   UNL A   1      41.160  31.062  34.877  1.00  0.00    -0.248 NA
ATOM     33  C   UNL A   1      41.630  31.739  37.062  1.00  0.00     0.031 C 
ATOM     34  C   UNL A   1      43.350  27.852  32.731  1.00  0.00     0.029 A 
ATOM     35  C   UNL A   1      42.681  28.848  33.424  1.00  0.00     0.049 A 
ATOM     36  H   UNL A   1      40.977  29.953  32.849  1.00  0.00     0.167 HD
ATOM     37  C   UNL A   1      42.261  30.355  35.346  1.00  0.00     0.074 A 
ATOM     38  C   UNL A   1      42.531  30.844  36.683  1.00  0.00     0.031 C 
ATOM     39  C   UNL A   1      42.970  29.376  34.733  1.00  0.00     0.034 A 
BRANCH  26  40
ATOM     40  C   UNL A   1      40.788  27.764  29.181  1.00  0.00     0.023 A 
ATOM     41  C   UNL A   1      39.982  26.609  29.105  1.00  0.00     0.012 A 
ATOM     42  C   UNL A   1      41.634  28.086  28.101  1.00  0.00     0.148 A 
ATOM     43  C   UNL A   1      40.040  25.773  27.990  1.00  0.00     0.002 A 
ATOM     44  C   UNL A   1      41.656  27.270  26.975  1.00  0.00     0.091 A 
ATOM     45  F   UNL A   1      42.406  29.177  28.196  1.00  0.00    -0.205 F 
ATOM     46  C   UNL A   1      40.867  26.108  26.922  1.00  0.00     0.022 A 
BRANCH  44  47
ATOM     47  S   UNL A   1      42.629  27.655  25.515  1.00  0.00     0.127 S 
ATOM     48  O   UNL A   1      43.988  27.634  26.052  1.00  0.00    -0.237 OA
ATOM     49  O   UNL A   1      42.308  26.539  24.625  1.00  0.00    -0.237 OA
ATOM     50  O   UNL A   1      42.159  28.954  25.052  1.00  0.00    -0.744 OA
ENDBRANCH  44  47
ENDBRANCH  26  40
BRANCH  27  51
ATOM     51  C   UNL A   1      39.501  33.765  37.066  1.00  0.00     0.023 A 
ATOM     52  C   UNL A   1      39.906  35.112  37.019  1.00  0.00     0.012 A 
ATOM     53  C   UNL A   1      38.861  33.279  38.222  1.00  0.00     0.148 A 
ATOM     54  C   UNL A   1      39.699  35.954  38.112  1.00  0.00     0.002 A 
ATOM     55  C   UNL A   1      38.605  34.137  39.284  1.00  0.00     0.091 A 
ATOM     56  F   UNL A   1      38.498  31.989  38.252  1.00  0.00    -0.205 F 
ATOM     57  C   UNL A   1      39.038  35.471  39.238  1.00  0.00     0.022 A 
BRANCH  55  58
ATOM     58  S   UNL A   1      37.636  33.638  40.712  1.00  0.00     0.127 S 
ATOM     59  O   UNL A   1      38.533  32.687  41.363  1.00  0.00    -0.237 OA
ATOM     60  O   UNL A   1      37.463  34.908  41.418  1.00  0.00    -0.237 OA
ATOM     61  O   UNL A   1      36.402  33.080  40.171  1.00  0.00    -0.744 OA
ENDBRANCH  55  58
ENDBRANCH  27  51
BRANCH  39  62
ATOM     62  C   UNL A   1      44.133  28.784  35.487  1.00  0.00     0.023 A 
ATOM     63  C   UNL A   1      45.423  29.321  35.314  1.00  0.00     0.012 A 
ATOM     64  C   UNL A   1      43.934  27.743  36.414  1.00  0.00     0.148 A 
ATOM     65  C   UNL A   1      46.505  28.808  36.030  1.00  0.00     0.002 A 
ATOM     66  C   UNL A   1      45.007  27.270  37.159  1.00  0.00     0.091 A 
ATOM     67  F   UNL A   1      42.701  27.233  36.548  1.00  0.00    -0.205 F 
ATOM     68  C   UNL A   1      46.295  27.792  36.959  1.00  0.00     0.022 A 
BRANCH  66  69
ATOM     69  S   UNL A   1      44.814  26.028  38.443  1.00  0.00     0.127 S 
ATOM     70  O   UNL A   1      46.174  25.935  38.974  1.00  0.00    -0.237 OA
ATOM     71  O   UNL A   1      43.850  26.662  39.344  1.00  0.00    -0.237 OA
ATOM     72  O   UNL A   1      44.321  24.833  37.776  1.00  0.00    -0.744 OA
ENDBRANCH  66  69
ENDBRANCH  39  62
ENDBRANCH  13  14
ENDBRANCH   6   8
ENDBRANCH   3   4
ENDBRANCH   2   3
ENDBRANCH   1   2
BRANCH   1  73
ATOM     73  C   UNL A   1      32.252  29.684  25.778  1.00  0.00     0.002 C 
BRANCH  73  74
ATOM     74  C   UNL A   1      31.878  28.724  26.915  1.00  0.00     0.021 C 
BRANCH  74  75
ATOM     75  C   UNL A   1      32.051  27.244  26.563  1.00  0.00     0.116 C 
BRANCH  75  76
ATOM     76  N   UNL A   1      30.843  26.462  26.688  1.00  0.00    -0.354 N 
ATOM     77  C   UNL A   1      30.486  25.275  26.124  1.00  0.00     0.242 C 
ATOM     78  H   UNL A   1      30.162  26.854  27.282  1.00  0.00     0.163 HD
ATOM     79  O   UNL A   1      29.532  24.701  26.675  1.00  0.00    -0.273 OA
BRANCH  77  80
ATOM     80  C   UNL A   1      31.100  24.666  24.834  1.00  0.00     0.174 C 
BRANCH  80  81
ATOM     81  C   UNL A   1      30.618  25.238  23.496  1.00  0.00     0.072 C 
BRANCH  81  82
ATOM     82  C   UNL A   1      30.570  26.718  23.153  1.00  0.00    -0.020 A 
ATOM     83  C   UNL A   1      31.729  27.349  22.719  1.00  0.00     0.087 A 
ATOM     84  C   UNL A   1      29.538  27.742  23.124  1.00  0.00     0.003 A 
ATOM     85  N   UNL A   1      31.446  28.638  22.380  1.00  0.00    -0.361 N 
ATOM     86  C   UNL A   1      30.112  28.890  22.563  1.00  0.00     0.046 A 
ATOM     87  C   UNL A   1      28.154  27.828  23.432  1.00  0.00     0.010 A 
ATOM     88  H   UNL A   1      32.105  29.292  22.052  1.00  0.00     0.166 HD
ATOM     89  C   UNL A   1      29.387  30.051  22.255  1.00  0.00     0.026 A 
ATOM     90  C   UNL A   1      27.412  28.978  23.128  1.00  0.00     0.001 A 
ATOM     91  C   UNL A   1      28.022  30.069  22.532  1.00  0.00     0.002 A 
ENDBRANCH  81  82
ENDBRANCH  80  81
BRANCH  80  92
ATOM     92  N   UNL A   1      32.541  24.431  24.842  1.00  0.00    -0.358 N 
ATOM     93  H   UNL A   1      33.108  25.128  24.439  1.00  0.00     0.162 HD
BRANCH  92  94
ATOM     94  C   UNL A   1      33.187  23.325  25.361  1.00  0.00     0.137 A 
ATOM     95  N   UNL A   1      32.651  22.892  26.514  1.00  0.00    -0.219 NA
ATOM     96  C   UNL A   1      34.458  22.887  24.923  1.00  0.00     0.043 A 
ATOM     97  C   UNL A   1      33.356  22.004  27.217  1.00  0.00     0.224 A 
ATOM     98  C   UNL A   1      35.093  21.953  25.758  1.00  0.00     0.076 A 
ATOM     99  C   UNL A   1      35.154  23.331  23.764  1.00  0.00     0.014 A 
ATOM    100  N   UNL A   1      34.554  21.507  26.894  1.00  0.00    -0.236 NA
ATOM    101  C   UNL A   1      36.360  21.491  25.420  1.00  0.00     0.029 A 
ATOM    102  C   UNL A   1      36.413  22.836  23.431  1.00  0.00     0.001 A 
ATOM    103  C   UNL A   1      37.023  21.915  24.266  1.00  0.00     0.002 A 
ENDBRANCH  92  94
ENDBRANCH  80  92
ENDBRANCH  77  80
ENDBRANCH  75  76
ENDBRANCH  74  75
ENDBRANCH  73  74
ENDBRANCH   1  73
TORSDOF 20
ENDMDL
MODEL 2
REMARK VINA RESULT:     -12.6      5.507      8.474
REMARK SMILES O=C(NCCCCCCNC(=O)[C@@H](Cc1c[nH]c2ccccc12)Nc1ncnc2ccccc12)c1ccc(-c2c3nc(c(-c4cccc(S(=O)(=O)[O-])c4F)c4ccc([nH]4)c(-c4cccc(S(=O)(=O)[O-])c4F)c4nc(c(-c5cccc(S(=O)(=O)[O-])c5F)c5ccc2[nH]5)C=C4)C=C3)cc1
REMARK SMILES IDX 6 1 5 2 4 3 3 4 1 5 2 6 35 8 36 9 97 10 37 11 96 12 38 13
REMARK SMILES IDX 39 14 40 15 90 16 41 17 95 18 89 19 91 20 42 21 94 22 88 23
REMARK SMILES IDX 87 24 43 26 75 27 55 28 74 29 56 30 59 31 73 32 92 33 57 34
REMARK SMILES IDX 58 35 72 37 93 38 60 39 44 40 45 41 53 42 46 43 48 44 54 45
REMARK SMILES IDX 47 46 49 47 50 48 51 49 52 50 76 51 77 52 85 53 78 54 80 55
REMARK SMILES IDX 86 56 79 57 81 58 82 59 83 60 84 61 61 62 62 63 70 64 63 65
REMARK SMILES IDX 65 66 71 67 64 68 66 69 67 70 68 71 69 72 7 73 8 74 9 75
REMARK SMILES IDX 10 76 11 77 12 79 13 80 14 81 15 82 16 83 23 84 17 85 18 86
REMARK SMILES IDX 22 87 19 89 21 90 20 91 24 92 25 94 26 95 34 96 27 97 29 98
REMARK SMILES IDX 33 99 28 100 30 101 32 102 31 103
REMARK H PARENT 3 7 91 25 59 36 10 78 17 88 24 93
REMARK Flexibility Score: inf
ROOT
ATOM      1  C   UNL A   1      36.970  22.342  23.514  1.00  0.00     0.002 C 
ENDROOT
BRANCH   1   2
ATOM      2  C   UNL A   1      37.279  21.114  24.373  1.00  0.00     0.021 C 
BRANCH   2   3
ATOM      3  C   UNL A   1      37.801  21.415  25.775  1.00  0.00     0.116 C 
BRANCH   3   4
ATOM      4  N   UNL A   1      38.902  20.538  26.143  1.00  0.00    -0.352 N 
ATOM      5  O   UNL A   1      41.023  19.936  26.552  1.00  0.00    -0.269 OA
ATOM      6  C   UNL A   1      40.182  20.835  26.537  1.00  0.00     0.251 C 
ATOM      7  H   UNL A   1      38.694  19.577  26.104  1.00  0.00     0.163 HD
BRANCH   6   8
ATOM      8  C   UNL A   1      40.563  22.208  26.941  1.00  0.00     0.039 A 
ATOM      9  C   UNL A   1      41.424  22.434  28.018  1.00  0.00     0.014 A 
ATOM     10  C   UNL A   1      40.123  23.289  26.168  1.00  0.00     0.014 A 
ATOM     11  C   UNL A   1      41.760  23.737  28.385  1.00  0.00     0.010 A 
ATOM     12  C   UNL A   1      40.521  24.591  26.492  1.00  0.00     0.010 A 
ATOM     13  C   UNL A   1      41.331  24.829  27.612  1.00  0.00    -0.014 A 
BRANCH  13  14
ATOM     14  C   UNL A   1      41.825  26.195  27.927  1.00  0.00     0.031 A 
ATOM     15  C   UNL A   1      43.225  26.622  27.583  1.00  0.00     0.074 A 
ATOM     16  C   UNL A   1      40.996  27.051  28.560  1.00  0.00     0.049 A 
ATOM     17  N   UNL A   1      43.805  27.776  27.789  1.00  0.00    -0.248 NA
ATOM     18  C   UNL A   1      44.089  25.625  26.932  1.00  0.00     0.031 C 
ATOM     19  C   UNL A   1      39.633  26.735  28.994  1.00  0.00     0.029 A 
ATOM     20  N   UNL A   1      41.178  28.351  28.962  1.00  0.00    -0.354 N 
ATOM     21  C   UNL A   1      45.108  27.640  27.325  1.00  0.00     0.074 A 
ATOM     22  C   UNL A   1      45.237  26.283  26.835  1.00  0.00     0.031 C 
ATOM     23  C   UNL A   1      39.098  27.813  29.586  1.00  0.00     0.029 A 
ATOM     24  C   UNL A   1      40.093  28.878  29.621  1.00  0.00     0.049 A 
ATOM     25  H   UNL A   1      42.007  28.856  28.794  1.00  0.00     0.167 HD
ATOM     26  C   UNL A   1      46.100  28.563  27.298  1.00  0.00     0.034 A 
ATOM     27  C   UNL A   1      39.919  30.078  30.207  1.00  0.00     0.034 A 
ATOM     28  C   UNL A   1      45.959  29.917  27.768  1.00  0.00     0.049 A 
ATOM     29  C   UNL A   1      41.034  31.083  30.154  1.00  0.00     0.074 A 
ATOM     30  C   UNL A   1      46.885  30.945  27.721  1.00  0.00     0.029 A 
ATOM     31  N   UNL A   1      44.829  30.430  28.387  1.00  0.00    -0.354 N 
ATOM     32  N   UNL A   1      42.208  30.980  29.584  1.00  0.00    -0.248 NA
ATOM     33  C   UNL A   1      40.790  32.380  30.801  1.00  0.00     0.031 C 
ATOM     34  C   UNL A   1      46.325  32.071  28.332  1.00  0.00     0.029 A 
ATOM     35  C   UNL A   1      45.038  31.754  28.737  1.00  0.00     0.049 A 
ATOM     36  H   UNL A   1      43.999  29.927  28.553  1.00  0.00     0.167 HD
ATOM     37  C   UNL A   1      42.835  32.205  29.777  1.00  0.00     0.074 A 
ATOM     38  C   UNL A   1      41.896  33.043  30.497  1.00  0.00     0.031 C 
ATOM     39  C   UNL A   1      44.080  32.594  29.410  1.00  0.00     0.034 A 
BRANCH  26  40
ATOM     40  C   UNL A   1      47.424  28.157  26.704  1.00  0.00     0.023 A 
ATOM     41  C   UNL A   1      48.510  27.869  27.557  1.00  0.00     0.012 A 
ATOM     42  C   UNL A   1      47.575  27.983  25.314  1.00  0.00     0.148 A 
ATOM     43  C   UNL A   1      49.732  27.446  27.035  1.00  0.00     0.002 A 
ATOM     44  C   UNL A   1      48.784  27.522  24.804  1.00  0.00     0.091 A 
ATOM     45  F   UNL A   1      46.539  28.278  24.516  1.00  0.00    -0.205 F 
ATOM     46  C   UNL A   1      49.866  27.263  25.663  1.00  0.00     0.022 A 
BRANCH  44  47
ATOM     47  S   UNL A   1      49.034  27.180  23.058  1.00  0.00     0.127 S 
ATOM     48  O   UNL A   1      48.485  28.385  22.440  1.00  0.00    -0.237 OA
ATOM     49  O   UNL A   1      50.489  27.058  22.972  1.00  0.00    -0.237 OA
ATOM     50  O   UNL A   1      48.306  25.948  22.783  1.00  0.00    -0.744 OA
ENDBRANCH  44  47
ENDBRANCH  26  40
BRANCH  27  51
ATOM     51  C   UNL A   1      38.618  30.401  30.858  1.00  0.00     0.023 A 
ATOM     52  C   UNL A   1      38.393  30.005  32.190  1.00  0.00     0.012 A 
ATOM     53  C   UNL A   1      37.625  31.135  30.181  1.00  0.00     0.148 A 
ATOM     54  C   UNL A   1      37.191  30.313  32.828  1.00  0.00     0.002 A 
ATOM     55  C   UNL A   1      36.455  31.489  30.842  1.00  0.00     0.091 A 
ATOM     56  F   UNL A   1      37.852  31.488  28.909  1.00  0.00    -0.205 F 
ATOM     57  C   UNL A   1      36.228  31.065  32.160  1.00  0.00     0.022 A 
BRANCH  55  58
ATOM     58  S   UNL A   1      35.226  32.574  30.107  1.00  0.00     0.127 S 
ATOM     59  O   UNL A   1      34.735  31.761  28.999  1.00  0.00    -0.237 OA
ATOM     60  O   UNL A   1      34.281  32.750  31.211  1.00  0.00    -0.237 OA
ATOM     61  O   UNL A   1      35.946  33.786  29.737  1.00  0.00    -0.744 OA
ENDBRANCH  55  58
ENDBRANCH  27  51
BRANCH  39  62
ATOM     62  C   UNL A   1      44.497  34.001  29.749  1.00  0.00     0.023 A 
ATOM     63  C   UNL A   1      45.179  34.257  30.954  1.00  0.00     0.012 A 
ATOM     64  C   UNL A   1      44.272  35.056  28.842  1.00  0.00     0.148 A 
ATOM     65  C   UNL A   1      45.603  35.548  31.267  1.00  0.00     0.002 A 
ATOM     66  C   UNL A   1      44.740  36.330  29.139  1.00  0.00     0.091 A 
ATOM     67  F   UNL A   1      43.603  34.795  27.710  1.00  0.00    -0.205 F 
ATOM     68  C   UNL A   1      45.395  36.581  30.356  1.00  0.00     0.022 A 
BRANCH  66  69
ATOM     69  S   UNL A   1      44.599  37.700  27.985  1.00  0.00     0.127 S 
ATOM     70  O   UNL A   1      45.358  38.746  28.671  1.00  0.00    -0.237 OA
ATOM     71  O   UNL A   1      45.246  37.164  26.787  1.00  0.00    -0.237 OA
ATOM     72  O   UNL A   1      43.174  37.956  27.838  1.00  0.00    -0.744 OA
ENDBRANCH  66  69
ENDBRANCH  39  62
ENDBRANCH  13  14
ENDBRANCH   6   8
ENDBRANCH   3   4
ENDBRANCH   2   3
ENDBRANCH   1   2
BRANCH   1  73
ATOM     73  C   UNL A   1      35.528  22.868  23.584  1.00  0.00     0.002 C 
BRANCH  73  74
ATOM     74  C   UNL A   1      35.196  23.762  24.786  1.00  0.00     0.021 C 
BRANCH  74  75
ATOM     75  C   UNL A   1      34.411  25.025  24.424  1.00  0.00     0.116 C 
BRANCH  75  76
ATOM     76  N   UNL A   1      34.176  25.191  23.009  1.00  0.00    -0.354 N 
ATOM     77  C   UNL A   1      33.143  25.770  22.338  1.00  0.00     0.242 C 
ATOM     78  H   UNL A   1      34.884  24.822  22.432  1.00  0.00     0.163 HD
ATOM     79  O   UNL A   1      33.382  26.049  21.151  1.00  0.00    -0.273 OA
BRANCH  77  80
ATOM     80  C   UNL A   1      31.716  26.005  22.902  1.00  0.00     0.174 C 
BRANCH  80  81
ATOM     81  C   UNL A   1      30.912  27.166  22.306  1.00  0.00     0.072 C 
BRANCH  81  82
ATOM     82  C   UNL A   1      30.579  28.455  23.039  1.00  0.00    -0.020 A 
ATOM     83  C   UNL A   1      31.515  28.999  23.910  1.00  0.00     0.087 A 
ATOM     84  C   UNL A   1      29.454  29.377  23.056  1.00  0.00     0.003 A 
ATOM     85  N   UNL A   1      31.057  30.191  24.385  1.00  0.00    -0.361 N 
ATOM     86  C   UNL A   1      29.832  30.473  23.841  1.00  0.00     0.046 A 
ATOM     87  C   UNL A   1      28.177  29.465  22.441  1.00  0.00     0.010 A 
ATOM     88  H   UNL A   1      31.537  30.764  25.025  1.00  0.00     0.166 HD
ATOM     89  C   UNL A   1      29.051  31.630  23.988  1.00  0.00     0.026 A 
ATOM     90  C   UNL A   1      27.385  30.614  22.572  1.00  0.00     0.001 A 
ATOM     91  C   UNL A   1      27.827  31.689  23.326  1.00  0.00     0.002 A 
ENDBRANCH  81  82
ENDBRANCH  80  81
BRANCH  80  92
ATOM     92  N   UNL A   1      30.890  24.818  23.112  1.00  0.00    -0.358 N 
ATOM     93  H   UNL A   1      30.203  24.629  22.432  1.00  0.00     0.162 HD
BRANCH  92  94
ATOM     94  C   UNL A   1      30.980  23.935  24.170  1.00  0.00     0.137 A 
ATOM     95  N   UNL A   1      30.735  24.508  25.360  1.00  0.00    -0.219 NA
ATOM     96  C   UNL A   1      31.576  22.656  24.072  1.00  0.00     0.043 A 
ATOM     97  C   UNL A   1      31.051  23.806  26.451  1.00  0.00     0.224 A 
ATOM     98  C   UNL A   1      31.859  22.028  25.297  1.00  0.00     0.076 A 
ATOM     99  C   UNL A   1      31.948  21.986  22.873  1.00  0.00     0.014 A 
ATOM    100  N   UNL A   1      31.599  22.588  26.479  1.00  0.00    -0.236 NA
ATOM    101  C   UNL A   1      32.474  20.781  25.293  1.00  0.00     0.029 A 
ATOM    102  C   UNL A   1      32.541  20.725  22.893  1.00  0.00     0.001 A 
ATOM    103  C   UNL A   1      32.811  20.121  24.110  1.00  0.00     0.002 A 
ENDBRANCH  92  94
ENDBRANCH  80  92
ENDBRANCH  77  80
ENDBRANCH  75  76
ENDBRANCH  74  75
ENDBRANCH  73  74
ENDBRANCH   1  73
TORSDOF 20
ENDMDL
MODEL 3
REMARK VINA RESULT:     -12.3      5.677      9.011
REMARK SMILES O=C(NCCCCCCNC(=O)[C@@H](Cc1c[nH]c2ccccc12)Nc1ncnc2ccccc12)c1ccc(-c2c3nc(c(-c4cccc(S(=O)(=O)[O-])c4F)c4ccc([nH]4)c(-c4cccc(S(=O)(=O)[O-])c4F)c4nc(c(-c5cccc(S(=O)(=O)[O-])c5F)c5ccc2[nH]5)C=C4)C=C3)cc1
REMARK SMILES IDX 6 1 5 2 4 3 3 4 1 5 2 6 35 8 36 9 97 10 37 11 96 12 38 13
REMARK SMILES IDX 39 14 40 15 90 16 41 17 95 18 89 19 91 20 42 21 94 22 88 23
REMARK SMILES IDX 87 24 43 26 75 27 55 28 74 29 56 30 59 31 73 32 92 33 57 34
REMARK SMILES IDX 58 35 72 37 93 38 60 39 44 40 45 41 53 42 46 43 48 44 54 45
REMARK SMILES IDX 47 46 49 47 50 48 51 49 52 50 76 51 77 52 85 53 78 54 80 55
REMARK SMILES IDX 86 56 79 57 81 58 82 59 83 60 84 61 61 62 62 63 70 64 63 65
REMARK SMILES IDX 65 66 71 67 64 68 66 69 67 70 68 71 69 72 7 73 8 74 9 75
REMARK SMILES IDX 10 76 11 77 12 79 13 80 14 81 15 82 16 83 23 84 17 85 18 86
REMARK SMILES IDX 22 87 19 89 21 90 20 91 24 92 25 94 26 95 34 96 27 97 29 98
REMARK SMILES IDX 33 99 28 100 30 101 32 102 31 103
REMARK H PARENT 3 7 91 25 59 36 10 78 17 88 24 93
REMARK Flexibility Score: inf
ROOT
ATOM      1  C   UNL A   1      35.959  19.222  25.017  1.00  0.00     0.002 C 
ENDROOT
BRANCH   1   2
ATOM      2  C   UNL A   1      37.391  19.601  24.630  1.00  0.00     0.021 C 
BRANCH   2   3
ATOM      3  C   UNL A   1      38.249  20.147  25.767  1.00  0.00     0.116 C 
BRANCH   3   4
ATOM      4  N   UNL A   1      39.441  19.342  25.981  1.00  0.00    -0.352 N 
ATOM      5  O   UNL A   1      41.631  18.875  26.104  1.00  0.00    -0.269 OA
ATOM      6  C   UNL A   1      40.741  19.719  26.206  1.00  0.00     0.251 C 
ATOM      7  H   UNL A   1      39.290  18.370  25.963  1.00  0.00     0.163 HD
BRANCH   6   8
ATOM      8  C   UNL A   1      41.086  21.114  26.566  1.00  0.00     0.039 A 
ATOM      9  C   UNL A   1      41.746  21.412  27.760  1.00  0.00     0.014 A 
ATOM     10  C   UNL A   1      40.824  22.137  25.646  1.00  0.00     0.014 A 
ATOM     11  C   UNL A   1      42.051  22.735  28.081  1.00  0.00     0.010 A 
ATOM     12  C   UNL A   1      41.196  23.454  25.936  1.00  0.00     0.010 A 
ATOM     13  C   UNL A   1      41.801  23.768  27.162  1.00  0.00    -0.014 A 
BRANCH  13  14
ATOM     14  C   UNL A   1      42.272  25.147  27.456  1.00  0.00     0.031 A 
ATOM     15  C   UNL A   1      43.653  25.601  27.075  1.00  0.00     0.074 A 
ATOM     16  C   UNL A   1      41.440  25.989  28.103  1.00  0.00     0.049 A 
ATOM     17  N   UNL A   1      44.212  26.770  27.259  1.00  0.00    -0.248 NA
ATOM     18  C   UNL A   1      44.523  24.619  26.410  1.00  0.00     0.031 C 
ATOM     19  C   UNL A   1      40.095  25.646  28.573  1.00  0.00     0.029 A 
ATOM     20  N   UNL A   1      41.603  27.295  28.492  1.00  0.00    -0.354 N 
ATOM     21  C   UNL A   1      45.507  26.658  26.765  1.00  0.00     0.074 A 
ATOM     22  C   UNL A   1      45.654  25.302  26.281  1.00  0.00     0.031 C 
ATOM     23  C   UNL A   1      39.551  26.716  29.170  1.00  0.00     0.029 A 
ATOM     24  C   UNL A   1      40.522  27.803  29.174  1.00  0.00     0.049 A 
ATOM     25  H   UNL A   1      42.416  27.817  28.301  1.00  0.00     0.167 HD
ATOM     26  C   UNL A   1      46.477  27.603  26.708  1.00  0.00     0.034 A 
ATOM     27  C   UNL A   1      40.336  29.003  29.756  1.00  0.00     0.034 A 
ATOM     28  C   UNL A   1      46.317  28.957  27.172  1.00  0.00     0.049 A 
ATOM     29  C   UNL A   1      41.427  30.032  29.669  1.00  0.00     0.074 A 
ATOM     30  C   UNL A   1      47.219  30.004  27.095  1.00  0.00     0.029 A 
ATOM     31  N   UNL A   1      45.192  29.449  27.815  1.00  0.00    -0.354 N 
ATOM     32  N   UNL A   1      42.589  29.950  29.071  1.00  0.00    -0.248 NA
ATOM     33  C   UNL A   1      41.170  31.328  30.313  1.00  0.00     0.031 C 
ATOM     34  C   UNL A   1      46.649  31.122  27.712  1.00  0.00     0.029 A 
ATOM     35  C   UNL A   1      45.380  30.781  28.150  1.00  0.00     0.049 A 
ATOM     36  H   UNL A   1      44.377  28.930  28.004  1.00  0.00     0.167 HD
ATOM     37  C   UNL A   1      43.193  31.190  29.241  1.00  0.00     0.074 A 
ATOM     38  C   UNL A   1      42.254  32.013  29.978  1.00  0.00     0.031 C 
ATOM     39  C   UNL A   1      44.420  31.604  28.841  1.00  0.00     0.034 A 
BRANCH  26  40
ATOM     40  C   UNL A   1      47.795  27.222  26.085  1.00  0.00     0.023 A 
ATOM     41  C   UNL A   1      48.762  26.550  26.860  1.00  0.00     0.012 A 
ATOM     42  C   UNL A   1      48.048  27.455  24.718  1.00  0.00     0.148 A 
ATOM     43  C   UNL A   1      49.971  26.144  26.295  1.00  0.00     0.002 A 
ATOM     44  C   UNL A   1      49.239  27.012  24.152  1.00  0.00     0.091 A 
ATOM     45  F   UNL A   1      47.126  28.111  24.000  1.00  0.00    -0.205 F 
ATOM     46  C   UNL A   1      50.205  26.366  24.941  1.00  0.00     0.022 A 
BRANCH  44  47
ATOM     47  S   UNL A   1      49.603  27.180  22.401  1.00  0.00     0.127 S 
ATOM     48  O   UNL A   1      51.030  26.869  22.365  1.00  0.00    -0.237 OA
ATOM     49  O   UNL A   1      48.741  26.159  21.806  1.00  0.00    -0.237 OA
ATOM     50  O   UNL A   1      49.251  28.550  22.048  1.00  0.00    -0.744 OA
ENDBRANCH  44  47
ENDBRANCH  26  40
BRANCH  27  51
ATOM     51  C   UNL A   1      39.044  29.303  30.436  1.00  0.00     0.023 A 
ATOM     52  C   UNL A   1      38.779  28.737  31.698  1.00  0.00     0.012 A 
ATOM     53  C   UNL A   1      38.102  30.177  29.862  1.00  0.00     0.148 A 
ATOM     54  C   UNL A   1      37.585  29.017  32.364  1.00  0.00     0.002 A 
ATOM     55  C   UNL A   1      36.943  30.499  30.557  1.00  0.00     0.091 A 
ATOM     56  F   UNL A   1      38.367  30.692  28.654  1.00  0.00    -0.205 F 
ATOM     57  C   UNL A   1      36.674  29.906  31.801  1.00  0.00     0.022 A 
BRANCH  55  58
ATOM     58  S   UNL A   1      35.784  31.741  29.974  1.00  0.00     0.127 S 
ATOM     59  O   UNL A   1      34.910  31.901  31.132  1.00  0.00    -0.237 OA
ATOM     60  O   UNL A   1      36.668  32.875  29.704  1.00  0.00    -0.237 OA
ATOM     61  O   UNL A   1      35.165  31.168  28.784  1.00  0.00    -0.744 OA
ENDBRANCH  55  58
ENDBRANCH  27  51
BRANCH  39  62
ATOM     62  C   UNL A   1      44.814  33.023  29.160  1.00  0.00     0.023 A 
ATOM     63  C   UNL A   1      45.466  33.310  30.375  1.00  0.00     0.012 A 
ATOM     64  C   UNL A   1      44.597  34.056  28.228  1.00  0.00     0.148 A 
ATOM     65  C   UNL A   1      45.870  34.612  30.671  1.00  0.00     0.002 A 
ATOM     66  C   UNL A   1      45.045  35.341  28.509  1.00  0.00     0.091 A 
ATOM     67  F   UNL A   1      43.956  33.764  27.087  1.00  0.00    -0.205 F 
ATOM     68  C   UNL A   1      45.669  35.624  29.734  1.00  0.00     0.022 A 
BRANCH  66  69
ATOM     69  S   UNL A   1      44.913  36.686  27.325  1.00  0.00     0.127 S 
ATOM     70  O   UNL A   1      45.306  37.837  28.137  1.00  0.00    -0.237 OA
ATOM     71  O   UNL A   1      45.890  36.298  26.305  1.00  0.00    -0.237 OA
ATOM     72  O   UNL A   1      43.532  36.686  26.868  1.00  0.00    -0.744 OA
ENDBRANCH  66  69
ENDBRANCH  39  62
ENDBRANCH  13  14
ENDBRANCH   6   8
ENDBRANCH   3   4
ENDBRANCH   2   3
ENDBRANCH   1   2
BRANCH   1  73
ATOM     73  C   UNL A   1      34.890  20.300  24.781  1.00  0.00     0.002 C 
BRANCH  73  74
ATOM     74  C   UNL A   1      33.865  20.490  25.907  1.00  0.00     0.021 C 
BRANCH  74  75
ATOM     75  C   UNL A   1      32.559  21.150  25.456  1.00  0.00     0.116 C 
BRANCH  75  76
ATOM     76  N   UNL A   1      31.802  21.753  26.528  1.00  0.00    -0.354 N 
ATOM     77  C   UNL A   1      31.093  22.915  26.576  1.00  0.00     0.242 C 
ATOM     78  H   UNL A   1      31.797  21.236  27.366  1.00  0.00     0.163 HD
ATOM     79  O   UNL A   1      30.289  22.998  27.519  1.00  0.00    -0.273 OA
BRANCH  77  80
ATOM     80  C   UNL A   1      31.285  24.131  25.630  1.00  0.00     0.174 C 
BRANCH  80  81
ATOM     81  C   UNL A   1      30.277  25.279  25.756  1.00  0.00     0.072 C 
BRANCH  81  82
ATOM     82  C   UNL A   1      30.516  26.698  25.267  1.00  0.00    -0.020 A 
ATOM     83  C   UNL A   1      29.977  27.093  24.049  1.00  0.00     0.087 A 
ATOM     84  C   UNL A   1      31.191  27.875  25.791  1.00  0.00     0.003 A 
ATOM     85  N   UNL A   1      30.228  28.417  23.847  1.00  0.00    -0.361 N 
ATOM     86  C   UNL A   1      30.916  28.932  24.914  1.00  0.00     0.046 A 
ATOM     87  C   UNL A   1      31.946  28.209  26.947  1.00  0.00     0.010 A 
ATOM     88  H   UNL A   1      29.956  28.927  23.051  1.00  0.00     0.166 HD
ATOM     89  C   UNL A   1      31.295  30.261  25.155  1.00  0.00     0.026 A 
ATOM     90  C   UNL A   1      32.330  29.532  27.207  1.00  0.00     0.001 A 
ATOM     91  C   UNL A   1      31.993  30.546  26.327  1.00  0.00     0.002 A 
ENDBRANCH  81  82
ENDBRANCH  80  81
BRANCH  80  92
ATOM     92  N   UNL A   1      32.652  24.618  25.459  1.00  0.00    -0.358 N 
ATOM     93  H   UNL A   1      33.007  25.204  26.167  1.00  0.00     0.162 HD
BRANCH  92  94
ATOM     94  C   UNL A   1      33.494  24.338  24.400  1.00  0.00     0.137 A 
ATOM     95  N   UNL A   1      32.838  24.086  23.255  1.00  0.00    -0.219 NA
ATOM     96  C   UNL A   1      34.865  24.028  24.554  1.00  0.00     0.043 A 
ATOM     97  C   UNL A   1      33.543  23.554  22.254  1.00  0.00     0.224 A 
ATOM     98  C   UNL A   1      35.486  23.472  23.423  1.00  0.00     0.076 A 
ATOM     99  C   UNL A   1      35.639  24.181  25.737  1.00  0.00     0.014 A 
ATOM    100  N   UNL A   1      34.841  23.238  22.278  1.00  0.00    -0.236 NA
ATOM    101  C   UNL A   1      36.826  23.107  23.496  1.00  0.00     0.029 A 
ATOM    102  C   UNL A   1      36.988  23.832  25.780  1.00  0.00     0.001 A 
ATOM    103  C   UNL A   1      37.584  23.287  24.654  1.00  0.00     0.002 A 
ENDBRANCH  92  94
ENDBRANCH  80  92
ENDBRANCH  77  80
ENDBRANCH  75  76
ENDBRANCH  74  75
ENDBRANCH  73  74
ENDBRANCH   1  73
TORSDOF 20
ENDMDL
