MODEL 1
REMARK VINA RESULT:     -12.5      0.000      0.000
REMARK SMILES Cc1ccc2c(c1)C=C(C(=O)NCCCCCCNC(=O)c1ccc(-c3c4nc(c(-c5cccc(S(=O)(=O)[O-])c5F)c5ccc([nH]5)c(-c5cccc(S(=O)(=O)[O-])c5F)c5nc(c(-c6cccc(S(=O)(=O)[O-])c6F)c6ccc3[nH]6)C=C5)C=C4)cc1)[C@@H](C(F)(F)F)O2
REMARK SMILES IDX 16 1 15 2 14 3 13 4 12 5 10 6 11 7 9 9 1 10 2 11 3 12 7 13
REMARK SMILES IDX 4 14 6 15 5 16 8 17 90 18 85 19 86 20 87 21 88 22 89 23
REMARK SMILES IDX 17 24 18 25 19 26 20 27 21 29 22 30 23 31 84 32 24 33 83 34
REMARK SMILES IDX 25 35 26 36 27 37 77 38 28 39 82 40 76 41 78 42 29 43 81 44
REMARK SMILES IDX 75 45 74 46 30 48 62 49 42 50 61 51 43 52 46 53 60 54 79 55
REMARK SMILES IDX 44 56 45 57 59 59 80 60 47 61 31 62 32 63 40 64 33 65 35 66
REMARK SMILES IDX 41 67 34 68 36 69 37 70 38 71 39 72 63 73 64 74 72 75 65 76
REMARK SMILES IDX 67 77 73 78 66 79 68 80 69 81 70 82 71 83 48 84 49 85 57 86
REMARK SMILES IDX 50 87 52 88 58 89 51 90 53 91 54 92 55 93 56 94
REMARK H PARENT 12 8 19 28 78 47 46 58
REMARK Flexibility Score: inf
ROOT
ATOM      1  C   UNL A   1      31.987  27.494  26.721  1.00  0.00     0.002 C 
ENDROOT
BRANCH   1   2
ATOM      2  C   UNL A   1      30.910  26.769  25.903  1.00  0.00     0.002 C 
BRANCH   2   3
ATOM      3  C   UNL A   1      30.878  27.089  24.405  1.00  0.00     0.021 C 
BRANCH   3   4
ATOM      4  C   UNL A   1      30.730  25.869  23.499  1.00  0.00     0.116 C 
BRANCH   4   5
ATOM      5  N   UNL A   1      31.694  25.882  22.412  1.00  0.00    -0.352 N 
ATOM      6  C   UNL A   1      32.803  25.192  22.060  1.00  0.00     0.251 C 
ATOM      7  O   UNL A   1      33.313  25.540  20.988  1.00  0.00    -0.270 OA
ATOM      8  H   UNL A   1      31.482  26.581  21.751  1.00  0.00     0.163 HD
BRANCH   6   9
ATOM      9  C   UNL A   1      33.430  24.085  22.846  1.00  0.00     0.067 C 
ATOM     10  C   UNL A   1      32.372  18.183  24.429  1.00  0.00     0.044 C 
ATOM     11  C   UNL A   1      33.122  19.478  24.332  1.00  0.00    -0.050 A 
ATOM     12  C   UNL A   1      34.385  19.594  24.927  1.00  0.00     0.007 A 
ATOM     13  C   UNL A   1      32.593  20.570  23.629  1.00  0.00     0.015 A 
ATOM     14  C   UNL A   1      35.100  20.788  24.832  1.00  0.00     0.047 A 
ATOM     15  C   UNL A   1      33.308  21.770  23.536  1.00  0.00     0.017 A 
ATOM     16  C   UNL A   1      34.554  21.871  24.148  1.00  0.00     0.128 A 
ATOM     17  C   UNL A   1      32.790  22.901  22.778  1.00  0.00     0.025 C 
ATOM     18  O   UNL A   1      35.323  22.993  24.076  1.00  0.00    -0.475 OA
ATOM     19  C   UNL A   1      34.653  24.231  23.710  1.00  0.00     0.314 C 
BRANCH  19  20
ATOM     20  C   UNL A   1      34.383  25.046  24.988  1.00  0.00     0.429 C 
ATOM     21  F   UNL A   1      33.250  24.620  25.596  1.00  0.00    -0.167 F 
ATOM     22  F   UNL A   1      35.376  24.922  25.901  1.00  0.00    -0.167 F 
ATOM     23  F   UNL A   1      34.242  26.368  24.738  1.00  0.00    -0.167 F 
ENDBRANCH  19  20
ENDBRANCH   6   9
ENDBRANCH   4   5
ENDBRANCH   3   4
ENDBRANCH   2   3
ENDBRANCH   1   2
BRANCH   1  24
ATOM     24  C   UNL A   1      31.746  28.985  26.971  1.00  0.00     0.021 C 
BRANCH  24  25
ATOM     25  C   UNL A   1      32.676  29.929  26.218  1.00  0.00     0.116 C 
BRANCH  25  26
ATOM     26  N   UNL A   1      32.454  31.324  26.556  1.00  0.00    -0.352 N 
ATOM     27  C   UNL A   1      33.230  32.161  27.326  1.00  0.00     0.251 C 
ATOM     28  H   UNL A   1      31.637  31.726  26.184  1.00  0.00     0.163 HD
ATOM     29  O   UNL A   1      32.816  33.278  27.624  1.00  0.00    -0.269 OA
BRANCH  27  30
ATOM     30  C   UNL A   1      34.544  31.691  27.817  1.00  0.00     0.039 A 
ATOM     31  C   UNL A   1      34.732  30.356  28.178  1.00  0.00     0.014 A 
ATOM     32  C   UNL A   1      35.590  32.609  27.947  1.00  0.00     0.014 A 
ATOM     33  C   UNL A   1      35.909  29.974  28.815  1.00  0.00     0.010 A 
ATOM     34  C   UNL A   1      36.799  32.205  28.519  1.00  0.00     0.010 A 
ATOM     35  C   UNL A   1      36.952  30.896  29.002  1.00  0.00    -0.014 A 
BRANCH  35  36
ATOM     36  C   UNL A   1      38.191  30.468  29.701  1.00  0.00     0.031 A 
ATOM     37  C   UNL A   1      38.466  30.895  31.119  1.00  0.00     0.074 A 
ATOM     38  C   UNL A   1      39.058  29.658  29.065  1.00  0.00     0.049 A 
ATOM     39  N   UNL A   1      39.481  30.587  31.885  1.00  0.00    -0.248 NA
ATOM     40  C   UNL A   1      37.481  31.781  31.762  1.00  0.00     0.031 C 
ATOM     41  C   UNL A   1      38.914  29.192  27.684  1.00  0.00     0.029 A 
ATOM     42  N   UNL A   1      40.221  29.070  29.494  1.00  0.00    -0.354 N 
ATOM     43  C   UNL A   1      39.283  31.271  33.078  1.00  0.00     0.074 A 
ATOM     44  C   UNL A   1      38.048  32.013  32.939  1.00  0.00     0.031 C 
ATOM     45  C   UNL A   1      39.924  28.360  27.394  1.00  0.00     0.029 A 
ATOM     46  C   UNL A   1      40.812  28.266  28.549  1.00  0.00     0.049 A 
ATOM     47  H   UNL A   1      40.596  29.211  30.394  1.00  0.00     0.167 HD
ATOM     48  C   UNL A   1      40.046  31.264  34.195  1.00  0.00     0.034 A 
ATOM     49  C   UNL A   1      41.942  27.536  28.600  1.00  0.00     0.034 A 
ATOM     50  C   UNL A   1      41.240  30.481  34.358  1.00  0.00     0.049 A 
ATOM     51  C   UNL A   1      42.759  27.528  29.858  1.00  0.00     0.074 A 
ATOM     52  C   UNL A   1      42.046  30.369  35.478  1.00  0.00     0.029 A 
ATOM     53  N   UNL A   1      41.797  29.673  33.381  1.00  0.00    -0.354 N 
ATOM     54  N   UNL A   1      42.507  28.117  31.001  1.00  0.00    -0.248 NA
ATOM     55  C   UNL A   1      44.005  26.750  29.840  1.00  0.00     0.031 C 
ATOM     56  C   UNL A   1      43.093  29.493  35.177  1.00  0.00     0.029 A 
ATOM     57  C   UNL A   1      42.937  29.059  33.871  1.00  0.00     0.049 A 
ATOM     58  H   UNL A   1      41.436  29.552  32.474  1.00  0.00     0.167 HD
ATOM     59  C   UNL A   1      43.559  27.777  31.843  1.00  0.00     0.074 A 
ATOM     60  C   UNL A   1      44.439  26.911  31.084  1.00  0.00     0.031 C 
ATOM     61  C   UNL A   1      43.781  28.166  33.120  1.00  0.00     0.034 A 
BRANCH  48  62
ATOM     62  C   UNL A   1      39.590  32.089  35.367  1.00  0.00     0.023 A 
ATOM     63  C   UNL A   1      39.888  33.465  35.396  1.00  0.00     0.012 A 
ATOM     64  C   UNL A   1      38.791  31.529  36.383  1.00  0.00     0.148 A 
ATOM     65  C   UNL A   1      39.406  34.272  36.424  1.00  0.00     0.002 A 
ATOM     66  C   UNL A   1      38.292  32.345  37.392  1.00  0.00     0.091 A 
ATOM     67  F   UNL A   1      38.536  30.214  36.341  1.00  0.00    -0.205 F 
ATOM     68  C   UNL A   1      38.601  33.715  37.415  1.00  0.00     0.022 A 
BRANCH  66  69
ATOM     69  S   UNL A   1      37.203  31.739  38.685  1.00  0.00     0.127 S 
ATOM     70  O   UNL A   1      38.022  31.945  39.878  1.00  0.00    -0.237 OA
ATOM     71  O   UNL A   1      36.056  32.639  38.569  1.00  0.00    -0.237 OA
ATOM     72  O   UNL A   1      36.922  30.348  38.357  1.00  0.00    -0.744 OA
ENDBRANCH  66  69
ENDBRANCH  48  62
BRANCH  49  73
ATOM     73  C   UNL A   1      42.319  26.708  27.423  1.00  0.00     0.023 A 
ATOM     74  C   UNL A   1      43.141  27.267  26.427  1.00  0.00     0.012 A 
ATOM     75  C   UNL A   1      41.956  25.350  27.341  1.00  0.00     0.148 A 
ATOM     76  C   UNL A   1      43.597  26.484  25.366  1.00  0.00     0.002 A 
ATOM     77  C   UNL A   1      42.450  24.566  26.307  1.00  0.00     0.091 A 
ATOM     78  F   UNL A   1      41.170  24.846  28.303  1.00  0.00    -0.205 F 
ATOM     79  C   UNL A   1      43.264  25.134  25.313  1.00  0.00     0.022 A 
BRANCH  77  80
ATOM     80  S   UNL A   1      42.177  22.793  26.219  1.00  0.00     0.127 S 
ATOM     81  O   UNL A   1      42.633  22.488  24.865  1.00  0.00    -0.237 OA
ATOM     82  O   UNL A   1      43.051  22.305  27.287  1.00  0.00    -0.237 OA
ATOM     83  O   UNL A   1      40.756  22.597  26.461  1.00  0.00    -0.744 OA
ENDBRANCH  77  80
ENDBRANCH  49  73
BRANCH  61  84
ATOM     84  C   UNL A   1      45.027  27.673  33.799  1.00  0.00     0.023 A 
ATOM     85  C   UNL A   1      46.179  28.482  33.787  1.00  0.00     0.012 A 
ATOM     86  C   UNL A   1      45.020  26.479  34.547  1.00  0.00     0.148 A 
ATOM     87  C   UNL A   1      47.312  28.107  34.507  1.00  0.00     0.002 A 
ATOM     88  C   UNL A   1      46.143  26.127  35.287  1.00  0.00     0.091 A 
ATOM     89  F   UNL A   1      43.913  25.724  34.532  1.00  0.00    -0.205 F 
ATOM     90  C   UNL A   1      47.290  26.938  35.264  1.00  0.00     0.022 A 
BRANCH  88  91
ATOM     91  S   UNL A   1      46.187  24.680  36.350  1.00  0.00     0.127 S 
ATOM     92  O   UNL A   1      45.169  25.012  37.346  1.00  0.00    -0.237 OA
ATOM     93  O   UNL A   1      45.812  23.607  35.428  1.00  0.00    -0.237 OA
ATOM     94  O   UNL A   1      47.549  24.596  36.860  1.00  0.00    -0.744 OA
ENDBRANCH  88  91
ENDBRANCH  61  84
ENDBRANCH  35  36
ENDBRANCH  27  30
ENDBRANCH  25  26
ENDBRANCH  24  25
ENDBRANCH   1  24
TORSDOF 17
ENDMDL
MODEL 2
REMARK VINA RESULT:     -12.4      2.519      4.052
REMARK SMILES Cc1ccc2c(c1)C=C(C(=O)NCCCCCCNC(=O)c1ccc(-c3c4nc(c(-c5cccc(S(=O)(=O)[O-])c5F)c5ccc([nH]5)c(-c5cccc(S(=O)(=O)[O-])c5F)c5nc(c(-c6cccc(S(=O)(=O)[O-])c6F)c6ccc3[nH]6)C=C5)C=C4)cc1)[C@@H](C(F)(F)F)O2
REMARK SMILES IDX 16 1 15 2 14 3 13 4 12 5 10 6 11 7 9 9 1 10 2 11 3 12 7 13
REMARK SMILES IDX 4 14 6 15 5 16 8 17 90 18 85 19 86 20 87 21 88 22 89 23
REMARK SMILES IDX 17 24 18 25 19 26 20 27 21 29 22 30 23 31 84 32 24 33 83 34
REMARK SMILES IDX 25 35 26 36 27 37 77 38 28 39 82 40 76 41 78 42 29 43 81 44
REMARK SMILES IDX 75 45 74 46 30 48 62 49 42 50 61 51 43 52 46 53 60 54 79 55
REMARK SMILES IDX 44 56 45 57 59 59 80 60 47 61 31 62 32 63 40 64 33 65 35 66
REMARK SMILES IDX 41 67 34 68 36 69 37 70 38 71 39 72 63 73 64 74 72 75 65 76
REMARK SMILES IDX 67 77 73 78 66 79 68 80 69 81 70 82 71 83 48 84 49 85 57 86
REMARK SMILES IDX 50 87 52 88 58 89 51 90 53 91 54 92 55 93 56 94
REMARK H PARENT 12 8 19 28 78 47 46 58
REMARK Flexibility Score: inf
ROOT
ATOM      1  C   UNL A   1      31.753  30.451  26.362  1.00  0.00     0.002 C 
ENDROOT
BRANCH   1   2
ATOM      2  C   UNL A   1      32.911  29.737  27.073  1.00  0.00     0.002 C 
BRANCH   2   3
ATOM      3  C   UNL A   1      33.882  28.973  26.166  1.00  0.00     0.021 C 
BRANCH   3   4
ATOM      4  C   UNL A   1      33.756  27.453  26.241  1.00  0.00     0.116 C 
BRANCH   4   5
ATOM      5  N   UNL A   1      33.844  26.836  24.929  1.00  0.00    -0.352 N 
ATOM      6  C   UNL A   1      33.023  26.618  23.877  1.00  0.00     0.251 C 
ATOM      7  O   UNL A   1      33.554  26.056  22.911  1.00  0.00    -0.270 OA
ATOM      8  H   UNL A   1      34.748  26.482  24.758  1.00  0.00     0.163 HD
BRANCH   6   9
ATOM      9  C   UNL A   1      31.576  26.992  23.805  1.00  0.00     0.067 C 
ATOM     10  C   UNL A   1      27.988  31.916  22.655  1.00  0.00     0.044 C 
ATOM     11  C   UNL A   1      28.321  30.485  22.951  1.00  0.00    -0.050 A 
ATOM     12  C   UNL A   1      27.290  29.548  23.099  1.00  0.00     0.007 A 
ATOM     13  C   UNL A   1      29.654  30.059  23.054  1.00  0.00     0.015 A 
ATOM     14  C   UNL A   1      27.587  28.211  23.359  1.00  0.00     0.047 A 
ATOM     15  C   UNL A   1      29.953  28.717  23.319  1.00  0.00     0.017 A 
ATOM     16  C   UNL A   1      28.913  27.805  23.479  1.00  0.00     0.128 A 
ATOM     17  C   UNL A   1      31.330  28.250  23.391  1.00  0.00     0.025 C 
ATOM     18  O   UNL A   1      29.123  26.479  23.708  1.00  0.00    -0.475 OA
ATOM     19  C   UNL A   1      30.436  26.093  24.201  1.00  0.00     0.314 C 
BRANCH  19  20
ATOM     20  C   UNL A   1      30.352  25.878  25.723  1.00  0.00     0.429 C 
ATOM     21  F   UNL A   1      30.641  27.026  26.384  1.00  0.00    -0.167 F 
ATOM     22  F   UNL A   1      29.113  25.508  26.126  1.00  0.00    -0.167 F 
ATOM     23  F   UNL A   1      31.208  24.927  26.160  1.00  0.00    -0.167 F 
ENDBRANCH  19  20
ENDBRANCH   6   9
ENDBRANCH   4   5
ENDBRANCH   3   4
ENDBRANCH   2   3
ENDBRANCH   1   2
BRANCH   1  24
ATOM     24  C   UNL A   1      31.518  31.909  26.765  1.00  0.00     0.021 C 
BRANCH  24  25
ATOM     25  C   UNL A   1      32.770  32.684  27.159  1.00  0.00     0.116 C 
BRANCH  25  26
ATOM     26  N   UNL A   1      32.476  34.035  27.603  1.00  0.00    -0.352 N 
ATOM     27  C   UNL A   1      33.070  34.763  28.609  1.00  0.00     0.251 C 
ATOM     28  H   UNL A   1      31.753  34.494  27.119  1.00  0.00     0.163 HD
ATOM     29  O   UNL A   1      32.599  35.846  28.943  1.00  0.00    -0.269 OA
BRANCH  27  30
ATOM     30  C   UNL A   1      34.254  34.213  29.305  1.00  0.00     0.039 A 
ATOM     31  C   UNL A   1      35.544  34.517  28.864  1.00  0.00     0.014 A 
ATOM     32  C   UNL A   1      34.067  33.355  30.392  1.00  0.00     0.014 A 
ATOM     33  C   UNL A   1      36.634  33.843  29.406  1.00  0.00     0.010 A 
ATOM     34  C   UNL A   1      35.172  32.736  30.985  1.00  0.00     0.010 A 
ATOM     35  C   UNL A   1      36.459  32.938  30.465  1.00  0.00    -0.014 A 
BRANCH  35  36
ATOM     36  C   UNL A   1      37.637  32.217  31.014  1.00  0.00     0.031 A 
ATOM     37  C   UNL A   1      38.113  32.467  32.420  1.00  0.00     0.074 A 
ATOM     38  C   UNL A   1      38.261  31.301  30.248  1.00  0.00     0.049 A 
ATOM     39  N   UNL A   1      39.103  31.903  33.064  1.00  0.00    -0.248 NA
ATOM     40  C   UNL A   1      37.391  33.480  33.208  1.00  0.00     0.031 C 
ATOM     41  C   UNL A   1      37.908  30.982  28.863  1.00  0.00     0.029 A 
ATOM     42  N   UNL A   1      39.310  30.460  30.526  1.00  0.00    -0.354 N 
ATOM     43  C   UNL A   1      39.151  32.517  34.309  1.00  0.00     0.074 A 
ATOM     44  C   UNL A   1      38.090  33.501  34.335  1.00  0.00     0.031 C 
ATOM     45  C   UNL A   1      38.696  29.989  28.426  1.00  0.00     0.029 A 
ATOM     46  C   UNL A   1      39.639  29.630  29.481  1.00  0.00     0.049 A 
ATOM     47  H   UNL A   1      39.780  30.452  31.391  1.00  0.00     0.167 HD
ATOM     48  C   UNL A   1      39.988  32.271  35.343  1.00  0.00     0.034 A 
ATOM     49  C   UNL A   1      40.594  28.686  29.377  1.00  0.00     0.034 A 
ATOM     50  C   UNL A   1      41.003  31.253  35.341  1.00  0.00     0.049 A 
ATOM     51  C   UNL A   1      41.494  28.416  30.547  1.00  0.00     0.074 A 
ATOM     52  C   UNL A   1      41.859  30.895  36.368  1.00  0.00     0.029 A 
ATOM     53  N   UNL A   1      41.297  30.428  34.268  1.00  0.00    -0.354 N 
ATOM     54  N   UNL A   1      41.466  28.953  31.742  1.00  0.00    -0.248 NA
ATOM     55  C   UNL A   1      42.546  27.408  30.361  1.00  0.00     0.031 C 
ATOM     56  C   UNL A   1      42.673  29.853  35.915  1.00  0.00     0.029 A 
ATOM     57  C   UNL A   1      42.321  29.562  34.606  1.00  0.00     0.049 A 
ATOM     58  H   UNL A   1      40.843  30.454  33.395  1.00  0.00     0.167 HD
ATOM     59  C   UNL A   1      42.492  28.343  32.454  1.00  0.00     0.074 A 
ATOM     60  C   UNL A   1      43.107  27.380  31.564  1.00  0.00     0.031 C 
ATOM     61  C   UNL A   1      42.897  28.579  33.725  1.00  0.00     0.034 A 
BRANCH  48  62
ATOM     62  C   UNL A   1      39.813  33.076  36.601  1.00  0.00     0.023 A 
ATOM     63  C   UNL A   1      40.453  34.325  36.711  1.00  0.00     0.012 A 
ATOM     64  C   UNL A   1      38.945  32.647  37.624  1.00  0.00     0.148 A 
ATOM     65  C   UNL A   1      40.242  35.133  37.826  1.00  0.00     0.002 A 
ATOM     66  C   UNL A   1      38.718  33.469  38.721  1.00  0.00     0.091 A 
ATOM     67  F   UNL A   1      38.360  31.447  37.502  1.00  0.00    -0.205 F 
ATOM     68  C   UNL A   1      39.368  34.711  38.825  1.00  0.00     0.022 A 
BRANCH  66  69
ATOM     69  S   UNL A   1      37.571  33.043  40.036  1.00  0.00     0.127 S 
ATOM     70  O   UNL A   1      36.344  32.791  39.283  1.00  0.00    -0.237 OA
ATOM     71  O   UNL A   1      38.191  31.850  40.611  1.00  0.00    -0.237 OA
ATOM     72  O   UNL A   1      37.529  34.197  40.924  1.00  0.00    -0.744 OA
ENDBRANCH  66  69
ENDBRANCH  48  62
BRANCH  49  73
ATOM     73  C   UNL A   1      40.691  27.893  28.122  1.00  0.00     0.023 A 
ATOM     74  C   UNL A   1      41.385  28.432  27.024  1.00  0.00     0.012 A 
ATOM     75  C   UNL A   1      40.194  26.578  28.051  1.00  0.00     0.148 A 
ATOM     76  C   UNL A   1      41.583  27.672  25.871  1.00  0.00     0.002 A 
ATOM     77  C   UNL A   1      40.434  25.811  26.918  1.00  0.00     0.091 A 
ATOM     78  F   UNL A   1      39.534  26.093  29.112  1.00  0.00    -0.205 F 
ATOM     79  C   UNL A   1      41.121  26.360  25.823  1.00  0.00     0.022 A 
BRANCH  77  80
ATOM     80  S   UNL A   1      39.985  24.076  26.809  1.00  0.00     0.127 S 
ATOM     81  O   UNL A   1      41.061  23.541  25.978  1.00  0.00    -0.237 OA
ATOM     82  O   UNL A   1      40.031  23.668  28.214  1.00  0.00    -0.237 OA
ATOM     83  O   UNL A   1      38.658  24.045  26.211  1.00  0.00    -0.744 OA
ENDBRANCH  77  80
ENDBRANCH  49  73
BRANCH  61  84
ATOM     84  C   UNL A   1      44.066  27.795  34.248  1.00  0.00     0.023 A 
ATOM     85  C   UNL A   1      45.359  28.342  34.144  1.00  0.00     0.012 A 
ATOM     86  C   UNL A   1      43.873  26.587  34.946  1.00  0.00     0.148 A 
ATOM     87  C   UNL A   1      46.448  27.694  34.724  1.00  0.00     0.002 A 
ATOM     88  C   UNL A   1      44.959  25.962  35.548  1.00  0.00     0.091 A 
ATOM     89  F   UNL A   1      42.632  26.084  35.020  1.00  0.00    -0.205 F 
ATOM     90  C   UNL A   1      46.247  26.513  35.434  1.00  0.00     0.022 A 
BRANCH  88  91
ATOM     91  S   UNL A   1      44.792  24.477  36.545  1.00  0.00     0.127 S 
ATOM     92  O   UNL A   1      46.183  24.199  36.901  1.00  0.00    -0.237 OA
ATOM     93  O   UNL A   1      43.959  24.942  37.655  1.00  0.00    -0.237 OA
ATOM     94  O   UNL A   1      44.161  23.484  35.687  1.00  0.00    -0.744 OA
ENDBRANCH  88  91
ENDBRANCH  61  84
ENDBRANCH  35  36
ENDBRANCH  27  30
ENDBRANCH  25  26
ENDBRANCH  24  25
ENDBRANCH   1  24
TORSDOF 17
ENDMDL
MODEL 3
REMARK VINA RESULT:     -12.4      2.844      8.640
REMARK SMILES Cc1ccc2c(c1)C=C(C(=O)NCCCCCCNC(=O)c1ccc(-c3c4nc(c(-c5cccc(S(=O)(=O)[O-])c5F)c5ccc([nH]5)c(-c5cccc(S(=O)(=O)[O-])c5F)c5nc(c(-c6cccc(S(=O)(=O)[O-])c6F)c6ccc3[nH]6)C=C5)C=C4)cc1)[C@@H](C(F)(F)F)O2
REMARK SMILES IDX 16 1 15 2 14 3 13 4 12 5 10 6 11 7 9 9 1 10 2 11 3 12 7 13
REMARK SMILES IDX 4 14 6 15 5 16 8 17 90 18 85 19 86 20 87 21 88 22 89 23
REMARK SMILES IDX 17 24 18 25 19 26 20 27 21 29 22 30 23 31 84 32 24 33 83 34
REMARK SMILES IDX 25 35 26 36 27 37 77 38 28 39 82 40 76 41 78 42 29 43 81 44
REMARK SMILES IDX 75 45 74 46 30 48 62 49 42 50 61 51 43 52 46 53 60 54 79 55
REMARK SMILES IDX 44 56 45 57 59 59 80 60 47 61 31 62 32 63 40 64 33 65 35 66
REMARK SMILES IDX 41 67 34 68 36 69 37 70 38 71 39 72 63 73 64 74 72 75 65 76
REMARK SMILES IDX 67 77 73 78 66 79 68 80 69 81 70 82 71 83 48 84 49 85 57 86
REMARK SMILES IDX 50 87 52 88 58 89 51 90 53 91 54 92 55 93 56 94
REMARK H PARENT 12 8 19 28 78 47 46 58
REMARK Flexibility Score: inf
ROOT
ATOM      1  C   UNL A   1      31.951  30.340  26.275  1.00  0.00     0.002 C 
ENDROOT
BRANCH   1   2
ATOM      2  C   UNL A   1      32.639  29.403  27.276  1.00  0.00     0.002 C 
BRANCH   2   3
ATOM      3  C   UNL A   1      33.854  28.633  26.745  1.00  0.00     0.021 C 
BRANCH   3   4
ATOM      4  C   UNL A   1      34.036  28.704  25.231  1.00  0.00     0.116 C 
BRANCH   4   5
ATOM      5  N   UNL A   1      33.972  27.389  24.616  1.00  0.00    -0.352 N 
ATOM      6  C   UNL A   1      33.026  26.598  24.061  1.00  0.00     0.251 C 
ATOM      7  O   UNL A   1      33.443  25.521  23.618  1.00  0.00    -0.270 OA
ATOM      8  H   UNL A   1      34.857  26.957  24.597  1.00  0.00     0.163 HD
BRANCH   6   9
ATOM      9  C   UNL A   1      31.569  26.921  23.952  1.00  0.00     0.067 C 
ATOM     10  C   UNL A   1      27.843  31.714  22.687  1.00  0.00     0.044 C 
ATOM     11  C   UNL A   1      28.218  30.296  22.999  1.00  0.00    -0.050 A 
ATOM     12  C   UNL A   1      27.216  29.326  23.128  1.00  0.00     0.007 A 
ATOM     13  C   UNL A   1      29.561  29.917  23.136  1.00  0.00     0.015 A 
ATOM     14  C   UNL A   1      27.552  28.001  23.403  1.00  0.00     0.047 A 
ATOM     15  C   UNL A   1      29.899  28.588  23.416  1.00  0.00     0.017 A 
ATOM     16  C   UNL A   1      28.888  27.641  23.557  1.00  0.00     0.128 A 
ATOM     17  C   UNL A   1      31.290  28.168  23.525  1.00  0.00     0.025 C 
ATOM     18  O   UNL A   1      29.138  26.324  23.799  1.00  0.00    -0.475 OA
ATOM     19  C   UNL A   1      30.451  25.986  24.326  1.00  0.00     0.314 C 
BRANCH  19  20
ATOM     20  C   UNL A   1      30.337  25.776  25.846  1.00  0.00     0.429 C 
ATOM     21  F   UNL A   1      31.178  24.796  26.258  1.00  0.00    -0.167 F 
ATOM     22  F   UNL A   1      30.671  26.885  26.548  1.00  0.00    -0.167 F 
ATOM     23  F   UNL A   1      29.087  25.430  26.228  1.00  0.00    -0.167 F 
ENDBRANCH  19  20
ENDBRANCH   6   9
ENDBRANCH   4   5
ENDBRANCH   3   4
ENDBRANCH   2   3
ENDBRANCH   1   2
BRANCH   1  24
ATOM     24  C   UNL A   1      31.678  31.763  26.769  1.00  0.00     0.021 C 
BRANCH  24  25
ATOM     25  C   UNL A   1      32.874  32.478  27.384  1.00  0.00     0.116 C 
BRANCH  25  26
ATOM     26  N   UNL A   1      32.617  33.884  27.641  1.00  0.00    -0.352 N 
ATOM     27  C   UNL A   1      33.186  34.710  28.584  1.00  0.00     0.251 C 
ATOM     28  H   UNL A   1      31.942  34.305  27.062  1.00  0.00     0.163 HD
ATOM     29  O   UNL A   1      32.745  35.842  28.754  1.00  0.00    -0.269 OA
BRANCH  27  30
ATOM     30  C   UNL A   1      34.305  34.208  29.412  1.00  0.00     0.039 A 
ATOM     31  C   UNL A   1      35.629  34.455  29.044  1.00  0.00     0.014 A 
ATOM     32  C   UNL A   1      34.022  33.452  30.553  1.00  0.00     0.014 A 
ATOM     33  C   UNL A   1      36.663  33.817  29.722  1.00  0.00     0.010 A 
ATOM     34  C   UNL A   1      35.068  32.873  31.278  1.00  0.00     0.010 A 
ATOM     35  C   UNL A   1      36.394  33.011  30.840  1.00  0.00    -0.014 A 
BRANCH  35  36
ATOM     36  C   UNL A   1      37.514  32.326  31.535  1.00  0.00     0.031 A 
ATOM     37  C   UNL A   1      38.264  31.201  30.873  1.00  0.00     0.074 A 
ATOM     38  C   UNL A   1      37.882  32.746  32.761  1.00  0.00     0.049 A 
ATOM     39  N   UNL A   1      39.284  30.517  31.326  1.00  0.00    -0.248 NA
ATOM     40  C   UNL A   1      37.816  30.786  29.533  1.00  0.00     0.031 C 
ATOM     41  C   UNL A   1      37.220  33.813  33.517  1.00  0.00     0.029 A 
ATOM     42  N   UNL A   1      38.905  32.343  33.581  1.00  0.00    -0.354 N 
ATOM     43  C   UNL A   1      39.572  29.568  30.353  1.00  0.00     0.074 A 
ATOM     44  C   UNL A   1      38.619  29.761  29.281  1.00  0.00     0.031 C 
ATOM     45  C   UNL A   1      37.878  34.007  34.668  1.00  0.00     0.029 A 
ATOM     46  C   UNL A   1      38.979  33.053  34.756  1.00  0.00     0.049 A 
ATOM     47  H   UNL A   1      39.527  31.616  33.349  1.00  0.00     0.167 HD
ATOM     48  C   UNL A   1      40.552  28.636  30.343  1.00  0.00     0.034 A 
ATOM     49  C   UNL A   1      39.834  32.949  35.792  1.00  0.00     0.034 A 
ATOM     50  C   UNL A   1      41.537  28.482  31.379  1.00  0.00     0.049 A 
ATOM     51  C   UNL A   1      40.926  31.922  35.746  1.00  0.00     0.074 A 
ATOM     52  C   UNL A   1      42.603  27.600  31.425  1.00  0.00     0.029 A 
ATOM     53  N   UNL A   1      41.583  29.227  32.546  1.00  0.00    -0.354 N 
ATOM     54  N   UNL A   1      41.229  31.091  34.779  1.00  0.00    -0.248 NA
ATOM     55  C   UNL A   1      41.800  31.824  36.924  1.00  0.00     0.031 C 
ATOM     56  C   UNL A   1      43.294  27.812  32.621  1.00  0.00     0.029 A 
ATOM     57  C   UNL A   1      42.658  28.826  33.319  1.00  0.00     0.049 A 
ATOM     58  H   UNL A   1      40.946  29.937  32.788  1.00  0.00     0.167 HD
ATOM     59  C   UNL A   1      42.332  30.375  35.227  1.00  0.00     0.074 A 
ATOM     60  C   UNL A   1      42.659  30.886  36.543  1.00  0.00     0.031 C 
ATOM     61  C   UNL A   1      42.998  29.371  34.608  1.00  0.00     0.034 A 
BRANCH  48  62
ATOM     62  C   UNL A   1      40.656  27.732  29.146  1.00  0.00     0.023 A 
ATOM     63  C   UNL A   1      39.791  26.626  29.043  1.00  0.00     0.012 A 
ATOM     64  C   UNL A   1      41.535  28.029  28.085  1.00  0.00     0.148 A 
ATOM     65  C   UNL A   1      39.804  25.821  27.906  1.00  0.00     0.002 A 
ATOM     66  C   UNL A   1      41.524  27.237  26.943  1.00  0.00     0.091 A 
ATOM     67  F   UNL A   1      42.359  29.079  28.215  1.00  0.00    -0.205 F 
ATOM     68  C   UNL A   1      40.661  26.132  26.854  1.00  0.00     0.022 A 
BRANCH  66  69
ATOM     69  S   UNL A   1      42.550  27.582  25.509  1.00  0.00     0.127 S 
ATOM     70  O   UNL A   1      43.885  27.611  26.105  1.00  0.00    -0.237 OA
ATOM     71  O   UNL A   1      42.287  26.423  24.657  1.00  0.00    -0.237 OA
ATOM     72  O   UNL A   1      42.081  28.852  24.974  1.00  0.00    -0.744 OA
ENDBRANCH  66  69
ENDBRANCH  48  62
BRANCH  49  73
ATOM     73  C   UNL A   1      39.706  33.899  36.930  1.00  0.00     0.023 A 
ATOM     74  C   UNL A   1      40.032  35.253  36.732  1.00  0.00     0.012 A 
ATOM     75  C   UNL A   1      39.168  33.487  38.165  1.00  0.00     0.148 A 
ATOM     76  C   UNL A   1      39.823  36.185  37.748  1.00  0.00     0.002 A 
ATOM     77  C   UNL A   1      38.921  34.428  39.156  1.00  0.00     0.091 A 
ATOM     78  F   UNL A   1      38.870  32.190  38.324  1.00  0.00    -0.205 F 
ATOM     79  C   UNL A   1      39.256  35.777  38.953  1.00  0.00     0.022 A 
BRANCH  77  80
ATOM     80  S   UNL A   1      38.083  34.021  40.691  1.00  0.00     0.127 S 
ATOM     81  O   UNL A   1      36.832  33.444  40.205  1.00  0.00    -0.237 OA
ATOM     82  O   UNL A   1      39.012  33.063  41.291  1.00  0.00    -0.237 OA
ATOM     83  O   UNL A   1      37.954  35.276  41.418  1.00  0.00    -0.744 OA
ENDBRANCH  77  80
ENDBRANCH  49  73
BRANCH  61  84
ATOM     84  C   UNL A   1      44.150  28.738  35.335  1.00  0.00     0.023 A 
ATOM     85  C   UNL A   1      45.444  29.262  35.154  1.00  0.00     0.012 A 
ATOM     86  C   UNL A   1      43.936  27.717  36.280  1.00  0.00     0.148 A 
ATOM     87  C   UNL A   1      46.514  28.774  35.903  1.00  0.00     0.002 A 
ATOM     88  C   UNL A   1      45.001  27.257  37.045  1.00  0.00     0.091 A 
ATOM     89  F   UNL A   1      42.695  27.230  36.424  1.00  0.00    -0.205 F 
ATOM     90  C   UNL A   1      46.291  27.782  36.854  1.00  0.00     0.022 A 
BRANCH  88  91
ATOM     91  S   UNL A   1      44.802  26.033  38.345  1.00  0.00     0.127 S 
ATOM     92  O   UNL A   1      46.189  25.796  38.745  1.00  0.00    -0.237 OA
ATOM     93  O   UNL A   1      43.999  26.758  39.331  1.00  0.00    -0.237 OA
ATOM     94  O   UNL A   1      44.131  24.896  37.731  1.00  0.00    -0.744 OA
ENDBRANCH  88  91
ENDBRANCH  61  84
ENDBRANCH  35  36
ENDBRANCH  27  30
ENDBRANCH  25  26
ENDBRANCH  24  25
ENDBRANCH   1  24
TORSDOF 17
ENDMDL
