MODEL 1
REMARK VINA RESULT:     -12.3      0.000      0.000
REMARK SMILES CCn1ncc(-c2cc(C(F)(F)F)nc(-n3ccc(C(=O)NCCCCCCNC(=O)c4ccc(-c5c6nc(c(-c7cccc(S(=O)(=O)[O-])c7F)c7ccc([nH]7)c(-c7cccc(S(=O)(=O)[O-])c7F)c7nc(c(-c8cccc(S(=O)(=O)[O-])c8F)c8ccc5[nH]8)C=C7)C=C6)cc4)n3)n2)c1C
REMARK SMILES IDX 25 1 24 2 23 3 22 4 20 5 21 6 19 8 16 9 17 10 95 11 18 12
REMARK SMILES IDX 15 13 7 14 8 15 96 16 9 17 14 18 6 19 3 20 4 21 97 22 5 23
REMARK SMILES IDX 98 24 2 25 1 26 10 27 11 28 12 29 13 30 26 31 27 32 28 33
REMARK SMILES IDX 29 34 30 35 31 37 32 38 33 39 94 40 34 41 93 42 35 43 36 44
REMARK SMILES IDX 37 45 87 46 38 47 92 48 86 49 88 50 39 51 91 52 85 53 84 54
REMARK SMILES IDX 40 56 72 57 52 58 71 59 53 60 56 61 70 62 89 63 54 64 55 65
REMARK SMILES IDX 69 67 90 68 57 69 41 70 42 71 50 72 43 73 45 74 51 75 44 76
REMARK SMILES IDX 46 77 47 78 48 79 49 80 73 81 74 82 82 83 75 84 77 85 83 86
REMARK SMILES IDX 76 87 78 88 79 89 80 90 81 91 58 92 59 93 67 94 60 95 62 96
REMARK SMILES IDX 68 97 61 98 63 99 64 100 65 101 66 102
REMARK H PARENT 22 7 29 36 88 55 56 66
REMARK Flexibility Score: inf
ROOT
ATOM      1  C   UNL A   1      32.785  30.094  26.126  1.00  0.00     0.002 C 
ENDROOT
BRANCH   1   2
ATOM      2  C   UNL A   1      33.011  28.790  25.356  1.00  0.00     0.021 C 
BRANCH   2   3
ATOM      3  C   UNL A   1      33.250  28.937  23.851  1.00  0.00     0.116 C 
BRANCH   3   4
ATOM      4  N   UNL A   1      32.016  29.100  23.098  1.00  0.00    -0.351 N 
ATOM      5  C   UNL A   1      31.255  28.160  22.439  1.00  0.00     0.271 C 
ATOM      6  O   UNL A   1      30.281  28.552  21.792  1.00  0.00    -0.267 OA
ATOM      7  H   UNL A   1      31.674  30.022  23.053  1.00  0.00     0.163 HD
BRANCH   5   8
ATOM      8  C   UNL A   1      31.641  26.739  22.460  1.00  0.00     0.150 A 
ATOM      9  N   UNL A   1      31.886  24.740  23.176  1.00  0.00    -0.205 N 
ATOM     10  C   UNL A   1      32.841  24.893  22.193  1.00  0.00     0.119 A 
ATOM     11  N   UNL A   1      31.020  25.793  23.190  1.00  0.00    -0.160 NA
ATOM     12  C   UNL A   1      32.684  26.160  21.690  1.00  0.00     0.056 A 
BRANCH   9  13
ATOM     13  C   UNL A   1      31.807  23.664  24.122  1.00  0.00     0.251 A 
ATOM     14  C   UNL A   1      32.441  21.574  24.808  1.00  0.00     0.080 A 
ATOM     15  C   UNL A   1      31.492  21.561  25.806  1.00  0.00     0.062 A 
ATOM     16  N   UNL A   1      32.582  22.583  23.930  1.00  0.00    -0.211 NA
ATOM     17  C   UNL A   1      30.739  22.713  25.947  1.00  0.00     0.150 A 
ATOM     18  N   UNL A   1      30.938  23.797  25.146  1.00  0.00    -0.207 NA
BRANCH  14  19
ATOM     19  C   UNL A   1      33.458  20.545  24.742  1.00  0.00     0.041 A 
ATOM     20  N   UNL A   1      34.445  18.631  24.313  1.00  0.00    -0.269 N 
ATOM     21  N   UNL A   1      35.424  19.397  24.830  1.00  0.00    -0.181 NA
ATOM     22  C   UNL A   1      33.244  19.287  24.195  1.00  0.00     0.045 A 
ATOM     23  C   UNL A   1      34.820  20.560  25.094  1.00  0.00     0.145 A 
ATOM     24  C   UNL A   1      32.015  18.700  23.598  1.00  0.00     0.067 C 
BRANCH  20  25
ATOM     25  C   UNL A   1      34.764  17.274  23.907  1.00  0.00     0.141 C 
ATOM     26  C   UNL A   1      35.119  16.378  25.082  1.00  0.00     0.029 C 
ENDBRANCH  20  25
ENDBRANCH  14  19
BRANCH  17  27
ATOM     27  C   UNL A   1      29.668  22.786  27.027  1.00  0.00     0.433 C 
ATOM     28  F   UNL A   1      30.166  22.530  28.273  1.00  0.00    -0.165 F 
ATOM     29  F   UNL A   1      29.061  23.997  27.101  1.00  0.00    -0.165 F 
ATOM     30  F   UNL A   1      28.671  21.869  26.850  1.00  0.00    -0.165 F 
ENDBRANCH  17  27
ENDBRANCH   9  13
ENDBRANCH   5   8
ENDBRANCH   3   4
ENDBRANCH   2   3
ENDBRANCH   1   2
BRANCH   1  31
ATOM     31  C   UNL A   1      31.382  30.713  26.028  1.00  0.00     0.002 C 
BRANCH  31  32
ATOM     32  C   UNL A   1      31.235  32.177  26.468  1.00  0.00     0.021 C 
BRANCH  32  33
ATOM     33  C   UNL A   1      32.450  32.725  27.196  1.00  0.00     0.116 C 
BRANCH  33  34
ATOM     34  N   UNL A   1      32.291  34.130  27.604  1.00  0.00    -0.352 N 
ATOM     35  C   UNL A   1      32.957  34.802  28.613  1.00  0.00     0.251 C 
ATOM     36  H   UNL A   1      31.632  34.655  27.096  1.00  0.00     0.163 HD
ATOM     37  O   UNL A   1      32.509  35.847  29.088  1.00  0.00    -0.269 OA
BRANCH  35  38
ATOM     38  C   UNL A   1      34.235  34.253  29.088  1.00  0.00     0.039 A 
ATOM     39  C   UNL A   1      34.436  33.770  30.386  1.00  0.00     0.014 A 
ATOM     40  C   UNL A   1      35.256  34.205  28.147  1.00  0.00     0.014 A 
ATOM     41  C   UNL A   1      35.665  33.192  30.698  1.00  0.00     0.010 A 
ATOM     42  C   UNL A   1      36.336  33.413  28.372  1.00  0.00     0.010 A 
ATOM     43  C   UNL A   1      36.605  33.022  29.674  1.00  0.00    -0.014 A 
BRANCH  43  44
ATOM     44  C   UNL A   1      37.905  32.405  29.872  1.00  0.00     0.031 A 
ATOM     45  C   UNL A   1      38.000  31.009  29.369  1.00  0.00     0.074 A 
ATOM     46  C   UNL A   1      38.976  33.180  30.171  1.00  0.00     0.049 A 
ATOM     47  N   UNL A   1      38.225  29.934  30.049  1.00  0.00    -0.248 NA
ATOM     48  C   UNL A   1      37.643  30.755  27.963  1.00  0.00     0.031 C 
ATOM     49  C   UNL A   1      39.024  34.649  30.303  1.00  0.00     0.029 A 
ATOM     50  N   UNL A   1      40.288  32.846  30.236  1.00  0.00    -0.354 N 
ATOM     51  C   UNL A   1      38.273  28.901  29.112  1.00  0.00     0.074 A 
ATOM     52  C   UNL A   1      37.677  29.423  27.913  1.00  0.00     0.031 C 
ATOM     53  C   UNL A   1      40.297  35.077  30.155  1.00  0.00     0.029 A 
ATOM     54  C   UNL A   1      41.165  33.920  30.097  1.00  0.00     0.049 A 
ATOM     55  H   UNL A   1      40.595  31.920  30.371  1.00  0.00     0.167 HD
ATOM     56  C   UNL A   1      39.040  27.794  29.317  1.00  0.00     0.034 A 
ATOM     57  C   UNL A   1      42.504  33.851  29.886  1.00  0.00     0.034 A 
ATOM     58  C   UNL A   1      39.491  27.732  30.685  1.00  0.00     0.049 A 
ATOM     59  C   UNL A   1      42.926  32.479  30.250  1.00  0.00     0.074 A 
ATOM     60  C   UNL A   1      38.871  27.642  31.914  1.00  0.00     0.029 A 
ATOM     61  N   UNL A   1      40.764  28.190  30.931  1.00  0.00    -0.354 N 
ATOM     62  N   UNL A   1      42.854  32.006  31.463  1.00  0.00    -0.248 NA
ATOM     63  C   UNL A   1      42.962  31.486  29.189  1.00  0.00     0.031 C 
ATOM     64  C   UNL A   1      39.629  28.498  32.766  1.00  0.00     0.029 A 
ATOM     65  C   UNL A   1      40.714  28.995  32.038  1.00  0.00     0.049 A 
ATOM     66  H   UNL A   1      41.569  27.978  30.406  1.00  0.00     0.167 HD
ATOM     67  C   UNL A   1      42.372  30.714  31.301  1.00  0.00     0.074 A 
ATOM     68  C   UNL A   1      42.557  30.415  29.879  1.00  0.00     0.031 C 
ATOM     69  C   UNL A   1      41.590  30.127  32.255  1.00  0.00     0.034 A 
BRANCH  56  70
ATOM     70  C   UNL A   1      39.706  26.959  28.240  1.00  0.00     0.023 A 
ATOM     71  C   UNL A   1      39.400  25.577  28.229  1.00  0.00     0.012 A 
ATOM     72  C   UNL A   1      40.788  27.373  27.430  1.00  0.00     0.148 A 
ATOM     73  C   UNL A   1      40.169  24.654  27.512  1.00  0.00     0.002 A 
ATOM     74  C   UNL A   1      41.507  26.462  26.662  1.00  0.00     0.091 A 
ATOM     75  F   UNL A   1      41.225  28.633  27.481  1.00  0.00    -0.205 F 
ATOM     76  C   UNL A   1      41.223  25.097  26.726  1.00  0.00     0.022 A 
BRANCH  74  77
ATOM     77  S   UNL A   1      42.858  26.982  25.594  1.00  0.00     0.127 S 
ATOM     78  O   UNL A   1      43.220  25.726  24.943  1.00  0.00    -0.237 OA
ATOM     79  O   UNL A   1      42.197  27.961  24.730  1.00  0.00    -0.237 OA
ATOM     80  O   UNL A   1      43.866  27.555  26.479  1.00  0.00    -0.744 OA
ENDBRANCH  74  77
ENDBRANCH  56  70
BRANCH  57  81
ATOM     81  C   UNL A   1      43.390  34.773  29.136  1.00  0.00     0.023 A 
ATOM     82  C   UNL A   1      43.482  34.685  27.733  1.00  0.00     0.012 A 
ATOM     83  C   UNL A   1      43.934  35.914  29.768  1.00  0.00     0.148 A 
ATOM     84  C   UNL A   1      44.080  35.708  26.983  1.00  0.00     0.002 A 
ATOM     85  C   UNL A   1      44.530  36.926  29.020  1.00  0.00     0.091 A 
ATOM     86  F   UNL A   1      43.785  36.043  31.094  1.00  0.00    -0.205 F 
ATOM     87  C   UNL A   1      44.597  36.831  27.625  1.00  0.00     0.022 A 
BRANCH  85  88
ATOM     88  S   UNL A   1      45.187  38.422  29.775  1.00  0.00     0.127 S 
ATOM     89  O   UNL A   1      44.007  38.961  30.450  1.00  0.00    -0.237 OA
ATOM     90  O   UNL A   1      46.212  37.886  30.666  1.00  0.00    -0.237 OA
ATOM     91  O   UNL A   1      45.679  39.241  28.674  1.00  0.00    -0.744 OA
ENDBRANCH  85  88
ENDBRANCH  57  81
BRANCH  69  92
ATOM     92  C   UNL A   1      41.438  30.837  33.580  1.00  0.00     0.023 A 
ATOM     93  C   UNL A   1      42.457  30.857  34.558  1.00  0.00     0.012 A 
ATOM     94  C   UNL A   1      40.319  31.664  33.757  1.00  0.00     0.148 A 
ATOM     95  C   UNL A   1      42.352  31.671  35.691  1.00  0.00     0.002 A 
ATOM     96  C   UNL A   1      40.240  32.508  34.857  1.00  0.00     0.091 A 
ATOM     97  F   UNL A   1      39.361  31.638  32.817  1.00  0.00    -0.205 F 
ATOM     98  C   UNL A   1      41.250  32.509  35.832  1.00  0.00     0.022 A 
BRANCH  96  99
ATOM     99  S   UNL A   1      38.915  33.704  35.019  1.00  0.00     0.127 S 
ATOM    100  O   UNL A   1      39.513  34.703  35.901  1.00  0.00    -0.237 OA
ATOM    101  O   UNL A   1      38.719  34.146  33.637  1.00  0.00    -0.237 OA
ATOM    102  O   UNL A   1      37.782  32.973  35.574  1.00  0.00    -0.744 OA
ENDBRANCH  96  99
ENDBRANCH  69  92
ENDBRANCH  43  44
ENDBRANCH  35  38
ENDBRANCH  33  34
ENDBRANCH  32  33
ENDBRANCH  31  32
ENDBRANCH   1  31
TORSDOF 20
ENDMDL
MODEL 2
REMARK VINA RESULT:     -12.2      1.999      2.748
REMARK SMILES CCn1ncc(-c2cc(C(F)(F)F)nc(-n3ccc(C(=O)NCCCCCCNC(=O)c4ccc(-c5c6nc(c(-c7cccc(S(=O)(=O)[O-])c7F)c7ccc([nH]7)c(-c7cccc(S(=O)(=O)[O-])c7F)c7nc(c(-c8cccc(S(=O)(=O)[O-])c8F)c8ccc5[nH]8)C=C7)C=C6)cc4)n3)n2)c1C
REMARK SMILES IDX 25 1 24 2 23 3 22 4 20 5 21 6 19 8 16 9 17 10 95 11 18 12
REMARK SMILES IDX 15 13 7 14 8 15 96 16 9 17 14 18 6 19 3 20 4 21 97 22 5 23
REMARK SMILES IDX 98 24 2 25 1 26 10 27 11 28 12 29 13 30 26 31 27 32 28 33
REMARK SMILES IDX 29 34 30 35 31 37 32 38 33 39 94 40 34 41 93 42 35 43 36 44
REMARK SMILES IDX 37 45 87 46 38 47 92 48 86 49 88 50 39 51 91 52 85 53 84 54
REMARK SMILES IDX 40 56 72 57 52 58 71 59 53 60 56 61 70 62 89 63 54 64 55 65
REMARK SMILES IDX 69 67 90 68 57 69 41 70 42 71 50 72 43 73 45 74 51 75 44 76
REMARK SMILES IDX 46 77 47 78 48 79 49 80 73 81 74 82 82 83 75 84 77 85 83 86
REMARK SMILES IDX 76 87 78 88 79 89 80 90 81 91 58 92 59 93 67 94 60 95 62 96
REMARK SMILES IDX 68 97 61 98 63 99 64 100 65 101 66 102
REMARK H PARENT 22 7 29 36 88 55 56 66
REMARK Flexibility Score: inf
ROOT
ATOM      1  C   UNL A   1      32.848  29.792  26.255  1.00  0.00     0.002 C 
ENDROOT
BRANCH   1   2
ATOM      2  C   UNL A   1      32.842  28.270  26.093  1.00  0.00     0.021 C 
BRANCH   2   3
ATOM      3  C   UNL A   1      32.406  27.746  24.723  1.00  0.00     0.116 C 
BRANCH   3   4
ATOM      4  N   UNL A   1      31.010  27.338  24.693  1.00  0.00    -0.351 N 
ATOM      5  C   UNL A   1      30.442  26.178  24.216  1.00  0.00     0.271 C 
ATOM      6  O   UNL A   1      29.211  26.089  24.223  1.00  0.00    -0.267 OA
ATOM      7  H   UNL A   1      30.377  27.990  25.070  1.00  0.00     0.163 HD
BRANCH   5   8
ATOM      8  C   UNL A   1      31.285  25.108  23.657  1.00  0.00     0.150 A 
ATOM      9  N   UNL A   1      32.582  23.410  23.586  1.00  0.00    -0.205 N 
ATOM     10  C   UNL A   1      32.779  24.068  22.391  1.00  0.00     0.119 A 
ATOM     11  N   UNL A   1      31.518  23.928  24.264  1.00  0.00    -0.160 NA
ATOM     12  C   UNL A   1      31.931  25.147  22.394  1.00  0.00     0.056 A 
BRANCH   9  13
ATOM     13  C   UNL A   1      33.395  22.354  24.118  1.00  0.00     0.251 A 
ATOM     14  C   UNL A   1      35.431  21.579  24.821  1.00  0.00     0.080 A 
ATOM     15  C   UNL A   1      34.957  20.291  24.930  1.00  0.00     0.062 A 
ATOM     16  N   UNL A   1      34.690  22.608  24.373  1.00  0.00    -0.211 NA
ATOM     17  C   UNL A   1      33.612  20.110  24.659  1.00  0.00     0.150 A 
ATOM     18  N   UNL A   1      32.808  21.155  24.314  1.00  0.00    -0.207 NA
BRANCH  14  19
ATOM     19  C   UNL A   1      36.738  21.931  25.336  1.00  0.00     0.041 A 
ATOM     20  N   UNL A   1      38.868  21.794  25.851  1.00  0.00    -0.269 N 
ATOM     21  N   UNL A   1      38.524  23.046  26.206  1.00  0.00    -0.181 NA
ATOM     22  C   UNL A   1      37.839  21.087  25.279  1.00  0.00     0.045 A 
ATOM     23  C   UNL A   1      37.227  23.126  25.895  1.00  0.00     0.145 A 
ATOM     24  C   UNL A   1      37.959  19.707  24.738  1.00  0.00     0.067 C 
BRANCH  20  25
ATOM     25  C   UNL A   1      40.239  21.364  26.056  1.00  0.00     0.141 C 
ATOM     26  C   UNL A   1      40.635  21.342  27.524  1.00  0.00     0.029 C 
ENDBRANCH  20  25
ENDBRANCH  14  19
BRANCH  17  27
ATOM     27  C   UNL A   1      33.004  18.718  24.757  1.00  0.00     0.433 C 
ATOM     28  F   UNL A   1      32.475  18.465  25.991  1.00  0.00    -0.165 F 
ATOM     29  F   UNL A   1      32.005  18.504  23.864  1.00  0.00    -0.165 F 
ATOM     30  F   UNL A   1      33.917  17.723  24.553  1.00  0.00    -0.165 F 
ENDBRANCH  17  27
ENDBRANCH   9  13
ENDBRANCH   5   8
ENDBRANCH   3   4
ENDBRANCH   2   3
ENDBRANCH   1   2
BRANCH   1  31
ATOM     31  C   UNL A   1      31.496  30.504  26.091  1.00  0.00     0.002 C 
BRANCH  31  32
ATOM     32  C   UNL A   1      31.480  32.025  26.307  1.00  0.00     0.021 C 
BRANCH  32  33
ATOM     33  C   UNL A   1      32.421  32.501  27.399  1.00  0.00     0.116 C 
BRANCH  33  34
ATOM     34  N   UNL A   1      32.372  33.956  27.607  1.00  0.00    -0.352 N 
ATOM     35  C   UNL A   1      33.078  34.707  28.529  1.00  0.00     0.251 C 
ATOM     36  H   UNL A   1      31.762  34.457  27.018  1.00  0.00     0.163 HD
ATOM     37  O   UNL A   1      32.710  35.840  28.848  1.00  0.00    -0.269 OA
BRANCH  35  38
ATOM     38  C   UNL A   1      34.303  34.132  29.104  1.00  0.00     0.039 A 
ATOM     39  C   UNL A   1      34.353  33.511  30.357  1.00  0.00     0.014 A 
ATOM     40  C   UNL A   1      35.435  34.205  28.301  1.00  0.00     0.014 A 
ATOM     41  C   UNL A   1      35.551  32.923  30.761  1.00  0.00     0.010 A 
ATOM     42  C   UNL A   1      36.501  33.411  28.577  1.00  0.00     0.010 A 
ATOM     43  C   UNL A   1      36.617  32.883  29.854  1.00  0.00    -0.014 A 
BRANCH  43  44
ATOM     44  C   UNL A   1      37.900  32.271  30.149  1.00  0.00     0.031 A 
ATOM     45  C   UNL A   1      38.079  30.916  29.562  1.00  0.00     0.074 A 
ATOM     46  C   UNL A   1      38.915  33.036  30.619  1.00  0.00     0.049 A 
ATOM     47  N   UNL A   1      38.250  29.798  30.184  1.00  0.00    -0.248 NA
ATOM     48  C   UNL A   1      37.883  30.761  28.110  1.00  0.00     0.031 C 
ATOM     49  C   UNL A   1      38.918  34.492  30.859  1.00  0.00     0.029 A 
ATOM     50  N   UNL A   1      40.219  32.715  30.804  1.00  0.00    -0.354 N 
ATOM     51  C   UNL A   1      38.422  28.837  29.187  1.00  0.00     0.074 A 
ATOM     52  C   UNL A   1      37.950  29.437  27.970  1.00  0.00     0.031 C 
ATOM     53  C   UNL A   1      40.190  34.946  30.884  1.00  0.00     0.029 A 
ATOM     54  C   UNL A   1      41.084  33.807  30.840  1.00  0.00     0.049 A 
ATOM     55  H   UNL A   1      40.529  31.786  30.906  1.00  0.00     0.167 HD
ATOM     56  C   UNL A   1      39.186  27.727  29.396  1.00  0.00     0.034 A 
ATOM     57  C   UNL A   1      42.439  33.772  30.774  1.00  0.00     0.034 A 
ATOM     58  C   UNL A   1      39.485  27.572  30.798  1.00  0.00     0.049 A 
ATOM     59  C   UNL A   1      42.847  32.382  31.084  1.00  0.00     0.074 A 
ATOM     60  C   UNL A   1      38.737  27.384  31.942  1.00  0.00     0.029 A 
ATOM     61  N   UNL A   1      40.714  28.028  31.216  1.00  0.00    -0.354 N 
ATOM     62  N   UNL A   1      42.653  31.821  32.245  1.00  0.00    -0.248 NA
ATOM     63  C   UNL A   1      43.020  31.470  29.965  1.00  0.00     0.031 C 
ATOM     64  C   UNL A   1      39.379  28.186  32.931  1.00  0.00     0.029 A 
ATOM     65  C   UNL A   1      40.526  28.749  32.365  1.00  0.00     0.049 A 
ATOM     66  H   UNL A   1      41.576  27.864  30.769  1.00  0.00     0.167 HD
ATOM     67  C   UNL A   1      42.219  30.538  31.939  1.00  0.00     0.074 A 
ATOM     68  C   UNL A   1      42.564  30.347  30.528  1.00  0.00     0.031 C 
ATOM     69  C   UNL A   1      41.350  29.873  32.757  1.00  0.00     0.034 A 
BRANCH  56  70
ATOM     70  C   UNL A   1      39.982  26.982  28.344  1.00  0.00     0.023 A 
ATOM     71  C   UNL A   1      39.911  25.569  28.376  1.00  0.00     0.012 A 
ATOM     72  C   UNL A   1      40.981  27.546  27.516  1.00  0.00     0.148 A 
ATOM     73  C   UNL A   1      40.823  24.765  27.685  1.00  0.00     0.002 A 
ATOM     74  C   UNL A   1      41.842  26.743  26.773  1.00  0.00     0.091 A 
ATOM     75  F   UNL A   1      41.201  28.861  27.527  1.00  0.00    -0.205 F 
ATOM     76  C   UNL A   1      41.790  25.352  26.881  1.00  0.00     0.022 A 
BRANCH  74  77
ATOM     77  S   UNL A   1      43.089  27.448  25.684  1.00  0.00     0.127 S 
ATOM     78  O   UNL A   1      43.879  28.245  26.618  1.00  0.00    -0.237 OA
ATOM     79  O   UNL A   1      43.754  26.248  25.175  1.00  0.00    -0.237 OA
ATOM     80  O   UNL A   1      42.354  28.196  24.670  1.00  0.00    -0.744 OA
ENDBRANCH  74  77
ENDBRANCH  56  70
BRANCH  57  81
ATOM     81  C   UNL A   1      43.382  34.758  30.193  1.00  0.00     0.023 A 
ATOM     82  C   UNL A   1      44.141  35.594  31.035  1.00  0.00     0.012 A 
ATOM     83  C   UNL A   1      43.737  34.689  28.827  1.00  0.00     0.148 A 
ATOM     84  C   UNL A   1      45.229  36.325  30.536  1.00  0.00     0.002 A 
ATOM     85  C   UNL A   1      44.816  35.418  28.335  1.00  0.00     0.091 A 
ATOM     86  F   UNL A   1      43.069  33.839  28.035  1.00  0.00    -0.205 F 
ATOM     87  C   UNL A   1      45.571  36.231  29.189  1.00  0.00     0.022 A 
BRANCH  85  88
ATOM     88  S   UNL A   1      45.340  35.321  26.616  1.00  0.00     0.127 S 
ATOM     89  O   UNL A   1      44.065  35.429  25.907  1.00  0.00    -0.237 OA
ATOM     90  O   UNL A   1      46.208  36.490  26.499  1.00  0.00    -0.237 OA
ATOM     91  O   UNL A   1      46.002  34.031  26.473  1.00  0.00    -0.744 OA
ENDBRANCH  85  88
ENDBRANCH  57  81
BRANCH  69  92
ATOM     92  C   UNL A   1      41.039  30.482  34.104  1.00  0.00     0.023 A 
ATOM     93  C   UNL A   1      41.939  30.432  35.191  1.00  0.00     0.012 A 
ATOM     94  C   UNL A   1      39.899  31.292  34.211  1.00  0.00     0.148 A 
ATOM     95  C   UNL A   1      41.696  31.160  36.361  1.00  0.00     0.002 A 
ATOM     96  C   UNL A   1      39.685  32.052  35.353  1.00  0.00     0.091 A 
ATOM     97  F   UNL A   1      39.055  31.333  33.168  1.00  0.00    -0.205 F 
ATOM     98  C   UNL A   1      40.577  31.983  36.436  1.00  0.00     0.022 A 
BRANCH  96  99
ATOM     99  S   UNL A   1      38.337  33.229  35.449  1.00  0.00     0.127 S 
ATOM    100  O   UNL A   1      37.167  32.358  35.377  1.00  0.00    -0.237 OA
ATOM    101  O   UNL A   1      38.556  33.854  36.754  1.00  0.00    -0.237 OA
ATOM    102  O   UNL A   1      38.516  34.135  34.321  1.00  0.00    -0.744 OA
ENDBRANCH  96  99
ENDBRANCH  69  92
ENDBRANCH  43  44
ENDBRANCH  35  38
ENDBRANCH  33  34
ENDBRANCH  32  33
ENDBRANCH  31  32
ENDBRANCH   1  31
TORSDOF 20
ENDMDL
MODEL 3
REMARK VINA RESULT:     -11.8      5.966     11.384
REMARK SMILES CCn1ncc(-c2cc(C(F)(F)F)nc(-n3ccc(C(=O)NCCCCCCNC(=O)c4ccc(-c5c6nc(c(-c7cccc(S(=O)(=O)[O-])c7F)c7ccc([nH]7)c(-c7cccc(S(=O)(=O)[O-])c7F)c7nc(c(-c8cccc(S(=O)(=O)[O-])c8F)c8ccc5[nH]8)C=C7)C=C6)cc4)n3)n2)c1C
REMARK SMILES IDX 25 1 24 2 23 3 22 4 20 5 21 6 19 8 16 9 17 10 95 11 18 12
REMARK SMILES IDX 15 13 7 14 8 15 96 16 9 17 14 18 6 19 3 20 4 21 97 22 5 23
REMARK SMILES IDX 98 24 2 25 1 26 10 27 11 28 12 29 13 30 26 31 27 32 28 33
REMARK SMILES IDX 29 34 30 35 31 37 32 38 33 39 94 40 34 41 93 42 35 43 36 44
REMARK SMILES IDX 37 45 87 46 38 47 92 48 86 49 88 50 39 51 91 52 85 53 84 54
REMARK SMILES IDX 40 56 72 57 52 58 71 59 53 60 56 61 70 62 89 63 54 64 55 65
REMARK SMILES IDX 69 67 90 68 57 69 41 70 42 71 50 72 43 73 45 74 51 75 44 76
REMARK SMILES IDX 46 77 47 78 48 79 49 80 73 81 74 82 82 83 75 84 77 85 83 86
REMARK SMILES IDX 76 87 78 88 79 89 80 90 81 91 58 92 59 93 67 94 60 95 62 96
REMARK SMILES IDX 68 97 61 98 63 99 64 100 65 101 66 102
REMARK H PARENT 22 7 29 36 88 55 56 66
REMARK Flexibility Score: inf
ROOT
ATOM      1  C   UNL A   1      41.103  20.356  26.767  1.00  0.00     0.002 C 
ENDROOT
BRANCH   1   2
ATOM      2  C   UNL A   1      42.373  19.501  26.767  1.00  0.00     0.021 C 
BRANCH   2   3
ATOM      3  C   UNL A   1      43.084  19.363  25.419  1.00  0.00     0.116 C 
BRANCH   3   4
ATOM      4  N   UNL A   1      44.462  18.916  25.551  1.00  0.00    -0.351 N 
ATOM      5  C   UNL A   1      45.636  19.608  25.353  1.00  0.00     0.271 C 
ATOM      6  O   UNL A   1      46.698  18.988  25.446  1.00  0.00    -0.267 OA
ATOM      7  H   UNL A   1      44.571  17.976  25.823  1.00  0.00     0.163 HD
BRANCH   5   8
ATOM      8  C   UNL A   1      45.609  21.031  24.976  1.00  0.00     0.150 A 
ATOM      9  N   UNL A   1      45.783  23.155  25.155  1.00  0.00    -0.205 N 
ATOM     10  C   UNL A   1      44.934  22.948  24.088  1.00  0.00     0.119 A 
ATOM     11  N   UNL A   1      46.359  21.987  25.560  1.00  0.00    -0.160 NA
ATOM     12  C   UNL A   1      44.831  21.589  23.928  1.00  0.00     0.056 A 
BRANCH   9  13
ATOM     13  C   UNL A   1      46.018  24.403  25.822  1.00  0.00     0.251 A 
ATOM     14  C   UNL A   1      46.004  25.665  27.732  1.00  0.00     0.080 A 
ATOM     15  C   UNL A   1      46.274  26.818  27.029  1.00  0.00     0.062 A 
ATOM     16  N   UNL A   1      45.824  24.466  27.151  1.00  0.00    -0.211 NA
ATOM     17  C   UNL A   1      46.470  26.672  25.667  1.00  0.00     0.150 A 
ATOM     18  N   UNL A   1      46.407  25.450  25.066  1.00  0.00    -0.207 NA
BRANCH  14  19
ATOM     19  C   UNL A   1      46.050  25.655  29.179  1.00  0.00     0.041 A 
ATOM     20  N   UNL A   1      45.413  25.458  31.271  1.00  0.00    -0.269 N 
ATOM     21  N   UNL A   1      46.738  25.689  31.351  1.00  0.00    -0.181 NA
ATOM     22  C   UNL A   1      44.949  25.383  29.980  1.00  0.00     0.045 A 
ATOM     23  C   UNL A   1      47.122  25.813  30.077  1.00  0.00     0.145 A 
ATOM     24  C   UNL A   1      43.545  25.075  29.604  1.00  0.00     0.067 C 
BRANCH  20  25
ATOM     25  C   UNL A   1      44.664  25.270  32.500  1.00  0.00     0.141 C 
ATOM     26  C   UNL A   1      44.558  23.810  32.908  1.00  0.00     0.029 C 
ENDBRANCH  20  25
ENDBRANCH  14  19
BRANCH  17  27
ATOM     27  C   UNL A   1      46.775  27.895  24.813  1.00  0.00     0.433 C 
ATOM     28  F   UNL A   1      48.113  28.059  24.595  1.00  0.00    -0.165 F 
ATOM     29  F   UNL A   1      46.192  27.854  23.588  1.00  0.00    -0.165 F 
ATOM     30  F   UNL A   1      46.365  29.062  25.391  1.00  0.00    -0.165 F 
ENDBRANCH  17  27
ENDBRANCH   9  13
ENDBRANCH   5   8
ENDBRANCH   3   4
ENDBRANCH   2   3
ENDBRANCH   1   2
BRANCH   1  31
ATOM     31  C   UNL A   1      41.172  21.684  27.537  1.00  0.00     0.002 C 
BRANCH  31  32
ATOM     32  C   UNL A   1      42.356  22.610  27.223  1.00  0.00     0.021 C 
BRANCH  32  33
ATOM     33  C   UNL A   1      41.976  23.849  26.432  1.00  0.00     0.116 C 
BRANCH  33  34
ATOM     34  N   UNL A   1      40.537  23.924  26.134  1.00  0.00    -0.352 N 
ATOM     35  C   UNL A   1      39.596  24.768  26.695  1.00  0.00     0.251 C 
ATOM     36  H   UNL A   1      40.204  23.297  25.453  1.00  0.00     0.163 HD
ATOM     37  O   UNL A   1      38.392  24.515  26.633  1.00  0.00    -0.269 OA
BRANCH  35  38
ATOM     38  C   UNL A   1      40.067  25.999  27.347  1.00  0.00     0.039 A 
ATOM     39  C   UNL A   1      40.482  27.136  26.646  1.00  0.00     0.014 A 
ATOM     40  C   UNL A   1      40.045  25.990  28.736  1.00  0.00     0.014 A 
ATOM     41  C   UNL A   1      40.823  28.277  27.370  1.00  0.00     0.010 A 
ATOM     42  C   UNL A   1      40.118  27.164  29.413  1.00  0.00     0.010 A 
ATOM     43  C   UNL A   1      40.634  28.271  28.758  1.00  0.00    -0.014 A 
BRANCH  43  44
ATOM     44  C   UNL A   1      40.924  29.409  29.613  1.00  0.00     0.031 A 
ATOM     45  C   UNL A   1      39.717  30.107  30.128  1.00  0.00     0.074 A 
ATOM     46  C   UNL A   1      42.168  29.559  30.128  1.00  0.00     0.049 A 
ATOM     47  N   UNL A   1      39.349  31.325  29.906  1.00  0.00    -0.248 NA
ATOM     48  C   UNL A   1      38.711  29.308  30.849  1.00  0.00     0.031 C 
ATOM     49  C   UNL A   1      43.332  28.667  29.964  1.00  0.00     0.029 A 
ATOM     50  N   UNL A   1      42.612  30.437  31.062  1.00  0.00    -0.354 N 
ATOM     51  C   UNL A   1      38.188  31.509  30.658  1.00  0.00     0.074 A 
ATOM     52  C   UNL A   1      37.726  30.193  31.006  1.00  0.00     0.031 C 
ATOM     53  C   UNL A   1      44.220  28.891  30.958  1.00  0.00     0.029 A 
ATOM     54  C   UNL A   1      43.779  30.045  31.715  1.00  0.00     0.049 A 
ATOM     55  H   UNL A   1      42.147  31.281  31.261  1.00  0.00     0.167 HD
ATOM     56  C   UNL A   1      37.852  32.732  31.158  1.00  0.00     0.034 A 
ATOM     57  C   UNL A   1      44.306  30.598  32.836  1.00  0.00     0.034 A 
ATOM     58  C   UNL A   1      38.656  33.766  30.554  1.00  0.00     0.049 A 
ATOM     59  C   UNL A   1      43.675  31.929  32.995  1.00  0.00     0.074 A 
ATOM     60  C   UNL A   1      38.837  34.238  29.270  1.00  0.00     0.029 A 
ATOM     61  N   UNL A   1      39.745  34.195  31.277  1.00  0.00    -0.354 N 
ATOM     62  N   UNL A   1      43.843  32.907  32.149  1.00  0.00    -0.248 NA
ATOM     63  C   UNL A   1      42.481  32.009  33.820  1.00  0.00     0.031 C 
ATOM     64  C   UNL A   1      40.235  34.503  29.175  1.00  0.00     0.029 A 
ATOM     65  C   UNL A   1      40.815  34.261  30.424  1.00  0.00     0.049 A 
ATOM     66  H   UNL A   1      39.755  34.415  32.236  1.00  0.00     0.167 HD
ATOM     67  C   UNL A   1      42.576  33.459  32.005  1.00  0.00     0.074 A 
ATOM     68  C   UNL A   1      41.803  32.934  33.133  1.00  0.00     0.031 C 
ATOM     69  C   UNL A   1      42.186  34.033  30.829  1.00  0.00     0.034 A 
BRANCH  56  70
ATOM     70  C   UNL A   1      37.084  32.992  32.438  1.00  0.00     0.023 A 
ATOM     71  C   UNL A   1      35.919  33.787  32.329  1.00  0.00     0.012 A 
ATOM     72  C   UNL A   1      37.559  32.742  33.747  1.00  0.00     0.148 A 
ATOM     73  C   UNL A   1      35.305  34.359  33.448  1.00  0.00     0.002 A 
ATOM     74  C   UNL A   1      36.903  33.254  34.863  1.00  0.00     0.091 A 
ATOM     75  F   UNL A   1      38.719  32.112  33.934  1.00  0.00    -0.205 F 
ATOM     76  C   UNL A   1      35.797  34.092  34.718  1.00  0.00     0.022 A 
BRANCH  74  77
ATOM     77  S   UNL A   1      37.472  32.908  36.535  1.00  0.00     0.127 S 
ATOM     78  O   UNL A   1      37.734  31.473  36.466  1.00  0.00    -0.237 OA
ATOM     79  O   UNL A   1      38.664  33.752  36.626  1.00  0.00    -0.237 OA
ATOM     80  O   UNL A   1      36.385  33.317  37.417  1.00  0.00    -0.744 OA
ENDBRANCH  74  77
ENDBRANCH  56  70
BRANCH  57  81
ATOM     81  C   UNL A   1      45.088  29.964  33.924  1.00  0.00     0.023 A 
ATOM     82  C   UNL A   1      46.274  30.565  34.389  1.00  0.00     0.012 A 
ATOM     83  C   UNL A   1      44.528  28.916  34.689  1.00  0.00     0.148 A 
ATOM     84  C   UNL A   1      46.874  30.148  35.587  1.00  0.00     0.002 A 
ATOM     85  C   UNL A   1      45.129  28.502  35.876  1.00  0.00     0.091 A 
ATOM     86  F   UNL A   1      43.361  28.389  34.295  1.00  0.00    -0.205 F 
ATOM     87  C   UNL A   1      46.297  29.123  36.333  1.00  0.00     0.022 A 
BRANCH  85  88
ATOM     88  S   UNL A   1      44.424  27.211  36.912  1.00  0.00     0.127 S 
ATOM     89  O   UNL A   1      43.115  27.773  37.246  1.00  0.00    -0.237 OA
ATOM     90  O   UNL A   1      44.388  26.074  35.996  1.00  0.00    -0.237 OA
ATOM     91  O   UNL A   1      45.327  27.073  38.047  1.00  0.00    -0.744 OA
ENDBRANCH  85  88
ENDBRANCH  57  81
BRANCH  69  92
ATOM     92  C   UNL A   1      43.234  34.240  29.760  1.00  0.00     0.023 A 
ATOM     93  C   UNL A   1      44.095  35.359  29.741  1.00  0.00     0.012 A 
ATOM     94  C   UNL A   1      43.483  33.183  28.872  1.00  0.00     0.148 A 
ATOM     95  C   UNL A   1      45.168  35.427  28.846  1.00  0.00     0.002 A 
ATOM     96  C   UNL A   1      44.578  33.230  28.019  1.00  0.00     0.091 A 
ATOM     97  F   UNL A   1      42.660  32.124  28.905  1.00  0.00    -0.205 F 
ATOM     98  C   UNL A   1      45.419  34.355  27.995  1.00  0.00     0.022 A 
BRANCH  96  99
ATOM     99  S   UNL A   1      45.026  31.824  27.002  1.00  0.00     0.127 S 
ATOM    100  O   UNL A   1      46.173  32.340  26.258  1.00  0.00    -0.237 OA
ATOM    101  O   UNL A   1      45.353  30.805  28.001  1.00  0.00    -0.237 OA
ATOM    102  O   UNL A   1      43.847  31.515  26.204  1.00  0.00    -0.744 OA
ENDBRANCH  96  99
ENDBRANCH  69  92
ENDBRANCH  43  44
ENDBRANCH  35  38
ENDBRANCH  33  34
ENDBRANCH  32  33
ENDBRANCH  31  32
ENDBRANCH   1  31
TORSDOF 20
ENDMDL
