MODEL 1
REMARK VINA RESULT:     -10.3      0.000      0.000
REMARK SMILES C[C@H](C(=O)NCCCCCCNC(=O)c1ccc(-c2c3nc(c(-c4cccc(S(=O)(=O)[O-])c4F)c4ccc([nH]4)c(-c4cccc(S(=O)(=O)[O-])c4F)c4nc(c(-c5cccc(S(=O)(=O)[O-])c5F)c5ccc2[nH]5)C=C4)C=C3)cc1)[N@@H+]1CCc2ccccc2C1
REMARK SMILES IDX 9 1 8 2 7 3 6 4 5 5 3 6 4 7 2 9 1 10 78 11 79 12 87 13 80 15
REMARK SMILES IDX 86 16 81 17 85 18 82 19 84 20 83 21 10 22 11 23 12 24 13 25
REMARK SMILES IDX 14 27 15 28 16 29 77 30 17 31 76 32 18 33 19 34 20 35 70 36
REMARK SMILES IDX 21 37 75 38 69 39 71 40 22 41 74 42 68 43 67 44 23 46 55 47
REMARK SMILES IDX 35 48 54 49 36 50 39 51 53 52 72 53 37 54 38 55 52 57 73 58
REMARK SMILES IDX 40 59 24 60 25 61 33 62 26 63 28 64 34 65 27 66 29 67 30 68
REMARK SMILES IDX 31 69 32 70 56 71 57 72 65 73 58 74 60 75 66 76 59 77 61 78
REMARK SMILES IDX 62 79 63 80 64 81 41 82 42 83 50 84 43 85 45 86 51 87 44 88
REMARK SMILES IDX 46 89 47 90 48 91 49 92
REMARK H PARENT 5 8 78 14 12 26 71 45 39 56
REMARK Flexibility Score: inf
ROOT
ATOM      1  C   UNL A   1      35.202  35.028  28.707  1.00  0.00     0.002 C 
ENDROOT
BRANCH   1   2
ATOM      2  C   UNL A   1      33.978  35.893  28.396  1.00  0.00     0.002 C 
BRANCH   2   3
ATOM      3  C   UNL A   1      32.869  35.824  29.454  1.00  0.00     0.021 C 
BRANCH   3   4
ATOM      4  C   UNL A   1      33.390  35.905  30.889  1.00  0.00     0.116 C 
BRANCH   4   5
ATOM      5  N   UNL A   1      33.323  34.592  31.500  1.00  0.00    -0.351 N 
ATOM      6  C   UNL A   1      34.284  33.919  32.197  1.00  0.00     0.278 C 
ATOM      7  O   UNL A   1      34.106  32.714  32.390  1.00  0.00    -0.268 OA
ATOM      8  H   UNL A   1      32.465  34.122  31.400  1.00  0.00     0.163 HD
BRANCH   6   9
ATOM      9  C   UNL A   1      35.461  34.709  32.798  1.00  0.00     0.271 C 
ATOM     10  C   UNL A   1      34.877  35.407  34.049  1.00  0.00     0.086 C 
BRANCH   9  11
ATOM     11  N   UNL A   1      36.706  33.934  33.044  1.00  0.00    -0.321 N 
ATOM     12  C   UNL A   1      37.819  34.570  33.796  1.00  0.00     0.267 C 
ATOM     13  C   UNL A   1      37.202  33.154  31.927  1.00  0.00     0.299 C 
ATOM     14  H   UNL A   1      36.306  33.286  33.723  1.00  0.00     0.349 HD
ATOM     15  C   UNL A   1      39.252  33.972  33.521  1.00  0.00     0.097 C 
ATOM     16  C   UNL A   1      38.343  33.839  31.243  1.00  0.00     0.010 A 
ATOM     17  C   UNL A   1      39.491  34.010  32.026  1.00  0.00    -0.034 A 
ATOM     18  C   UNL A   1      38.297  34.339  29.950  1.00  0.00     0.010 A 
ATOM     19  C   UNL A   1      40.697  34.310  31.408  1.00  0.00     0.004 A 
ATOM     20  C   UNL A   1      39.476  34.777  29.362  1.00  0.00     0.001 A 
ATOM     21  C   UNL A   1      40.687  34.669  30.057  1.00  0.00     0.000 A 
ENDBRANCH   9  11
ENDBRANCH   6   9
ENDBRANCH   4   5
ENDBRANCH   3   4
ENDBRANCH   2   3
ENDBRANCH   1   2
BRANCH   1  22
ATOM     22  C   UNL A   1      35.206  33.673  27.997  1.00  0.00     0.021 C 
BRANCH  22  23
ATOM     23  C   UNL A   1      34.592  32.548  28.817  1.00  0.00     0.116 C 
BRANCH  23  24
ATOM     24  N   UNL A   1      34.005  31.524  27.965  1.00  0.00    -0.352 N 
ATOM     25  C   UNL A   1      34.592  30.371  27.501  1.00  0.00     0.251 C 
ATOM     26  H   UNL A   1      33.073  31.676  27.687  1.00  0.00     0.163 HD
ATOM     27  O   UNL A   1      34.068  29.708  26.620  1.00  0.00    -0.269 OA
BRANCH  25  28
ATOM     28  C   UNL A   1      35.883  29.963  28.089  1.00  0.00     0.039 A 
ATOM     29  C   UNL A   1      35.915  29.437  29.381  1.00  0.00     0.014 A 
ATOM     30  C   UNL A   1      37.048  30.055  27.322  1.00  0.00     0.014 A 
ATOM     31  C   UNL A   1      37.121  28.953  29.892  1.00  0.00     0.010 A 
ATOM     32  C   UNL A   1      38.225  29.501  27.803  1.00  0.00     0.010 A 
ATOM     33  C   UNL A   1      38.277  28.959  29.097  1.00  0.00    -0.014 A 
BRANCH  33  34
ATOM     34  C   UNL A   1      39.576  28.436  29.586  1.00  0.00     0.031 A 
ATOM     35  C   UNL A   1      40.303  29.181  30.671  1.00  0.00     0.074 A 
ATOM     36  C   UNL A   1      40.160  27.392  28.969  1.00  0.00     0.049 A 
ATOM     37  N   UNL A   1      41.518  29.011  31.118  1.00  0.00    -0.248 NA
ATOM     38  C   UNL A   1      39.576  30.294  31.304  1.00  0.00     0.031 C 
ATOM     39  C   UNL A   1      39.581  26.633  27.859  1.00  0.00     0.029 A 
ATOM     40  N   UNL A   1      41.395  26.822  29.156  1.00  0.00    -0.354 N 
ATOM     41  C   UNL A   1      41.724  30.030  32.040  1.00  0.00     0.074 A 
ATOM     42  C   UNL A   1      40.518  30.830  32.065  1.00  0.00     0.031 C 
ATOM     43  C   UNL A   1      40.466  25.711  27.450  1.00  0.00     0.029 A 
ATOM     44  C   UNL A   1      41.689  25.839  28.240  1.00  0.00     0.049 A 
ATOM     45  H   UNL A   1      42.010  27.090  29.876  1.00  0.00     0.167 HD
ATOM     46  C   UNL A   1      42.810  30.268  32.811  1.00  0.00     0.034 A 
ATOM     47  C   UNL A   1      42.824  25.142  28.038  1.00  0.00     0.034 A 
ATOM     48  C   UNL A   1      43.984  29.440  32.812  1.00  0.00     0.049 A 
ATOM     49  C   UNL A   1      44.005  25.385  28.938  1.00  0.00     0.074 A 
ATOM     50  C   UNL A   1      45.098  29.528  33.625  1.00  0.00     0.029 A 
ATOM     51  N   UNL A   1      44.200  28.376  31.949  1.00  0.00    -0.354 N 
ATOM     52  N   UNL A   1      44.131  26.260  29.907  1.00  0.00    -0.248 NA
ATOM     53  C   UNL A   1      45.183  24.529  28.745  1.00  0.00     0.031 C 
ATOM     54  C   UNL A   1      46.002  28.536  33.233  1.00  0.00     0.029 A 
ATOM     55  C   UNL A   1      45.434  27.805  32.201  1.00  0.00     0.049 A 
ATOM     56  H   UNL A   1      43.568  28.072  31.258  1.00  0.00     0.167 HD
ATOM     57  C   UNL A   1      45.383  26.031  30.467  1.00  0.00     0.074 A 
ATOM     58  C   UNL A   1      45.975  24.934  29.730  1.00  0.00     0.031 C 
ATOM     59  C   UNL A   1      45.986  26.675  31.498  1.00  0.00     0.034 A 
BRANCH  46  60
ATOM     60  C   UNL A   1      42.759  31.455  33.738  1.00  0.00     0.023 A 
ATOM     61  C   UNL A   1      43.196  32.718  33.287  1.00  0.00     0.012 A 
ATOM     62  C   UNL A   1      42.262  31.325  35.048  1.00  0.00     0.148 A 
ATOM     63  C   UNL A   1      43.193  33.819  34.144  1.00  0.00     0.002 A 
ATOM     64  C   UNL A   1      42.212  32.438  35.879  1.00  0.00     0.091 A 
ATOM     65  F   UNL A   1      41.871  30.114  35.471  1.00  0.00    -0.205 F 
ATOM     66  C   UNL A   1      42.693  33.681  35.434  1.00  0.00     0.022 A 
BRANCH  64  67
ATOM     67  S   UNL A   1      41.505  32.376  37.529  1.00  0.00     0.127 S 
ATOM     68  O   UNL A   1      42.301  31.319  38.152  1.00  0.00    -0.237 OA
ATOM     69  O   UNL A   1      41.778  33.722  38.035  1.00  0.00    -0.237 OA
ATOM     70  O   UNL A   1      40.092  32.077  37.344  1.00  0.00    -0.744 OA
ENDBRANCH  64  67
ENDBRANCH  46  60
BRANCH  47  71
ATOM     71  C   UNL A   1      42.866  24.110  26.964  1.00  0.00     0.023 A 
ATOM     72  C   UNL A   1      43.600  24.362  25.790  1.00  0.00     0.012 A 
ATOM     73  C   UNL A   1      42.246  22.857  27.133  1.00  0.00     0.148 A 
ATOM     74  C   UNL A   1      43.704  23.390  24.794  1.00  0.00     0.002 A 
ATOM     75  C   UNL A   1      42.398  21.874  26.162  1.00  0.00     0.091 A 
ATOM     76  F   UNL A   1      41.550  22.641  28.259  1.00  0.00    -0.205 F 
ATOM     77  C   UNL A   1      43.113  22.144  24.985  1.00  0.00     0.022 A 
BRANCH  75  78
ATOM     78  S   UNL A   1      41.791  20.197  26.379  1.00  0.00     0.127 S 
ATOM     79  O   UNL A   1      42.323  19.854  27.696  1.00  0.00    -0.237 OA
ATOM     80  O   UNL A   1      40.341  20.397  26.334  1.00  0.00    -0.237 OA
ATOM     81  O   UNL A   1      42.329  19.431  25.264  1.00  0.00    -0.744 OA
ENDBRANCH  75  78
ENDBRANCH  47  71
BRANCH  59  82
ATOM     82  C   UNL A   1      47.336  26.185  31.950  1.00  0.00     0.023 A 
ATOM     83  C   UNL A   1      48.508  26.738  31.402  1.00  0.00     0.012 A 
ATOM     84  C   UNL A   1      47.431  25.271  33.018  1.00  0.00     0.148 A 
ATOM     85  C   UNL A   1      49.759  26.376  31.904  1.00  0.00     0.002 A 
ATOM     86  C   UNL A   1      48.676  24.953  33.544  1.00  0.00     0.091 A 
ATOM     87  F   UNL A   1      46.300  24.745  33.510  1.00  0.00    -0.205 F 
ATOM     88  C   UNL A   1      49.842  25.498  32.983  1.00  0.00     0.022 A 
BRANCH  86  89
ATOM     89  S   UNL A   1      48.873  23.918  34.999  1.00  0.00     0.127 S 
ATOM     90  O   UNL A   1      48.201  24.714  36.024  1.00  0.00    -0.237 OA
ATOM     91  O   UNL A   1      48.164  22.699  34.609  1.00  0.00    -0.237 OA
ATOM     92  O   UNL A   1      50.308  23.751  35.185  1.00  0.00    -0.744 OA
ENDBRANCH  86  89
ENDBRANCH  59  82
ENDBRANCH  33  34
ENDBRANCH  25  28
ENDBRANCH  23  24
ENDBRANCH  22  23
ENDBRANCH   1  22
TORSDOF 17
ENDMDL
MODEL 2
REMARK VINA RESULT:     -10.3      3.187      6.018
REMARK SMILES C[C@H](C(=O)NCCCCCCNC(=O)c1ccc(-c2c3nc(c(-c4cccc(S(=O)(=O)[O-])c4F)c4ccc([nH]4)c(-c4cccc(S(=O)(=O)[O-])c4F)c4nc(c(-c5cccc(S(=O)(=O)[O-])c5F)c5ccc2[nH]5)C=C4)C=C3)cc1)[N@@H+]1CCc2ccccc2C1
REMARK SMILES IDX 9 1 8 2 7 3 6 4 5 5 3 6 4 7 2 9 1 10 78 11 79 12 87 13 80 15
REMARK SMILES IDX 86 16 81 17 85 18 82 19 84 20 83 21 10 22 11 23 12 24 13 25
REMARK SMILES IDX 14 27 15 28 16 29 77 30 17 31 76 32 18 33 19 34 20 35 70 36
REMARK SMILES IDX 21 37 75 38 69 39 71 40 22 41 74 42 68 43 67 44 23 46 55 47
REMARK SMILES IDX 35 48 54 49 36 50 39 51 53 52 72 53 37 54 38 55 52 57 73 58
REMARK SMILES IDX 40 59 24 60 25 61 33 62 26 63 28 64 34 65 27 66 29 67 30 68
REMARK SMILES IDX 31 69 32 70 56 71 57 72 65 73 58 74 60 75 66 76 59 77 61 78
REMARK SMILES IDX 62 79 63 80 64 81 41 82 42 83 50 84 43 85 45 86 51 87 44 88
REMARK SMILES IDX 46 89 47 90 48 91 49 92
REMARK H PARENT 5 8 78 14 12 26 71 45 39 56
REMARK Flexibility Score: inf
ROOT
ATOM      1  C   UNL A   1      32.276  28.960  25.063  1.00  0.00     0.002 C 
ENDROOT
BRANCH   1   2
ATOM      2  C   UNL A   1      31.138  28.077  24.544  1.00  0.00     0.002 C 
BRANCH   2   3
ATOM      3  C   UNL A   1      30.559  27.113  25.589  1.00  0.00     0.021 C 
BRANCH   3   4
ATOM      4  C   UNL A   1      30.164  25.754  25.011  1.00  0.00     0.116 C 
BRANCH   4   5
ATOM      5  N   UNL A   1      29.816  24.854  26.092  1.00  0.00    -0.351 N 
ATOM      6  C   UNL A   1      30.591  23.917  26.712  1.00  0.00     0.278 C 
ATOM      7  O   UNL A   1      30.017  23.082  27.415  1.00  0.00    -0.268 OA
ATOM      8  H   UNL A   1      28.893  24.929  26.425  1.00  0.00     0.163 HD
BRANCH   6   9
ATOM      9  C   UNL A   1      32.123  24.024  26.602  1.00  0.00     0.271 C 
ATOM     10  C   UNL A   1      32.667  22.830  27.423  1.00  0.00     0.086 C 
BRANCH   9  11
ATOM     11  N   UNL A   1      32.669  24.131  25.224  1.00  0.00    -0.321 N 
ATOM     12  C   UNL A   1      32.698  22.922  24.360  1.00  0.00     0.267 C 
ATOM     13  C   UNL A   1      33.882  24.912  25.079  1.00  0.00     0.299 C 
ATOM     14  H   UNL A   1      31.899  24.676  24.837  1.00  0.00     0.349 HD
ATOM     15  C   UNL A   1      33.774  22.937  23.207  1.00  0.00     0.097 C 
ATOM     16  C   UNL A   1      35.090  24.036  24.967  1.00  0.00     0.010 A 
ATOM     17  C   UNL A   1      35.124  23.210  23.837  1.00  0.00    -0.034 A 
ATOM     18  C   UNL A   1      36.099  23.966  25.916  1.00  0.00     0.010 A 
ATOM     19  C   UNL A   1      36.325  22.626  23.458  1.00  0.00     0.004 A 
ATOM     20  C   UNL A   1      37.257  23.264  25.607  1.00  0.00     0.001 A 
ATOM     21  C   UNL A   1      37.406  22.680  24.343  1.00  0.00     0.000 A 
ENDBRANCH   9  11
ENDBRANCH   6   9
ENDBRANCH   4   5
ENDBRANCH   3   4
ENDBRANCH   2   3
ENDBRANCH   1   2
BRANCH   1  22
ATOM     22  C   UNL A   1      33.086  28.332  26.198  1.00  0.00     0.021 C 
BRANCH  22  23
ATOM     23  C   UNL A   1      34.393  29.055  26.492  1.00  0.00     0.116 C 
BRANCH  23  24
ATOM     24  N   UNL A   1      34.168  30.456  26.819  1.00  0.00    -0.352 N 
ATOM     25  C   UNL A   1      34.808  31.215  27.769  1.00  0.00     0.251 C 
ATOM     26  H   UNL A   1      33.472  30.915  26.297  1.00  0.00     0.163 HD
ATOM     27  O   UNL A   1      34.378  32.311  28.094  1.00  0.00    -0.269 OA
BRANCH  25  28
ATOM     28  C   UNL A   1      36.025  30.663  28.397  1.00  0.00     0.039 A 
ATOM     29  C   UNL A   1      35.905  29.757  29.450  1.00  0.00     0.014 A 
ATOM     30  C   UNL A   1      37.280  31.013  27.888  1.00  0.00     0.014 A 
ATOM     31  C   UNL A   1      37.054  29.156  29.969  1.00  0.00     0.010 A 
ATOM     32  C   UNL A   1      38.409  30.355  28.353  1.00  0.00     0.010 A 
ATOM     33  C   UNL A   1      38.310  29.433  29.407  1.00  0.00    -0.014 A 
BRANCH  33  34
ATOM     34  C   UNL A   1      39.555  28.804  29.908  1.00  0.00     0.031 A 
ATOM     35  C   UNL A   1      40.319  29.473  31.016  1.00  0.00     0.074 A 
ATOM     36  C   UNL A   1      40.068  27.728  29.282  1.00  0.00     0.049 A 
ATOM     37  N   UNL A   1      41.510  29.204  31.480  1.00  0.00    -0.248 NA
ATOM     38  C   UNL A   1      39.670  30.629  31.657  1.00  0.00     0.031 C 
ATOM     39  C   UNL A   1      39.452  27.033  28.151  1.00  0.00     0.029 A 
ATOM     40  N   UNL A   1      41.252  27.061  29.479  1.00  0.00    -0.354 N 
ATOM     41  C   UNL A   1      41.777  30.189  32.422  1.00  0.00     0.074 A 
ATOM     42  C   UNL A   1      40.637  31.079  32.441  1.00  0.00     0.031 C 
ATOM     43  C   UNL A   1      40.271  26.052  27.740  1.00  0.00     0.029 A 
ATOM     44  C   UNL A   1      41.486  26.073  28.551  1.00  0.00     0.049 A 
ATOM     45  H   UNL A   1      41.874  27.270  30.213  1.00  0.00     0.167 HD
ATOM     46  C   UNL A   1      42.866  30.330  33.214  1.00  0.00     0.034 A 
ATOM     47  C   UNL A   1      42.567  25.294  28.355  1.00  0.00     0.034 A 
ATOM     48  C   UNL A   1      43.972  29.414  33.219  1.00  0.00     0.049 A 
ATOM     49  C   UNL A   1      43.747  25.432  29.278  1.00  0.00     0.074 A 
ATOM     50  C   UNL A   1      45.076  29.404  34.051  1.00  0.00     0.029 A 
ATOM     51  N   UNL A   1      44.120  28.351  32.342  1.00  0.00    -0.354 N 
ATOM     52  N   UNL A   1      43.924  26.278  30.264  1.00  0.00    -0.248 NA
ATOM     53  C   UNL A   1      44.859  24.490  29.089  1.00  0.00     0.031 C 
ATOM     54  C   UNL A   1      45.908  28.352  33.656  1.00  0.00     0.029 A 
ATOM     55  C   UNL A   1      45.303  27.682  32.604  1.00  0.00     0.049 A 
ATOM     56  H   UNL A   1      43.479  28.108  31.636  1.00  0.00     0.167 HD
ATOM     57  C   UNL A   1      45.145  25.945  30.839  1.00  0.00     0.074 A 
ATOM     58  C   UNL A   1      45.664  24.817  30.093  1.00  0.00     0.031 C 
ATOM     59  C   UNL A   1      45.778  26.524  31.890  1.00  0.00     0.034 A 
BRANCH  46  60
ATOM     60  C   UNL A   1      42.890  31.503  34.159  1.00  0.00     0.023 A 
ATOM     61  C   UNL A   1      43.520  32.705  33.773  1.00  0.00     0.012 A 
ATOM     62  C   UNL A   1      42.274  31.423  35.423  1.00  0.00     0.148 A 
ATOM     63  C   UNL A   1      43.586  33.786  34.651  1.00  0.00     0.002 A 
ATOM     64  C   UNL A   1      42.299  32.524  36.271  1.00  0.00     0.091 A 
ATOM     65  F   UNL A   1      41.699  30.267  35.786  1.00  0.00    -0.205 F 
ATOM     66  C   UNL A   1      42.969  33.699  35.894  1.00  0.00     0.022 A 
BRANCH  64  67
ATOM     67  S   UNL A   1      41.456  32.533  37.857  1.00  0.00     0.127 S 
ATOM     68  O   UNL A   1      40.118  32.076  37.484  1.00  0.00    -0.237 OA
ATOM     69  O   UNL A   1      42.237  31.564  38.629  1.00  0.00    -0.237 OA
ATOM     70  O   UNL A   1      41.542  33.902  38.345  1.00  0.00    -0.744 OA
ENDBRANCH  64  67
ENDBRANCH  46  60
BRANCH  47  71
ATOM     71  C   UNL A   1      42.548  24.279  27.265  1.00  0.00     0.023 A 
ATOM     72  C   UNL A   1      43.195  24.560  26.047  1.00  0.00     0.012 A 
ATOM     73  C   UNL A   1      41.959  23.014  27.457  1.00  0.00     0.148 A 
ATOM     74  C   UNL A   1      43.242  23.604  25.031  1.00  0.00     0.002 A 
ATOM     75  C   UNL A   1      42.056  22.048  26.462  1.00  0.00     0.091 A 
ATOM     76  F   UNL A   1      41.347  22.771  28.625  1.00  0.00    -0.205 F 
ATOM     77  C   UNL A   1      42.684  22.346  25.243  1.00  0.00     0.022 A 
BRANCH  75  78
ATOM     78  S   UNL A   1      41.490  20.359  26.695  1.00  0.00     0.127 S 
ATOM     79  O   UNL A   1      40.056  20.549  26.898  1.00  0.00    -0.237 OA
ATOM     80  O   UNL A   1      41.855  19.744  25.418  1.00  0.00    -0.237 OA
ATOM     81  O   UNL A   1      42.226  19.847  27.843  1.00  0.00    -0.744 OA
ENDBRANCH  75  78
ENDBRANCH  47  71
BRANCH  59  82
ATOM     82  C   UNL A   1      47.079  25.925  32.355  1.00  0.00     0.023 A 
ATOM     83  C   UNL A   1      48.301  26.429  31.874  1.00  0.00     0.012 A 
ATOM     84  C   UNL A   1      47.080  24.951  33.373  1.00  0.00     0.148 A 
ATOM     85  C   UNL A   1      49.510  25.962  32.393  1.00  0.00     0.002 A 
ATOM     86  C   UNL A   1      48.284  24.526  33.919  1.00  0.00     0.091 A 
ATOM     87  F   UNL A   1      45.902  24.474  33.801  1.00  0.00    -0.205 F 
ATOM     88  C   UNL A   1      49.500  25.023  33.424  1.00  0.00     0.022 A 
BRANCH  86  89
ATOM     89  S   UNL A   1      48.367  23.404  35.319  1.00  0.00     0.127 S 
ATOM     90  O   UNL A   1      49.805  23.358  35.579  1.00  0.00    -0.237 OA
ATOM     91  O   UNL A   1      47.585  24.115  36.330  1.00  0.00    -0.237 OA
ATOM     92  O   UNL A   1      47.779  22.150  34.868  1.00  0.00    -0.744 OA
ENDBRANCH  86  89
ENDBRANCH  59  82
ENDBRANCH  33  34
ENDBRANCH  25  28
ENDBRANCH  23  24
ENDBRANCH  22  23
ENDBRANCH   1  22
TORSDOF 17
ENDMDL
MODEL 3
REMARK VINA RESULT:     -10.3      4.242     10.629
REMARK SMILES C[C@H](C(=O)NCCCCCCNC(=O)c1ccc(-c2c3nc(c(-c4cccc(S(=O)(=O)[O-])c4F)c4ccc([nH]4)c(-c4cccc(S(=O)(=O)[O-])c4F)c4nc(c(-c5cccc(S(=O)(=O)[O-])c5F)c5ccc2[nH]5)C=C4)C=C3)cc1)[N@@H+]1CCc2ccccc2C1
REMARK SMILES IDX 9 1 8 2 7 3 6 4 5 5 3 6 4 7 2 9 1 10 78 11 79 12 87 13 80 15
REMARK SMILES IDX 86 16 81 17 85 18 82 19 84 20 83 21 10 22 11 23 12 24 13 25
REMARK SMILES IDX 14 27 15 28 16 29 77 30 17 31 76 32 18 33 19 34 20 35 70 36
REMARK SMILES IDX 21 37 75 38 69 39 71 40 22 41 74 42 68 43 67 44 23 46 55 47
REMARK SMILES IDX 35 48 54 49 36 50 39 51 53 52 72 53 37 54 38 55 52 57 73 58
REMARK SMILES IDX 40 59 24 60 25 61 33 62 26 63 28 64 34 65 27 66 29 67 30 68
REMARK SMILES IDX 31 69 32 70 56 71 57 72 65 73 58 74 60 75 66 76 59 77 61 78
REMARK SMILES IDX 62 79 63 80 64 81 41 82 42 83 50 84 43 85 45 86 51 87 44 88
REMARK SMILES IDX 46 89 47 90 48 91 49 92
REMARK H PARENT 5 8 78 14 12 26 71 45 39 56
REMARK Flexibility Score: inf
ROOT
ATOM      1  C   UNL A   1      31.633  30.538  25.951  1.00  0.00     0.002 C 
ENDROOT
BRANCH   1   2
ATOM      2  C   UNL A   1      32.469  29.583  26.805  1.00  0.00     0.002 C 
BRANCH   2   3
ATOM      3  C   UNL A   1      31.703  28.355  27.314  1.00  0.00     0.021 C 
BRANCH   3   4
ATOM      4  C   UNL A   1      31.438  27.309  26.231  1.00  0.00     0.116 C 
BRANCH   4   5
ATOM      5  N   UNL A   1      30.946  26.093  26.845  1.00  0.00    -0.351 N 
ATOM      6  C   UNL A   1      31.119  24.799  26.447  1.00  0.00     0.278 C 
ATOM      7  O   UNL A   1      30.391  23.946  26.959  1.00  0.00    -0.268 OA
ATOM      8  H   UNL A   1      30.414  26.217  27.663  1.00  0.00     0.163 HD
BRANCH   6   9
ATOM      9  C   UNL A   1      32.275  24.461  25.488  1.00  0.00     0.271 C 
ATOM     10  C   UNL A   1      33.510  25.180  26.081  1.00  0.00     0.086 C 
BRANCH   9  11
ATOM     11  N   UNL A   1      32.477  23.018  25.196  1.00  0.00    -0.321 N 
ATOM     12  C   UNL A   1      32.896  22.108  26.294  1.00  0.00     0.267 C 
ATOM     13  C   UNL A   1      33.171  22.708  23.961  1.00  0.00     0.299 C 
ATOM     14  H   UNL A   1      31.492  22.787  25.066  1.00  0.00     0.349 HD
ATOM     15  C   UNL A   1      33.642  20.795  25.840  1.00  0.00     0.097 C 
ATOM     16  C   UNL A   1      34.604  22.359  24.208  1.00  0.00     0.010 A 
ATOM     17  C   UNL A   1      34.813  21.203  24.971  1.00  0.00    -0.034 A 
ATOM     18  C   UNL A   1      35.682  23.124  23.787  1.00  0.00     0.010 A 
ATOM     19  C   UNL A   1      36.066  20.605  24.970  1.00  0.00     0.004 A 
ATOM     20  C   UNL A   1      36.961  22.596  23.908  1.00  0.00     0.001 A 
ATOM     21  C   UNL A   1      37.140  21.301  24.407  1.00  0.00     0.000 A 
ENDBRANCH   9  11
ENDBRANCH   6   9
ENDBRANCH   4   5
ENDBRANCH   3   4
ENDBRANCH   2   3
ENDBRANCH   1   2
BRANCH   1  22
ATOM     22  C   UNL A   1      31.445  31.925  26.567  1.00  0.00     0.021 C 
BRANCH  22  23
ATOM     23  C   UNL A   1      32.714  32.504  27.175  1.00  0.00     0.116 C 
BRANCH  23  24
ATOM     24  N   UNL A   1      32.515  33.874  27.626  1.00  0.00    -0.352 N 
ATOM     25  C   UNL A   1      33.186  34.542  28.623  1.00  0.00     0.251 C 
ATOM     26  H   UNL A   1      31.814  34.385  27.161  1.00  0.00     0.163 HD
ATOM     27  O   UNL A   1      32.777  35.611  29.050  1.00  0.00    -0.269 OA
BRANCH  25  28
ATOM     28  C   UNL A   1      34.408  33.924  29.174  1.00  0.00     0.039 A 
ATOM     29  C   UNL A   1      35.656  34.326  28.698  1.00  0.00     0.014 A 
ATOM     30  C   UNL A   1      34.300  32.986  30.205  1.00  0.00     0.014 A 
ATOM     31  C   UNL A   1      36.812  33.819  29.296  1.00  0.00     0.010 A 
ATOM     32  C   UNL A   1      35.448  32.546  30.847  1.00  0.00     0.010 A 
ATOM     33  C   UNL A   1      36.714  32.945  30.390  1.00  0.00    -0.014 A 
BRANCH  33  34
ATOM     34  C   UNL A   1      37.911  32.397  31.073  1.00  0.00     0.031 A 
ATOM     35  C   UNL A   1      38.639  31.237  30.454  1.00  0.00     0.074 A 
ATOM     36  C   UNL A   1      38.252  32.839  32.298  1.00  0.00     0.049 A 
ATOM     37  N   UNL A   1      39.586  30.492  30.957  1.00  0.00    -0.248 NA
ATOM     38  C   UNL A   1      38.212  30.838  29.102  1.00  0.00     0.031 C 
ATOM     39  C   UNL A   1      37.576  33.912  33.029  1.00  0.00     0.029 A 
ATOM     40  N   UNL A   1      39.223  32.403  33.165  1.00  0.00    -0.354 N 
ATOM     41  C   UNL A   1      39.826  29.501  30.013  1.00  0.00     0.074 A 
ATOM     42  C   UNL A   1      38.905  29.725  28.920  1.00  0.00     0.031 C 
ATOM     43  C   UNL A   1      38.138  34.038  34.241  1.00  0.00     0.029 A 
ATOM     44  C   UNL A   1      39.186  33.030  34.389  1.00  0.00     0.049 A 
ATOM     45  H   UNL A   1      39.882  31.710  32.933  1.00  0.00     0.167 HD
ATOM     46  C   UNL A   1      40.743  28.507  30.043  1.00  0.00     0.034 A 
ATOM     47  C   UNL A   1      39.894  32.799  35.512  1.00  0.00     0.034 A 
ATOM     48  C   UNL A   1      41.684  28.322  31.113  1.00  0.00     0.049 A 
ATOM     49  C   UNL A   1      40.944  31.722  35.510  1.00  0.00     0.074 A 
ATOM     50  C   UNL A   1      42.722  27.413  31.197  1.00  0.00     0.029 A 
ATOM     51  N   UNL A   1      41.695  29.055  32.290  1.00  0.00    -0.354 N 
ATOM     52  N   UNL A   1      41.259  30.885  34.551  1.00  0.00    -0.248 NA
ATOM     53  C   UNL A   1      41.759  31.578  36.723  1.00  0.00     0.031 C 
ATOM     54  C   UNL A   1      43.341  27.575  32.440  1.00  0.00     0.029 A 
ATOM     55  C   UNL A   1      42.714  28.612  33.113  1.00  0.00     0.049 A 
ATOM     56  H   UNL A   1      41.068  29.783  32.507  1.00  0.00     0.167 HD
ATOM     57  C   UNL A   1      42.335  30.145  35.028  1.00  0.00     0.074 A 
ATOM     58  C   UNL A   1      42.619  30.634  36.361  1.00  0.00     0.031 C 
ATOM     59  C   UNL A   1      43.022  29.149  34.415  1.00  0.00     0.034 A 
BRANCH  46  60
ATOM     60  C   UNL A   1      40.787  27.566  28.867  1.00  0.00     0.023 A 
ATOM     61  C   UNL A   1      39.865  26.503  28.782  1.00  0.00     0.012 A 
ATOM     62  C   UNL A   1      41.730  27.744  27.837  1.00  0.00     0.148 A 
ATOM     63  C   UNL A   1      39.917  25.599  27.721  1.00  0.00     0.002 A 
ATOM     64  C   UNL A   1      41.742  26.870  26.756  1.00  0.00     0.091 A 
ATOM     65  F   UNL A   1      42.617  28.744  27.942  1.00  0.00    -0.205 F 
ATOM     66  C   UNL A   1      40.848  25.788  26.705  1.00  0.00     0.022 A 
BRANCH  64  67
ATOM     67  S   UNL A   1      42.849  27.085  25.358  1.00  0.00     0.127 S 
ATOM     68  O   UNL A   1      42.674  25.821  24.645  1.00  0.00    -0.237 OA
ATOM     69  O   UNL A   1      42.273  28.249  24.683  1.00  0.00    -0.237 OA
ATOM     70  O   UNL A   1      44.169  27.311  25.928  1.00  0.00    -0.744 OA
ENDBRANCH  64  67
ENDBRANCH  46  60
BRANCH  47  71
ATOM     71  C   UNL A   1      39.656  33.650  36.712  1.00  0.00     0.023 A 
ATOM     72  C   UNL A   1      38.601  33.333  37.587  1.00  0.00     0.012 A 
ATOM     73  C   UNL A   1      40.515  34.722  37.027  1.00  0.00     0.148 A 
ATOM     74  C   UNL A   1      38.393  34.078  38.749  1.00  0.00     0.002 A 
ATOM     75  C   UNL A   1      40.335  35.426  38.212  1.00  0.00     0.091 A 
ATOM     76  F   UNL A   1      41.511  35.006  36.176  1.00  0.00    -0.205 F 
ATOM     77  C   UNL A   1      39.266  35.115  39.066  1.00  0.00     0.022 A 
BRANCH  75  78
ATOM     78  S   UNL A   1      41.486  36.685  38.773  1.00  0.00     0.127 S 
ATOM     79  O   UNL A   1      40.584  37.691  39.327  1.00  0.00    -0.237 OA
ATOM     80  O   UNL A   1      42.273  35.949  39.765  1.00  0.00    -0.237 OA
ATOM     81  O   UNL A   1      42.236  37.094  37.592  1.00  0.00    -0.744 OA
ENDBRANCH  75  78
ENDBRANCH  47  71
BRANCH  59  82
ATOM     82  C   UNL A   1      44.197  28.546  35.138  1.00  0.00     0.023 A 
ATOM     83  C   UNL A   1      45.490  29.067  34.946  1.00  0.00     0.012 A 
ATOM     84  C   UNL A   1      43.986  27.548  36.110  1.00  0.00     0.148 A 
ATOM     85  C   UNL A   1      46.561  28.592  35.704  1.00  0.00     0.002 A 
ATOM     86  C   UNL A   1      45.047  27.115  36.895  1.00  0.00     0.091 A 
ATOM     87  F   UNL A   1      42.748  27.055  36.262  1.00  0.00    -0.205 F 
ATOM     88  C   UNL A   1      46.337  27.630  36.687  1.00  0.00     0.022 A 
BRANCH  86  89
ATOM     89  S   UNL A   1      44.835  25.961  38.255  1.00  0.00     0.127 S 
ATOM     90  O   UNL A   1      44.403  24.752  37.554  1.00  0.00    -0.237 OA
ATOM     91  O   UNL A   1      46.184  25.892  38.815  1.00  0.00    -0.237 OA
ATOM     92  O   UNL A   1      43.841  26.554  39.139  1.00  0.00    -0.744 OA
ENDBRANCH  86  89
ENDBRANCH  59  82
ENDBRANCH  33  34
ENDBRANCH  25  28
ENDBRANCH  23  24
ENDBRANCH  22  23
ENDBRANCH   1  22
TORSDOF 17
ENDMDL
