MODEL 1
REMARK VINA RESULT:      -9.8      0.000      0.000
REMARK SMILES C[C@@H]1CC[C@H]([N@@H+](CC(=O)NCCCCCCNC(=O)c2ccc(-c3c4nc(c(-c5cccc(S(=O)(=O)[O-])c5F)c5ccc([nH]5)c(-c5cccc(S(=O)(=O)[O-])c5F)c5nc(c(-c6cccc(S(=O)(=O)[O-])c6F)c6ccc3[nH]6)C=C5)C=C4)cc2)CC(F)(F)F)C[C@@H]1C
REMARK SMILES IDX 13 1 12 2 11 3 10 4 8 5 9 6 7 8 6 9 5 11 1 12 2 13 3 14
REMARK SMILES IDX 89 15 4 16 88 17 90 18 83 19 84 20 85 21 86 22 87 23 14 24
REMARK SMILES IDX 15 25 16 26 17 27 18 28 19 30 20 31 21 32 82 33 22 34 81 35
REMARK SMILES IDX 23 36 24 37 25 38 75 39 26 40 80 41 74 42 76 43 27 44 79 45
REMARK SMILES IDX 73 46 72 47 28 49 60 50 40 51 59 52 41 53 44 54 58 55 77 56
REMARK SMILES IDX 42 57 43 58 57 60 78 61 45 62 29 63 30 64 38 65 31 66 33 67
REMARK SMILES IDX 39 68 32 69 34 70 35 71 36 72 37 73 61 74 62 75 70 76 63 77
REMARK SMILES IDX 65 78 71 79 64 80 66 81 67 82 68 83 69 84 46 85 47 86 55 87
REMARK SMILES IDX 48 88 50 89 56 90 49 91 51 92 52 93 53 94 54 95
REMARK H PARENT 10 7 6 10 17 29 76 48 44 59
REMARK Flexibility Score: inf
ROOT
ATOM      1  C   UNL A   1      33.600  25.898  24.991  1.00  0.00     0.002 C 
ENDROOT
BRANCH   1   2
ATOM      2  C   UNL A   1      32.259  25.338  24.488  1.00  0.00     0.021 C 
BRANCH   2   3
ATOM      3  C   UNL A   1      32.238  23.847  24.099  1.00  0.00     0.116 C 
BRANCH   3   4
ATOM      4  N   UNL A   1      31.179  23.051  24.711  1.00  0.00    -0.351 N 
ATOM      5  C   UNL A   1      31.108  22.345  25.880  1.00  0.00     0.275 C 
ATOM      6  O   UNL A   1      29.987  21.958  26.226  1.00  0.00    -0.269 OA
ATOM      7  H   UNL A   1      30.353  23.015  24.177  1.00  0.00     0.163 HD
BRANCH   5   8
ATOM      8  C   UNL A   1      32.357  21.993  26.706  1.00  0.00     0.364 C 
BRANCH   8   9
ATOM      9  N   UNL A   1      33.161  20.862  26.173  1.00  0.00    -0.317 N 
ATOM     10  H   UNL A   1      33.245  20.216  26.957  1.00  0.00     0.349 HD
BRANCH   9  11
ATOM     11  C   UNL A   1      34.562  21.189  25.925  1.00  0.00     0.184 C 
ATOM     12  C   UNL A   1      37.153  22.884  23.552  1.00  0.00     0.008 C 
ATOM     13  C   UNL A   1      37.184  22.148  24.890  1.00  0.00    -0.011 C 
ATOM     14  C   UNL A   1      36.719  20.679  24.723  1.00  0.00     0.010 C 
ATOM     15  C   UNL A   1      36.384  22.866  25.996  1.00  0.00    -0.006 C 
ATOM     16  C   UNL A   1      35.190  20.479  24.714  1.00  0.00     0.065 C 
ATOM     17  C   UNL A   1      34.882  22.684  25.815  1.00  0.00     0.068 C 
ATOM     18  C   UNL A   1      36.739  24.331  26.227  1.00  0.00     0.008 C 
ENDBRANCH   9  11
BRANCH   9  19
ATOM     19  C   UNL A   1      32.473  19.942  25.245  1.00  0.00     0.379 C 
BRANCH  19  20
ATOM     20  C   UNL A   1      32.674  18.409  25.187  1.00  0.00     0.438 C 
ATOM     21  F   UNL A   1      33.666  18.028  24.359  1.00  0.00    -0.165 F 
ATOM     22  F   UNL A   1      33.024  17.964  26.426  1.00  0.00    -0.165 F 
ATOM     23  F   UNL A   1      31.549  17.750  24.851  1.00  0.00    -0.165 F 
ENDBRANCH  19  20
ENDBRANCH   9  19
ENDBRANCH   8   9
ENDBRANCH   5   8
ENDBRANCH   3   4
ENDBRANCH   2   3
ENDBRANCH   1   2
BRANCH   1  24
ATOM     24  C   UNL A   1      33.530  26.916  26.126  1.00  0.00     0.002 C 
BRANCH  24  25
ATOM     25  C   UNL A   1      33.974  28.334  25.755  1.00  0.00     0.021 C 
BRANCH  25  26
ATOM     26  C   UNL A   1      34.767  29.094  26.817  1.00  0.00     0.116 C 
BRANCH  26  27
ATOM     27  N   UNL A   1      34.201  30.398  27.152  1.00  0.00    -0.352 N 
ATOM     28  C   UNL A   1      34.668  31.305  28.077  1.00  0.00     0.251 C 
ATOM     29  H   UNL A   1      33.390  30.660  26.658  1.00  0.00     0.163 HD
ATOM     30  O   UNL A   1      34.068  32.346  28.320  1.00  0.00    -0.269 OA
BRANCH  28  31
ATOM     31  C   UNL A   1      35.909  30.968  28.801  1.00  0.00     0.039 A 
ATOM     32  C   UNL A   1      35.909  29.888  29.683  1.00  0.00     0.014 A 
ATOM     33  C   UNL A   1      37.096  31.624  28.462  1.00  0.00     0.014 A 
ATOM     34  C   UNL A   1      37.125  29.404  30.168  1.00  0.00     0.010 A 
ATOM     35  C   UNL A   1      38.308  31.097  28.894  1.00  0.00     0.010 A 
ATOM     36  C   UNL A   1      38.336  29.976  29.741  1.00  0.00    -0.014 A 
BRANCH  36  37
ATOM     37  C   UNL A   1      39.644  29.399  30.146  1.00  0.00     0.031 A 
ATOM     38  C   UNL A   1      40.423  30.021  31.269  1.00  0.00     0.074 A 
ATOM     39  C   UNL A   1      40.173  28.378  29.441  1.00  0.00     0.049 A 
ATOM     40  N   UNL A   1      41.596  29.688  31.742  1.00  0.00    -0.248 NA
ATOM     41  C   UNL A   1      39.821  31.192  31.928  1.00  0.00     0.031 C 
ATOM     42  C   UNL A   1      39.562  27.751  28.266  1.00  0.00     0.029 A 
ATOM     43  N   UNL A   1      41.359  27.703  29.594  1.00  0.00    -0.354 N 
ATOM     44  C   UNL A   1      41.887  30.626  32.724  1.00  0.00     0.074 A 
ATOM     45  C   UNL A   1      40.789  31.567  32.752  1.00  0.00     0.031 C 
ATOM     46  C   UNL A   1      40.373  26.780  27.812  1.00  0.00     0.029 A 
ATOM     47  C   UNL A   1      41.567  26.725  28.649  1.00  0.00     0.049 A 
ATOM     48  H   UNL A   1      42.001  27.900  30.314  1.00  0.00     0.167 HD
ATOM     49  C   UNL A   1      42.954  30.680  33.556  1.00  0.00     0.034 A 
ATOM     50  C   UNL A   1      42.601  25.874  28.483  1.00  0.00     0.034 A 
ATOM     51  C   UNL A   1      44.014  29.710  33.567  1.00  0.00     0.049 A 
ATOM     52  C   UNL A   1      43.741  25.909  29.466  1.00  0.00     0.074 A 
ATOM     53  C   UNL A   1      45.083  29.614  34.439  1.00  0.00     0.029 A 
ATOM     54  N   UNL A   1      44.138  28.667  32.663  1.00  0.00    -0.354 N 
ATOM     55  N   UNL A   1      43.909  26.689  30.506  1.00  0.00    -0.248 NA
ATOM     56  C   UNL A   1      44.814  24.922  29.278  1.00  0.00     0.031 C 
ATOM     57  C   UNL A   1      45.860  28.516  34.056  1.00  0.00     0.029 A 
ATOM     58  C   UNL A   1      45.268  27.923  32.952  1.00  0.00     0.049 A 
ATOM     59  H   UNL A   1      43.514  28.483  31.924  1.00  0.00     0.167 HD
ATOM     60  C   UNL A   1      45.085  26.268  31.114  1.00  0.00     0.074 A 
ATOM     61  C   UNL A   1      45.577  25.148  30.340  1.00  0.00     0.031 C 
ATOM     62  C   UNL A   1      45.712  26.774  32.206  1.00  0.00     0.034 A 
BRANCH  49  63
ATOM     63  C   UNL A   1      42.983  31.790  34.574  1.00  0.00     0.023 A 
ATOM     64  C   UNL A   1      43.615  33.007  34.248  1.00  0.00     0.012 A 
ATOM     65  C   UNL A   1      42.361  31.647  35.828  1.00  0.00     0.148 A 
ATOM     66  C   UNL A   1      43.664  34.051  35.170  1.00  0.00     0.002 A 
ATOM     67  C   UNL A   1      42.375  32.709  36.725  1.00  0.00     0.091 A 
ATOM     68  F   UNL A   1      41.785  30.473  36.129  1.00  0.00    -0.205 F 
ATOM     69  C   UNL A   1      43.037  33.906  36.403  1.00  0.00     0.022 A 
BRANCH  67  70
ATOM     70  S   UNL A   1      41.534  32.647  38.311  1.00  0.00     0.127 S 
ATOM     71  O   UNL A   1      41.688  34.023  38.781  1.00  0.00    -0.237 OA
ATOM     72  O   UNL A   1      40.171  32.283  37.924  1.00  0.00    -0.237 OA
ATOM     73  O   UNL A   1      42.232  31.635  39.093  1.00  0.00    -0.744 OA
ENDBRANCH  67  70
ENDBRANCH  49  63
BRANCH  50  74
ATOM     74  C   UNL A   1      42.561  24.855  27.394  1.00  0.00     0.023 A 
ATOM     75  C   UNL A   1      43.141  25.162  26.146  1.00  0.00     0.012 A 
ATOM     76  C   UNL A   1      41.983  23.586  27.586  1.00  0.00     0.148 A 
ATOM     77  C   UNL A   1      43.119  24.237  25.102  1.00  0.00     0.002 A 
ATOM     78  C   UNL A   1      42.010  22.649  26.559  1.00  0.00     0.091 A 
ATOM     79  F   UNL A   1      41.423  23.317  28.774  1.00  0.00    -0.205 F 
ATOM     80  C   UNL A   1      42.562  22.978  25.311  1.00  0.00     0.022 A 
BRANCH  78  81
ATOM     81  S   UNL A   1      41.434  20.962  26.783  1.00  0.00     0.127 S 
ATOM     82  O   UNL A   1      41.927  20.313  25.571  1.00  0.00    -0.237 OA
ATOM     83  O   UNL A   1      42.116  20.567  28.015  1.00  0.00    -0.237 OA
ATOM     84  O   UNL A   1      39.986  21.059  26.909  1.00  0.00    -0.744 OA
ENDBRANCH  78  81
ENDBRANCH  50  74
BRANCH  62  85
ATOM     85  C   UNL A   1      46.990  26.113  32.649  1.00  0.00     0.023 A 
ATOM     86  C   UNL A   1      48.226  26.628  32.211  1.00  0.00     0.012 A 
ATOM     87  C   UNL A   1      46.970  25.047  33.568  1.00  0.00     0.148 A 
ATOM     88  C   UNL A   1      49.424  26.076  32.663  1.00  0.00     0.002 A 
ATOM     89  C   UNL A   1      48.167  24.531  34.050  1.00  0.00     0.091 A 
ATOM     90  F   UNL A   1      45.783  24.559  33.958  1.00  0.00    -0.205 F 
ATOM     91  C   UNL A   1      49.395  25.037  33.591  1.00  0.00     0.022 A 
BRANCH  89  92
ATOM     92  S   UNL A   1      48.224  23.259  35.319  1.00  0.00     0.127 S 
ATOM     93  O   UNL A   1      49.139  22.286  34.725  1.00  0.00    -0.237 OA
ATOM     94  O   UNL A   1      48.768  23.987  36.466  1.00  0.00    -0.237 OA
ATOM     95  O   UNL A   1      46.850  22.806  35.490  1.00  0.00    -0.744 OA
ENDBRANCH  89  92
ENDBRANCH  62  85
ENDBRANCH  36  37
ENDBRANCH  28  31
ENDBRANCH  26  27
ENDBRANCH  25  26
ENDBRANCH  24  25
ENDBRANCH   1  24
TORSDOF 20
ENDMDL
MODEL 2
REMARK VINA RESULT:      -9.7      6.434     11.405
REMARK SMILES C[C@@H]1CC[C@H]([N@@H+](CC(=O)NCCCCCCNC(=O)c2ccc(-c3c4nc(c(-c5cccc(S(=O)(=O)[O-])c5F)c5ccc([nH]5)c(-c5cccc(S(=O)(=O)[O-])c5F)c5nc(c(-c6cccc(S(=O)(=O)[O-])c6F)c6ccc3[nH]6)C=C5)C=C4)cc2)CC(F)(F)F)C[C@@H]1C
REMARK SMILES IDX 13 1 12 2 11 3 10 4 8 5 9 6 7 8 6 9 5 11 1 12 2 13 3 14
REMARK SMILES IDX 89 15 4 16 88 17 90 18 83 19 84 20 85 21 86 22 87 23 14 24
REMARK SMILES IDX 15 25 16 26 17 27 18 28 19 30 20 31 21 32 82 33 22 34 81 35
REMARK SMILES IDX 23 36 24 37 25 38 75 39 26 40 80 41 74 42 76 43 27 44 79 45
REMARK SMILES IDX 73 46 72 47 28 49 60 50 40 51 59 52 41 53 44 54 58 55 77 56
REMARK SMILES IDX 42 57 43 58 57 60 78 61 45 62 29 63 30 64 38 65 31 66 33 67
REMARK SMILES IDX 39 68 32 69 34 70 35 71 36 72 37 73 61 74 62 75 70 76 63 77
REMARK SMILES IDX 65 78 71 79 64 80 66 81 67 82 68 83 69 84 46 85 47 86 55 87
REMARK SMILES IDX 48 88 50 89 56 90 49 91 51 92 52 93 53 94 54 95
REMARK H PARENT 10 7 6 10 17 29 76 48 44 59
REMARK Flexibility Score: inf
ROOT
ATOM      1  C   UNL A   1      39.047  24.949  27.618  1.00  0.00     0.002 C 
ENDROOT
BRANCH   1   2
ATOM      2  C   UNL A   1      39.357  25.927  28.765  1.00  0.00     0.021 C 
BRANCH   2   3
ATOM      3  C   UNL A   1      39.113  27.422  28.480  1.00  0.00     0.116 C 
BRANCH   3   4
ATOM      4  N   UNL A   1      38.332  28.135  29.485  1.00  0.00    -0.351 N 
ATOM      5  C   UNL A   1      37.434  29.163  29.403  1.00  0.00     0.275 C 
ATOM      6  O   UNL A   1      36.768  29.398  30.417  1.00  0.00    -0.269 OA
ATOM      7  H   UNL A   1      38.482  27.813  30.403  1.00  0.00     0.163 HD
BRANCH   5   8
ATOM      8  C   UNL A   1      37.287  30.029  28.141  1.00  0.00     0.364 C 
BRANCH   8   9
ATOM      9  N   UNL A   1      36.079  30.894  28.111  1.00  0.00    -0.317 N 
ATOM     10  H   UNL A   1      35.694  30.828  29.053  1.00  0.00     0.349 HD
BRANCH   9  11
ATOM     11  C   UNL A   1      34.978  30.357  27.318  1.00  0.00     0.184 C 
ATOM     12  C   UNL A   1      31.543  28.506  27.323  1.00  0.00     0.008 C 
ATOM     13  C   UNL A   1      32.483  29.107  26.279  1.00  0.00    -0.011 C 
ATOM     14  C   UNL A   1      33.843  28.365  26.267  1.00  0.00     0.010 C 
ATOM     15  C   UNL A   1      32.676  30.629  26.441  1.00  0.00    -0.006 C 
ATOM     16  C   UNL A   1      34.843  28.825  27.347  1.00  0.00     0.065 C 
ATOM     17  C   UNL A   1      33.599  30.959  27.609  1.00  0.00     0.068 C 
ATOM     18  C   UNL A   1      31.398  31.458  26.497  1.00  0.00     0.008 C 
ENDBRANCH   9  11
BRANCH   9  19
ATOM     19  C   UNL A   1      36.311  32.353  28.105  1.00  0.00     0.379 C 
BRANCH  19  20
ATOM     20  C   UNL A   1      36.964  33.162  29.251  1.00  0.00     0.438 C 
ATOM     21  F   UNL A   1      37.259  32.417  30.334  1.00  0.00    -0.165 F 
ATOM     22  F   UNL A   1      38.147  33.672  28.810  1.00  0.00    -0.165 F 
ATOM     23  F   UNL A   1      36.217  34.213  29.635  1.00  0.00    -0.165 F 
ENDBRANCH  19  20
ENDBRANCH   9  19
ENDBRANCH   8   9
ENDBRANCH   5   8
ENDBRANCH   3   4
ENDBRANCH   2   3
ENDBRANCH   1   2
BRANCH   1  24
ATOM     24  C   UNL A   1      40.205  24.088  27.125  1.00  0.00     0.002 C 
BRANCH  24  25
ATOM     25  C   UNL A   1      39.862  22.617  26.877  1.00  0.00     0.021 C 
BRANCH  25  26
ATOM     26  C   UNL A   1      40.787  21.587  27.526  1.00  0.00     0.116 C 
BRANCH  26  27
ATOM     27  N   UNL A   1      41.259  20.558  26.604  1.00  0.00    -0.352 N 
ATOM     28  C   UNL A   1      42.384  20.594  25.808  1.00  0.00     0.251 C 
ATOM     29  H   UNL A   1      40.710  19.743  26.544  1.00  0.00     0.163 HD
ATOM     30  O   UNL A   1      42.645  19.692  25.020  1.00  0.00    -0.269 OA
BRANCH  28  31
ATOM     31  C   UNL A   1      43.257  21.779  25.909  1.00  0.00     0.039 A 
ATOM     32  C   UNL A   1      43.060  22.845  25.031  1.00  0.00     0.014 A 
ATOM     33  C   UNL A   1      44.144  21.884  26.984  1.00  0.00     0.014 A 
ATOM     34  C   UNL A   1      43.697  24.061  25.282  1.00  0.00     0.010 A 
ATOM     35  C   UNL A   1      44.723  23.116  27.267  1.00  0.00     0.010 A 
ATOM     36  C   UNL A   1      44.497  24.219  26.427  1.00  0.00    -0.014 A 
BRANCH  36  37
ATOM     37  C   UNL A   1      45.082  25.538  26.779  1.00  0.00     0.031 A 
ATOM     38  C   UNL A   1      46.493  25.864  26.379  1.00  0.00     0.074 A 
ATOM     39  C   UNL A   1      44.380  26.401  27.542  1.00  0.00     0.049 A 
ATOM     40  N   UNL A   1      47.192  26.940  26.627  1.00  0.00    -0.248 NA
ATOM     41  C   UNL A   1      47.228  24.830  25.630  1.00  0.00     0.031 C 
ATOM     42  C   UNL A   1      43.039  26.162  28.079  1.00  0.00     0.029 A 
ATOM     43  N   UNL A   1      44.707  27.647  28.019  1.00  0.00    -0.354 N 
ATOM     44  C   UNL A   1      48.454  26.701  26.098  1.00  0.00     0.074 A 
ATOM     45  C   UNL A   1      48.439  25.361  25.554  1.00  0.00     0.031 C 
ATOM     46  C   UNL A   1      42.656  27.227  28.803  1.00  0.00     0.029 A 
ATOM     47  C   UNL A   1      43.728  28.218  28.798  1.00  0.00     0.049 A 
ATOM     48  H   UNL A   1      45.564  28.090  27.821  1.00  0.00     0.167 HD
ATOM     49  C   UNL A   1      49.520  27.533  26.036  1.00  0.00     0.034 A 
ATOM     50  C   UNL A   1      43.695  29.410  29.428  1.00  0.00     0.034 A 
ATOM     51  C   UNL A   1      49.513  28.885  26.523  1.00  0.00     0.049 A 
ATOM     52  C   UNL A   1      44.866  30.346  29.283  1.00  0.00     0.074 A 
ATOM     53  C   UNL A   1      50.503  29.845  26.413  1.00  0.00     0.029 A 
ATOM     54  N   UNL A   1      48.463  29.469  27.214  1.00  0.00    -0.354 N 
ATOM     55  N   UNL A   1      45.983  30.171  28.619  1.00  0.00    -0.248 NA
ATOM     56  C   UNL A   1      44.757  31.657  29.938  1.00  0.00     0.031 C 
ATOM     57  C   UNL A   1      50.054  31.008  27.046  1.00  0.00     0.029 A 
ATOM     58  C   UNL A   1      48.780  30.775  27.541  1.00  0.00     0.049 A 
ATOM     59  H   UNL A   1      47.616  29.020  27.439  1.00  0.00     0.167 HD
ATOM     60  C   UNL A   1      46.694  31.358  28.748  1.00  0.00     0.074 A 
ATOM     61  C   UNL A   1      45.872  32.254  29.535  1.00  0.00     0.031 C 
ATOM     62  C   UNL A   1      47.926  31.673  28.274  1.00  0.00     0.034 A 
BRANCH  49  63
ATOM     63  C   UNL A   1      50.758  27.023  25.347  1.00  0.00     0.023 A 
ATOM     64  C   UNL A   1      51.646  26.188  26.056  1.00  0.00     0.012 A 
ATOM     65  C   UNL A   1      51.027  27.335  24.001  1.00  0.00     0.148 A 
ATOM     66  C   UNL A   1      52.803  25.703  25.449  1.00  0.00     0.002 A 
ATOM     67  C   UNL A   1      52.161  26.812  23.390  1.00  0.00     0.091 A 
ATOM     68  F   UNL A   1      50.184  28.150  23.351  1.00  0.00    -0.205 F 
ATOM     69  C   UNL A   1      53.056  26.006  24.115  1.00  0.00     0.022 A 
BRANCH  67  70
ATOM     70  S   UNL A   1      52.537  27.085  21.655  1.00  0.00     0.127 S 
ATOM     71  O   UNL A   1      51.331  26.572  21.006  1.00  0.00    -0.237 OA
ATOM     72  O   UNL A   1      52.688  28.540  21.597  1.00  0.00    -0.237 OA
ATOM     73  O   UNL A   1      53.759  26.338  21.390  1.00  0.00    -0.744 OA
ENDBRANCH  67  70
ENDBRANCH  49  63
BRANCH  50  74
ATOM     74  C   UNL A   1      42.474  29.824  30.178  1.00  0.00     0.023 A 
ATOM     75  C   UNL A   1      41.490  30.587  29.519  1.00  0.00     0.012 A 
ATOM     76  C   UNL A   1      42.267  29.452  31.520  1.00  0.00     0.148 A 
ATOM     77  C   UNL A   1      40.337  30.998  30.190  1.00  0.00     0.002 A 
ATOM     78  C   UNL A   1      41.092  29.820  32.168  1.00  0.00     0.091 A 
ATOM     79  F   UNL A   1      43.220  28.739  32.137  1.00  0.00    -0.205 F 
ATOM     80  C   UNL A   1      40.134  30.606  31.511  1.00  0.00     0.022 A 
BRANCH  78  81
ATOM     81  S   UNL A   1      40.690  29.249  33.824  1.00  0.00     0.127 S 
ATOM     82  O   UNL A   1      41.700  29.930  34.630  1.00  0.00    -0.237 OA
ATOM     83  O   UNL A   1      39.325  29.748  33.996  1.00  0.00    -0.237 OA
ATOM     84  O   UNL A   1      40.792  27.797  33.770  1.00  0.00    -0.744 OA
ENDBRANCH  78  81
ENDBRANCH  50  74
BRANCH  62  85
ATOM     85  C   UNL A   1      48.459  33.050  28.569  1.00  0.00     0.023 A 
ATOM     86  C   UNL A   1      49.252  33.256  29.715  1.00  0.00     0.012 A 
ATOM     87  C   UNL A   1      48.254  34.112  27.667  1.00  0.00     0.148 A 
ATOM     88  C   UNL A   1      49.814  34.506  29.972  1.00  0.00     0.002 A 
ATOM     89  C   UNL A   1      48.854  35.342  27.906  1.00  0.00     0.091 A 
ATOM     90  F   UNL A   1      47.480  33.900  26.592  1.00  0.00    -0.205 F 
ATOM     91  C   UNL A   1      49.626  35.544  29.061  1.00  0.00     0.022 A 
BRANCH  89  92
ATOM     92  S   UNL A   1      48.746  36.705  26.739  1.00  0.00     0.127 S 
ATOM     93  O   UNL A   1      49.879  37.535  27.146  1.00  0.00    -0.237 OA
ATOM     94  O   UNL A   1      48.916  36.029  25.452  1.00  0.00    -0.237 OA
ATOM     95  O   UNL A   1      47.431  37.297  26.939  1.00  0.00    -0.744 OA
ENDBRANCH  89  92
ENDBRANCH  62  85
ENDBRANCH  36  37
ENDBRANCH  28  31
ENDBRANCH  26  27
ENDBRANCH  25  26
ENDBRANCH  24  25
ENDBRANCH   1  24
TORSDOF 20
ENDMDL
MODEL 3
REMARK VINA RESULT:      -9.6      3.381      8.760
REMARK SMILES C[C@@H]1CC[C@H]([N@@H+](CC(=O)NCCCCCCNC(=O)c2ccc(-c3c4nc(c(-c5cccc(S(=O)(=O)[O-])c5F)c5ccc([nH]5)c(-c5cccc(S(=O)(=O)[O-])c5F)c5nc(c(-c6cccc(S(=O)(=O)[O-])c6F)c6ccc3[nH]6)C=C5)C=C4)cc2)CC(F)(F)F)C[C@@H]1C
REMARK SMILES IDX 13 1 12 2 11 3 10 4 8 5 9 6 7 8 6 9 5 11 1 12 2 13 3 14
REMARK SMILES IDX 89 15 4 16 88 17 90 18 83 19 84 20 85 21 86 22 87 23 14 24
REMARK SMILES IDX 15 25 16 26 17 27 18 28 19 30 20 31 21 32 82 33 22 34 81 35
REMARK SMILES IDX 23 36 24 37 25 38 75 39 26 40 80 41 74 42 76 43 27 44 79 45
REMARK SMILES IDX 73 46 72 47 28 49 60 50 40 51 59 52 41 53 44 54 58 55 77 56
REMARK SMILES IDX 42 57 43 58 57 60 78 61 45 62 29 63 30 64 38 65 31 66 33 67
REMARK SMILES IDX 39 68 32 69 34 70 35 71 36 72 37 73 61 74 62 75 70 76 63 77
REMARK SMILES IDX 65 78 71 79 64 80 66 81 67 82 68 83 69 84 46 85 47 86 55 87
REMARK SMILES IDX 48 88 50 89 56 90 49 91 51 92 52 93 53 94 54 95
REMARK H PARENT 10 7 6 10 17 29 76 48 44 59
REMARK Flexibility Score: inf
ROOT
ATOM      1  C   UNL A   1      39.825  24.145  27.568  1.00  0.00     0.002 C 
ENDROOT
BRANCH   1   2
ATOM      2  C   UNL A   1      38.912  24.363  26.349  1.00  0.00     0.021 C 
BRANCH   2   3
ATOM      3  C   UNL A   1      37.803  23.316  26.125  1.00  0.00     0.116 C 
BRANCH   3   4
ATOM      4  N   UNL A   1      37.543  22.962  24.734  1.00  0.00    -0.351 N 
ATOM      5  C   UNL A   1      36.492  23.211  23.894  1.00  0.00     0.275 C 
ATOM      6  O   UNL A   1      36.671  22.967  22.696  1.00  0.00    -0.269 OA
ATOM      7  H   UNL A   1      38.267  22.441  24.317  1.00  0.00     0.163 HD
BRANCH   5   8
ATOM      8  C   UNL A   1      35.132  23.714  24.406  1.00  0.00     0.364 C 
BRANCH   8   9
ATOM      9  N   UNL A   1      34.263  24.332  23.371  1.00  0.00    -0.317 N 
ATOM     10  H   UNL A   1      34.840  24.350  22.531  1.00  0.00     0.349 HD
BRANCH   9  11
ATOM     11  C   UNL A   1      34.012  25.755  23.572  1.00  0.00     0.184 C 
ATOM     12  C   UNL A   1      31.379  28.539  24.308  1.00  0.00     0.008 C 
ATOM     13  C   UNL A   1      32.888  28.466  24.078  1.00  0.00    -0.011 C 
ATOM     14  C   UNL A   1      33.205  27.958  22.649  1.00  0.00     0.010 C 
ATOM     15  C   UNL A   1      33.624  27.630  25.145  1.00  0.00    -0.006 C 
ATOM     16  C   UNL A   1      33.162  26.426  22.479  1.00  0.00     0.065 C 
ATOM     17  C   UNL A   1      33.417  26.135  24.933  1.00  0.00     0.068 C 
ATOM     18  C   UNL A   1      33.361  28.023  26.594  1.00  0.00     0.008 C 
ENDBRANCH   9  11
BRANCH   9  19
ATOM     19  C   UNL A   1      33.175  23.489  22.833  1.00  0.00     0.379 C 
BRANCH  19  20
ATOM     20  C   UNL A   1      32.010  22.893  23.657  1.00  0.00     0.438 C 
ATOM     21  F   UNL A   1      31.983  23.321  24.935  1.00  0.00    -0.165 F 
ATOM     22  F   UNL A   1      30.830  23.289  23.102  1.00  0.00    -0.165 F 
ATOM     23  F   UNL A   1      32.002  21.548  23.648  1.00  0.00    -0.165 F 
ENDBRANCH  19  20
ENDBRANCH   9  19
ENDBRANCH   8   9
ENDBRANCH   5   8
ENDBRANCH   3   4
ENDBRANCH   2   3
ENDBRANCH   1   2
BRANCH   1  24
ATOM     24  C   UNL A   1      40.723  22.911  27.534  1.00  0.00     0.002 C 
BRANCH  24  25
ATOM     25  C   UNL A   1      41.417  22.649  26.195  1.00  0.00     0.021 C 
BRANCH  25  26
ATOM     26  C   UNL A   1      42.468  23.671  25.765  1.00  0.00     0.116 C 
BRANCH  26  27
ATOM     27  N   UNL A   1      43.820  23.126  25.686  1.00  0.00    -0.352 N 
ATOM     28  C   UNL A   1      44.881  23.384  26.526  1.00  0.00     0.251 C 
ATOM     29  H   UNL A   1      43.994  22.500  24.946  1.00  0.00     0.163 HD
ATOM     30  O   UNL A   1      45.995  22.915  26.320  1.00  0.00    -0.269 OA
BRANCH  28  31
ATOM     31  C   UNL A   1      44.645  24.279  27.674  1.00  0.00     0.039 A 
ATOM     32  C   UNL A   1      44.907  25.642  27.539  1.00  0.00     0.014 A 
ATOM     33  C   UNL A   1      44.003  23.776  28.810  1.00  0.00     0.014 A 
ATOM     34  C   UNL A   1      44.446  26.525  28.518  1.00  0.00     0.010 A 
ATOM     35  C   UNL A   1      43.489  24.665  29.747  1.00  0.00     0.010 A 
ATOM     36  C   UNL A   1      43.694  26.048  29.605  1.00  0.00    -0.014 A 
BRANCH  36  37
ATOM     37  C   UNL A   1      43.089  26.982  30.589  1.00  0.00     0.031 A 
ATOM     38  C   UNL A   1      43.701  27.136  31.953  1.00  0.00     0.074 A 
ATOM     39  C   UNL A   1      41.937  27.615  30.291  1.00  0.00     0.049 A 
ATOM     40  N   UNL A   1      43.299  27.867  32.959  1.00  0.00    -0.248 NA
ATOM     41  C   UNL A   1      44.906  26.336  32.234  1.00  0.00     0.031 C 
ATOM     42  C   UNL A   1      41.188  27.473  29.040  1.00  0.00     0.029 A 
ATOM     43  N   UNL A   1      41.177  28.489  31.030  1.00  0.00    -0.354 N 
ATOM     44  C   UNL A   1      44.176  27.591  34.000  1.00  0.00     0.074 A 
ATOM     45  C   UNL A   1      45.106  26.593  33.519  1.00  0.00     0.031 C 
ATOM     46  C   UNL A   1      40.084  28.237  29.096  1.00  0.00     0.029 A 
ATOM     47  C   UNL A   1      40.035  28.911  30.390  1.00  0.00     0.049 A 
ATOM     48  H   UNL A   1      41.428  28.787  31.935  1.00  0.00     0.167 HD
ATOM     49  C   UNL A   1      44.229  28.144  35.235  1.00  0.00     0.034 A 
ATOM     50  C   UNL A   1      39.062  29.752  30.797  1.00  0.00     0.034 A 
ATOM     51  C   UNL A   1      43.341  29.179  35.689  1.00  0.00     0.049 A 
ATOM     52  C   UNL A   1      39.183  30.409  32.147  1.00  0.00     0.074 A 
ATOM     53  C   UNL A   1      43.376  29.881  36.880  1.00  0.00     0.029 A 
ATOM     54  N   UNL A   1      42.257  29.661  34.971  1.00  0.00    -0.354 N 
ATOM     55  N   UNL A   1      40.126  30.273  33.048  1.00  0.00    -0.248 NA
ATOM     56  C   UNL A   1      38.131  31.364  32.521  1.00  0.00     0.031 C 
ATOM     57  C   UNL A   1      42.306  30.782  36.886  1.00  0.00     0.029 A 
ATOM     58  C   UNL A   1      41.612  30.647  35.694  1.00  0.00     0.049 A 
ATOM     59  H   UNL A   1      41.987  29.346  34.079  1.00  0.00     0.167 HD
ATOM     60  C   UNL A   1      39.799  31.146  34.079  1.00  0.00     0.074 A 
ATOM     61  C   UNL A   1      38.583  31.825  33.680  1.00  0.00     0.031 C 
ATOM     62  C   UNL A   1      40.436  31.355  35.258  1.00  0.00     0.034 A 
BRANCH  49  63
ATOM     63  C   UNL A   1      45.333  27.690  36.152  1.00  0.00     0.023 A 
ATOM     64  C   UNL A   1      46.607  28.285  36.044  1.00  0.00     0.012 A 
ATOM     65  C   UNL A   1      45.108  26.710  37.137  1.00  0.00     0.148 A 
ATOM     66  C   UNL A   1      47.651  27.884  36.875  1.00  0.00     0.002 A 
ATOM     67  C   UNL A   1      46.143  26.346  37.991  1.00  0.00     0.091 A 
ATOM     68  F   UNL A   1      43.897  26.138  37.208  1.00  0.00    -0.205 F 
ATOM     69  C   UNL A   1      47.418  26.923  37.853  1.00  0.00     0.022 A 
BRANCH  67  70
ATOM     70  S   UNL A   1      45.924  25.169  39.330  1.00  0.00     0.127 S 
ATOM     71  O   UNL A   1      47.257  25.153  39.930  1.00  0.00    -0.237 OA
ATOM     72  O   UNL A   1      44.896  25.816  40.145  1.00  0.00    -0.237 OA
ATOM     73  O   UNL A   1      45.503  23.924  38.701  1.00  0.00    -0.744 OA
ENDBRANCH  67  70
ENDBRANCH  49  63
BRANCH  50  74
ATOM     74  C   UNL A   1      37.937  30.093  29.879  1.00  0.00     0.023 A 
ATOM     75  C   UNL A   1      37.190  29.052  29.295  1.00  0.00     0.012 A 
ATOM     76  C   UNL A   1      37.585  31.428  29.601  1.00  0.00     0.148 A 
ATOM     77  C   UNL A   1      36.133  29.331  28.427  1.00  0.00     0.002 A 
ATOM     78  C   UNL A   1      36.499  31.701  28.777  1.00  0.00     0.091 A 
ATOM     79  F   UNL A   1      38.316  32.406  30.154  1.00  0.00    -0.205 F 
ATOM     80  C   UNL A   1      35.782  30.655  28.176  1.00  0.00     0.022 A 
BRANCH  78  81
ATOM     81  S   UNL A   1      35.897  33.372  28.505  1.00  0.00     0.127 S 
ATOM     82  O   UNL A   1      37.141  34.113  28.319  1.00  0.00    -0.237 OA
ATOM     83  O   UNL A   1      35.088  33.212  27.296  1.00  0.00    -0.237 OA
ATOM     84  O   UNL A   1      35.128  33.707  29.695  1.00  0.00    -0.744 OA
ENDBRANCH  78  81
ENDBRANCH  50  74
BRANCH  62  85
ATOM     85  C   UNL A   1      39.852  32.374  36.200  1.00  0.00     0.023 A 
ATOM     86  C   UNL A   1      38.965  31.955  37.211  1.00  0.00     0.012 A 
ATOM     87  C   UNL A   1      40.251  33.723  36.143  1.00  0.00     0.148 A 
ATOM     88  C   UNL A   1      38.465  32.869  38.138  1.00  0.00     0.002 A 
ATOM     89  C   UNL A   1      39.785  34.619  37.097  1.00  0.00     0.091 A 
ATOM     90  F   UNL A   1      41.081  34.105  35.161  1.00  0.00    -0.205 F 
ATOM     91  C   UNL A   1      38.885  34.197  38.089  1.00  0.00     0.022 A 
BRANCH  89  92
ATOM     92  S   UNL A   1      40.348  36.324  37.169  1.00  0.00     0.127 S 
ATOM     93  O   UNL A   1      39.496  36.875  38.221  1.00  0.00    -0.237 OA
ATOM     94  O   UNL A   1      41.756  36.173  37.539  1.00  0.00    -0.237 OA
ATOM     95  O   UNL A   1      40.132  36.871  35.836  1.00  0.00    -0.744 OA
ENDBRANCH  89  92
ENDBRANCH  62  85
ENDBRANCH  36  37
ENDBRANCH  28  31
ENDBRANCH  26  27
ENDBRANCH  25  26
ENDBRANCH  24  25
ENDBRANCH   1  24
TORSDOF 20
ENDMDL
