MODEL 1
REMARK VINA RESULT:     -10.9      0.000      0.000
REMARK SMILES Cc1nc(CSCC(=O)N2CCCC[C@@H]2C(=O)NCCCCCCNC(=O)c2ccc(-c3c4nc(c(-c5cccc(S(=O)(=O)[O-])c5F)c5ccc([nH]5)c(-c5cccc(S(=O)(=O)[O-])c5F)c5nc(c(-c6cccc(S(=O)(=O)[O-])c6F)c6ccc3[nH]6)C=C5)C=C4)cc2)cs1
REMARK SMILES IDX 20 1 19 2 18 3 16 4 17 5 15 7 10 8 11 9 12 10 14 11 13 12
REMARK SMILES IDX 8 13 9 14 7 15 6 16 5 17 4 18 1 19 2 20 3 21 92 22 91 23
REMARK SMILES IDX 21 24 22 25 23 26 24 27 25 28 26 29 27 31 28 32 29 33 90 34
REMARK SMILES IDX 30 35 89 36 31 37 32 38 33 39 83 40 34 41 88 42 82 43 84 44
REMARK SMILES IDX 35 45 87 46 81 47 80 48 36 50 68 51 48 52 67 53 49 54 52 55
REMARK SMILES IDX 66 56 85 57 50 58 51 59 65 61 86 62 53 63 37 64 38 65 46 66
REMARK SMILES IDX 39 67 41 68 47 69 40 70 42 71 43 72 44 73 45 74 69 75 70 76
REMARK SMILES IDX 78 77 71 78 73 79 79 80 72 81 74 82 75 83 76 84 77 85 54 86
REMARK SMILES IDX 55 87 63 88 56 89 58 90 64 91 57 92 59 93 60 94 61 95 62 96
REMARK H PARENT 18 6 25 30 84 49 52 60
REMARK Flexibility Score: inf
ROOT
ATOM      1  C   UNL A   1      33.831  28.835  26.746  1.00  0.00     0.021 C 
ENDROOT
BRANCH   1   2
ATOM      2  C   UNL A   1      33.985  27.438  26.155  1.00  0.00     0.116 C 
BRANCH   2   3
ATOM      3  N   UNL A   1      33.942  27.492  24.698  1.00  0.00    -0.354 N 
ATOM      4  C   UNL A   1      33.399  26.623  23.799  1.00  0.00     0.242 C 
ATOM      5  O   UNL A   1      33.577  26.870  22.601  1.00  0.00    -0.273 OA
ATOM      6  H   UNL A   1      34.375  28.281  24.301  1.00  0.00     0.163 HD
BRANCH   4   7
ATOM      7  C   UNL A   1      32.789  25.275  24.240  1.00  0.00     0.174 C 
ATOM      8  N   UNL A   1      31.823  25.344  25.356  1.00  0.00    -0.330 N 
ATOM      9  C   UNL A   1      31.627  24.114  26.123  1.00  0.00     0.120 C 
ATOM     10  C   UNL A   1      32.926  23.503  26.611  1.00  0.00     0.022 C 
ATOM     11  C   UNL A   1      34.059  24.442  24.592  1.00  0.00     0.035 C 
ATOM     12  C   UNL A   1      33.827  23.197  25.428  1.00  0.00     0.004 C 
BRANCH   8  13
ATOM     13  C   UNL A   1      30.771  26.252  25.475  1.00  0.00     0.233 C 
ATOM     14  O   UNL A   1      30.510  26.713  26.593  1.00  0.00    -0.274 OA
BRANCH  13  15
ATOM     15  C   UNL A   1      29.770  26.474  24.348  1.00  0.00     0.170 C 
BRANCH  15  16
ATOM     16  S   UNL A   1      30.003  27.831  23.179  1.00  0.00    -0.146 SA
BRANCH  16  17
ATOM     17  C   UNL A   1      28.352  28.563  23.105  1.00  0.00     0.127 C 
BRANCH  17  18
ATOM     18  C   UNL A   1      28.240  29.921  22.510  1.00  0.00     0.061 A 
ATOM     19  C   UNL A   1      29.059  33.415  23.184  1.00  0.00     0.079 C 
ATOM     20  C   UNL A   1      28.634  32.105  22.619  1.00  0.00     0.090 A 
ATOM     21  N   UNL A   1      28.574  30.996  23.319  1.00  0.00    -0.246 NA
ATOM     22  S   UNL A   1      28.219  31.944  20.962  1.00  0.00    -0.127 S 
ATOM     23  C   UNL A   1      28.004  30.255  21.189  1.00  0.00     0.091 A 
ENDBRANCH  17  18
ENDBRANCH  16  17
ENDBRANCH  15  16
ENDBRANCH  13  15
ENDBRANCH   8  13
ENDBRANCH   4   7
ENDBRANCH   2   3
ENDBRANCH   1   2
BRANCH   1  24
ATOM     24  C   UNL A   1      32.900  29.745  25.932  1.00  0.00     0.002 C 
BRANCH  24  25
ATOM     25  C   UNL A   1      31.621  30.176  26.656  1.00  0.00     0.002 C 
BRANCH  25  26
ATOM     26  C   UNL A   1      31.370  31.683  26.707  1.00  0.00     0.021 C 
BRANCH  26  27
ATOM     27  C   UNL A   1      32.626  32.543  26.699  1.00  0.00     0.116 C 
BRANCH  27  28
ATOM     28  N   UNL A   1      32.449  33.805  27.403  1.00  0.00    -0.352 N 
ATOM     29  C   UNL A   1      33.167  34.291  28.467  1.00  0.00     0.251 C 
ATOM     30  H   UNL A   1      31.722  34.381  27.075  1.00  0.00     0.163 HD
ATOM     31  O   UNL A   1      32.808  35.312  29.049  1.00  0.00    -0.269 OA
BRANCH  29  32
ATOM     32  C   UNL A   1      34.364  33.552  28.921  1.00  0.00     0.039 A 
ATOM     33  C   UNL A   1      35.601  34.198  28.923  1.00  0.00     0.014 A 
ATOM     34  C   UNL A   1      34.248  32.240  29.389  1.00  0.00     0.014 A 
ATOM     35  C   UNL A   1      36.716  33.545  29.450  1.00  0.00     0.010 A 
ATOM     36  C   UNL A   1      35.340  31.625  29.988  1.00  0.00     0.010 A 
ATOM     37  C   UNL A   1      36.588  32.266  30.015  1.00  0.00    -0.014 A 
BRANCH  37  38
ATOM     38  C   UNL A   1      37.746  31.575  30.638  1.00  0.00     0.031 A 
ATOM     39  C   UNL A   1      38.134  31.885  32.058  1.00  0.00     0.074 A 
ATOM     40  C   UNL A   1      38.499  30.736  29.900  1.00  0.00     0.049 A 
ATOM     41  N   UNL A   1      39.136  31.424  32.759  1.00  0.00    -0.248 NA
ATOM     42  C   UNL A   1      37.305  32.869  32.773  1.00  0.00     0.031 C 
ATOM     43  C   UNL A   1      38.272  30.412  28.491  1.00  0.00     0.029 A 
ATOM     44  N   UNL A   1      39.623  30.020  30.229  1.00  0.00    -0.354 N 
ATOM     45  C   UNL A   1      39.083  32.087  33.978  1.00  0.00     0.074 A 
ATOM     46  C   UNL A   1      37.975  33.015  33.905  1.00  0.00     0.031 C 
ATOM     47  C   UNL A   1      39.215  29.548  28.081  1.00  0.00     0.029 A 
ATOM     48  C   UNL A   1      40.131  29.283  29.185  1.00  0.00     0.049 A 
ATOM     49  H   UNL A   1      40.026  30.033  31.127  1.00  0.00     0.167 HD
ATOM     50  C   UNL A   1      39.863  31.921  35.073  1.00  0.00     0.034 A 
ATOM     51  C   UNL A   1      41.215  28.484  29.125  1.00  0.00     0.034 A 
ATOM     52  C   UNL A   1      40.938  30.971  35.153  1.00  0.00     0.049 A 
ATOM     53  C   UNL A   1      42.052  28.291  30.361  1.00  0.00     0.074 A 
ATOM     54  C   UNL A   1      41.729  30.653  36.243  1.00  0.00     0.029 A 
ATOM     55  N   UNL A   1      41.384  30.191  34.096  1.00  0.00    -0.354 N 
ATOM     56  N   UNL A   1      41.890  28.807  31.555  1.00  0.00    -0.248 NA
ATOM     57  C   UNL A   1      43.200  27.381  30.250  1.00  0.00     0.031 C 
ATOM     58  C   UNL A   1      42.675  29.707  35.835  1.00  0.00     0.029 A 
ATOM     59  C   UNL A   1      42.450  29.406  34.501  1.00  0.00     0.049 A 
ATOM     60  H   UNL A   1      40.999  30.195  33.190  1.00  0.00     0.167 HD
ATOM     61  C   UNL A   1      42.890  28.255  32.349  1.00  0.00     0.074 A 
ATOM     62  C   UNL A   1      43.643  27.353  31.500  1.00  0.00     0.031 C 
ATOM     63  C   UNL A   1      43.165  28.481  33.657  1.00  0.00     0.034 A 
BRANCH  50  64
ATOM     64  C   UNL A   1      39.548  32.764  36.283  1.00  0.00     0.023 A 
ATOM     65  C   UNL A   1      40.151  34.032  36.429  1.00  0.00     0.012 A 
ATOM     66  C   UNL A   1      38.647  32.313  37.267  1.00  0.00     0.148 A 
ATOM     67  C   UNL A   1      39.907  34.811  37.560  1.00  0.00     0.002 A 
ATOM     68  C   UNL A   1      38.369  33.119  38.366  1.00  0.00     0.091 A 
ATOM     69  F   UNL A   1      38.098  31.099  37.127  1.00  0.00    -0.205 F 
ATOM     70  C   UNL A   1      39.010  34.358  38.522  1.00  0.00     0.022 A 
BRANCH  68  71
ATOM     71  S   UNL A   1      37.164  32.659  39.617  1.00  0.00     0.127 S 
ATOM     72  O   UNL A   1      35.933  32.600  38.833  1.00  0.00    -0.237 OA
ATOM     73  O   UNL A   1      37.666  31.358  40.064  1.00  0.00    -0.237 OA
ATOM     74  O   UNL A   1      37.219  33.706  40.627  1.00  0.00    -0.744 OA
ENDBRANCH  68  71
ENDBRANCH  50  64
BRANCH  51  75
ATOM     75  C   UNL A   1      41.515  27.739  27.870  1.00  0.00     0.023 A 
ATOM     76  C   UNL A   1      42.019  28.441  26.759  1.00  0.00     0.012 A 
ATOM     77  C   UNL A   1      41.353  26.342  27.786  1.00  0.00     0.148 A 
ATOM     78  C   UNL A   1      42.335  27.771  25.577  1.00  0.00     0.002 A 
ATOM     79  C   UNL A   1      41.718  25.674  26.623  1.00  0.00     0.091 A 
ATOM     80  F   UNL A   1      40.868  25.695  28.855  1.00  0.00    -0.205 F 
ATOM     81  C   UNL A   1      42.195  26.387  25.512  1.00  0.00     0.022 A 
BRANCH  79  82
ATOM     82  S   UNL A   1      41.689  23.883  26.484  1.00  0.00     0.127 S 
ATOM     83  O   UNL A   1      42.418  23.668  25.236  1.00  0.00    -0.237 OA
ATOM     84  O   UNL A   1      42.407  23.480  27.694  1.00  0.00    -0.237 OA
ATOM     85  O   UNL A   1      40.283  23.509  26.462  1.00  0.00    -0.744 OA
ENDBRANCH  79  82
ENDBRANCH  51  75
BRANCH  63  86
ATOM     86  C   UNL A   1      44.307  27.715  34.275  1.00  0.00     0.023 A 
ATOM     87  C   UNL A   1      45.619  28.219  34.191  1.00  0.00     0.012 A 
ATOM     88  C   UNL A   1      44.064  26.534  35.005  1.00  0.00     0.148 A 
ATOM     89  C   UNL A   1      46.678  27.543  34.798  1.00  0.00     0.002 A 
ATOM     90  C   UNL A   1      45.116  25.893  35.650  1.00  0.00     0.091 A 
ATOM     91  F   UNL A   1      42.811  26.060  35.057  1.00  0.00    -0.205 F 
ATOM     92  C   UNL A   1      46.425  26.389  35.536  1.00  0.00     0.022 A 
BRANCH  90  93
ATOM     93  S   UNL A   1      44.869  24.461  36.705  1.00  0.00     0.127 S 
ATOM     94  O   UNL A   1      44.368  23.472  35.753  1.00  0.00    -0.237 OA
ATOM     95  O   UNL A   1      46.224  24.202  37.197  1.00  0.00    -0.237 OA
ATOM     96  O   UNL A   1      43.923  24.875  37.732  1.00  0.00    -0.744 OA
ENDBRANCH  90  93
ENDBRANCH  63  86
ENDBRANCH  37  38
ENDBRANCH  29  32
ENDBRANCH  27  28
ENDBRANCH  26  27
ENDBRANCH  25  26
ENDBRANCH  24  25
ENDBRANCH   1  24
TORSDOF 21
ENDMDL
MODEL 2
REMARK VINA RESULT:     -10.7      0.563      7.406
REMARK SMILES Cc1nc(CSCC(=O)N2CCCC[C@@H]2C(=O)NCCCCCCNC(=O)c2ccc(-c3c4nc(c(-c5cccc(S(=O)(=O)[O-])c5F)c5ccc([nH]5)c(-c5cccc(S(=O)(=O)[O-])c5F)c5nc(c(-c6cccc(S(=O)(=O)[O-])c6F)c6ccc3[nH]6)C=C5)C=C4)cc2)cs1
REMARK SMILES IDX 20 1 19 2 18 3 16 4 17 5 15 7 10 8 11 9 12 10 14 11 13 12
REMARK SMILES IDX 8 13 9 14 7 15 6 16 5 17 4 18 1 19 2 20 3 21 92 22 91 23
REMARK SMILES IDX 21 24 22 25 23 26 24 27 25 28 26 29 27 31 28 32 29 33 90 34
REMARK SMILES IDX 30 35 89 36 31 37 32 38 33 39 83 40 34 41 88 42 82 43 84 44
REMARK SMILES IDX 35 45 87 46 81 47 80 48 36 50 68 51 48 52 67 53 49 54 52 55
REMARK SMILES IDX 66 56 85 57 50 58 51 59 65 61 86 62 53 63 37 64 38 65 46 66
REMARK SMILES IDX 39 67 41 68 47 69 40 70 42 71 43 72 44 73 45 74 69 75 70 76
REMARK SMILES IDX 78 77 71 78 73 79 79 80 72 81 74 82 75 83 76 84 77 85 54 86
REMARK SMILES IDX 55 87 63 88 56 89 58 90 64 91 57 92 59 93 60 94 61 95 62 96
REMARK H PARENT 18 6 25 30 84 49 52 60
REMARK Flexibility Score: inf
ROOT
ATOM      1  C   UNL A   1      33.919  28.718  26.526  1.00  0.00     0.021 C 
ENDROOT
BRANCH   1   2
ATOM      2  C   UNL A   1      34.042  27.385  25.798  1.00  0.00     0.116 C 
BRANCH   2   3
ATOM      3  N   UNL A   1      33.796  27.556  24.371  1.00  0.00    -0.354 N 
ATOM      4  C   UNL A   1      33.120  26.764  23.491  1.00  0.00     0.242 C 
ATOM      5  O   UNL A   1      33.132  27.107  22.304  1.00  0.00    -0.273 OA
ATOM      6  H   UNL A   1      34.178  28.375  23.981  1.00  0.00     0.163 HD
BRANCH   4   7
ATOM      7  C   UNL A   1      32.561  25.386  23.904  1.00  0.00     0.174 C 
ATOM      8  N   UNL A   1      31.736  25.371  25.130  1.00  0.00    -0.330 N 
ATOM      9  C   UNL A   1      31.627  24.088  25.825  1.00  0.00     0.120 C 
ATOM     10  C   UNL A   1      32.972  23.449  26.109  1.00  0.00     0.022 C 
ATOM     11  C   UNL A   1      33.860  24.535  24.041  1.00  0.00     0.035 C 
ATOM     12  C   UNL A   1      33.724  23.231  24.808  1.00  0.00     0.004 C 
BRANCH   8  13
ATOM     13  C   UNL A   1      30.710  26.264  25.438  1.00  0.00     0.233 C 
ATOM     14  O   UNL A   1      30.652  26.726  26.584  1.00  0.00    -0.274 OA
BRANCH  13  15
ATOM     15  C   UNL A   1      29.515  26.466  24.515  1.00  0.00     0.170 C 
BRANCH  15  16
ATOM     16  S   UNL A   1      29.630  27.604  23.117  1.00  0.00    -0.146 SA
BRANCH  16  17
ATOM     17  C   UNL A   1      28.173  28.648  23.351  1.00  0.00     0.127 C 
BRANCH  17  18
ATOM     18  C   UNL A   1      28.165  29.963  22.655  1.00  0.00     0.061 A 
ATOM     19  C   UNL A   1      29.120  33.455  23.127  1.00  0.00     0.079 C 
ATOM     20  C   UNL A   1      28.663  32.128  22.632  1.00  0.00     0.090 A 
ATOM     21  N   UNL A   1      28.506  31.078  23.404  1.00  0.00    -0.246 NA
ATOM     22  S   UNL A   1      28.334  31.864  20.969  1.00  0.00    -0.127 S 
ATOM     23  C   UNL A   1      28.021  30.208  21.302  1.00  0.00     0.091 A 
ENDBRANCH  17  18
ENDBRANCH  16  17
ENDBRANCH  15  16
ENDBRANCH  13  15
ENDBRANCH   8  13
ENDBRANCH   4   7
ENDBRANCH   2   3
ENDBRANCH   1   2
BRANCH   1  24
ATOM     24  C   UNL A   1      32.884  29.665  25.901  1.00  0.00     0.002 C 
BRANCH  24  25
ATOM     25  C   UNL A   1      31.739  30.077  26.830  1.00  0.00     0.002 C 
BRANCH  25  26
ATOM     26  C   UNL A   1      31.364  31.558  26.794  1.00  0.00     0.021 C 
BRANCH  26  27
ATOM     27  C   UNL A   1      32.531  32.510  26.572  1.00  0.00     0.116 C 
BRANCH  27  28
ATOM     28  N   UNL A   1      32.328  33.806  27.205  1.00  0.00    -0.352 N 
ATOM     29  C   UNL A   1      33.008  34.347  28.268  1.00  0.00     0.251 C 
ATOM     30  H   UNL A   1      31.613  34.363  26.822  1.00  0.00     0.163 HD
ATOM     31  O   UNL A   1      32.628  35.395  28.784  1.00  0.00    -0.269 OA
BRANCH  29  32
ATOM     32  C   UNL A   1      34.187  33.635  28.801  1.00  0.00     0.039 A 
ATOM     33  C   UNL A   1      35.446  34.229  28.694  1.00  0.00     0.014 A 
ATOM     34  C   UNL A   1      34.036  32.405  29.448  1.00  0.00     0.014 A 
ATOM     35  C   UNL A   1      36.549  33.614  29.290  1.00  0.00     0.010 A 
ATOM     36  C   UNL A   1      35.118  31.839  30.110  1.00  0.00     0.010 A 
ATOM     37  C   UNL A   1      36.388  32.431  30.029  1.00  0.00    -0.014 A 
BRANCH  37  38
ATOM     38  C   UNL A   1      37.534  31.790  30.723  1.00  0.00     0.031 A 
ATOM     39  C   UNL A   1      38.354  30.745  30.018  1.00  0.00     0.074 A 
ATOM     40  C   UNL A   1      37.783  32.085  32.014  1.00  0.00     0.049 A 
ATOM     41  N   UNL A   1      39.360  30.041  30.468  1.00  0.00    -0.248 NA
ATOM     42  C   UNL A   1      37.972  30.424  28.632  1.00  0.00     0.031 C 
ATOM     43  C   UNL A   1      37.013  33.025  32.831  1.00  0.00     0.029 A 
ATOM     44  N   UNL A   1      38.742  31.606  32.872  1.00  0.00    -0.354 N 
ATOM     45  C   UNL A   1      39.703  29.170  29.442  1.00  0.00     0.074 A 
ATOM     46  C   UNL A   1      38.771  29.404  28.360  1.00  0.00     0.031 C 
ATOM     47  C   UNL A   1      37.540  33.068  34.065  1.00  0.00     0.029 A 
ATOM     48  C   UNL A   1      38.661  32.136  34.138  1.00  0.00     0.049 A 
ATOM     49  H   UNL A   1      39.422  30.947  32.605  1.00  0.00     0.167 HD
ATOM     50  C   UNL A   1      40.720  28.278  29.387  1.00  0.00     0.034 A 
ATOM     51  C   UNL A   1      39.407  31.898  35.234  1.00  0.00     0.034 A 
ATOM     52  C   UNL A   1      41.667  28.077  30.450  1.00  0.00     0.049 A 
ATOM     53  C   UNL A   1      40.550  30.923  35.144  1.00  0.00     0.074 A 
ATOM     54  C   UNL A   1      42.789  27.268  30.464  1.00  0.00     0.029 A 
ATOM     55  N   UNL A   1      41.595  28.680  31.698  1.00  0.00    -0.354 N 
ATOM     56  N   UNL A   1      40.960  30.225  34.113  1.00  0.00    -0.248 NA
ATOM     57  C   UNL A   1      41.354  30.729  36.359  1.00  0.00     0.031 C 
ATOM     58  C   UNL A   1      43.376  27.358  31.730  1.00  0.00     0.029 A 
ATOM     59  C   UNL A   1      42.642  28.250  32.495  1.00  0.00     0.049 A 
ATOM     60  H   UNL A   1      40.901  29.320  31.975  1.00  0.00     0.167 HD
ATOM     61  C   UNL A   1      42.091  29.538  34.541  1.00  0.00     0.074 A 
ATOM     62  C   UNL A   1      42.309  29.918  35.923  1.00  0.00     0.031 C 
ATOM     63  C   UNL A   1      42.872  28.668  33.855  1.00  0.00     0.034 A 
BRANCH  50  64
ATOM     64  C   UNL A   1      40.877  27.482  28.116  1.00  0.00     0.023 A 
ATOM     65  C   UNL A   1      41.434  28.092  26.972  1.00  0.00     0.012 A 
ATOM     66  C   UNL A   1      40.489  26.130  28.054  1.00  0.00     0.148 A 
ATOM     67  C   UNL A   1      41.550  27.388  25.774  1.00  0.00     0.002 A 
ATOM     68  C   UNL A   1      40.656  25.420  26.870  1.00  0.00     0.091 A 
ATOM     69  F   UNL A   1      39.941  25.569  29.141  1.00  0.00    -0.205 F 
ATOM     70  C   UNL A   1      41.170  26.051  25.726  1.00  0.00     0.022 A 
BRANCH  68  71
ATOM     71  S   UNL A   1      40.273  23.669  26.735  1.00  0.00     0.127 S 
ATOM     72  O   UNL A   1      38.830  23.700  26.508  1.00  0.00    -0.237 OA
ATOM     73  O   UNL A   1      41.065  23.270  25.570  1.00  0.00    -0.237 OA
ATOM     74  O   UNL A   1      40.702  23.070  27.990  1.00  0.00    -0.744 OA
ENDBRANCH  68  71
ENDBRANCH  50  64
BRANCH  51  75
ATOM     75  C   UNL A   1      39.148  32.664  36.486  1.00  0.00     0.023 A 
ATOM     76  C   UNL A   1      39.716  33.943  36.637  1.00  0.00     0.012 A 
ATOM     77  C   UNL A   1      38.308  32.161  37.498  1.00  0.00     0.148 A 
ATOM     78  C   UNL A   1      39.474  34.699  37.784  1.00  0.00     0.002 A 
ATOM     79  C   UNL A   1      38.028  32.940  38.615  1.00  0.00     0.091 A 
ATOM     80  F   UNL A   1      37.780  30.939  37.334  1.00  0.00    -0.205 F 
ATOM     81  C   UNL A   1      38.622  34.203  38.768  1.00  0.00     0.022 A 
BRANCH  79  82
ATOM     82  S   UNL A   1      36.850  32.440  39.876  1.00  0.00     0.127 S 
ATOM     83  O   UNL A   1      36.870  33.590  40.776  1.00  0.00    -0.237 OA
ATOM     84  O   UNL A   1      35.623  32.291  39.093  1.00  0.00    -0.237 OA
ATOM     85  O   UNL A   1      37.367  31.198  40.432  1.00  0.00    -0.744 OA
ENDBRANCH  79  82
ENDBRANCH  51  75
BRANCH  63  86
ATOM     86  C   UNL A   1      44.065  28.085  34.570  1.00  0.00     0.023 A 
ATOM     87  C   UNL A   1      45.265  28.820  34.650  1.00  0.00     0.012 A 
ATOM     88  C   UNL A   1      43.969  26.843  35.227  1.00  0.00     0.148 A 
ATOM     89  C   UNL A   1      46.361  28.311  35.347  1.00  0.00     0.002 A 
ATOM     90  C   UNL A   1      45.048  26.366  35.962  1.00  0.00     0.091 A 
ATOM     91  F   UNL A   1      42.825  26.151  35.122  1.00  0.00    -0.205 F 
ATOM     92  C   UNL A   1      46.249  27.092  36.012  1.00  0.00     0.022 A 
BRANCH  90  93
ATOM     93  S   UNL A   1      44.960  24.857  36.933  1.00  0.00     0.127 S 
ATOM     94  O   UNL A   1      44.663  23.860  35.907  1.00  0.00    -0.237 OA
ATOM     95  O   UNL A   1      46.309  24.772  37.494  1.00  0.00    -0.237 OA
ATOM     96  O   UNL A   1      43.909  25.072  37.918  1.00  0.00    -0.744 OA
ENDBRANCH  90  93
ENDBRANCH  63  86
ENDBRANCH  37  38
ENDBRANCH  29  32
ENDBRANCH  27  28
ENDBRANCH  26  27
ENDBRANCH  25  26
ENDBRANCH  24  25
ENDBRANCH   1  24
TORSDOF 21
ENDMDL
MODEL 3
REMARK VINA RESULT:     -10.3      2.320      4.102
REMARK SMILES Cc1nc(CSCC(=O)N2CCCC[C@@H]2C(=O)NCCCCCCNC(=O)c2ccc(-c3c4nc(c(-c5cccc(S(=O)(=O)[O-])c5F)c5ccc([nH]5)c(-c5cccc(S(=O)(=O)[O-])c5F)c5nc(c(-c6cccc(S(=O)(=O)[O-])c6F)c6ccc3[nH]6)C=C5)C=C4)cc2)cs1
REMARK SMILES IDX 20 1 19 2 18 3 16 4 17 5 15 7 10 8 11 9 12 10 14 11 13 12
REMARK SMILES IDX 8 13 9 14 7 15 6 16 5 17 4 18 1 19 2 20 3 21 92 22 91 23
REMARK SMILES IDX 21 24 22 25 23 26 24 27 25 28 26 29 27 31 28 32 29 33 90 34
REMARK SMILES IDX 30 35 89 36 31 37 32 38 33 39 83 40 34 41 88 42 82 43 84 44
REMARK SMILES IDX 35 45 87 46 81 47 80 48 36 50 68 51 48 52 67 53 49 54 52 55
REMARK SMILES IDX 66 56 85 57 50 58 51 59 65 61 86 62 53 63 37 64 38 65 46 66
REMARK SMILES IDX 39 67 41 68 47 69 40 70 42 71 43 72 44 73 45 74 69 75 70 76
REMARK SMILES IDX 78 77 71 78 73 79 79 80 72 81 74 82 75 83 76 84 77 85 54 86
REMARK SMILES IDX 55 87 63 88 56 89 58 90 64 91 57 92 59 93 60 94 61 95 62 96
REMARK H PARENT 18 6 25 30 84 49 52 60
REMARK Flexibility Score: inf
ROOT
ATOM      1  C   UNL A   1      35.022  30.343  27.604  1.00  0.00     0.021 C 
ENDROOT
BRANCH   1   2
ATOM      2  C   UNL A   1      33.789  29.693  26.986  1.00  0.00     0.116 C 
BRANCH   2   3
ATOM      3  N   UNL A   1      34.149  28.451  26.312  1.00  0.00    -0.354 N 
ATOM      4  C   UNL A   1      33.471  27.726  25.378  1.00  0.00     0.242 C 
ATOM      5  O   UNL A   1      33.973  26.653  25.027  1.00  0.00    -0.273 OA
ATOM      6  H   UNL A   1      35.020  28.076  26.574  1.00  0.00     0.163 HD
BRANCH   4   7
ATOM      7  C   UNL A   1      32.038  28.102  24.941  1.00  0.00     0.174 C 
ATOM      8  N   UNL A   1      31.097  26.973  24.793  1.00  0.00    -0.330 N 
ATOM      9  C   UNL A   1      29.945  27.197  23.920  1.00  0.00     0.120 C 
ATOM     10  C   UNL A   1      30.328  27.724  22.551  1.00  0.00     0.022 C 
ATOM     11  C   UNL A   1      32.294  28.855  23.600  1.00  0.00     0.035 C 
ATOM     12  C   UNL A   1      31.086  29.031  22.696  1.00  0.00     0.004 C 
BRANCH   8  13
ATOM     13  C   UNL A   1      30.916  25.932  25.704  1.00  0.00     0.233 C 
ATOM     14  O   UNL A   1      30.788  26.210  26.902  1.00  0.00    -0.274 OA
BRANCH  13  15
ATOM     15  C   UNL A   1      31.149  24.477  25.318  1.00  0.00     0.170 C 
BRANCH  15  16
ATOM     16  S   UNL A   1      31.689  23.283  26.562  1.00  0.00    -0.146 SA
BRANCH  16  17
ATOM     17  C   UNL A   1      32.338  21.936  25.545  1.00  0.00     0.127 C 
BRANCH  17  18
ATOM     18  C   UNL A   1      33.816  21.857  25.392  1.00  0.00     0.061 A 
ATOM     19  C   UNL A   1      36.519  22.877  23.161  1.00  0.00     0.079 C 
ATOM     20  C   UNL A   1      35.660  22.360  24.261  1.00  0.00     0.090 A 
ATOM     21  N   UNL A   1      34.352  22.286  24.189  1.00  0.00    -0.246 NA
ATOM     22  S   UNL A   1      36.337  21.845  25.751  1.00  0.00    -0.127 S 
ATOM     23  C   UNL A   1      34.757  21.563  26.362  1.00  0.00     0.091 A 
ENDBRANCH  17  18
ENDBRANCH  16  17
ENDBRANCH  15  16
ENDBRANCH  13  15
ENDBRANCH   8  13
ENDBRANCH   4   7
ENDBRANCH   2   3
ENDBRANCH   1   2
BRANCH   1  24
ATOM     24  C   UNL A   1      34.707  31.605  28.419  1.00  0.00     0.002 C 
BRANCH  24  25
ATOM     25  C   UNL A   1      35.327  32.896  27.879  1.00  0.00     0.002 C 
BRANCH  25  26
ATOM     26  C   UNL A   1      34.399  34.109  27.847  1.00  0.00     0.021 C 
BRANCH  26  27
ATOM     27  C   UNL A   1      33.099  33.942  28.622  1.00  0.00     0.116 C 
BRANCH  27  28
ATOM     28  N   UNL A   1      32.904  34.981  29.624  1.00  0.00    -0.352 N 
ATOM     29  C   UNL A   1      33.579  35.158  30.806  1.00  0.00     0.251 C 
ATOM     30  H   UNL A   1      32.198  35.639  29.428  1.00  0.00     0.163 HD
ATOM     31  O   UNL A   1      33.205  36.000  31.619  1.00  0.00    -0.269 OA
BRANCH  29  32
ATOM     32  C   UNL A   1      34.746  34.301  31.099  1.00  0.00     0.039 A 
ATOM     33  C   UNL A   1      36.022  34.745  30.748  1.00  0.00     0.014 A 
ATOM     34  C   UNL A   1      34.577  33.083  31.765  1.00  0.00     0.014 A 
ATOM     35  C   UNL A   1      37.138  33.992  31.117  1.00  0.00     0.010 A 
ATOM     36  C   UNL A   1      35.692  32.380  32.204  1.00  0.00     0.010 A 
ATOM     37  C   UNL A   1      36.983  32.820  31.875  1.00  0.00    -0.014 A 
BRANCH  37  38
ATOM     38  C   UNL A   1      38.158  32.035  32.333  1.00  0.00     0.031 A 
ATOM     39  C   UNL A   1      38.826  32.369  33.639  1.00  0.00     0.074 A 
ATOM     40  C   UNL A   1      38.676  31.081  31.535  1.00  0.00     0.049 A 
ATOM     41  N   UNL A   1      39.885  31.833  34.186  1.00  0.00    -0.248 NA
ATOM     42  C   UNL A   1      38.244  33.475  34.417  1.00  0.00     0.031 C 
ATOM     43  C   UNL A   1      38.166  30.715  30.213  1.00  0.00     0.029 A 
ATOM     44  N   UNL A   1      39.762  30.259  31.712  1.00  0.00    -0.354 N 
ATOM     45  C   UNL A   1      40.121  32.559  35.346  1.00  0.00     0.074 A 
ATOM     46  C   UNL A   1      39.119  33.601  35.403  1.00  0.00     0.031 C 
ATOM     47  C   UNL A   1      38.926  29.730  29.706  1.00  0.00     0.029 A 
ATOM     48  C   UNL A   1      39.995  29.419  30.650  1.00  0.00     0.049 A 
ATOM     49  H   UNL A   1      40.319  30.271  32.523  1.00  0.00     0.167 HD
ATOM     50  C   UNL A   1      41.064  32.360  36.298  1.00  0.00     0.034 A 
ATOM     51  C   UNL A   1      40.962  28.501  30.457  1.00  0.00     0.034 A 
ATOM     52  C   UNL A   1      42.033  31.299  36.255  1.00  0.00     0.049 A 
ATOM     53  C   UNL A   1      41.984  28.276  31.539  1.00  0.00     0.074 A 
ATOM     54  C   UNL A   1      42.971  30.950  37.210  1.00  0.00     0.029 A 
ATOM     55  N   UNL A   1      42.199  30.422  35.193  1.00  0.00    -0.354 N 
ATOM     56  N   UNL A   1      42.094  28.865  32.705  1.00  0.00    -0.248 NA
ATOM     57  C   UNL A   1      42.994  27.237  31.293  1.00  0.00     0.031 C 
ATOM     58  C   UNL A   1      43.726  29.883  36.710  1.00  0.00     0.029 A 
ATOM     59  C   UNL A   1      43.235  29.544  35.459  1.00  0.00     0.049 A 
ATOM     60  H   UNL A   1      41.660  30.425  34.370  1.00  0.00     0.167 HD
ATOM     61  C   UNL A   1      43.159  28.245  33.348  1.00  0.00     0.074 A 
ATOM     62  C   UNL A   1      43.651  27.222  32.446  1.00  0.00     0.031 C 
ATOM     63  C   UNL A   1      43.687  28.502  34.570  1.00  0.00     0.034 A 
BRANCH  50  64
ATOM     64  C   UNL A   1      41.061  33.293  37.483  1.00  0.00     0.023 A 
ATOM     65  C   UNL A   1      41.969  34.372  37.527  1.00  0.00     0.012 A 
ATOM     66  C   UNL A   1      40.154  33.113  38.544  1.00  0.00     0.148 A 
ATOM     67  C   UNL A   1      42.012  35.222  38.631  1.00  0.00     0.002 A 
ATOM     68  C   UNL A   1      40.168  33.997  39.618  1.00  0.00     0.091 A 
ATOM     69  F   UNL A   1      39.311  32.072  38.500  1.00  0.00    -0.205 F 
ATOM     70  C   UNL A   1      41.106  35.040  39.671  1.00  0.00     0.022 A 
BRANCH  68  71
ATOM     71  S   UNL A   1      38.985  33.893  40.966  1.00  0.00     0.127 S 
ATOM     72  O   UNL A   1      39.414  32.671  41.642  1.00  0.00    -0.237 OA
ATOM     73  O   UNL A   1      39.253  35.127  41.707  1.00  0.00    -0.237 OA
ATOM     74  O   UNL A   1      37.672  33.839  40.340  1.00  0.00    -0.744 OA
ENDBRANCH  68  71
ENDBRANCH  50  64
BRANCH  51  75
ATOM     75  C   UNL A   1      40.953  27.664  29.224  1.00  0.00     0.023 A 
ATOM     76  C   UNL A   1      40.023  26.612  29.115  1.00  0.00     0.012 A 
ATOM     77  C   UNL A   1      41.817  27.932  28.145  1.00  0.00     0.148 A 
ATOM     78  C   UNL A   1      39.969  25.826  27.965  1.00  0.00     0.002 A 
ATOM     79  C   UNL A   1      41.723  27.178  26.981  1.00  0.00     0.091 A 
ATOM     80  F   UNL A   1      42.697  28.936  28.272  1.00  0.00    -0.205 F 
ATOM     81  C   UNL A   1      40.811  26.115  26.894  1.00  0.00     0.022 A 
BRANCH  79  82
ATOM     82  S   UNL A   1      42.678  27.549  25.505  1.00  0.00     0.127 S 
ATOM     83  O   UNL A   1      42.047  28.783  25.044  1.00  0.00    -0.237 OA
ATOM     84  O   UNL A   1      44.024  27.714  26.056  1.00  0.00    -0.237 OA
ATOM     85  O   UNL A   1      42.520  26.397  24.629  1.00  0.00    -0.744 OA
ENDBRANCH  79  82
ENDBRANCH  51  75
BRANCH  63  86
ATOM     86  C   UNL A   1      44.837  27.644  35.032  1.00  0.00     0.023 A 
ATOM     87  C   UNL A   1      46.162  28.087  34.852  1.00  0.00     0.012 A 
ATOM     88  C   UNL A   1      44.599  26.434  35.713  1.00  0.00     0.148 A 
ATOM     89  C   UNL A   1      47.234  27.323  35.315  1.00  0.00     0.002 A 
ATOM     90  C   UNL A   1      45.669  25.703  36.217  1.00  0.00     0.091 A 
ATOM     91  F   UNL A   1      43.331  26.020  35.857  1.00  0.00    -0.205 F 
ATOM     92  C   UNL A   1      46.987  26.139  36.007  1.00  0.00     0.022 A 
BRANCH  90  93
ATOM     93  S   UNL A   1      45.442  24.222  37.207  1.00  0.00     0.127 S 
ATOM     94  O   UNL A   1      44.621  24.723  38.308  1.00  0.00    -0.237 OA
ATOM     95  O   UNL A   1      44.740  23.334  36.279  1.00  0.00    -0.237 OA
ATOM     96  O   UNL A   1      46.778  23.775  37.577  1.00  0.00    -0.744 OA
ENDBRANCH  90  93
ENDBRANCH  63  86
ENDBRANCH  37  38
ENDBRANCH  29  32
ENDBRANCH  27  28
ENDBRANCH  26  27
ENDBRANCH  25  26
ENDBRANCH  24  25
ENDBRANCH   1  24
TORSDOF 21
ENDMDL
