MODEL 1
REMARK VINA RESULT:     -12.4      0.000      0.000
REMARK SMILES CC(C)[C@H](NC(=O)c1cc2cc(Cl)ccc2n1C)C(=O)N[C@@H](C(=O)NCCCCCCNC(=O)c1ccc(-c2c3nc(c(-c4cccc(S(=O)(=O)[O-])c4F)c4ccc([nH]4)c(-c4cccc(S(=O)(=O)[O-])c4F)c4nc(c(-c5cccc(S(=O)(=O)[O-])c5F)c5ccc2[nH]5)C=C4)C=C3)cc1)c1ccccc1
REMARK SMILES IDX 28 1 27 2 26 3 25 4 23 5 24 6 22 8 21 9 19 10 20 11 4 13
REMARK SMILES IDX 2 14 1 15 3 16 5 17 6 18 7 20 8 21 9 22 17 23 10 24 16 25
REMARK SMILES IDX 18 26 11 27 15 28 12 29 14 30 13 31 98 32 99 33 103 34
REMARK SMILES IDX 100 35 102 36 101 37 29 38 30 39 31 40 32 41 33 42 34 44
REMARK SMILES IDX 35 45 36 46 97 47 37 48 96 49 38 50 39 51 40 52 90 53 41 54
REMARK SMILES IDX 95 55 89 56 91 57 42 58 94 59 88 60 87 61 43 63 75 64 55 65
REMARK SMILES IDX 74 66 56 67 59 68 73 69 92 70 57 71 58 72 72 74 93 75 60 76
REMARK SMILES IDX 44 77 45 78 53 79 46 80 48 81 54 82 47 83 49 84 50 85 51 86
REMARK SMILES IDX 52 87 76 88 77 89 85 90 78 91 80 92 86 93 79 94 81 95 82 96
REMARK SMILES IDX 83 97 84 98 61 99 62 100 70 101 63 102 65 103 71 104 64 105
REMARK SMILES IDX 66 106 67 107 68 108 69 109
REMARK H PARENT 25 7 21 12 5 19 32 43 91 62 59 73
REMARK Flexibility Score: inf
ROOT
ATOM      1  C   UNL A   1      33.881  29.876  26.817  1.00  0.00     0.002 C 
ENDROOT
BRANCH   1   2
ATOM      2  C   UNL A   1      32.817  29.598  25.754  1.00  0.00     0.021 C 
BRANCH   2   3
ATOM      3  C   UNL A   1      33.171  28.556  24.672  1.00  0.00     0.116 C 
BRANCH   3   4
ATOM      4  N   UNL A   1      32.725  28.988  23.361  1.00  0.00    -0.354 N 
ATOM      5  C   UNL A   1      31.470  29.012  22.809  1.00  0.00     0.247 C 
ATOM      6  O   UNL A   1      31.456  28.848  21.581  1.00  0.00    -0.272 OA
ATOM      7  H   UNL A   1      33.440  29.316  22.770  1.00  0.00     0.163 HD
BRANCH   5   8
ATOM      8  C   UNL A   1      30.125  29.177  23.662  1.00  0.00     0.202 C 
BRANCH   8   9
ATOM      9  N   UNL A   1      29.235  28.022  23.431  1.00  0.00    -0.339 N 
ATOM     10  C   UNL A   1      29.229  26.693  23.704  1.00  0.00     0.243 C 
ATOM     11  O   UNL A   1      28.101  26.211  23.897  1.00  0.00    -0.273 OA
ATOM     12  H   UNL A   1      28.422  28.290  22.944  1.00  0.00     0.164 HD
BRANCH  10  13
ATOM     13  C   UNL A   1      30.436  25.754  23.812  1.00  0.00     0.174 C 
BRANCH  13  14
ATOM     14  C   UNL A   1      31.048  25.612  25.243  1.00  0.00     0.015 C 
ATOM     15  C   UNL A   1      30.632  26.655  26.284  1.00  0.00     0.010 C 
ATOM     16  C   UNL A   1      30.855  24.198  25.809  1.00  0.00     0.010 C 
ENDBRANCH  13  14
BRANCH  13  17
ATOM     17  N   UNL A   1      31.428  25.945  22.771  1.00  0.00    -0.339 N 
ATOM     18  C   UNL A   1      32.671  25.384  22.583  1.00  0.00     0.268 C 
ATOM     19  H   UNL A   1      31.166  26.590  22.075  1.00  0.00     0.164 HD
ATOM     20  O   UNL A   1      33.416  26.124  21.930  1.00  0.00    -0.268 OA
BRANCH  18  21
ATOM     21  C   UNL A   1      33.147  24.057  23.001  1.00  0.00     0.107 A 
ATOM     22  C   UNL A   1      32.383  22.907  22.738  1.00  0.00     0.042 A 
ATOM     23  N   UNL A   1      34.102  23.598  23.906  1.00  0.00    -0.340 N 
ATOM     24  C   UNL A   1      32.891  21.795  23.453  1.00  0.00     0.002 A 
ATOM     25  C   UNL A   1      34.098  22.209  23.988  1.00  0.00     0.048 A 
ATOM     26  C   UNL A   1      34.645  24.274  25.062  1.00  0.00     0.150 C 
ATOM     27  C   UNL A   1      32.440  20.494  23.740  1.00  0.00     0.030 A 
ATOM     28  C   UNL A   1      34.958  21.352  24.696  1.00  0.00     0.028 A 
ATOM     29  C   UNL A   1      33.243  19.660  24.529  1.00  0.00     0.041 A 
ATOM     30  C   UNL A   1      34.499  20.067  24.973  1.00  0.00     0.023 A 
ATOM     31  Cl  UNL A   1      32.655  18.113  25.005  1.00  0.00    -0.084 Cl
ENDBRANCH  18  21
ENDBRANCH  13  17
ENDBRANCH  10  13
ENDBRANCH   8   9
BRANCH   8  32
ATOM     32  C   UNL A   1      29.277  30.405  23.165  1.00  0.00    -0.016 A 
ATOM     33  C   UNL A   1      28.583  30.338  21.933  1.00  0.00     0.006 A 
ATOM     34  C   UNL A   1      29.273  31.655  23.805  1.00  0.00     0.006 A 
ATOM     35  C   UNL A   1      28.043  31.465  21.308  1.00  0.00     0.000 A 
ATOM     36  C   UNL A   1      28.737  32.793  23.177  1.00  0.00     0.000 A 
ATOM     37  C   UNL A   1      28.145  32.702  21.921  1.00  0.00     0.000 A 
ENDBRANCH   8  32
ENDBRANCH   5   8
ENDBRANCH   3   4
ENDBRANCH   2   3
ENDBRANCH   1   2
BRANCH   1  38
ATOM     38  C   UNL A   1      33.709  31.182  27.601  1.00  0.00     0.002 C 
BRANCH  38  39
ATOM     39  C   UNL A   1      34.934  32.102  27.714  1.00  0.00     0.021 C 
BRANCH  39  40
ATOM     40  C   UNL A   1      34.832  33.262  28.704  1.00  0.00     0.116 C 
BRANCH  40  41
ATOM     41  N   UNL A   1      34.581  32.880  30.077  1.00  0.00    -0.352 N 
ATOM     42  C   UNL A   1      35.277  32.189  31.031  1.00  0.00     0.251 C 
ATOM     43  H   UNL A   1      33.704  33.190  30.401  1.00  0.00     0.163 HD
ATOM     44  O   UNL A   1      34.799  32.216  32.169  1.00  0.00    -0.269 OA
BRANCH  42  45
ATOM     45  C   UNL A   1      36.485  31.359  30.777  1.00  0.00     0.039 A 
ATOM     46  C   UNL A   1      36.520  29.967  30.716  1.00  0.00     0.014 A 
ATOM     47  C   UNL A   1      37.691  32.070  30.624  1.00  0.00     0.014 A 
ATOM     48  C   UNL A   1      37.740  29.300  30.631  1.00  0.00     0.010 A 
ATOM     49  C   UNL A   1      38.911  31.413  30.517  1.00  0.00     0.010 A 
ATOM     50  C   UNL A   1      38.937  30.024  30.571  1.00  0.00    -0.014 A 
BRANCH  50  51
ATOM     51  C   UNL A   1      40.184  29.288  30.370  1.00  0.00     0.031 A 
ATOM     52  C   UNL A   1      40.924  29.038  31.639  1.00  0.00     0.074 A 
ATOM     53  C   UNL A   1      40.585  28.782  29.184  1.00  0.00     0.049 A 
ATOM     54  N   UNL A   1      42.063  29.534  31.997  1.00  0.00    -0.248 NA
ATOM     55  C   UNL A   1      40.241  28.280  32.700  1.00  0.00     0.031 C 
ATOM     56  C   UNL A   1      39.824  28.735  27.934  1.00  0.00     0.029 A 
ATOM     57  N   UNL A   1      41.723  28.093  28.870  1.00  0.00    -0.354 N 
ATOM     58  C   UNL A   1      42.350  28.951  33.230  1.00  0.00     0.074 A 
ATOM     59  C   UNL A   1      41.127  28.353  33.694  1.00  0.00     0.031 C 
ATOM     60  C   UNL A   1      40.408  27.859  27.084  1.00  0.00     0.029 A 
ATOM     61  C   UNL A   1      41.649  27.385  27.669  1.00  0.00     0.049 A 
ATOM     62  H   UNL A   1      42.525  28.096  29.441  1.00  0.00     0.167 HD
ATOM     63  C   UNL A   1      43.633  28.771  33.644  1.00  0.00     0.034 A 
ATOM     64  C   UNL A   1      42.516  26.436  27.227  1.00  0.00     0.034 A 
ATOM     65  C   UNL A   1      44.550  29.577  32.886  1.00  0.00     0.049 A 
ATOM     66  C   UNL A   1      43.788  26.670  27.944  1.00  0.00     0.074 A 
ATOM     67  C   UNL A   1      44.742  30.927  32.682  1.00  0.00     0.029 A 
ATOM     68  N   UNL A   1      45.220  28.926  31.883  1.00  0.00    -0.354 N 
ATOM     69  N   UNL A   1      44.534  27.724  27.775  1.00  0.00    -0.248 NA
ATOM     70  C   UNL A   1      44.059  25.888  29.138  1.00  0.00     0.031 C 
ATOM     71  C   UNL A   1      45.169  31.037  31.327  1.00  0.00     0.029 A 
ATOM     72  C   UNL A   1      45.272  29.750  30.795  1.00  0.00     0.049 A 
ATOM     73  H   UNL A   1      45.600  28.019  31.937  1.00  0.00     0.167 HD
ATOM     74  C   UNL A   1      45.028  27.990  29.042  1.00  0.00     0.074 A 
ATOM     75  C   UNL A   1      44.820  26.761  29.801  1.00  0.00     0.031 C 
ATOM     76  C   UNL A   1      45.283  29.272  29.430  1.00  0.00     0.034 A 
BRANCH  63  77
ATOM     77  C   UNL A   1      44.115  27.571  34.426  1.00  0.00     0.023 A 
ATOM     78  C   UNL A   1      44.969  27.806  35.527  1.00  0.00     0.012 A 
ATOM     79  C   UNL A   1      44.020  26.237  33.964  1.00  0.00     0.148 A 
ATOM     80  C   UNL A   1      45.712  26.776  36.115  1.00  0.00     0.002 A 
ATOM     81  C   UNL A   1      44.701  25.205  34.598  1.00  0.00     0.091 A 
ATOM     82  F   UNL A   1      43.382  25.971  32.821  1.00  0.00    -0.205 F 
ATOM     83  C   UNL A   1      45.569  25.472  35.658  1.00  0.00     0.022 A 
BRANCH  81  84
ATOM     84  S   UNL A   1      44.543  23.497  34.061  1.00  0.00     0.127 S 
ATOM     85  O   UNL A   1      45.518  22.830  34.913  1.00  0.00    -0.237 OA
ATOM     86  O   UNL A   1      43.143  23.216  34.373  1.00  0.00    -0.237 OA
ATOM     87  O   UNL A   1      44.844  23.508  32.629  1.00  0.00    -0.744 OA
ENDBRANCH  81  84
ENDBRANCH  63  77
BRANCH  64  88
ATOM     88  C   UNL A   1      42.309  25.193  26.432  1.00  0.00     0.023 A 
ATOM     89  C   UNL A   1      43.240  24.863  25.417  1.00  0.00     0.012 A 
ATOM     90  C   UNL A   1      41.420  24.181  26.851  1.00  0.00     0.148 A 
ATOM     91  C   UNL A   1      43.334  23.564  24.901  1.00  0.00     0.002 A 
ATOM     92  C   UNL A   1      41.509  22.892  26.326  1.00  0.00     0.091 A 
ATOM     93  F   UNL A   1      40.551  24.447  27.833  1.00  0.00    -0.205 F 
ATOM     94  C   UNL A   1      42.479  22.573  25.367  1.00  0.00     0.022 A 
BRANCH  92  95
ATOM     95  S   UNL A   1      40.437  21.559  26.885  1.00  0.00     0.127 S 
ATOM     96  O   UNL A   1      40.950  20.415  26.132  1.00  0.00    -0.237 OA
ATOM     97  O   UNL A   1      40.717  21.525  28.316  1.00  0.00    -0.237 OA
ATOM     98  O   UNL A   1      39.085  21.961  26.510  1.00  0.00    -0.744 OA
ENDBRANCH  92  95
ENDBRANCH  64  88
BRANCH  76  99
ATOM     99  C   UNL A   1      45.346  30.337  28.370  1.00  0.00     0.023 A 
ATOM    100  C   UNL A   1      44.204  31.037  27.928  1.00  0.00     0.012 A 
ATOM    101  C   UNL A   1      46.621  30.791  27.995  1.00  0.00     0.148 A 
ATOM    102  C   UNL A   1      44.340  32.183  27.139  1.00  0.00     0.002 A 
ATOM    103  C   UNL A   1      46.751  31.954  27.251  1.00  0.00     0.091 A 
ATOM    104  F   UNL A   1      47.687  30.105  28.436  1.00  0.00    -0.205 F 
ATOM    105  C   UNL A   1      45.612  32.652  26.817  1.00  0.00     0.022 A 
BRANCH 103 106
ATOM    106  S   UNL A   1      48.354  32.682  26.915  1.00  0.00     0.127 S 
ATOM    107  O   UNL A   1      48.011  33.771  26.002  1.00  0.00    -0.237 OA
ATOM    108  O   UNL A   1      48.782  33.112  28.248  1.00  0.00    -0.237 OA
ATOM    109  O   UNL A   1      49.171  31.624  26.333  1.00  0.00    -0.744 OA
ENDBRANCH 103 106
ENDBRANCH  76  99
ENDBRANCH  50  51
ENDBRANCH  42  45
ENDBRANCH  40  41
ENDBRANCH  39  40
ENDBRANCH  38  39
ENDBRANCH   1  38
TORSDOF 22
ENDMDL
MODEL 2
REMARK VINA RESULT:     -12.4      1.946      2.563
REMARK SMILES CC(C)[C@H](NC(=O)c1cc2cc(Cl)ccc2n1C)C(=O)N[C@@H](C(=O)NCCCCCCNC(=O)c1ccc(-c2c3nc(c(-c4cccc(S(=O)(=O)[O-])c4F)c4ccc([nH]4)c(-c4cccc(S(=O)(=O)[O-])c4F)c4nc(c(-c5cccc(S(=O)(=O)[O-])c5F)c5ccc2[nH]5)C=C4)C=C3)cc1)c1ccccc1
REMARK SMILES IDX 28 1 27 2 26 3 25 4 23 5 24 6 22 8 21 9 19 10 20 11 4 13
REMARK SMILES IDX 2 14 1 15 3 16 5 17 6 18 7 20 8 21 9 22 17 23 10 24 16 25
REMARK SMILES IDX 18 26 11 27 15 28 12 29 14 30 13 31 98 32 99 33 103 34
REMARK SMILES IDX 100 35 102 36 101 37 29 38 30 39 31 40 32 41 33 42 34 44
REMARK SMILES IDX 35 45 36 46 97 47 37 48 96 49 38 50 39 51 40 52 90 53 41 54
REMARK SMILES IDX 95 55 89 56 91 57 42 58 94 59 88 60 87 61 43 63 75 64 55 65
REMARK SMILES IDX 74 66 56 67 59 68 73 69 92 70 57 71 58 72 72 74 93 75 60 76
REMARK SMILES IDX 44 77 45 78 53 79 46 80 48 81 54 82 47 83 49 84 50 85 51 86
REMARK SMILES IDX 52 87 76 88 77 89 85 90 78 91 80 92 86 93 79 94 81 95 82 96
REMARK SMILES IDX 83 97 84 98 61 99 62 100 70 101 63 102 65 103 71 104 64 105
REMARK SMILES IDX 66 106 67 107 68 108 69 109
REMARK H PARENT 25 7 21 12 5 19 32 43 91 62 59 73
REMARK Flexibility Score: inf
ROOT
ATOM      1  C   UNL A   1      34.668  30.645  27.849  1.00  0.00     0.002 C 
ENDROOT
BRANCH   1   2
ATOM      2  C   UNL A   1      33.545  30.372  26.847  1.00  0.00     0.021 C 
BRANCH   2   3
ATOM      3  C   UNL A   1      33.712  29.138  25.936  1.00  0.00     0.116 C 
BRANCH   3   4
ATOM      4  N   UNL A   1      33.457  29.472  24.547  1.00  0.00    -0.354 N 
ATOM      5  C   UNL A   1      32.400  29.154  23.733  1.00  0.00     0.247 C 
ATOM      6  O   UNL A   1      32.701  29.040  22.537  1.00  0.00    -0.272 OA
ATOM      7  H   UNL A   1      34.157  30.015  24.118  1.00  0.00     0.163 HD
BRANCH   5   8
ATOM      8  C   UNL A   1      30.913  28.892  24.266  1.00  0.00     0.202 C 
BRANCH   8   9
ATOM      9  N   UNL A   1      30.510  27.501  23.978  1.00  0.00    -0.339 N 
ATOM     10  C   UNL A   1      30.637  26.282  24.558  1.00  0.00     0.243 C 
ATOM     11  O   UNL A   1      29.687  25.509  24.351  1.00  0.00    -0.273 OA
ATOM     12  H   UNL A   1      30.013  27.442  23.130  1.00  0.00     0.164 HD
BRANCH  10  13
ATOM     13  C   UNL A   1      31.791  25.776  25.433  1.00  0.00     0.174 C 
BRANCH  13  14
ATOM     14  C   UNL A   1      33.022  25.207  24.654  1.00  0.00     0.015 C 
ATOM     15  C   UNL A   1      33.136  25.574  23.172  1.00  0.00     0.010 C 
ATOM     16  C   UNL A   1      34.343  25.511  25.375  1.00  0.00     0.010 C 
ENDBRANCH  13  14
BRANCH  13  17
ATOM     17  N   UNL A   1      31.370  24.943  26.543  1.00  0.00    -0.339 N 
ATOM     18  C   UNL A   1      31.305  23.575  26.682  1.00  0.00     0.268 C 
ATOM     19  H   UNL A   1      31.080  25.445  27.339  1.00  0.00     0.164 HD
ATOM     20  O   UNL A   1      30.451  23.237  27.510  1.00  0.00    -0.268 OA
BRANCH  18  21
ATOM     21  C   UNL A   1      32.137  22.550  26.034  1.00  0.00     0.107 A 
ATOM     22  C   UNL A   1      31.578  21.663  25.097  1.00  0.00     0.042 A 
ATOM     23  N   UNL A   1      33.378  21.978  26.306  1.00  0.00    -0.340 N 
ATOM     24  C   UNL A   1      32.479  20.609  24.809  1.00  0.00     0.002 A 
ATOM     25  C   UNL A   1      33.678  20.963  25.403  1.00  0.00     0.048 A 
ATOM     26  C   UNL A   1      34.073  21.894  27.570  1.00  0.00     0.150 C 
ATOM     27  C   UNL A   1      32.398  19.372  24.144  1.00  0.00     0.030 A 
ATOM     28  C   UNL A   1      34.855  20.208  25.265  1.00  0.00     0.028 A 
ATOM     29  C   UNL A   1      33.540  18.562  24.084  1.00  0.00     0.041 A 
ATOM     30  C   UNL A   1      34.760  18.986  24.604  1.00  0.00     0.023 A 
ATOM     31  Cl  UNL A   1      33.433  16.989  23.392  1.00  0.00    -0.084 Cl
ENDBRANCH  18  21
ENDBRANCH  13  17
ENDBRANCH  10  13
ENDBRANCH   8   9
BRANCH   8  32
ATOM     32  C   UNL A   1      29.859  29.755  23.479  1.00  0.00    -0.016 A 
ATOM     33  C   UNL A   1      29.421  30.994  24.004  1.00  0.00     0.006 A 
ATOM     34  C   UNL A   1      29.193  29.305  22.328  1.00  0.00     0.006 A 
ATOM     35  C   UNL A   1      28.306  31.673  23.506  1.00  0.00     0.000 A 
ATOM     36  C   UNL A   1      28.065  29.980  21.829  1.00  0.00     0.000 A 
ATOM     37  C   UNL A   1      27.609  31.149  22.431  1.00  0.00     0.000 A 
ENDBRANCH   8  32
ENDBRANCH   5   8
ENDBRANCH   3   4
ENDBRANCH   2   3
ENDBRANCH   1   2
BRANCH   1  38
ATOM     38  C   UNL A   1      34.851  32.111  28.257  1.00  0.00     0.002 C 
BRANCH  38  39
ATOM     39  C   UNL A   1      36.214  32.757  27.969  1.00  0.00     0.021 C 
BRANCH  39  40
ATOM     40  C   UNL A   1      36.679  33.842  28.941  1.00  0.00     0.116 C 
BRANCH  40  41
ATOM     41  N   UNL A   1      36.330  33.619  30.327  1.00  0.00    -0.352 N 
ATOM     42  C   UNL A   1      36.928  32.992  31.386  1.00  0.00     0.251 C 
ATOM     43  H   UNL A   1      35.457  34.009  30.564  1.00  0.00     0.163 HD
ATOM     44  O   UNL A   1      36.392  33.162  32.484  1.00  0.00    -0.269 OA
BRANCH  42  45
ATOM     45  C   UNL A   1      38.095  32.073  31.289  1.00  0.00     0.039 A 
ATOM     46  C   UNL A   1      39.432  32.433  31.454  1.00  0.00     0.014 A 
ATOM     47  C   UNL A   1      37.791  30.736  30.968  1.00  0.00     0.014 A 
ATOM     48  C   UNL A   1      40.442  31.513  31.181  1.00  0.00     0.010 A 
ATOM     49  C   UNL A   1      38.794  29.807  30.716  1.00  0.00     0.010 A 
ATOM     50  C   UNL A   1      40.122  30.212  30.774  1.00  0.00    -0.014 A 
BRANCH  50  51
ATOM     51  C   UNL A   1      41.209  29.250  30.607  1.00  0.00     0.031 A 
ATOM     52  C   UNL A   1      41.795  28.801  31.901  1.00  0.00     0.074 A 
ATOM     53  C   UNL A   1      41.585  28.727  29.420  1.00  0.00     0.049 A 
ATOM     54  N   UNL A   1      42.982  29.044  32.355  1.00  0.00    -0.248 NA
ATOM     55  C   UNL A   1      40.904  28.150  32.875  1.00  0.00     0.031 C 
ATOM     56  C   UNL A   1      40.918  28.889  28.126  1.00  0.00     0.029 A 
ATOM     57  N   UNL A   1      42.584  27.839  29.136  1.00  0.00    -0.354 N 
ATOM     58  C   UNL A   1      43.061  28.361  33.567  1.00  0.00     0.074 A 
ATOM     59  C   UNL A   1      41.715  28.000  33.923  1.00  0.00     0.031 C 
ATOM     60  C   UNL A   1      41.377  27.951  27.264  1.00  0.00     0.029 A 
ATOM     61  C   UNL A   1      42.456  27.213  27.894  1.00  0.00     0.049 A 
ATOM     62  H   UNL A   1      43.329  27.656  29.753  1.00  0.00     0.167 HD
ATOM     63  C   UNL A   1      44.252  27.910  34.046  1.00  0.00     0.034 A 
ATOM     64  C   UNL A   1      43.148  26.130  27.451  1.00  0.00     0.034 A 
ATOM     65  C   UNL A   1      45.360  28.548  33.391  1.00  0.00     0.049 A 
ATOM     66  C   UNL A   1      44.388  26.072  28.256  1.00  0.00     0.074 A 
ATOM     67  C   UNL A   1      45.829  29.840  33.276  1.00  0.00     0.029 A 
ATOM     68  N   UNL A   1      45.958  27.821  32.395  1.00  0.00    -0.354 N 
ATOM     69  N   UNL A   1      45.337  26.962  28.192  1.00  0.00    -0.248 NA
ATOM     70  C   UNL A   1      44.415  25.200  29.417  1.00  0.00     0.031 C 
ATOM     71  C   UNL A   1      46.362  29.921  31.957  1.00  0.00     0.029 A 
ATOM     72  C   UNL A   1      46.246  28.664  31.360  1.00  0.00     0.049 A 
ATOM     73  H   UNL A   1      46.147  26.854  32.420  1.00  0.00     0.167 HD
ATOM     74  C   UNL A   1      45.784  27.068  29.499  1.00  0.00     0.074 A 
ATOM     75  C   UNL A   1      45.285  25.873  30.173  1.00  0.00     0.031 C 
ATOM     76  C   UNL A   1      46.258  28.254  29.973  1.00  0.00     0.034 A 
BRANCH  63  77
ATOM     77  C   UNL A   1      44.432  26.604  34.786  1.00  0.00     0.023 A 
ATOM     78  C   UNL A   1      43.897  25.437  34.195  1.00  0.00     0.012 A 
ATOM     79  C   UNL A   1      44.821  26.513  36.143  1.00  0.00     0.148 A 
ATOM     80  C   UNL A   1      43.731  24.254  34.924  1.00  0.00     0.002 A 
ATOM     81  C   UNL A   1      44.725  25.315  36.842  1.00  0.00     0.091 A 
ATOM     82  F   UNL A   1      45.159  27.617  36.816  1.00  0.00    -0.205 F 
ATOM     83  C   UNL A   1      44.156  24.189  36.245  1.00  0.00     0.022 A 
BRANCH  81  84
ATOM     84  S   UNL A   1      45.273  25.167  38.547  1.00  0.00     0.127 S 
ATOM     85  O   UNL A   1      46.655  25.616  38.451  1.00  0.00    -0.237 OA
ATOM     86  O   UNL A   1      44.363  26.084  39.232  1.00  0.00    -0.237 OA
ATOM     87  O   UNL A   1      45.080  23.761  38.899  1.00  0.00    -0.744 OA
ENDBRANCH  81  84
ENDBRANCH  63  77
BRANCH  64  88
ATOM     88  C   UNL A   1      42.756  24.989  26.575  1.00  0.00     0.023 A 
ATOM     89  C   UNL A   1      43.592  24.640  25.487  1.00  0.00     0.012 A 
ATOM     90  C   UNL A   1      41.772  24.056  26.965  1.00  0.00     0.148 A 
ATOM     91  C   UNL A   1      43.505  23.386  24.868  1.00  0.00     0.002 A 
ATOM     92  C   UNL A   1      41.682  22.814  26.338  1.00  0.00     0.091 A 
ATOM     93  F   UNL A   1      40.988  24.338  28.012  1.00  0.00    -0.205 F 
ATOM     94  C   UNL A   1      42.560  22.466  25.304  1.00  0.00     0.022 A 
BRANCH  92  95
ATOM     95  S   UNL A   1      40.485  21.572  26.852  1.00  0.00     0.127 S 
ATOM     96  O   UNL A   1      39.212  22.241  26.583  1.00  0.00    -0.237 OA
ATOM     97  O   UNL A   1      40.795  20.462  25.958  1.00  0.00    -0.237 OA
ATOM     98  O   UNL A   1      40.747  21.340  28.269  1.00  0.00    -0.744 OA
ENDBRANCH  92  95
ENDBRANCH  64  88
BRANCH  76  99
ATOM     99  C   UNL A   1      46.604  29.331  28.981  1.00  0.00     0.023 A 
ATOM    100  C   UNL A   1      47.860  29.403  28.346  1.00  0.00     0.012 A 
ATOM    101  C   UNL A   1      45.549  30.135  28.518  1.00  0.00     0.148 A 
ATOM    102  C   UNL A   1      48.051  30.253  27.253  1.00  0.00     0.002 A 
ATOM    103  C   UNL A   1      45.731  30.941  27.405  1.00  0.00     0.091 A 
ATOM    104  F   UNL A   1      44.365  30.039  29.142  1.00  0.00    -0.205 F 
ATOM    105  C   UNL A   1      46.983  31.007  26.770  1.00  0.00     0.022 A 
BRANCH 103 106
ATOM    106  S   UNL A   1      44.369  31.833  26.655  1.00  0.00     0.127 S 
ATOM    107  O   UNL A   1      44.999  32.422  25.475  1.00  0.00    -0.237 OA
ATOM    108  O   UNL A   1      43.417  30.758  26.370  1.00  0.00    -0.237 OA
ATOM    109  O   UNL A   1      43.909  32.793  27.653  1.00  0.00    -0.744 OA
ENDBRANCH 103 106
ENDBRANCH  76  99
ENDBRANCH  50  51
ENDBRANCH  42  45
ENDBRANCH  40  41
ENDBRANCH  39  40
ENDBRANCH  38  39
ENDBRANCH   1  38
TORSDOF 22
ENDMDL
MODEL 3
REMARK VINA RESULT:     -12.3      3.265      9.363
REMARK SMILES CC(C)[C@H](NC(=O)c1cc2cc(Cl)ccc2n1C)C(=O)N[C@@H](C(=O)NCCCCCCNC(=O)c1ccc(-c2c3nc(c(-c4cccc(S(=O)(=O)[O-])c4F)c4ccc([nH]4)c(-c4cccc(S(=O)(=O)[O-])c4F)c4nc(c(-c5cccc(S(=O)(=O)[O-])c5F)c5ccc2[nH]5)C=C4)C=C3)cc1)c1ccccc1
REMARK SMILES IDX 28 1 27 2 26 3 25 4 23 5 24 6 22 8 21 9 19 10 20 11 4 13
REMARK SMILES IDX 2 14 1 15 3 16 5 17 6 18 7 20 8 21 9 22 17 23 10 24 16 25
REMARK SMILES IDX 18 26 11 27 15 28 12 29 14 30 13 31 98 32 99 33 103 34
REMARK SMILES IDX 100 35 102 36 101 37 29 38 30 39 31 40 32 41 33 42 34 44
REMARK SMILES IDX 35 45 36 46 97 47 37 48 96 49 38 50 39 51 40 52 90 53 41 54
REMARK SMILES IDX 95 55 89 56 91 57 42 58 94 59 88 60 87 61 43 63 75 64 55 65
REMARK SMILES IDX 74 66 56 67 59 68 73 69 92 70 57 71 58 72 72 74 93 75 60 76
REMARK SMILES IDX 44 77 45 78 53 79 46 80 48 81 54 82 47 83 49 84 50 85 51 86
REMARK SMILES IDX 52 87 76 88 77 89 85 90 78 91 80 92 86 93 79 94 81 95 82 96
REMARK SMILES IDX 83 97 84 98 61 99 62 100 70 101 63 102 65 103 71 104 64 105
REMARK SMILES IDX 66 106 67 107 68 108 69 109
REMARK H PARENT 25 7 21 12 5 19 32 43 91 62 59 73
REMARK Flexibility Score: inf
ROOT
ATOM      1  C   UNL A   1      38.576  23.651  25.907  1.00  0.00     0.002 C 
ENDROOT
BRANCH   1   2
ATOM      2  C   UNL A   1      37.335  22.829  25.557  1.00  0.00     0.021 C 
BRANCH   2   3
ATOM      3  C   UNL A   1      36.026  23.203  26.284  1.00  0.00     0.116 C 
BRANCH   3   4
ATOM      4  N   UNL A   1      35.357  22.025  26.803  1.00  0.00    -0.354 N 
ATOM      5  C   UNL A   1      34.351  21.263  26.268  1.00  0.00     0.247 C 
ATOM      6  O   UNL A   1      33.608  20.745  27.113  1.00  0.00    -0.272 OA
ATOM      7  H   UNL A   1      35.678  21.723  27.683  1.00  0.00     0.163 HD
BRANCH   5   8
ATOM      8  C   UNL A   1      34.103  21.090  24.696  1.00  0.00     0.202 C 
BRANCH   8   9
ATOM      9  N   UNL A   1      32.908  21.855  24.286  1.00  0.00    -0.339 N 
ATOM     10  C   UNL A   1      32.631  23.085  23.784  1.00  0.00     0.243 C 
ATOM     11  O   UNL A   1      31.646  23.124  23.029  1.00  0.00    -0.273 OA
ATOM     12  H   UNL A   1      32.087  21.327  24.412  1.00  0.00     0.164 HD
BRANCH  10  13
ATOM     13  C   UNL A   1      33.394  24.391  24.032  1.00  0.00     0.174 C 
BRANCH  13  14
ATOM     14  C   UNL A   1      32.830  25.289  25.181  1.00  0.00     0.015 C 
ATOM     15  C   UNL A   1      32.045  24.584  26.291  1.00  0.00     0.010 C 
ATOM     16  C   UNL A   1      33.917  26.184  25.792  1.00  0.00     0.010 C 
ENDBRANCH  13  14
BRANCH  13  17
ATOM     17  N   UNL A   1      33.714  25.128  22.823  1.00  0.00    -0.339 N 
ATOM     18  C   UNL A   1      33.042  26.132  22.164  1.00  0.00     0.268 C 
ATOM     19  H   UNL A   1      34.562  24.862  22.399  1.00  0.00     0.164 HD
ATOM     20  O   UNL A   1      33.315  26.154  20.958  1.00  0.00    -0.268 OA
BRANCH  18  21
ATOM     21  C   UNL A   1      32.143  27.151  22.725  1.00  0.00     0.107 A 
ATOM     22  C   UNL A   1      30.826  27.282  22.251  1.00  0.00     0.042 A 
ATOM     23  N   UNL A   1      32.322  28.310  23.477  1.00  0.00    -0.340 N 
ATOM     24  C   UNL A   1      30.239  28.478  22.732  1.00  0.00     0.002 A 
ATOM     25  C   UNL A   1      31.118  28.977  23.678  1.00  0.00     0.048 A 
ATOM     26  C   UNL A   1      33.502  29.138  23.588  1.00  0.00     0.150 C 
ATOM     27  C   UNL A   1      29.077  29.215  22.439  1.00  0.00     0.030 A 
ATOM     28  C   UNL A   1      30.844  30.116  24.453  1.00  0.00     0.028 A 
ATOM     29  C   UNL A   1      28.841  30.407  23.136  1.00  0.00     0.041 A 
ATOM     30  C   UNL A   1      29.690  30.836  24.153  1.00  0.00     0.023 A 
ATOM     31  Cl  UNL A   1      27.497  31.395  22.705  1.00  0.00    -0.084 Cl
ENDBRANCH  18  21
ENDBRANCH  13  17
ENDBRANCH  10  13
ENDBRANCH   8   9
BRANCH   8  32
ATOM     32  C   UNL A   1      33.737  19.605  24.331  1.00  0.00    -0.016 A 
ATOM     33  C   UNL A   1      34.648  18.558  24.613  1.00  0.00     0.006 A 
ATOM     34  C   UNL A   1      32.599  19.246  23.592  1.00  0.00     0.006 A 
ATOM     35  C   UNL A   1      34.512  17.275  24.079  1.00  0.00     0.000 A 
ATOM     36  C   UNL A   1      32.462  17.957  23.046  1.00  0.00     0.000 A 
ATOM     37  C   UNL A   1      33.428  16.981  23.270  1.00  0.00     0.000 A 
ENDBRANCH   8  32
ENDBRANCH   5   8
ENDBRANCH   3   4
ENDBRANCH   2   3
ENDBRANCH   1   2
BRANCH   1  38
ATOM     38  C   UNL A   1      39.162  23.405  27.302  1.00  0.00     0.002 C 
BRANCH  38  39
ATOM     39  C   UNL A   1      40.382  22.478  27.400  1.00  0.00     0.021 C 
BRANCH  39  40
ATOM     40  C   UNL A   1      40.739  21.678  26.147  1.00  0.00     0.116 C 
BRANCH  40  41
ATOM     41  N   UNL A   1      41.896  22.155  25.419  1.00  0.00    -0.352 N 
ATOM     42  C   UNL A   1      42.687  23.269  25.484  1.00  0.00     0.251 C 
ATOM     43  H   UNL A   1      42.180  21.531  24.712  1.00  0.00     0.163 HD
ATOM     44  O   UNL A   1      43.711  23.242  24.795  1.00  0.00    -0.269 OA
BRANCH  42  45
ATOM     45  C   UNL A   1      42.359  24.510  26.236  1.00  0.00     0.039 A 
ATOM     46  C   UNL A   1      41.576  25.565  25.768  1.00  0.00     0.014 A 
ATOM     47  C   UNL A   1      42.932  24.614  27.518  1.00  0.00     0.014 A 
ATOM     48  C   UNL A   1      41.475  26.742  26.506  1.00  0.00     0.010 A 
ATOM     49  C   UNL A   1      42.817  25.777  28.270  1.00  0.00     0.010 A 
ATOM     50  C   UNL A   1      42.128  26.860  27.739  1.00  0.00    -0.014 A 
BRANCH  50  51
ATOM     51  C   UNL A   1      41.902  28.069  28.530  1.00  0.00     0.031 A 
ATOM     52  C   UNL A   1      42.899  29.141  28.252  1.00  0.00     0.074 A 
ATOM     53  C   UNL A   1      40.845  28.256  29.348  1.00  0.00     0.049 A 
ATOM     54  N   UNL A   1      43.806  29.600  29.052  1.00  0.00    -0.248 NA
ATOM     55  C   UNL A   1      43.008  29.645  26.873  1.00  0.00     0.031 C 
ATOM     56  C   UNL A   1      39.673  27.389  29.500  1.00  0.00     0.029 A 
ATOM     57  N   UNL A   1      40.533  29.325  30.140  1.00  0.00    -0.354 N 
ATOM     58  C   UNL A   1      44.436  30.625  28.348  1.00  0.00     0.074 A 
ATOM     59  C   UNL A   1      44.044  30.478  26.972  1.00  0.00     0.031 C 
ATOM     60  C   UNL A   1      38.690  28.070  30.133  1.00  0.00     0.029 A 
ATOM     61  C   UNL A   1      39.198  29.364  30.549  1.00  0.00     0.049 A 
ATOM     62  H   UNL A   1      41.193  30.008  30.401  1.00  0.00     0.167 HD
ATOM     63  C   UNL A   1      45.013  31.673  28.994  1.00  0.00     0.034 A 
ATOM     64  C   UNL A   1      38.553  30.411  31.128  1.00  0.00     0.034 A 
ATOM     65  C   UNL A   1      45.226  31.384  30.385  1.00  0.00     0.049 A 
ATOM     66  C   UNL A   1      39.602  31.264  31.728  1.00  0.00     0.074 A 
ATOM     67  C   UNL A   1      45.961  30.462  31.101  1.00  0.00     0.029 A 
ATOM     68  N   UNL A   1      44.294  31.901  31.247  1.00  0.00    -0.354 N 
ATOM     69  N   UNL A   1      40.346  30.901  32.733  1.00  0.00    -0.248 NA
ATOM     70  C   UNL A   1      40.077  32.407  30.968  1.00  0.00     0.031 C 
ATOM     71  C   UNL A   1      45.164  30.164  32.244  1.00  0.00     0.029 A 
ATOM     72  C   UNL A   1      44.018  30.960  32.197  1.00  0.00     0.049 A 
ATOM     73  H   UNL A   1      43.892  32.798  31.191  1.00  0.00     0.167 HD
ATOM     74  C   UNL A   1      41.585  31.455  32.448  1.00  0.00     0.074 A 
ATOM     75  C   UNL A   1      41.325  32.475  31.438  1.00  0.00     0.031 C 
ATOM     76  C   UNL A   1      42.729  30.828  32.841  1.00  0.00     0.034 A 
BRANCH  63  77
ATOM     77  C   UNL A   1      44.994  33.098  28.489  1.00  0.00     0.023 A 
ATOM     78  C   UNL A   1      43.756  33.779  28.495  1.00  0.00     0.012 A 
ATOM     79  C   UNL A   1      46.044  33.686  27.745  1.00  0.00     0.148 A 
ATOM     80  C   UNL A   1      43.565  34.963  27.774  1.00  0.00     0.002 A 
ATOM     81  C   UNL A   1      45.872  34.901  27.092  1.00  0.00     0.091 A 
ATOM     82  F   UNL A   1      47.178  33.010  27.543  1.00  0.00    -0.205 F 
ATOM     83  C   UNL A   1      44.626  35.531  27.081  1.00  0.00     0.022 A 
BRANCH  81  84
ATOM     84  S   UNL A   1      47.213  35.691  26.193  1.00  0.00     0.127 S 
ATOM     85  O   UNL A   1      47.421  34.757  25.095  1.00  0.00    -0.237 OA
ATOM     86  O   UNL A   1      46.609  36.969  25.822  1.00  0.00    -0.237 OA
ATOM     87  O   UNL A   1      48.311  35.806  27.153  1.00  0.00    -0.744 OA
ENDBRANCH  81  84
ENDBRANCH  63  77
BRANCH  64  88
ATOM     88  C   UNL A   1      37.148  30.895  31.021  1.00  0.00     0.023 A 
ATOM     89  C   UNL A   1      36.483  31.338  32.190  1.00  0.00     0.012 A 
ATOM     90  C   UNL A   1      36.568  31.227  29.778  1.00  0.00     0.148 A 
ATOM     91  C   UNL A   1      35.338  32.143  32.123  1.00  0.00     0.002 A 
ATOM     92  C   UNL A   1      35.421  32.018  29.717  1.00  0.00     0.091 A 
ATOM     93  F   UNL A   1      37.188  30.855  28.653  1.00  0.00    -0.205 F 
ATOM     94  C   UNL A   1      34.815  32.496  30.885  1.00  0.00     0.022 A 
BRANCH  92  95
ATOM     95  S   UNL A   1      34.692  32.518  28.149  1.00  0.00     0.127 S 
ATOM     96  O   UNL A   1      33.593  33.379  28.582  1.00  0.00    -0.237 OA
ATOM     97  O   UNL A   1      35.801  33.215  27.507  1.00  0.00    -0.237 OA
ATOM     98  O   UNL A   1      34.261  31.280  27.506  1.00  0.00    -0.744 OA
ENDBRANCH  92  95
ENDBRANCH  64  88
BRANCH  76  99
ATOM     99  C   UNL A   1      42.625  29.731  33.865  1.00  0.00     0.023 A 
ATOM    100  C   UNL A   1      42.137  28.445  33.553  1.00  0.00     0.012 A 
ATOM    101  C   UNL A   1      43.256  29.947  35.101  1.00  0.00     0.148 A 
ATOM    102  C   UNL A   1      42.295  27.391  34.457  1.00  0.00     0.002 A 
ATOM    103  C   UNL A   1      43.452  28.889  35.974  1.00  0.00     0.091 A 
ATOM    104  F   UNL A   1      43.713  31.182  35.365  1.00  0.00    -0.205 F 
ATOM    105  C   UNL A   1      42.969  27.607  35.658  1.00  0.00     0.022 A 
BRANCH 103 106
ATOM    106  S   UNL A   1      44.422  29.069  37.471  1.00  0.00     0.127 S 
ATOM    107  O   UNL A   1      44.156  27.809  38.162  1.00  0.00    -0.237 OA
ATOM    108  O   UNL A   1      45.781  29.202  36.942  1.00  0.00    -0.237 OA
ATOM    109  O   UNL A   1      43.919  30.260  38.144  1.00  0.00    -0.744 OA
ENDBRANCH 103 106
ENDBRANCH  76  99
ENDBRANCH  50  51
ENDBRANCH  42  45
ENDBRANCH  40  41
ENDBRANCH  39  40
ENDBRANCH  38  39
ENDBRANCH   1  38
TORSDOF 22
ENDMDL
