MODEL 1
REMARK VINA RESULT:     -12.7      0.000      0.000
REMARK SMILES Cc1c(CC(=O)NCCCCCCNC(=O)c2ccc(-c3c4nc(c(-c5cccc(S(=O)(=O)[O-])c5F)c5ccc([nH]5)c(-c5cccc(S(=O)(=O)[O-])c5F)c5nc(c(-c6cccc(S(=O)(=O)[O-])c6F)c6ccc3[nH]6)C=C5)C=C4)cc2)c2ccccc2n1C(=O)c1ccc(Cl)cc1
REMARK SMILES IDX 10 1 9 2 8 3 7 4 5 5 6 6 4 8 3 9 1 10 2 11 86 12 80 13 85 14
REMARK SMILES IDX 81 15 84 16 82 17 83 18 87 19 88 20 89 21 90 22 95 23 91 24
REMARK SMILES IDX 94 25 92 26 93 27 11 28 12 29 13 30 14 31 15 32 16 34 17 35
REMARK SMILES IDX 18 36 79 37 19 38 78 39 20 40 21 41 22 42 72 43 23 44 77 45
REMARK SMILES IDX 71 46 73 47 24 48 76 49 70 50 69 51 25 53 57 54 37 55 56 56
REMARK SMILES IDX 38 57 41 58 55 59 74 60 39 61 40 62 54 64 75 65 42 66 26 67
REMARK SMILES IDX 27 68 35 69 28 70 30 71 36 72 29 73 31 74 32 75 33 76 34 77
REMARK SMILES IDX 58 78 59 79 67 80 60 81 62 82 68 83 61 84 63 85 64 86 65 87
REMARK SMILES IDX 66 88 43 89 44 90 52 91 45 92 47 93 53 94 46 95 48 96 49 97
REMARK SMILES IDX 50 98 51 99
REMARK H PARENT 7 7 14 33 73 52 41 63
REMARK Flexibility Score: inf
ROOT
ATOM      1  C   UNL A   1      31.046  29.696  24.623  1.00  0.00     0.002 C 
ENDROOT
BRANCH   1   2
ATOM      2  C   UNL A   1      31.175  28.795  23.389  1.00  0.00     0.021 C 
BRANCH   2   3
ATOM      3  C   UNL A   1      32.542  28.884  22.709  1.00  0.00     0.116 C 
BRANCH   3   4
ATOM      4  N   UNL A   1      32.897  27.625  22.083  1.00  0.00    -0.356 N 
ATOM      5  C   UNL A   1      33.589  26.576  22.616  1.00  0.00     0.224 C 
ATOM      6  O   UNL A   1      33.863  25.618  21.886  1.00  0.00    -0.275 OA
ATOM      7  H   UNL A   1      32.599  27.511  21.152  1.00  0.00     0.163 HD
BRANCH   5   8
ATOM      8  C   UNL A   1      33.955  26.575  24.091  1.00  0.00     0.138 C 
BRANCH   8   9
ATOM      9  C   UNL A   1      33.533  25.334  24.827  1.00  0.00    -0.010 A 
ATOM     10  C   UNL A   1      35.790  24.042  24.923  1.00  0.00     0.065 C 
ATOM     11  C   UNL A   1      34.330  24.250  25.181  1.00  0.00     0.028 A 
ATOM     12  N   UNL A   1      33.532  23.290  25.821  1.00  0.00    -0.280 N 
ATOM     13  C   UNL A   1      32.228  25.079  25.339  1.00  0.00     0.004 A 
ATOM     14  C   UNL A   1      32.260  23.851  26.011  1.00  0.00     0.056 A 
ATOM     15  C   UNL A   1      31.024  25.819  25.308  1.00  0.00     0.010 A 
ATOM     16  C   UNL A   1      31.119  23.409  26.717  1.00  0.00     0.027 A 
ATOM     17  C   UNL A   1      29.883  25.337  25.950  1.00  0.00     0.001 A 
ATOM     18  C   UNL A   1      29.937  24.150  26.658  1.00  0.00     0.002 A 
BRANCH  12  19
ATOM     19  C   UNL A   1      33.965  21.985  26.212  1.00  0.00     0.262 C 
ATOM     20  O   UNL A   1      34.475  21.827  27.310  1.00  0.00    -0.268 OA
BRANCH  19  21
ATOM     21  C   UNL A   1      33.824  20.769  25.388  1.00  0.00     0.040 A 
ATOM     22  C   UNL A   1      32.580  20.381  24.883  1.00  0.00     0.015 A 
ATOM     23  C   UNL A   1      34.968  20.000  25.155  1.00  0.00     0.015 A 
ATOM     24  C   UNL A   1      32.469  19.161  24.209  1.00  0.00     0.021 A 
ATOM     25  C   UNL A   1      34.851  18.785  24.478  1.00  0.00     0.021 A 
ATOM     26  C   UNL A   1      33.601  18.363  24.025  1.00  0.00     0.041 A 
ATOM     27  Cl  UNL A   1      33.450  16.831  23.259  1.00  0.00    -0.084 Cl
ENDBRANCH  19  21
ENDBRANCH  12  19
ENDBRANCH   8   9
ENDBRANCH   5   8
ENDBRANCH   3   4
ENDBRANCH   2   3
ENDBRANCH   1   2
BRANCH   1  28
ATOM     28  C   UNL A   1      31.923  29.287  25.813  1.00  0.00     0.002 C 
BRANCH  28  29
ATOM     29  C   UNL A   1      32.174  30.390  26.849  1.00  0.00     0.021 C 
BRANCH  29  30
ATOM     30  C   UNL A   1      33.651  30.608  27.181  1.00  0.00     0.116 C 
BRANCH  30  31
ATOM     31  N   UNL A   1      33.855  31.538  28.271  1.00  0.00    -0.352 N 
ATOM     32  C   UNL A   1      34.881  31.793  29.140  1.00  0.00     0.251 C 
ATOM     33  H   UNL A   1      33.077  32.121  28.423  1.00  0.00     0.163 HD
ATOM     34  O   UNL A   1      34.673  32.693  29.960  1.00  0.00    -0.269 OA
BRANCH  32  35
ATOM     35  C   UNL A   1      36.179  31.060  29.181  1.00  0.00     0.039 A 
ATOM     36  C   UNL A   1      36.330  29.673  29.139  1.00  0.00     0.014 A 
ATOM     37  C   UNL A   1      37.340  31.852  29.268  1.00  0.00     0.014 A 
ATOM     38  C   UNL A   1      37.590  29.089  29.236  1.00  0.00     0.010 A 
ATOM     39  C   UNL A   1      38.606  31.273  29.342  1.00  0.00     0.010 A 
ATOM     40  C   UNL A   1      38.729  29.886  29.356  1.00  0.00    -0.014 A 
BRANCH  40  41
ATOM     41  C   UNL A   1      40.021  29.207  29.422  1.00  0.00     0.031 A 
ATOM     42  C   UNL A   1      40.619  29.034  30.781  1.00  0.00     0.074 A 
ATOM     43  C   UNL A   1      40.619  28.632  28.362  1.00  0.00     0.049 A 
ATOM     44  N   UNL A   1      41.756  29.471  31.224  1.00  0.00    -0.248 NA
ATOM     45  C   UNL A   1      39.814  28.316  31.778  1.00  0.00     0.031 C 
ATOM     46  C   UNL A   1      40.057  28.404  27.030  1.00  0.00     0.029 A 
ATOM     47  N   UNL A   1      41.825  27.995  28.309  1.00  0.00    -0.354 N 
ATOM     48  C   UNL A   1      41.895  28.927  32.501  1.00  0.00     0.074 A 
ATOM     49  C   UNL A   1      40.629  28.316  32.832  1.00  0.00     0.031 C 
ATOM     50  C   UNL A   1      40.801  27.472  26.395  1.00  0.00     0.029 A 
ATOM     51  C   UNL A   1      41.954  27.149  27.217  1.00  0.00     0.049 A 
ATOM     52  H   UNL A   1      42.535  28.125  28.981  1.00  0.00     0.167 HD
ATOM     53  C   UNL A   1      43.080  28.842  33.162  1.00  0.00     0.034 A 
ATOM     54  C   UNL A   1      42.894  26.189  27.057  1.00  0.00     0.034 A 
ATOM     55  C   UNL A   1      44.122  29.635  32.585  1.00  0.00     0.049 A 
ATOM     56  C   UNL A   1      44.032  26.525  27.942  1.00  0.00     0.074 A 
ATOM     57  C   UNL A   1      44.337  30.980  32.366  1.00  0.00     0.029 A 
ATOM     58  N   UNL A   1      45.071  28.975  31.848  1.00  0.00    -0.354 N 
ATOM     59  N   UNL A   1      44.812  27.558  27.785  1.00  0.00    -0.248 NA
ATOM     60  C   UNL A   1      44.153  25.841  29.220  1.00  0.00     0.031 C 
ATOM     61  C   UNL A   1      45.113  31.044  31.171  1.00  0.00     0.029 A 
ATOM     62  C   UNL A   1      45.313  29.732  30.733  1.00  0.00     0.049 A 
ATOM     63  H   UNL A   1      45.498  28.117  32.076  1.00  0.00     0.167 HD
ATOM     64  C   UNL A   1      45.222  27.892  29.067  1.00  0.00     0.074 A 
ATOM     65  C   UNL A   1      44.913  26.720  29.878  1.00  0.00     0.031 C 
ATOM     66  C   UNL A   1      45.506  29.183  29.407  1.00  0.00     0.034 A 
BRANCH  53  67
ATOM     67  C   UNL A   1      43.374  27.791  34.194  1.00  0.00     0.023 A 
ATOM     68  C   UNL A   1      43.645  28.183  35.520  1.00  0.00     0.012 A 
ATOM     69  C   UNL A   1      43.603  26.441  33.850  1.00  0.00     0.148 A 
ATOM     70  C   UNL A   1      44.095  27.257  36.471  1.00  0.00     0.002 A 
ATOM     71  C   UNL A   1      43.971  25.512  34.815  1.00  0.00     0.091 A 
ATOM     72  F   UNL A   1      43.572  26.079  32.560  1.00  0.00    -0.205 F 
ATOM     73  C   UNL A   1      44.235  25.917  36.125  1.00  0.00     0.022 A 
BRANCH  71  74
ATOM     74  S   UNL A   1      44.074  23.766  34.417  1.00  0.00     0.127 S 
ATOM     75  O   UNL A   1      44.726  23.797  33.112  1.00  0.00    -0.237 OA
ATOM     76  O   UNL A   1      44.899  23.250  35.511  1.00  0.00    -0.237 OA
ATOM     77  O   UNL A   1      42.693  23.299  34.448  1.00  0.00    -0.744 OA
ENDBRANCH  71  74
ENDBRANCH  53  67
BRANCH  54  78
ATOM     78  C   UNL A   1      42.804  24.884  26.356  1.00  0.00     0.023 A 
ATOM     79  C   UNL A   1      43.846  24.503  25.487  1.00  0.00     0.012 A 
ATOM     80  C   UNL A   1      41.858  23.902  26.725  1.00  0.00     0.148 A 
ATOM     81  C   UNL A   1      43.969  23.183  25.037  1.00  0.00     0.002 A 
ATOM     82  C   UNL A   1      41.970  22.595  26.255  1.00  0.00     0.091 A 
ATOM     83  F   UNL A   1      40.904  24.210  27.613  1.00  0.00    -0.205 F 
ATOM     84  C   UNL A   1      43.035  22.228  25.424  1.00  0.00     0.022 A 
BRANCH  82  85
ATOM     85  S   UNL A   1      40.777  21.329  26.710  1.00  0.00     0.127 S 
ATOM     86  O   UNL A   1      39.545  21.822  26.090  1.00  0.00    -0.237 OA
ATOM     87  O   UNL A   1      41.341  20.137  26.083  1.00  0.00    -0.237 OA
ATOM     88  O   UNL A   1      40.748  21.336  28.167  1.00  0.00    -0.744 OA
ENDBRANCH  82  85
ENDBRANCH  54  78
BRANCH  66  89
ATOM     89  C   UNL A   1      45.688  30.186  28.297  1.00  0.00     0.023 A 
ATOM     90  C   UNL A   1      44.579  30.784  27.661  1.00  0.00     0.012 A 
ATOM     91  C   UNL A   1      46.976  30.678  28.026  1.00  0.00     0.148 A 
ATOM     92  C   UNL A   1      44.753  31.836  26.761  1.00  0.00     0.002 A 
ATOM     93  C   UNL A   1      47.141  31.753  27.158  1.00  0.00     0.091 A 
ATOM     94  F   UNL A   1      48.017  30.112  28.657  1.00  0.00    -0.205 F 
ATOM     95  C   UNL A   1      46.032  32.329  26.518  1.00  0.00     0.022 A 
BRANCH  93  96
ATOM     96  S   UNL A   1      48.738  32.528  26.888  1.00  0.00     0.127 S 
ATOM     97  O   UNL A   1      49.566  31.393  26.483  1.00  0.00    -0.237 OA
ATOM     98  O   UNL A   1      48.442  33.482  25.818  1.00  0.00    -0.237 OA
ATOM     99  O   UNL A   1      49.110  33.147  28.155  1.00  0.00    -0.744 OA
ENDBRANCH  93  96
ENDBRANCH  66  89
ENDBRANCH  40  41
ENDBRANCH  32  35
ENDBRANCH  30  31
ENDBRANCH  29  30
ENDBRANCH  28  29
ENDBRANCH   1  28
TORSDOF 19
ENDMDL
MODEL 2
REMARK VINA RESULT:     -11.8      1.680      2.339
REMARK SMILES Cc1c(CC(=O)NCCCCCCNC(=O)c2ccc(-c3c4nc(c(-c5cccc(S(=O)(=O)[O-])c5F)c5ccc([nH]5)c(-c5cccc(S(=O)(=O)[O-])c5F)c5nc(c(-c6cccc(S(=O)(=O)[O-])c6F)c6ccc3[nH]6)C=C5)C=C4)cc2)c2ccccc2n1C(=O)c1ccc(Cl)cc1
REMARK SMILES IDX 10 1 9 2 8 3 7 4 5 5 6 6 4 8 3 9 1 10 2 11 86 12 80 13 85 14
REMARK SMILES IDX 81 15 84 16 82 17 83 18 87 19 88 20 89 21 90 22 95 23 91 24
REMARK SMILES IDX 94 25 92 26 93 27 11 28 12 29 13 30 14 31 15 32 16 34 17 35
REMARK SMILES IDX 18 36 79 37 19 38 78 39 20 40 21 41 22 42 72 43 23 44 77 45
REMARK SMILES IDX 71 46 73 47 24 48 76 49 70 50 69 51 25 53 57 54 37 55 56 56
REMARK SMILES IDX 38 57 41 58 55 59 74 60 39 61 40 62 54 64 75 65 42 66 26 67
REMARK SMILES IDX 27 68 35 69 28 70 30 71 36 72 29 73 31 74 32 75 33 76 34 77
REMARK SMILES IDX 58 78 59 79 67 80 60 81 62 82 68 83 61 84 63 85 64 86 65 87
REMARK SMILES IDX 66 88 43 89 44 90 52 91 45 92 47 93 53 94 46 95 48 96 49 97
REMARK SMILES IDX 50 98 51 99
REMARK H PARENT 7 7 14 33 73 52 41 63
REMARK Flexibility Score: inf
ROOT
ATOM      1  C   UNL A   1      31.285  28.821  24.189  1.00  0.00     0.002 C 
ENDROOT
BRANCH   1   2
ATOM      2  C   UNL A   1      30.675  27.495  24.659  1.00  0.00     0.021 C 
BRANCH   2   3
ATOM      3  C   UNL A   1      31.045  27.131  26.098  1.00  0.00     0.116 C 
BRANCH   3   4
ATOM      4  N   UNL A   1      30.390  25.904  26.510  1.00  0.00    -0.356 N 
ATOM      5  C   UNL A   1      30.954  24.696  26.801  1.00  0.00     0.224 C 
ATOM      6  O   UNL A   1      30.211  23.743  27.055  1.00  0.00    -0.275 OA
ATOM      7  H   UNL A   1      29.410  25.948  26.592  1.00  0.00     0.163 HD
BRANCH   5   8
ATOM      8  C   UNL A   1      32.467  24.557  26.867  1.00  0.00     0.138 C 
BRANCH   8   9
ATOM      9  C   UNL A   1      33.034  23.562  25.892  1.00  0.00    -0.010 A 
ATOM     10  C   UNL A   1      33.792  21.676  27.518  1.00  0.00     0.065 C 
ATOM     11  C   UNL A   1      33.600  22.326  26.182  1.00  0.00     0.028 A 
ATOM     12  N   UNL A   1      34.038  21.736  24.987  1.00  0.00    -0.280 N 
ATOM     13  C   UNL A   1      33.039  23.703  24.475  1.00  0.00     0.004 A 
ATOM     14  C   UNL A   1      33.593  22.541  23.927  1.00  0.00     0.056 A 
ATOM     15  C   UNL A   1      32.582  24.724  23.610  1.00  0.00     0.010 A 
ATOM     16  C   UNL A   1      33.613  22.366  22.525  1.00  0.00     0.027 A 
ATOM     17  C   UNL A   1      32.672  24.571  22.227  1.00  0.00     0.001 A 
ATOM     18  C   UNL A   1      33.171  23.397  21.692  1.00  0.00     0.002 A 
BRANCH  12  19
ATOM     19  C   UNL A   1      34.789  20.523  24.892  1.00  0.00     0.262 C 
ATOM     20  O   UNL A   1      36.007  20.576  24.838  1.00  0.00    -0.268 OA
BRANCH  19  21
ATOM     21  C   UNL A   1      34.203  19.169  24.875  1.00  0.00     0.040 A 
ATOM     22  C   UNL A   1      32.880  18.951  25.271  1.00  0.00     0.015 A 
ATOM     23  C   UNL A   1      35.022  18.106  24.482  1.00  0.00     0.015 A 
ATOM     24  C   UNL A   1      32.402  17.640  25.354  1.00  0.00     0.021 A 
ATOM     25  C   UNL A   1      34.537  16.800  24.564  1.00  0.00     0.021 A 
ATOM     26  C   UNL A   1      33.237  16.572  25.017  1.00  0.00     0.041 A 
ATOM     27  Cl  UNL A   1      32.670  14.957  25.188  1.00  0.00    -0.084 Cl
ENDBRANCH  19  21
ENDBRANCH  12  19
ENDBRANCH   8   9
ENDBRANCH   5   8
ENDBRANCH   3   4
ENDBRANCH   2   3
ENDBRANCH   1   2
BRANCH   1  28
ATOM     28  C   UNL A   1      32.569  29.235  24.918  1.00  0.00     0.002 C 
BRANCH  28  29
ATOM     29  C   UNL A   1      32.369  30.195  26.098  1.00  0.00     0.021 C 
BRANCH  29  30
ATOM     30  C   UNL A   1      33.395  30.025  27.220  1.00  0.00     0.116 C 
BRANCH  30  31
ATOM     31  N   UNL A   1      33.675  31.258  27.924  1.00  0.00    -0.352 N 
ATOM     32  C   UNL A   1      34.761  31.766  28.581  1.00  0.00     0.251 C 
ATOM     33  H   UNL A   1      32.906  31.873  27.932  1.00  0.00     0.163 HD
ATOM     34  O   UNL A   1      34.610  32.890  29.071  1.00  0.00    -0.269 OA
BRANCH  32  35
ATOM     35  C   UNL A   1      36.064  31.064  28.765  1.00  0.00     0.039 A 
ATOM     36  C   UNL A   1      36.296  29.707  28.533  1.00  0.00     0.014 A 
ATOM     37  C   UNL A   1      37.140  31.855  29.211  1.00  0.00     0.014 A 
ATOM     38  C   UNL A   1      37.542  29.142  28.788  1.00  0.00     0.010 A 
ATOM     39  C   UNL A   1      38.397  31.298  29.446  1.00  0.00     0.010 A 
ATOM     40  C   UNL A   1      38.590  29.932  29.262  1.00  0.00    -0.014 A 
BRANCH  40  41
ATOM     41  C   UNL A   1      39.879  29.278  29.478  1.00  0.00     0.031 A 
ATOM     42  C   UNL A   1      40.407  29.282  30.876  1.00  0.00     0.074 A 
ATOM     43  C   UNL A   1      40.532  28.579  28.530  1.00  0.00     0.049 A 
ATOM     44  N   UNL A   1      41.519  29.782  31.317  1.00  0.00    -0.248 NA
ATOM     45  C   UNL A   1      39.555  28.687  31.914  1.00  0.00     0.031 C 
ATOM     46  C   UNL A   1      40.039  28.181  27.211  1.00  0.00     0.029 A 
ATOM     47  N   UNL A   1      41.741  27.953  28.619  1.00  0.00    -0.354 N 
ATOM     48  C   UNL A   1      41.593  29.404  32.658  1.00  0.00     0.074 A 
ATOM     49  C   UNL A   1      40.314  28.828  32.999  1.00  0.00     0.031 C 
ATOM     50  C   UNL A   1      40.817  27.184  26.737  1.00  0.00     0.029 A 
ATOM     51  C   UNL A   1      41.928  26.977  27.649  1.00  0.00     0.049 A 
ATOM     52  H   UNL A   1      42.415  28.172  29.303  1.00  0.00     0.167 HD
ATOM     53  C   UNL A   1      42.744  29.413  33.383  1.00  0.00     0.034 A 
ATOM     54  C   UNL A   1      42.877  26.013  27.658  1.00  0.00     0.034 A 
ATOM     55  C   UNL A   1      43.812  30.137  32.764  1.00  0.00     0.049 A 
ATOM     56  C   UNL A   1      43.968  26.469  28.551  1.00  0.00     0.074 A 
ATOM     57  C   UNL A   1      44.034  31.446  32.389  1.00  0.00     0.029 A 
ATOM     58  N   UNL A   1      44.799  29.398  32.165  1.00  0.00    -0.354 N 
ATOM     59  N   UNL A   1      44.752  27.480  28.304  1.00  0.00    -0.248 NA
ATOM     60  C   UNL A   1      44.025  25.951  29.909  1.00  0.00     0.031 C 
ATOM     61  C   UNL A   1      44.870  31.367  31.235  1.00  0.00     0.029 A 
ATOM     62  C   UNL A   1      45.095  30.012  30.977  1.00  0.00     0.049 A 
ATOM     63  H   UNL A   1      45.216  28.580  32.520  1.00  0.00     0.167 HD
ATOM     64  C   UNL A   1      45.094  27.976  29.554  1.00  0.00     0.074 A 
ATOM     65  C   UNL A   1      44.748  26.913  30.488  1.00  0.00     0.031 C 
ATOM     66  C   UNL A   1      45.358  29.303  29.742  1.00  0.00     0.034 A 
BRANCH  53  67
ATOM     67  C   UNL A   1      42.987  28.503  34.553  1.00  0.00     0.023 A 
ATOM     68  C   UNL A   1      43.326  29.060  35.803  1.00  0.00     0.012 A 
ATOM     69  C   UNL A   1      43.104  27.104  34.406  1.00  0.00     0.148 A 
ATOM     70  C   UNL A   1      43.731  28.249  36.870  1.00  0.00     0.002 A 
ATOM     71  C   UNL A   1      43.430  26.298  35.490  1.00  0.00     0.091 A 
ATOM     72  F   UNL A   1      43.010  26.563  33.184  1.00  0.00    -0.205 F 
ATOM     73  C   UNL A   1      43.760  26.866  36.722  1.00  0.00     0.022 A 
BRANCH  71  74
ATOM     74  S   UNL A   1      43.390  24.510  35.351  1.00  0.00     0.127 S 
ATOM     75  O   UNL A   1      41.956  24.242  35.385  1.00  0.00    -0.237 OA
ATOM     76  O   UNL A   1      44.033  24.288  34.055  1.00  0.00    -0.237 OA
ATOM     77  O   UNL A   1      44.171  24.035  36.487  1.00  0.00    -0.744 OA
ENDBRANCH  71  74
ENDBRANCH  53  67
BRANCH  54  78
ATOM     78  C   UNL A   1      42.827  24.630  27.124  1.00  0.00     0.023 A 
ATOM     79  C   UNL A   1      41.602  23.932  27.150  1.00  0.00     0.012 A 
ATOM     80  C   UNL A   1      43.882  24.086  26.358  1.00  0.00     0.148 A 
ATOM     81  C   UNL A   1      41.419  22.762  26.404  1.00  0.00     0.002 A 
ATOM     82  C   UNL A   1      43.702  22.907  25.637  1.00  0.00     0.091 A 
ATOM     83  F   UNL A   1      45.030  24.766  26.246  1.00  0.00    -0.205 F 
ATOM     84  C   UNL A   1      42.466  22.252  25.644  1.00  0.00     0.022 A 
BRANCH  82  85
ATOM     85  S   UNL A   1      45.030  22.196  24.655  1.00  0.00     0.127 S 
ATOM     86  O   UNL A   1      45.267  23.234  23.649  1.00  0.00    -0.237 OA
ATOM     87  O   UNL A   1      46.095  22.049  25.642  1.00  0.00    -0.237 OA
ATOM     88  O   UNL A   1      44.484  20.960  24.109  1.00  0.00    -0.744 OA
ENDBRANCH  82  85
ENDBRANCH  54  78
BRANCH  66  89
ATOM     89  C   UNL A   1      45.593  30.159  28.525  1.00  0.00     0.023 A 
ATOM     90  C   UNL A   1      44.516  30.659  27.762  1.00  0.00     0.012 A 
ATOM     91  C   UNL A   1      46.891  30.629  28.262  1.00  0.00     0.148 A 
ATOM     92  C   UNL A   1      44.732  31.592  26.746  1.00  0.00     0.002 A 
ATOM     93  C   UNL A   1      47.097  31.588  27.275  1.00  0.00     0.091 A 
ATOM     94  F   UNL A   1      47.900  30.160  29.012  1.00  0.00    -0.205 F 
ATOM     95  C   UNL A   1      46.020  32.065  26.510  1.00  0.00     0.022 A 
BRANCH  93  96
ATOM     96  S   UNL A   1      48.702  32.343  26.993  1.00  0.00     0.127 S 
ATOM     97  O   UNL A   1      49.533  31.184  26.671  1.00  0.00    -0.237 OA
ATOM     98  O   UNL A   1      48.431  33.233  25.863  1.00  0.00    -0.237 OA
ATOM     99  O   UNL A   1      49.050  33.033  28.229  1.00  0.00    -0.744 OA
ENDBRANCH  93  96
ENDBRANCH  66  89
ENDBRANCH  40  41
ENDBRANCH  32  35
ENDBRANCH  30  31
ENDBRANCH  29  30
ENDBRANCH  28  29
ENDBRANCH   1  28
TORSDOF 19
ENDMDL
MODEL 3
REMARK VINA RESULT:     -11.8      1.228      2.082
REMARK SMILES Cc1c(CC(=O)NCCCCCCNC(=O)c2ccc(-c3c4nc(c(-c5cccc(S(=O)(=O)[O-])c5F)c5ccc([nH]5)c(-c5cccc(S(=O)(=O)[O-])c5F)c5nc(c(-c6cccc(S(=O)(=O)[O-])c6F)c6ccc3[nH]6)C=C5)C=C4)cc2)c2ccccc2n1C(=O)c1ccc(Cl)cc1
REMARK SMILES IDX 10 1 9 2 8 3 7 4 5 5 6 6 4 8 3 9 1 10 2 11 86 12 80 13 85 14
REMARK SMILES IDX 81 15 84 16 82 17 83 18 87 19 88 20 89 21 90 22 95 23 91 24
REMARK SMILES IDX 94 25 92 26 93 27 11 28 12 29 13 30 14 31 15 32 16 34 17 35
REMARK SMILES IDX 18 36 79 37 19 38 78 39 20 40 21 41 22 42 72 43 23 44 77 45
REMARK SMILES IDX 71 46 73 47 24 48 76 49 70 50 69 51 25 53 57 54 37 55 56 56
REMARK SMILES IDX 38 57 41 58 55 59 74 60 39 61 40 62 54 64 75 65 42 66 26 67
REMARK SMILES IDX 27 68 35 69 28 70 30 71 36 72 29 73 31 74 32 75 33 76 34 77
REMARK SMILES IDX 58 78 59 79 67 80 60 81 62 82 68 83 61 84 63 85 64 86 65 87
REMARK SMILES IDX 66 88 43 89 44 90 52 91 45 92 47 93 53 94 46 95 48 96 49 97
REMARK SMILES IDX 50 98 51 99
REMARK H PARENT 7 7 14 33 73 52 41 63
REMARK Flexibility Score: inf
ROOT
ATOM      1  C   UNL A   1      34.000  28.522  26.764  1.00  0.00     0.002 C 
ENDROOT
BRANCH   1   2
ATOM      2  C   UNL A   1      33.208  28.722  25.466  1.00  0.00     0.021 C 
BRANCH   2   3
ATOM      3  C   UNL A   1      31.693  28.659  25.661  1.00  0.00     0.116 C 
BRANCH   3   4
ATOM      4  N   UNL A   1      30.995  28.995  24.435  1.00  0.00    -0.356 N 
ATOM      5  C   UNL A   1      30.209  28.195  23.658  1.00  0.00     0.224 C 
ATOM      6  O   UNL A   1      29.767  28.651  22.598  1.00  0.00    -0.275 OA
ATOM      7  H   UNL A   1      31.101  29.923  24.122  1.00  0.00     0.163 HD
BRANCH   5   8
ATOM      8  C   UNL A   1      29.844  26.796  24.129  1.00  0.00     0.138 C 
BRANCH   8   9
ATOM      9  C   UNL A   1      30.948  25.789  23.972  1.00  0.00    -0.010 A 
ATOM     10  C   UNL A   1      31.021  24.779  26.370  1.00  0.00     0.065 C 
ATOM     11  C   UNL A   1      31.447  24.925  24.942  1.00  0.00     0.028 A 
ATOM     12  N   UNL A   1      32.500  24.181  24.389  1.00  0.00    -0.280 N 
ATOM     13  C   UNL A   1      31.649  25.510  22.764  1.00  0.00     0.004 A 
ATOM     14  C   UNL A   1      32.550  24.470  23.016  1.00  0.00     0.056 A 
ATOM     15  C   UNL A   1      31.563  26.048  21.459  1.00  0.00     0.010 A 
ATOM     16  C   UNL A   1      33.297  23.915  21.953  1.00  0.00     0.027 A 
ATOM     17  C   UNL A   1      32.357  25.539  20.431  1.00  0.00     0.001 A 
ATOM     18  C   UNL A   1      33.205  24.475  20.676  1.00  0.00     0.002 A 
BRANCH  12  19
ATOM     19  C   UNL A   1      33.346  23.285  25.112  1.00  0.00     0.262 C 
ATOM     20  O   UNL A   1      34.009  23.709  26.045  1.00  0.00    -0.268 OA
BRANCH  19  21
ATOM     21  C   UNL A   1      33.476  21.842  24.836  1.00  0.00     0.040 A 
ATOM     22  C   UNL A   1      32.373  21.082  24.435  1.00  0.00     0.015 A 
ATOM     23  C   UNL A   1      34.730  21.250  25.018  1.00  0.00     0.015 A 
ATOM     24  C   UNL A   1      32.512  19.698  24.300  1.00  0.00     0.021 A 
ATOM     25  C   UNL A   1      34.863  19.868  24.878  1.00  0.00     0.021 A 
ATOM     26  C   UNL A   1      33.751  19.097  24.538  1.00  0.00     0.041 A 
ATOM     27  Cl  UNL A   1      33.903  17.387  24.440  1.00  0.00    -0.084 Cl
ENDBRANCH  19  21
ENDBRANCH  12  19
ENDBRANCH   8   9
ENDBRANCH   5   8
ENDBRANCH   3   4
ENDBRANCH   2   3
ENDBRANCH   1   2
BRANCH   1  28
ATOM     28  C   UNL A   1      34.678  29.786  27.307  1.00  0.00     0.002 C 
BRANCH  28  29
ATOM     29  C   UNL A   1      33.756  31.001  27.473  1.00  0.00     0.021 C 
BRANCH  29  30
ATOM     30  C   UNL A   1      34.463  32.251  27.999  1.00  0.00     0.116 C 
BRANCH  30  31
ATOM     31  N   UNL A   1      34.389  32.380  29.439  1.00  0.00    -0.352 N 
ATOM     32  C   UNL A   1      35.177  31.979  30.483  1.00  0.00     0.251 C 
ATOM     33  H   UNL A   1      33.586  32.868  29.735  1.00  0.00     0.163 HD
ATOM     34  O   UNL A   1      34.766  32.284  31.607  1.00  0.00    -0.269 OA
BRANCH  32  35
ATOM     35  C   UNL A   1      36.441  31.199  30.359  1.00  0.00     0.039 A 
ATOM     36  C   UNL A   1      36.555  29.813  30.486  1.00  0.00     0.014 A 
ATOM     37  C   UNL A   1      37.607  31.939  30.091  1.00  0.00     0.014 A 
ATOM     38  C   UNL A   1      37.797  29.189  30.403  1.00  0.00     0.010 A 
ATOM     39  C   UNL A   1      38.851  31.317  29.985  1.00  0.00     0.010 A 
ATOM     40  C   UNL A   1      38.950  29.941  30.170  1.00  0.00    -0.014 A 
BRANCH  40  41
ATOM     41  C   UNL A   1      40.214  29.217  30.066  1.00  0.00     0.031 A 
ATOM     42  C   UNL A   1      40.940  28.945  31.343  1.00  0.00     0.074 A 
ATOM     43  C   UNL A   1      40.679  28.686  28.919  1.00  0.00     0.049 A 
ATOM     44  N   UNL A   1      42.132  29.317  31.690  1.00  0.00    -0.248 NA
ATOM     45  C   UNL A   1      40.213  28.196  32.377  1.00  0.00     0.031 C 
ATOM     46  C   UNL A   1      39.976  28.555  27.642  1.00  0.00     0.029 A 
ATOM     47  N   UNL A   1      41.848  28.014  28.707  1.00  0.00    -0.354 N 
ATOM     48  C   UNL A   1      42.378  28.695  32.914  1.00  0.00     0.074 A 
ATOM     49  C   UNL A   1      41.130  28.107  33.340  1.00  0.00     0.031 C 
ATOM     50  C   UNL A   1      40.616  27.638  26.883  1.00  0.00     0.029 A 
ATOM     51  C   UNL A   1      41.833  27.230  27.562  1.00  0.00     0.049 A 
ATOM     52  H   UNL A   1      42.627  28.081  29.308  1.00  0.00     0.167 HD
ATOM     53  C   UNL A   1      43.620  28.532  33.443  1.00  0.00     0.034 A 
ATOM     54  C   UNL A   1      42.714  26.251  27.253  1.00  0.00     0.034 A 
ATOM     55  C   UNL A   1      44.628  29.323  32.806  1.00  0.00     0.049 A 
ATOM     56  C   UNL A   1      43.948  26.497  28.033  1.00  0.00     0.074 A 
ATOM     57  C   UNL A   1      44.872  30.671  32.641  1.00  0.00     0.029 A 
ATOM     58  N   UNL A   1      45.471  28.677  31.940  1.00  0.00    -0.354 N 
ATOM     59  N   UNL A   1      44.747  27.511  27.853  1.00  0.00    -0.248 NA
ATOM     60  C   UNL A   1      44.171  25.735  29.252  1.00  0.00     0.031 C 
ATOM     61  C   UNL A   1      45.524  30.780  31.377  1.00  0.00     0.029 A 
ATOM     62  C   UNL A   1      45.628  29.490  30.850  1.00  0.00     0.049 A 
ATOM     63  H   UNL A   1      45.886  27.794  32.075  1.00  0.00     0.167 HD
ATOM     64  C   UNL A   1      45.298  27.755  29.103  1.00  0.00     0.074 A 
ATOM     65  C   UNL A   1      45.027  26.549  29.875  1.00  0.00     0.031 C 
ATOM     66  C   UNL A   1      45.665  29.014  29.482  1.00  0.00     0.034 A 
BRANCH  53  67
ATOM     67  C   UNL A   1      43.976  27.414  34.380  1.00  0.00     0.023 A 
ATOM     68  C   UNL A   1      44.537  27.717  35.637  1.00  0.00     0.012 A 
ATOM     69  C   UNL A   1      43.974  26.062  33.973  1.00  0.00     0.148 A 
ATOM     70  C   UNL A   1      45.045  26.708  36.466  1.00  0.00     0.002 A 
ATOM     71  C   UNL A   1      44.404  25.058  34.831  1.00  0.00     0.091 A 
ATOM     72  F   UNL A   1      43.658  25.759  32.707  1.00  0.00    -0.205 F 
ATOM     73  C   UNL A   1      44.956  25.376  36.074  1.00  0.00     0.022 A 
BRANCH  71  74
ATOM     74  S   UNL A   1      44.222  23.329  34.389  1.00  0.00     0.127 S 
ATOM     75  O   UNL A   1      44.768  22.663  35.568  1.00  0.00    -0.237 OA
ATOM     76  O   UNL A   1      42.773  23.205  34.221  1.00  0.00    -0.237 OA
ATOM     77  O   UNL A   1      44.976  23.184  33.149  1.00  0.00    -0.744 OA
ENDBRANCH  71  74
ENDBRANCH  53  67
BRANCH  54  78
ATOM     78  C   UNL A   1      42.503  24.993  26.495  1.00  0.00     0.023 A 
ATOM     79  C   UNL A   1      43.442  24.625  25.509  1.00  0.00     0.012 A 
ATOM     80  C   UNL A   1      41.555  24.026  26.899  1.00  0.00     0.148 A 
ATOM     81  C   UNL A   1      43.466  23.329  24.979  1.00  0.00     0.002 A 
ATOM     82  C   UNL A   1      41.567  22.745  26.350  1.00  0.00     0.091 A 
ATOM     83  F   UNL A   1      40.703  24.317  27.890  1.00  0.00    -0.205 F 
ATOM     84  C   UNL A   1      42.533  22.389  25.402  1.00  0.00     0.022 A 
BRANCH  82  85
ATOM     85  S   UNL A   1      40.370  21.500  26.848  1.00  0.00     0.127 S 
ATOM     86  O   UNL A   1      40.719  21.274  28.252  1.00  0.00    -0.237 OA
ATOM     87  O   UNL A   1      39.102  22.192  26.638  1.00  0.00    -0.237 OA
ATOM     88  O   UNL A   1      40.627  20.354  25.985  1.00  0.00    -0.744 OA
ENDBRANCH  82  85
ENDBRANCH  54  78
BRANCH  66  89
ATOM     89  C   UNL A   1      45.771  30.074  28.416  1.00  0.00     0.023 A 
ATOM     90  C   UNL A   1      44.623  30.710  27.898  1.00  0.00     0.012 A 
ATOM     91  C   UNL A   1      47.040  30.574  28.076  1.00  0.00     0.148 A 
ATOM     92  C   UNL A   1      44.738  31.808  27.044  1.00  0.00     0.002 A 
ATOM     93  C   UNL A   1      47.149  31.693  27.257  1.00  0.00     0.091 A 
ATOM     94  F   UNL A   1      48.120  29.971  28.596  1.00  0.00    -0.205 F 
ATOM     95  C   UNL A   1      46.000  32.307  26.733  1.00  0.00     0.022 A 
BRANCH  93  96
ATOM     96  S   UNL A   1      48.728  32.475  26.909  1.00  0.00     0.127 S 
ATOM     97  O   UNL A   1      48.379  33.409  25.840  1.00  0.00    -0.237 OA
ATOM     98  O   UNL A   1      49.050  33.105  28.190  1.00  0.00    -0.237 OA
ATOM     99  O   UNL A   1      49.637  31.402  26.525  1.00  0.00    -0.744 OA
ENDBRANCH  93  96
ENDBRANCH  66  89
ENDBRANCH  40  41
ENDBRANCH  32  35
ENDBRANCH  30  31
ENDBRANCH  29  30
ENDBRANCH  28  29
ENDBRANCH   1  28
TORSDOF 19
ENDMDL
