MODEL 1
REMARK VINA RESULT:     -11.8      0.000      0.000
REMARK SMILES O=C(NCCCCCCNC(=O)c1cnccc1C(=O)Nc1ccc(Cl)c(Cl)c1)c1ccc(-c2c3nc(c(-c4cccc(S(=O)(=O)[O-])c4F)c4ccc([nH]4)c(-c4cccc(S(=O)(=O)[O-])c4F)c4nc(c(-c5cccc(S(=O)(=O)[O-])c5F)c5ccc2[nH]5)C=C4)C=C3)cc1
REMARK SMILES IDX 6 1 5 2 4 3 3 4 1 5 2 6 30 8 31 9 92 10 32 11 91 12 33 13
REMARK SMILES IDX 34 14 35 15 85 16 36 17 90 18 84 19 86 20 37 21 89 22 83 23
REMARK SMILES IDX 82 24 38 26 70 27 50 28 69 29 51 30 54 31 68 32 87 33 52 34
REMARK SMILES IDX 53 35 67 37 88 38 55 39 39 40 40 41 48 42 41 43 43 44 49 45
REMARK SMILES IDX 42 46 44 47 45 48 46 49 47 50 71 51 72 52 80 53 73 54 75 55
REMARK SMILES IDX 81 56 74 57 76 58 77 59 78 60 79 61 56 62 57 63 65 64 58 65
REMARK SMILES IDX 60 66 66 67 59 68 61 69 62 70 63 71 64 72 7 73 8 74 9 75
REMARK SMILES IDX 10 76 11 77 12 79 13 80 14 81 18 82 15 83 17 84 16 85 19 86
REMARK SMILES IDX 20 87 21 88 22 90 23 91 29 92 24 93 27 94 25 95 28 96 26 97
REMARK H PARENT 3 7 86 25 54 36 10 78 21 89
REMARK Flexibility Score: inf
ROOT
ATOM      1  C   UNL A   1      36.264  21.544  24.818  1.00  0.00     0.002 C 
ENDROOT
BRANCH   1   2
ATOM      2  C   UNL A   1      37.578  20.776  24.690  1.00  0.00     0.021 C 
BRANCH   2   3
ATOM      3  C   UNL A   1      38.626  21.097  25.745  1.00  0.00     0.116 C 
BRANCH   3   4
ATOM      4  N   UNL A   1      39.596  20.037  25.938  1.00  0.00    -0.352 N 
ATOM      5  O   UNL A   1      41.634  19.178  26.384  1.00  0.00    -0.269 OA
ATOM      6  C   UNL A   1      40.906  20.154  26.352  1.00  0.00     0.251 C 
ATOM      7  H   UNL A   1      39.282  19.123  25.751  1.00  0.00     0.163 HD
BRANCH   6   8
ATOM      8  C   UNL A   1      41.417  21.499  26.710  1.00  0.00     0.039 A 
ATOM      9  C   UNL A   1      41.468  21.909  28.046  1.00  0.00     0.014 A 
ATOM     10  C   UNL A   1      41.804  22.365  25.687  1.00  0.00     0.014 A 
ATOM     11  C   UNL A   1      41.784  23.228  28.350  1.00  0.00     0.010 A 
ATOM     12  C   UNL A   1      42.193  23.669  26.002  1.00  0.00     0.010 A 
ATOM     13  C   UNL A   1      42.158  24.119  27.331  1.00  0.00    -0.014 A 
BRANCH  13  14
ATOM     14  C   UNL A   1      42.596  25.493  27.676  1.00  0.00     0.031 A 
ATOM     15  C   UNL A   1      41.653  26.482  28.297  1.00  0.00     0.074 A 
ATOM     16  C   UNL A   1      43.858  25.856  27.375  1.00  0.00     0.049 A 
ATOM     17  N   UNL A   1      41.868  27.730  28.618  1.00  0.00    -0.248 NA
ATOM     18  C   UNL A   1      40.287  26.014  28.587  1.00  0.00     0.031 C 
ATOM     19  C   UNL A   1      44.843  24.992  26.719  1.00  0.00     0.029 A 
ATOM     20  N   UNL A   1      44.520  27.042  27.553  1.00  0.00    -0.354 N 
ATOM     21  C   UNL A   1      40.660  28.215  29.105  1.00  0.00     0.074 A 
ATOM     22  C   UNL A   1      39.712  27.123  29.038  1.00  0.00     0.031 C 
ATOM     23  C   UNL A   1      45.979  25.677  26.542  1.00  0.00     0.029 A 
ATOM     24  C   UNL A   1      45.791  27.040  27.029  1.00  0.00     0.049 A 
ATOM     25  H   UNL A   1      44.125  27.819  28.009  1.00  0.00     0.167 HD
ATOM     26  C   UNL A   1      40.374  29.453  29.576  1.00  0.00     0.034 A 
ATOM     27  C   UNL A   1      46.699  28.029  26.922  1.00  0.00     0.034 A 
ATOM     28  C   UNL A   1      41.336  30.519  29.677  1.00  0.00     0.049 A 
ATOM     29  C   UNL A   1      46.369  29.378  27.486  1.00  0.00     0.074 A 
ATOM     30  C   UNL A   1      41.169  31.778  30.228  1.00  0.00     0.029 A 
ATOM     31  N   UNL A   1      42.639  30.457  29.209  1.00  0.00    -0.354 N 
ATOM     32  N   UNL A   1      45.270  29.772  28.083  1.00  0.00    -0.248 NA
ATOM     33  C   UNL A   1      47.410  30.411  27.393  1.00  0.00     0.031 C 
ATOM     34  C   UNL A   1      42.369  32.481  30.078  1.00  0.00     0.029 A 
ATOM     35  C   UNL A   1      43.286  31.658  29.445  1.00  0.00     0.049 A 
ATOM     36  H   UNL A   1      43.046  29.674  28.772  1.00  0.00     0.167 HD
ATOM     37  C   UNL A   1      45.489  31.094  28.451  1.00  0.00     0.074 A 
ATOM     38  C   UNL A   1      46.838  31.424  28.033  1.00  0.00     0.031 C 
ATOM     39  C   UNL A   1      44.643  31.958  29.062  1.00  0.00     0.034 A 
BRANCH  26  40
ATOM     40  C   UNL A   1      38.972  29.711  30.063  1.00  0.00     0.023 A 
ATOM     41  C   UNL A   1      38.625  29.373  31.387  1.00  0.00     0.012 A 
ATOM     42  C   UNL A   1      38.019  30.340  29.238  1.00  0.00     0.148 A 
ATOM     43  C   UNL A   1      37.344  29.631  31.873  1.00  0.00     0.002 A 
ATOM     44  C   UNL A   1      36.752  30.624  29.742  1.00  0.00     0.091 A 
ATOM     45  F   UNL A   1      38.354  30.630  27.973  1.00  0.00    -0.205 F 
ATOM     46  C   UNL A   1      36.412  30.264  31.055  1.00  0.00     0.022 A 
BRANCH  44  47
ATOM     47  S   UNL A   1      35.518  31.499  28.774  1.00  0.00     0.127 S 
ATOM     48  O   UNL A   1      34.997  30.432  27.922  1.00  0.00    -0.237 OA
ATOM     49  O   UNL A   1      34.585  31.968  29.799  1.00  0.00    -0.237 OA
ATOM     50  O   UNL A   1      36.241  32.564  28.091  1.00  0.00    -0.744 OA
ENDBRANCH  44  47
ENDBRANCH  26  40
BRANCH  27  51
ATOM     51  C   UNL A   1      48.011  27.735  26.286  1.00  0.00     0.023 A 
ATOM     52  C   UNL A   1      49.085  27.297  27.082  1.00  0.00     0.012 A 
ATOM     53  C   UNL A   1      48.163  27.777  24.885  1.00  0.00     0.148 A 
ATOM     54  C   UNL A   1      50.290  26.911  26.495  1.00  0.00     0.002 A 
ATOM     55  C   UNL A   1      49.344  27.335  24.304  1.00  0.00     0.091 A 
ATOM     56  F   UNL A   1      47.130  28.211  24.148  1.00  0.00    -0.205 F 
ATOM     57  C   UNL A   1      50.414  26.914  25.108  1.00  0.00     0.022 A 
BRANCH  55  58
ATOM     58  S   UNL A   1      49.525  27.154  22.525  1.00  0.00     0.127 S 
ATOM     59  O   UNL A   1      48.548  26.109  22.230  1.00  0.00    -0.237 OA
ATOM     60  O   UNL A   1      49.165  28.489  22.045  1.00  0.00    -0.237 OA
ATOM     61  O   UNL A   1      50.921  26.800  22.310  1.00  0.00    -0.744 OA
ENDBRANCH  55  58
ENDBRANCH  27  51
BRANCH  39  62
ATOM     62  C   UNL A   1      45.146  33.351  29.323  1.00  0.00     0.023 A 
ATOM     63  C   UNL A   1      45.819  33.629  30.529  1.00  0.00     0.012 A 
ATOM     64  C   UNL A   1      45.025  34.359  28.348  1.00  0.00     0.148 A 
ATOM     65  C   UNL A   1      46.350  34.895  30.768  1.00  0.00     0.002 A 
ATOM     66  C   UNL A   1      45.592  35.607  28.576  1.00  0.00     0.091 A 
ATOM     67  F   UNL A   1      44.361  34.079  27.217  1.00  0.00    -0.205 F 
ATOM     68  C   UNL A   1      46.247  35.879  29.787  1.00  0.00     0.022 A 
BRANCH  66  69
ATOM     69  S   UNL A   1      45.582  36.908  27.336  1.00  0.00     0.127 S 
ATOM     70  O   UNL A   1      46.296  36.272  26.230  1.00  0.00    -0.237 OA
ATOM     71  O   UNL A   1      44.152  37.108  27.104  1.00  0.00    -0.237 OA
ATOM     72  O   UNL A   1      46.258  38.045  27.946  1.00  0.00    -0.744 OA
ENDBRANCH  66  69
ENDBRANCH  39  62
ENDBRANCH  13  14
ENDBRANCH   6   8
ENDBRANCH   3   4
ENDBRANCH   2   3
ENDBRANCH   1   2
BRANCH   1  73
ATOM     73  C   UNL A   1      36.116  22.773  23.918  1.00  0.00     0.002 C 
BRANCH  73  74
ATOM     74  C   UNL A   1      34.735  22.967  23.272  1.00  0.00     0.021 C 
BRANCH  74  75
ATOM     75  C   UNL A   1      34.113  24.342  23.504  1.00  0.00     0.116 C 
BRANCH  75  76
ATOM     76  N   UNL A   1      33.388  24.788  22.331  1.00  0.00    -0.352 N 
ATOM     77  C   UNL A   1      32.550  25.849  22.167  1.00  0.00     0.253 C 
ATOM     78  H   UNL A   1      33.522  24.237  21.526  1.00  0.00     0.163 HD
ATOM     79  O   UNL A   1      31.878  25.928  21.139  1.00  0.00    -0.269 OA
BRANCH  77  80
ATOM     80  C   UNL A   1      32.364  26.876  23.199  1.00  0.00     0.070 A 
ATOM     81  C   UNL A   1      33.419  27.784  23.290  1.00  0.00     0.125 A 
ATOM     82  C   UNL A   1      31.314  27.010  24.110  1.00  0.00     0.056 A 
ATOM     83  N   UNL A   1      33.467  28.828  24.151  1.00  0.00    -0.264 NA
ATOM     84  C   UNL A   1      31.339  28.108  24.992  1.00  0.00     0.035 A 
ATOM     85  C   UNL A   1      32.413  28.979  24.970  1.00  0.00     0.112 A 
BRANCH  82  86
ATOM     86  C   UNL A   1      30.082  26.189  24.197  1.00  0.00     0.256 C 
ATOM     87  O   UNL A   1      29.058  26.669  23.701  1.00  0.00    -0.269 OA
ATOM     88  N   UNL A   1      29.993  24.916  24.698  1.00  0.00    -0.322 N 
ATOM     89  H   UNL A   1      29.138  24.474  24.491  1.00  0.00     0.170 HD
BRANCH  88  90
ATOM     90  C   UNL A   1      30.863  24.116  25.442  1.00  0.00     0.043 A 
ATOM     91  C   UNL A   1      31.568  24.562  26.556  1.00  0.00     0.028 A 
ATOM     92  C   UNL A   1      31.039  22.803  24.991  1.00  0.00     0.048 A 
ATOM     93  C   UNL A   1      32.530  23.731  27.144  1.00  0.00     0.024 A 
ATOM     94  C   UNL A   1      32.026  21.989  25.550  1.00  0.00     0.061 A 
ATOM     95  C   UNL A   1      32.785  22.459  26.622  1.00  0.00     0.059 A 
ATOM     96  Cl  UNL A   1      32.285  20.441  24.827  1.00  0.00    -0.083 Cl
ATOM     97  Cl  UNL A   1      34.049  21.526  27.338  1.00  0.00    -0.083 Cl
ENDBRANCH  88  90
ENDBRANCH  82  86
ENDBRANCH  77  80
ENDBRANCH  75  76
ENDBRANCH  74  75
ENDBRANCH  73  74
ENDBRANCH   1  73
TORSDOF 18
ENDMDL
MODEL 2
REMARK VINA RESULT:     -11.7      1.488      2.148
REMARK SMILES O=C(NCCCCCCNC(=O)c1cnccc1C(=O)Nc1ccc(Cl)c(Cl)c1)c1ccc(-c2c3nc(c(-c4cccc(S(=O)(=O)[O-])c4F)c4ccc([nH]4)c(-c4cccc(S(=O)(=O)[O-])c4F)c4nc(c(-c5cccc(S(=O)(=O)[O-])c5F)c5ccc2[nH]5)C=C4)C=C3)cc1
REMARK SMILES IDX 6 1 5 2 4 3 3 4 1 5 2 6 30 8 31 9 92 10 32 11 91 12 33 13
REMARK SMILES IDX 34 14 35 15 85 16 36 17 90 18 84 19 86 20 37 21 89 22 83 23
REMARK SMILES IDX 82 24 38 26 70 27 50 28 69 29 51 30 54 31 68 32 87 33 52 34
REMARK SMILES IDX 53 35 67 37 88 38 55 39 39 40 40 41 48 42 41 43 43 44 49 45
REMARK SMILES IDX 42 46 44 47 45 48 46 49 47 50 71 51 72 52 80 53 73 54 75 55
REMARK SMILES IDX 81 56 74 57 76 58 77 59 78 60 79 61 56 62 57 63 65 64 58 65
REMARK SMILES IDX 60 66 66 67 59 68 61 69 62 70 63 71 64 72 7 73 8 74 9 75
REMARK SMILES IDX 10 76 11 77 12 79 13 80 14 81 18 82 15 83 17 84 16 85 19 86
REMARK SMILES IDX 20 87 21 88 22 90 23 91 29 92 24 93 27 94 25 95 28 96 26 97
REMARK H PARENT 3 7 86 25 54 36 10 78 21 89
REMARK Flexibility Score: inf
ROOT
ATOM      1  C   UNL A   1      36.670  20.434  24.959  1.00  0.00     0.002 C 
ENDROOT
BRANCH   1   2
ATOM      2  C   UNL A   1      37.952  19.603  24.962  1.00  0.00     0.021 C 
BRANCH   2   3
ATOM      3  C   UNL A   1      39.051  20.105  25.886  1.00  0.00     0.116 C 
BRANCH   3   4
ATOM      4  N   UNL A   1      40.200  19.222  25.950  1.00  0.00    -0.352 N 
ATOM      5  O   UNL A   1      42.388  18.715  26.162  1.00  0.00    -0.269 OA
ATOM      6  C   UNL A   1      41.508  19.555  26.229  1.00  0.00     0.251 C 
ATOM      7  H   UNL A   1      40.024  18.269  25.774  1.00  0.00     0.163 HD
BRANCH   6   8
ATOM      8  C   UNL A   1      41.823  20.963  26.567  1.00  0.00     0.039 A 
ATOM      9  C   UNL A   1      41.680  21.974  25.612  1.00  0.00     0.014 A 
ATOM     10  C   UNL A   1      42.307  21.257  27.843  1.00  0.00     0.014 A 
ATOM     11  C   UNL A   1      42.141  23.256  25.891  1.00  0.00     0.010 A 
ATOM     12  C   UNL A   1      42.700  22.562  28.145  1.00  0.00     0.010 A 
ATOM     13  C   UNL A   1      42.649  23.564  27.164  1.00  0.00    -0.014 A 
BRANCH  13  14
ATOM     14  C   UNL A   1      43.038  24.958  27.485  1.00  0.00     0.031 A 
ATOM     15  C   UNL A   1      42.064  25.920  28.101  1.00  0.00     0.074 A 
ATOM     16  C   UNL A   1      44.283  25.364  27.166  1.00  0.00     0.049 A 
ATOM     17  N   UNL A   1      42.235  27.180  28.402  1.00  0.00    -0.248 NA
ATOM     18  C   UNL A   1      40.720  25.406  28.411  1.00  0.00     0.031 C 
ATOM     19  C   UNL A   1      45.293  24.528  26.512  1.00  0.00     0.029 A 
ATOM     20  N   UNL A   1      44.901  26.577  27.319  1.00  0.00    -0.354 N 
ATOM     21  C   UNL A   1      41.014  27.627  28.893  1.00  0.00     0.074 A 
ATOM     22  C   UNL A   1      40.107  26.499  28.851  1.00  0.00     0.031 C 
ATOM     23  C   UNL A   1      46.401  25.253  26.314  1.00  0.00     0.029 A 
ATOM     24  C   UNL A   1      46.166  26.615  26.783  1.00  0.00     0.049 A 
ATOM     25  H   UNL A   1      44.482  27.345  27.769  1.00  0.00     0.167 HD
ATOM     26  C   UNL A   1      40.686  28.859  29.350  1.00  0.00     0.034 A 
ATOM     27  C   UNL A   1      47.035  27.635  26.653  1.00  0.00     0.034 A 
ATOM     28  C   UNL A   1      41.608  29.962  29.426  1.00  0.00     0.049 A 
ATOM     29  C   UNL A   1      46.660  28.980  27.201  1.00  0.00     0.074 A 
ATOM     30  C   UNL A   1      41.399  31.222  29.960  1.00  0.00     0.029 A 
ATOM     31  N   UNL A   1      42.908  29.943  28.945  1.00  0.00    -0.354 N 
ATOM     32  N   UNL A   1      45.553  29.340  27.803  1.00  0.00    -0.248 NA
ATOM     33  C   UNL A   1      47.660  30.049  27.083  1.00  0.00     0.031 C 
ATOM     34  C   UNL A   1      42.571  31.968  29.788  1.00  0.00     0.029 A 
ATOM     35  C   UNL A   1      43.512  31.171  29.157  1.00  0.00     0.049 A 
ATOM     36  H   UNL A   1      43.340  29.169  28.516  1.00  0.00     0.167 HD
ATOM     37  C   UNL A   1      45.725  30.675  28.150  1.00  0.00     0.074 A 
ATOM     38  C   UNL A   1      47.056  31.049  27.713  1.00  0.00     0.031 C 
ATOM     39  C   UNL A   1      44.852  31.515  28.757  1.00  0.00     0.034 A 
BRANCH  26  40
ATOM     40  C   UNL A   1      39.280  29.072  29.847  1.00  0.00     0.023 A 
ATOM     41  C   UNL A   1      38.942  28.679  31.158  1.00  0.00     0.012 A 
ATOM     42  C   UNL A   1      38.313  29.711  29.047  1.00  0.00     0.148 A 
ATOM     43  C   UNL A   1      37.657  28.893  31.655  1.00  0.00     0.002 A 
ATOM     44  C   UNL A   1      37.043  29.952  29.561  1.00  0.00     0.091 A 
ATOM     45  F   UNL A   1      38.641  30.055  27.793  1.00  0.00    -0.205 F 
ATOM     46  C   UNL A   1      36.711  29.538  30.861  1.00  0.00     0.022 A 
BRANCH  44  47
ATOM     47  S   UNL A   1      35.789  30.838  28.627  1.00  0.00     0.127 S 
ATOM     48  O   UNL A   1      35.227  29.772  27.801  1.00  0.00    -0.237 OA
ATOM     49  O   UNL A   1      34.897  31.327  29.679  1.00  0.00    -0.237 OA
ATOM     50  O   UNL A   1      36.504  31.887  27.913  1.00  0.00    -0.744 OA
ENDBRANCH  44  47
ENDBRANCH  26  40
BRANCH  27  51
ATOM     51  C   UNL A   1      48.351  27.382  26.008  1.00  0.00     0.023 A 
ATOM     52  C   UNL A   1      49.394  26.814  26.761  1.00  0.00     0.012 A 
ATOM     53  C   UNL A   1      48.534  27.593  24.626  1.00  0.00     0.148 A 
ATOM     54  C   UNL A   1      50.600  26.466  26.152  1.00  0.00     0.002 A 
ATOM     55  C   UNL A   1      49.714  27.190  24.015  1.00  0.00     0.091 A 
ATOM     56  F   UNL A   1      47.530  28.149  23.931  1.00  0.00    -0.205 F 
ATOM     57  C   UNL A   1      50.753  26.638  24.778  1.00  0.00     0.022 A 
BRANCH  55  58
ATOM     58  S   UNL A   1      49.927  27.227  22.231  1.00  0.00     0.127 S 
ATOM     59  O   UNL A   1      51.283  26.704  22.081  1.00  0.00    -0.237 OA
ATOM     60  O   UNL A   1      48.865  26.326  21.779  1.00  0.00    -0.237 OA
ATOM     61  O   UNL A   1      49.734  28.617  21.844  1.00  0.00    -0.744 OA
ENDBRANCH  55  58
ENDBRANCH  27  51
BRANCH  39  62
ATOM     62  C   UNL A   1      45.305  32.930  28.993  1.00  0.00     0.023 A 
ATOM     63  C   UNL A   1      46.012  33.243  30.171  1.00  0.00     0.012 A 
ATOM     64  C   UNL A   1      45.104  33.927  28.019  1.00  0.00     0.148 A 
ATOM     65  C   UNL A   1      46.497  34.532  30.384  1.00  0.00     0.002 A 
ATOM     66  C   UNL A   1      45.625  35.199  28.220  1.00  0.00     0.091 A 
ATOM     67  F   UNL A   1      44.409  33.612  26.916  1.00  0.00    -0.205 F 
ATOM     68  C   UNL A   1      46.314  35.506  29.404  1.00  0.00     0.022 A 
BRANCH  66  69
ATOM     69  S   UNL A   1      45.512  36.491  26.977  1.00  0.00     0.127 S 
ATOM     70  O   UNL A   1      46.175  35.866  25.834  1.00  0.00    -0.237 OA
ATOM     71  O   UNL A   1      44.066  36.655  26.827  1.00  0.00    -0.237 OA
ATOM     72  O   UNL A   1      46.193  37.649  27.541  1.00  0.00    -0.744 OA
ENDBRANCH  66  69
ENDBRANCH  39  62
ENDBRANCH  13  14
ENDBRANCH   6   8
ENDBRANCH   3   4
ENDBRANCH   2   3
ENDBRANCH   1   2
BRANCH   1  73
ATOM     73  C   UNL A   1      36.855  21.949  24.849  1.00  0.00     0.002 C 
BRANCH  73  74
ATOM     74  C   UNL A   1      36.534  22.566  23.479  1.00  0.00     0.021 C 
BRANCH  74  75
ATOM     75  C   UNL A   1      35.245  23.384  23.436  1.00  0.00     0.116 C 
BRANCH  75  76
ATOM     76  N   UNL A   1      35.210  24.354  24.512  1.00  0.00    -0.352 N 
ATOM     77  C   UNL A   1      34.177  25.105  24.984  1.00  0.00     0.253 C 
ATOM     78  H   UNL A   1      36.069  24.491  24.975  1.00  0.00     0.163 HD
ATOM     79  O   UNL A   1      34.413  26.018  25.775  1.00  0.00    -0.269 OA
BRANCH  77  80
ATOM     80  C   UNL A   1      32.792  24.913  24.538  1.00  0.00     0.070 A 
ATOM     81  C   UNL A   1      32.468  25.617  23.379  1.00  0.00     0.125 A 
ATOM     82  C   UNL A   1      31.778  24.175  25.152  1.00  0.00     0.056 A 
ATOM     83  N   UNL A   1      31.260  25.582  22.767  1.00  0.00    -0.264 NA
ATOM     84  C   UNL A   1      30.526  24.108  24.511  1.00  0.00     0.035 A 
ATOM     85  C   UNL A   1      30.320  24.810  23.337  1.00  0.00     0.112 A 
BRANCH  82  86
ATOM     86  C   UNL A   1      31.882  23.332  26.369  1.00  0.00     0.256 C 
ATOM     87  O   UNL A   1      31.748  23.905  27.455  1.00  0.00    -0.269 OA
ATOM     88  N   UNL A   1      32.027  21.969  26.397  1.00  0.00    -0.322 N 
ATOM     89  H   UNL A   1      31.882  21.580  27.289  1.00  0.00     0.170 HD
BRANCH  88  90
ATOM     90  C   UNL A   1      32.338  21.018  25.423  1.00  0.00     0.043 A 
ATOM     91  C   UNL A   1      32.266  21.256  24.054  1.00  0.00     0.028 A 
ATOM     92  C   UNL A   1      32.707  19.751  25.888  1.00  0.00     0.048 A 
ATOM     93  C   UNL A   1      32.451  20.196  23.157  1.00  0.00     0.024 A 
ATOM     94  C   UNL A   1      32.851  18.685  24.997  1.00  0.00     0.061 A 
ATOM     95  C   UNL A   1      32.709  18.904  23.627  1.00  0.00     0.059 A 
ATOM     96  Cl  UNL A   1      33.147  17.120  25.669  1.00  0.00    -0.083 Cl
ATOM     97  Cl  UNL A   1      32.833  17.629  22.469  1.00  0.00    -0.083 Cl
ENDBRANCH  88  90
ENDBRANCH  82  86
ENDBRANCH  77  80
ENDBRANCH  75  76
ENDBRANCH  74  75
ENDBRANCH  73  74
ENDBRANCH   1  73
TORSDOF 18
ENDMDL
MODEL 3
REMARK VINA RESULT:     -11.7      1.972      2.932
REMARK SMILES O=C(NCCCCCCNC(=O)c1cnccc1C(=O)Nc1ccc(Cl)c(Cl)c1)c1ccc(-c2c3nc(c(-c4cccc(S(=O)(=O)[O-])c4F)c4ccc([nH]4)c(-c4cccc(S(=O)(=O)[O-])c4F)c4nc(c(-c5cccc(S(=O)(=O)[O-])c5F)c5ccc2[nH]5)C=C4)C=C3)cc1
REMARK SMILES IDX 6 1 5 2 4 3 3 4 1 5 2 6 30 8 31 9 92 10 32 11 91 12 33 13
REMARK SMILES IDX 34 14 35 15 85 16 36 17 90 18 84 19 86 20 37 21 89 22 83 23
REMARK SMILES IDX 82 24 38 26 70 27 50 28 69 29 51 30 54 31 68 32 87 33 52 34
REMARK SMILES IDX 53 35 67 37 88 38 55 39 39 40 40 41 48 42 41 43 43 44 49 45
REMARK SMILES IDX 42 46 44 47 45 48 46 49 47 50 71 51 72 52 80 53 73 54 75 55
REMARK SMILES IDX 81 56 74 57 76 58 77 59 78 60 79 61 56 62 57 63 65 64 58 65
REMARK SMILES IDX 60 66 66 67 59 68 61 69 62 70 63 71 64 72 7 73 8 74 9 75
REMARK SMILES IDX 10 76 11 77 12 79 13 80 14 81 18 82 15 83 17 84 16 85 19 86
REMARK SMILES IDX 20 87 21 88 22 90 23 91 29 92 24 93 27 94 25 95 28 96 26 97
REMARK H PARENT 3 7 86 25 54 36 10 78 21 89
REMARK Flexibility Score: inf
ROOT
ATOM      1  C   UNL A   1      37.099  21.247  24.834  1.00  0.00     0.002 C 
ENDROOT
BRANCH   1   2
ATOM      2  C   UNL A   1      38.073  20.079  24.973  1.00  0.00     0.021 C 
BRANCH   2   3
ATOM      3  C   UNL A   1      39.146  20.248  26.037  1.00  0.00     0.116 C 
BRANCH   3   4
ATOM      4  N   UNL A   1      40.222  19.281  25.932  1.00  0.00    -0.352 N 
ATOM      5  O   UNL A   1      42.374  18.608  25.855  1.00  0.00    -0.269 OA
ATOM      6  C   UNL A   1      41.577  19.507  26.056  1.00  0.00     0.251 C 
ATOM      7  H   UNL A   1      39.953  18.352  25.752  1.00  0.00     0.163 HD
BRANCH   6   8
ATOM      8  C   UNL A   1      42.038  20.875  26.392  1.00  0.00     0.039 A 
ATOM      9  C   UNL A   1      42.326  21.225  27.715  1.00  0.00     0.014 A 
ATOM     10  C   UNL A   1      42.136  21.821  25.371  1.00  0.00     0.014 A 
ATOM     11  C   UNL A   1      42.588  22.552  28.035  1.00  0.00     0.010 A 
ATOM     12  C   UNL A   1      42.473  23.139  25.686  1.00  0.00     0.010 A 
ATOM     13  C   UNL A   1      42.673  23.521  27.022  1.00  0.00    -0.014 A 
BRANCH  13  14
ATOM     14  C   UNL A   1      43.059  24.911  27.362  1.00  0.00     0.031 A 
ATOM     15  C   UNL A   1      42.087  25.856  28.008  1.00  0.00     0.074 A 
ATOM     16  C   UNL A   1      44.296  25.330  27.033  1.00  0.00     0.049 A 
ATOM     17  N   UNL A   1      42.255  27.112  28.329  1.00  0.00    -0.248 NA
ATOM     18  C   UNL A   1      40.751  25.328  28.328  1.00  0.00     0.031 C 
ATOM     19  C   UNL A   1      45.302  24.512  26.350  1.00  0.00     0.029 A 
ATOM     20  N   UNL A   1      44.909  26.544  27.199  1.00  0.00    -0.354 N 
ATOM     21  C   UNL A   1      41.039  27.542  28.845  1.00  0.00     0.074 A 
ATOM     22  C   UNL A   1      40.138  26.409  28.797  1.00  0.00     0.031 C 
ATOM     23  C   UNL A   1      46.403  25.248  26.149  1.00  0.00     0.029 A 
ATOM     24  C   UNL A   1      46.166  26.600  26.646  1.00  0.00     0.049 A 
ATOM     25  H   UNL A   1      44.491  27.302  27.667  1.00  0.00     0.167 HD
ATOM     26  C   UNL A   1      40.709  28.765  29.327  1.00  0.00     0.034 A 
ATOM     27  C   UNL A   1      47.026  27.628  26.521  1.00  0.00     0.034 A 
ATOM     28  C   UNL A   1      41.626  29.872  29.410  1.00  0.00     0.049 A 
ATOM     29  C   UNL A   1      46.651  28.960  27.098  1.00  0.00     0.074 A 
ATOM     30  C   UNL A   1      41.417  31.121  29.969  1.00  0.00     0.029 A 
ATOM     31  N   UNL A   1      42.919  29.869  28.911  1.00  0.00    -0.354 N 
ATOM     32  N   UNL A   1      45.551  29.303  27.721  1.00  0.00    -0.248 NA
ATOM     33  C   UNL A   1      47.643  30.037  26.984  1.00  0.00     0.031 C 
ATOM     34  C   UNL A   1      42.581  31.877  29.794  1.00  0.00     0.029 A 
ATOM     35  C   UNL A   1      43.518  31.097  29.136  1.00  0.00     0.049 A 
ATOM     36  H   UNL A   1      43.350  29.105  28.462  1.00  0.00     0.167 HD
ATOM     37  C   UNL A   1      45.720  30.632  28.088  1.00  0.00     0.074 A 
ATOM     38  C   UNL A   1      47.043  31.023  27.640  1.00  0.00     0.031 C 
ATOM     39  C   UNL A   1      44.851  31.457  28.723  1.00  0.00     0.034 A 
BRANCH  26  40
ATOM     40  C   UNL A   1      39.310  28.960  29.848  1.00  0.00     0.023 A 
ATOM     41  C   UNL A   1      39.009  28.603  31.178  1.00  0.00     0.012 A 
ATOM     42  C   UNL A   1      38.311  29.549  29.049  1.00  0.00     0.148 A 
ATOM     43  C   UNL A   1      37.729  28.802  31.696  1.00  0.00     0.002 A 
ATOM     44  C   UNL A   1      37.045  29.776  29.583  1.00  0.00     0.091 A 
ATOM     45  F   UNL A   1      38.603  29.858  27.778  1.00  0.00    -0.205 F 
ATOM     46  C   UNL A   1      36.752  29.397  30.902  1.00  0.00     0.022 A 
BRANCH  44  47
ATOM     47  S   UNL A   1      35.751  30.600  28.648  1.00  0.00     0.127 S 
ATOM     48  O   UNL A   1      34.885  29.479  28.290  1.00  0.00    -0.237 OA
ATOM     49  O   UNL A   1      35.182  31.517  29.635  1.00  0.00    -0.237 OA
ATOM     50  O   UNL A   1      36.430  31.259  27.540  1.00  0.00    -0.744 OA
ENDBRANCH  44  47
ENDBRANCH  26  40
BRANCH  27  51
ATOM     51  C   UNL A   1      48.335  27.394  25.853  1.00  0.00     0.023 A 
ATOM     52  C   UNL A   1      49.399  26.839  26.588  1.00  0.00     0.012 A 
ATOM     53  C   UNL A   1      48.491  27.610  24.469  1.00  0.00     0.148 A 
ATOM     54  C   UNL A   1      50.598  26.509  25.957  1.00  0.00     0.002 A 
ATOM     55  C   UNL A   1      49.666  27.224  23.837  1.00  0.00     0.091 A 
ATOM     56  F   UNL A   1      47.469  28.153  23.792  1.00  0.00    -0.205 F 
ATOM     57  C   UNL A   1      50.726  26.685  24.581  1.00  0.00     0.022 A 
BRANCH  55  58
ATOM     58  S   UNL A   1      49.849  27.267  22.049  1.00  0.00     0.127 S 
ATOM     59  O   UNL A   1      51.220  26.795  21.878  1.00  0.00    -0.237 OA
ATOM     60  O   UNL A   1      48.814  26.327  21.615  1.00  0.00    -0.237 OA
ATOM     61  O   UNL A   1      49.598  28.649  21.666  1.00  0.00    -0.744 OA
ENDBRANCH  55  58
ENDBRANCH  27  51
BRANCH  39  62
ATOM     62  C   UNL A   1      45.298  32.870  28.977  1.00  0.00     0.023 A 
ATOM     63  C   UNL A   1      46.045  33.162  30.135  1.00  0.00     0.012 A 
ATOM     64  C   UNL A   1      45.052  33.888  28.036  1.00  0.00     0.148 A 
ATOM     65  C   UNL A   1      46.525  34.451  30.363  1.00  0.00     0.002 A 
ATOM     66  C   UNL A   1      45.568  35.161  28.249  1.00  0.00     0.091 A 
ATOM     67  F   UNL A   1      44.320  33.593  26.951  1.00  0.00    -0.205 F 
ATOM     68  C   UNL A   1      46.297  35.446  29.414  1.00  0.00     0.022 A 
BRANCH  66  69
ATOM     69  S   UNL A   1      45.397  36.481  27.042  1.00  0.00     0.127 S 
ATOM     70  O   UNL A   1      46.053  37.595  27.724  1.00  0.00    -0.237 OA
ATOM     71  O   UNL A   1      46.131  35.952  25.893  1.00  0.00    -0.237 OA
ATOM     72  O   UNL A   1      43.965  36.636  26.822  1.00  0.00    -0.744 OA
ENDBRANCH  66  69
ENDBRANCH  39  62
ENDBRANCH  13  14
ENDBRANCH   6   8
ENDBRANCH   3   4
ENDBRANCH   2   3
ENDBRANCH   1   2
BRANCH   1  73
ATOM     73  C   UNL A   1      37.727  22.642  24.809  1.00  0.00     0.002 C 
BRANCH  73  74
ATOM     74  C   UNL A   1      37.259  23.608  25.909  1.00  0.00     0.021 C 
BRANCH  74  75
ATOM     75  C   UNL A   1      35.752  23.855  25.939  1.00  0.00     0.116 C 
BRANCH  75  76
ATOM     76  N   UNL A   1      35.088  22.908  26.812  1.00  0.00    -0.352 N 
ATOM     77  C   UNL A   1      33.842  22.362  26.730  1.00  0.00     0.253 C 
ATOM     78  H   UNL A   1      35.621  22.612  27.585  1.00  0.00     0.163 HD
ATOM     79  O   UNL A   1      33.401  21.733  27.690  1.00  0.00    -0.269 OA
BRANCH  77  80
ATOM     80  C   UNL A   1      32.974  22.549  25.562  1.00  0.00     0.070 A 
ATOM     81  C   UNL A   1      33.486  22.007  24.384  1.00  0.00     0.125 A 
ATOM     82  C   UNL A   1      31.760  23.235  25.485  1.00  0.00     0.056 A 
ATOM     83  N   UNL A   1      32.858  22.037  23.184  1.00  0.00    -0.264 NA
ATOM     84  C   UNL A   1      31.084  23.249  24.249  1.00  0.00     0.035 A 
ATOM     85  C   UNL A   1      31.659  22.641  23.148  1.00  0.00     0.112 A 
BRANCH  82  86
ATOM     86  C   UNL A   1      31.009  23.872  26.594  1.00  0.00     0.256 C 
ATOM     87  O   UNL A   1      30.789  23.175  27.589  1.00  0.00    -0.269 OA
ATOM     88  N   UNL A   1      30.613  25.184  26.653  1.00  0.00    -0.322 N 
ATOM     89  H   UNL A   1      30.302  25.458  27.545  1.00  0.00     0.170 HD
BRANCH  88  90
ATOM     90  C   UNL A   1      30.557  26.212  25.708  1.00  0.00     0.043 A 
ATOM     91  C   UNL A   1      29.661  26.242  24.645  1.00  0.00     0.028 A 
ATOM     92  C   UNL A   1      31.497  27.238  25.851  1.00  0.00     0.048 A 
ATOM     93  C   UNL A   1      29.782  27.236  23.666  1.00  0.00     0.024 A 
ATOM     94  C   UNL A   1      31.647  28.205  24.856  1.00  0.00     0.061 A 
ATOM     95  C   UNL A   1      30.795  28.197  23.750  1.00  0.00     0.059 A 
ATOM     96  Cl  UNL A   1      32.939  29.339  25.033  1.00  0.00    -0.083 Cl
ATOM     97  Cl  UNL A   1      30.944  29.335  22.460  1.00  0.00    -0.083 Cl
ENDBRANCH  88  90
ENDBRANCH  82  86
ENDBRANCH  77  80
ENDBRANCH  75  76
ENDBRANCH  74  75
ENDBRANCH  73  74
ENDBRANCH   1  73
TORSDOF 18
ENDMDL
