MODEL 1
REMARK VINA RESULT:     -11.1      0.000      0.000
REMARK SMILES O=C(Cc1ccn(-c2ccccc2F)c1)NCCCCCCNC(=O)c1ccc(-c2c3nc(c(-c4cccc(S(=O)(=O)[O-])c4F)c4ccc([nH]4)c(-c4cccc(S(=O)(=O)[O-])c4F)c4nc(c(-c5cccc(S(=O)(=O)[O-])c5F)c5ccc2[nH]5)C=C4)C=C3)cc1
REMARK SMILES IDX 20 1 19 2 18 3 17 4 16 5 1 6 2 7 3 9 4 10 5 11 15 12 6 13
REMARK SMILES IDX 7 14 8 15 9 16 13 17 10 18 12 19 14 20 11 21 21 22 22 23
REMARK SMILES IDX 23 24 24 25 25 27 26 28 27 29 88 30 28 31 87 32 29 33 30 34
REMARK SMILES IDX 31 35 81 36 32 37 86 38 80 39 82 40 33 41 85 42 79 43 78 44
REMARK SMILES IDX 34 46 66 47 46 48 65 49 47 50 50 51 64 52 83 53 48 54 49 55
REMARK SMILES IDX 63 57 84 58 51 59 35 60 36 61 44 62 37 63 39 64 45 65 38 66
REMARK SMILES IDX 40 67 41 68 42 69 43 70 67 71 68 72 76 73 69 74 71 75 77 76
REMARK SMILES IDX 70 77 72 78 73 79 74 80 75 81 52 82 53 83 61 84 54 85 56 86
REMARK SMILES IDX 62 87 55 88 57 89 58 90 59 91 60 92
REMARK H PARENT 16 8 23 26 82 45 50 56
REMARK Flexibility Score: inf
ROOT
ATOM      1  C   UNL A   1      37.766  33.947  29.507  1.00  0.00     0.002 C 
ENDROOT
BRANCH   1   2
ATOM      2  C   UNL A   1      39.148  33.784  30.151  1.00  0.00     0.002 C 
BRANCH   2   3
ATOM      3  C   UNL A   1      39.679  32.343  30.213  1.00  0.00     0.021 C 
BRANCH   3   4
ATOM      4  C   UNL A   1      40.062  31.866  31.611  1.00  0.00     0.116 C 
BRANCH   4   5
ATOM      5  N   UNL A   1      38.895  31.749  32.458  1.00  0.00    -0.356 N 
ATOM      6  O   UNL A   1      39.725  32.862  34.297  1.00  0.00    -0.275 OA
ATOM      7  C   UNL A   1      38.811  32.269  33.732  1.00  0.00     0.224 C 
ATOM      8  H   UNL A   1      38.112  31.270  32.102  1.00  0.00     0.163 HD
BRANCH   7   9
ATOM      9  C   UNL A   1      37.457  32.035  34.390  1.00  0.00     0.137 C 
BRANCH   9  10
ATOM     10  C   UNL A   1      36.446  33.102  34.078  1.00  0.00    -0.021 A 
ATOM     11  C   UNL A   1      35.909  34.049  34.994  1.00  0.00     0.024 A 
ATOM     12  C   UNL A   1      35.852  33.379  32.860  1.00  0.00     0.095 A 
ATOM     13  C   UNL A   1      35.095  34.909  34.285  1.00  0.00     0.091 A 
ATOM     14  N   UNL A   1      35.039  34.479  32.979  1.00  0.00    -0.321 N 
BRANCH  14  15
ATOM     15  C   UNL A   1      34.363  35.091  31.907  1.00  0.00     0.081 A 
ATOM     16  C   UNL A   1      34.257  34.425  30.682  1.00  0.00     0.030 A 
ATOM     17  C   UNL A   1      33.722  36.317  32.098  1.00  0.00     0.147 A 
ATOM     18  C   UNL A   1      33.466  34.978  29.672  1.00  0.00     0.002 A 
ATOM     19  C   UNL A   1      32.975  36.888  31.074  1.00  0.00     0.041 A 
ATOM     20  F   UNL A   1      33.854  36.996  33.247  1.00  0.00    -0.205 F 
ATOM     21  C   UNL A   1      32.832  36.209  29.865  1.00  0.00     0.003 A 
ENDBRANCH  14  15
ENDBRANCH   9  10
ENDBRANCH   7   9
ENDBRANCH   4   5
ENDBRANCH   3   4
ENDBRANCH   2   3
ENDBRANCH   1   2
BRANCH   1  22
ATOM     22  C   UNL A   1      37.215  32.690  28.820  1.00  0.00     0.021 C 
BRANCH  22  23
ATOM     23  C   UNL A   1      36.358  31.813  29.735  1.00  0.00     0.116 C 
BRANCH  23  24
ATOM     24  N   UNL A   1      35.680  30.778  28.965  1.00  0.00    -0.352 N 
ATOM     25  C   UNL A   1      36.222  29.779  28.206  1.00  0.00     0.251 C 
ATOM     26  H   UNL A   1      34.695  30.801  28.995  1.00  0.00     0.163 HD
ATOM     27  O   UNL A   1      35.540  29.268  27.309  1.00  0.00    -0.269 OA
BRANCH  25  28
ATOM     28  C   UNL A   1      37.588  29.282  28.452  1.00  0.00     0.039 A 
ATOM     29  C   UNL A   1      37.902  28.760  29.717  1.00  0.00     0.014 A 
ATOM     30  C   UNL A   1      38.583  29.435  27.483  1.00  0.00     0.014 A 
ATOM     31  C   UNL A   1      39.201  28.343  29.990  1.00  0.00     0.010 A 
ATOM     32  C   UNL A   1      39.875  29.011  27.750  1.00  0.00     0.010 A 
ATOM     33  C   UNL A   1      40.179  28.450  28.992  1.00  0.00    -0.014 A 
BRANCH  33  34
ATOM     34  C   UNL A   1      41.489  27.788  29.172  1.00  0.00     0.031 A 
ATOM     35  C   UNL A   1      41.397  26.285  28.707  1.00  0.00     0.074 A 
ATOM     36  C   UNL A   1      42.489  28.596  29.665  1.00  0.00     0.049 A 
ATOM     37  N   UNL A   1      42.073  25.233  29.068  1.00  0.00    -0.248 NA
ATOM     38  C   UNL A   1      40.319  25.881  27.750  1.00  0.00     0.031 C 
ATOM     39  C   UNL A   1      42.356  30.047  29.975  1.00  0.00     0.029 A 
ATOM     40  N   UNL A   1      43.815  28.401  29.993  1.00  0.00    -0.354 N 
ATOM     41  C   UNL A   1      41.688  24.146  28.224  1.00  0.00     0.074 A 
ATOM     42  C   UNL A   1      40.517  24.576  27.534  1.00  0.00     0.031 C 
ATOM     43  C   UNL A   1      43.487  30.544  30.532  1.00  0.00     0.029 A 
ATOM     44  C   UNL A   1      44.482  29.494  30.622  1.00  0.00     0.049 A 
ATOM     45  H   UNL A   1      44.277  27.553  29.803  1.00  0.00     0.167 HD
ATOM     46  C   UNL A   1      42.446  23.016  28.050  1.00  0.00     0.034 A 
ATOM     47  C   UNL A   1      45.725  29.512  31.212  1.00  0.00     0.034 A 
ATOM     48  C   UNL A   1      43.631  23.148  28.832  1.00  0.00     0.049 A 
ATOM     49  C   UNL A   1      46.303  28.207  30.867  1.00  0.00     0.074 A 
ATOM     50  C   UNL A   1      43.858  23.055  30.178  1.00  0.00     0.029 A 
ATOM     51  N   UNL A   1      44.660  23.825  28.225  1.00  0.00    -0.354 N 
ATOM     52  N   UNL A   1      46.671  27.857  29.670  1.00  0.00    -0.248 NA
ATOM     53  C   UNL A   1      46.292  27.156  31.889  1.00  0.00     0.031 C 
ATOM     54  C   UNL A   1      44.715  24.149  30.405  1.00  0.00     0.029 A 
ATOM     55  C   UNL A   1      45.207  24.632  29.185  1.00  0.00     0.049 A 
ATOM     56  H   UNL A   1      44.946  23.746  27.286  1.00  0.00     0.167 HD
ATOM     57  C   UNL A   1      46.571  26.492  29.732  1.00  0.00     0.074 A 
ATOM     58  C   UNL A   1      46.665  26.131  31.132  1.00  0.00     0.031 C 
ATOM     59  C   UNL A   1      45.926  25.802  28.755  1.00  0.00     0.034 A 
BRANCH  46  60
ATOM     60  C   UNL A   1      42.446  21.824  27.109  1.00  0.00     0.023 A 
ATOM     61  C   UNL A   1      41.492  20.806  27.422  1.00  0.00     0.012 A 
ATOM     62  C   UNL A   1      43.458  21.485  26.196  1.00  0.00     0.148 A 
ATOM     63  C   UNL A   1      41.611  19.490  26.981  1.00  0.00     0.002 A 
ATOM     64  C   UNL A   1      43.544  20.169  25.711  1.00  0.00     0.091 A 
ATOM     65  F   UNL A   1      44.367  22.406  25.857  1.00  0.00    -0.205 F 
ATOM     66  C   UNL A   1      42.653  19.168  26.137  1.00  0.00     0.022 A 
BRANCH  64  67
ATOM     67  S   UNL A   1      44.788  19.622  24.531  1.00  0.00     0.127 S 
ATOM     68  O   UNL A   1      46.031  19.886  25.258  1.00  0.00    -0.237 OA
ATOM     69  O   UNL A   1      44.462  18.198  24.397  1.00  0.00    -0.237 OA
ATOM     70  O   UNL A   1      44.564  20.401  23.328  1.00  0.00    -0.744 OA
ENDBRANCH  64  67
ENDBRANCH  46  60
BRANCH  47  71
ATOM     71  C   UNL A   1      46.506  30.371  32.200  1.00  0.00     0.023 A 
ATOM     72  C   UNL A   1      47.587  31.196  31.864  1.00  0.00     0.012 A 
ATOM     73  C   UNL A   1      46.049  30.485  33.555  1.00  0.00     0.148 A 
ATOM     74  C   UNL A   1      48.088  32.156  32.775  1.00  0.00     0.002 A 
ATOM     75  C   UNL A   1      46.435  31.527  34.393  1.00  0.00     0.091 A 
ATOM     76  F   UNL A   1      45.246  29.544  34.065  1.00  0.00    -0.205 F 
ATOM     77  C   UNL A   1      47.474  32.365  34.010  1.00  0.00     0.022 A 
BRANCH  75  78
ATOM     78  S   UNL A   1      45.503  31.951  35.882  1.00  0.00     0.127 S 
ATOM     79  O   UNL A   1      46.190  33.152  36.354  1.00  0.00    -0.237 OA
ATOM     80  O   UNL A   1      44.167  32.185  35.332  1.00  0.00    -0.237 OA
ATOM     81  O   UNL A   1      45.597  30.797  36.767  1.00  0.00    -0.744 OA
ENDBRANCH  75  78
ENDBRANCH  47  71
BRANCH  59  82
ATOM     82  C   UNL A   1      45.844  26.469  27.380  1.00  0.00     0.023 A 
ATOM     83  C   UNL A   1      44.591  26.991  27.011  1.00  0.00     0.012 A 
ATOM     84  C   UNL A   1      46.888  26.580  26.425  1.00  0.00     0.148 A 
ATOM     85  C   UNL A   1      44.382  27.606  25.772  1.00  0.00     0.002 A 
ATOM     86  C   UNL A   1      46.678  27.182  25.176  1.00  0.00     0.091 A 
ATOM     87  F   UNL A   1      48.091  26.105  26.732  1.00  0.00    -0.205 F 
ATOM     88  C   UNL A   1      45.423  27.706  24.857  1.00  0.00     0.022 A 
BRANCH  86  89
ATOM     89  S   UNL A   1      47.933  27.291  23.877  1.00  0.00     0.127 S 
ATOM     90  O   UNL A   1      47.259  28.092  22.851  1.00  0.00    -0.237 OA
ATOM     91  O   UNL A   1      49.024  27.987  24.554  1.00  0.00    -0.237 OA
ATOM     92  O   UNL A   1      48.222  25.925  23.464  1.00  0.00    -0.744 OA
ENDBRANCH  86  89
ENDBRANCH  59  82
ENDBRANCH  33  34
ENDBRANCH  25  28
ENDBRANCH  23  24
ENDBRANCH  22  23
ENDBRANCH   1  22
TORSDOF 18
ENDMDL
MODEL 2
REMARK VINA RESULT:     -10.7      4.443     12.025
REMARK SMILES O=C(Cc1ccn(-c2ccccc2F)c1)NCCCCCCNC(=O)c1ccc(-c2c3nc(c(-c4cccc(S(=O)(=O)[O-])c4F)c4ccc([nH]4)c(-c4cccc(S(=O)(=O)[O-])c4F)c4nc(c(-c5cccc(S(=O)(=O)[O-])c5F)c5ccc2[nH]5)C=C4)C=C3)cc1
REMARK SMILES IDX 20 1 19 2 18 3 17 4 16 5 1 6 2 7 3 9 4 10 5 11 15 12 6 13
REMARK SMILES IDX 7 14 8 15 9 16 13 17 10 18 12 19 14 20 11 21 21 22 22 23
REMARK SMILES IDX 23 24 24 25 25 27 26 28 27 29 88 30 28 31 87 32 29 33 30 34
REMARK SMILES IDX 31 35 81 36 32 37 86 38 80 39 82 40 33 41 85 42 79 43 78 44
REMARK SMILES IDX 34 46 66 47 46 48 65 49 47 50 50 51 64 52 83 53 48 54 49 55
REMARK SMILES IDX 63 57 84 58 51 59 35 60 36 61 44 62 37 63 39 64 45 65 38 66
REMARK SMILES IDX 40 67 41 68 42 69 43 70 67 71 68 72 76 73 69 74 71 75 77 76
REMARK SMILES IDX 70 77 72 78 73 79 74 80 75 81 52 82 53 83 61 84 54 85 56 86
REMARK SMILES IDX 62 87 55 88 57 89 58 90 59 91 60 92
REMARK H PARENT 16 8 23 26 82 45 50 56
REMARK Flexibility Score: inf
ROOT
ATOM      1  C   UNL A   1      46.304  22.944  24.480  1.00  0.00     0.002 C 
ENDROOT
BRANCH   1   2
ATOM      2  C   UNL A   1      45.271  21.821  24.327  1.00  0.00     0.002 C 
BRANCH   2   3
ATOM      3  C   UNL A   1      45.794  20.404  24.604  1.00  0.00     0.021 C 
BRANCH   3   4
ATOM      4  C   UNL A   1      44.786  19.289  24.336  1.00  0.00     0.116 C 
BRANCH   4   5
ATOM      5  N   UNL A   1      43.467  19.658  24.805  1.00  0.00    -0.356 N 
ATOM      6  O   UNL A   1      43.176  17.942  26.315  1.00  0.00    -0.275 OA
ATOM      7  C   UNL A   1      42.769  18.963  25.769  1.00  0.00     0.224 C 
ATOM      8  H   UNL A   1      43.043  20.455  24.412  1.00  0.00     0.163 HD
BRANCH   7   9
ATOM      9  C   UNL A   1      41.419  19.587  26.102  1.00  0.00     0.137 C 
BRANCH   9  10
ATOM     10  C   UNL A   1      41.527  20.937  26.754  1.00  0.00    -0.021 A 
ATOM     11  C   UNL A   1      42.304  21.260  27.902  1.00  0.00     0.024 A 
ATOM     12  C   UNL A   1      40.912  22.115  26.373  1.00  0.00     0.095 A 
ATOM     13  C   UNL A   1      42.204  22.621  28.111  1.00  0.00     0.091 A 
ATOM     14  N   UNL A   1      41.327  23.140  27.188  1.00  0.00    -0.321 N 
BRANCH  14  15
ATOM     15  C   UNL A   1      40.972  24.491  27.012  1.00  0.00     0.081 A 
ATOM     16  C   UNL A   1      40.059  25.089  27.886  1.00  0.00     0.030 A 
ATOM     17  C   UNL A   1      41.605  25.253  26.027  1.00  0.00     0.147 A 
ATOM     18  C   UNL A   1      39.822  26.462  27.788  1.00  0.00     0.002 A 
ATOM     19  C   UNL A   1      41.331  26.610  25.903  1.00  0.00     0.041 A 
ATOM     20  F   UNL A   1      42.445  24.688  25.147  1.00  0.00    -0.205 F 
ATOM     21  C   UNL A   1      40.451  27.220  26.796  1.00  0.00     0.003 A 
ENDBRANCH  14  15
ENDBRANCH   9  10
ENDBRANCH   7   9
ENDBRANCH   4   5
ENDBRANCH   3   4
ENDBRANCH   2   3
ENDBRANCH   1   2
BRANCH   1  22
ATOM     22  C   UNL A   1      46.042  23.915  25.639  1.00  0.00     0.021 C 
BRANCH  22  23
ATOM     23  C   UNL A   1      47.257  24.764  26.019  1.00  0.00     0.116 C 
BRANCH  23  24
ATOM     24  N   UNL A   1      47.570  25.715  24.959  1.00  0.00    -0.352 N 
ATOM     25  C   UNL A   1      46.991  26.923  24.692  1.00  0.00     0.251 C 
ATOM     26  H   UNL A   1      48.299  25.449  24.351  1.00  0.00     0.163 HD
ATOM     27  O   UNL A   1      47.076  27.392  23.550  1.00  0.00    -0.269 OA
BRANCH  25  28
ATOM     28  C   UNL A   1      46.293  27.689  25.740  1.00  0.00     0.039 A 
ATOM     29  C   UNL A   1      44.891  27.759  25.709  1.00  0.00     0.014 A 
ATOM     30  C   UNL A   1      47.017  28.429  26.678  1.00  0.00     0.014 A 
ATOM     31  C   UNL A   1      44.216  28.527  26.652  1.00  0.00     0.010 A 
ATOM     32  C   UNL A   1      46.346  29.188  27.625  1.00  0.00     0.010 A 
ATOM     33  C   UNL A   1      44.949  29.221  27.623  1.00  0.00    -0.014 A 
BRANCH  33  34
ATOM     34  C   UNL A   1      44.252  29.832  28.775  1.00  0.00     0.031 A 
ATOM     35  C   UNL A   1      44.173  31.395  28.585  1.00  0.00     0.074 A 
ATOM     36  C   UNL A   1      43.809  28.944  29.729  1.00  0.00     0.049 A 
ATOM     37  N   UNL A   1      44.092  32.362  29.453  1.00  0.00    -0.248 NA
ATOM     38  C   UNL A   1      44.290  31.970  27.207  1.00  0.00     0.031 C 
ATOM     39  C   UNL A   1      43.941  27.461  29.658  1.00  0.00     0.029 A 
ATOM     40  N   UNL A   1      43.148  29.068  30.933  1.00  0.00    -0.354 N 
ATOM     41  C   UNL A   1      43.895  33.584  28.740  1.00  0.00     0.074 A 
ATOM     42  C   UNL A   1      44.162  33.291  27.370  1.00  0.00     0.031 C 
ATOM     43  C   UNL A   1      43.491  26.865  30.789  1.00  0.00     0.029 A 
ATOM     44  C   UNL A   1      42.997  27.877  31.703  1.00  0.00     0.049 A 
ATOM     45  H   UNL A   1      42.799  29.934  31.246  1.00  0.00     0.167 HD
ATOM     46  C   UNL A   1      43.387  34.722  29.313  1.00  0.00     0.034 A 
ATOM     47  C   UNL A   1      42.553  27.745  32.998  1.00  0.00     0.034 A 
ATOM     48  C   UNL A   1      43.106  34.446  30.683  1.00  0.00     0.049 A 
ATOM     49  C   UNL A   1      42.070  29.088  33.348  1.00  0.00     0.074 A 
ATOM     50  C   UNL A   1      43.917  34.294  31.775  1.00  0.00     0.029 A 
ATOM     51  N   UNL A   1      41.877  33.881  30.925  1.00  0.00    -0.354 N 
ATOM     52  N   UNL A   1      41.008  29.643  32.844  1.00  0.00    -0.248 NA
ATOM     53  C   UNL A   1      42.935  29.940  34.170  1.00  0.00     0.031 C 
ATOM     54  C   UNL A   1      43.348  33.173  32.407  1.00  0.00     0.029 A 
ATOM     55  C   UNL A   1      42.080  32.912  31.871  1.00  0.00     0.049 A 
ATOM     56  H   UNL A   1      41.022  34.125  30.503  1.00  0.00     0.167 HD
ATOM     57  C   UNL A   1      41.292  30.976  32.988  1.00  0.00     0.074 A 
ATOM     58  C   UNL A   1      42.267  31.081  34.056  1.00  0.00     0.031 C 
ATOM     59  C   UNL A   1      41.130  31.833  31.947  1.00  0.00     0.034 A 
BRANCH  46  60
ATOM     60  C   UNL A   1      42.867  36.063  28.825  1.00  0.00     0.023 A 
ATOM     61  C   UNL A   1      42.099  36.010  27.620  1.00  0.00     0.012 A 
ATOM     62  C   UNL A   1      43.312  37.329  29.239  1.00  0.00     0.148 A 
ATOM     63  C   UNL A   1      41.907  37.114  26.791  1.00  0.00     0.002 A 
ATOM     64  C   UNL A   1      43.071  38.449  28.426  1.00  0.00     0.091 A 
ATOM     65  F   UNL A   1      44.021  37.434  30.368  1.00  0.00    -0.205 F 
ATOM     66  C   UNL A   1      42.413  38.335  27.189  1.00  0.00     0.022 A 
BRANCH  64  67
ATOM     67  S   UNL A   1      43.583  40.120  28.857  1.00  0.00     0.127 S 
ATOM     68  O   UNL A   1      45.042  39.995  28.873  1.00  0.00    -0.237 OA
ATOM     69  O   UNL A   1      43.059  40.891  27.725  1.00  0.00    -0.237 OA
ATOM     70  O   UNL A   1      42.946  40.416  30.126  1.00  0.00    -0.744 OA
ENDBRANCH  64  67
ENDBRANCH  46  60
BRANCH  47  71
ATOM     71  C   UNL A   1      42.607  26.720  34.124  1.00  0.00     0.023 A 
ATOM     72  C   UNL A   1      41.539  26.408  34.976  1.00  0.00     0.012 A 
ATOM     73  C   UNL A   1      43.766  25.888  34.269  1.00  0.00     0.148 A 
ATOM     74  C   UNL A   1      41.579  25.270  35.816  1.00  0.00     0.002 A 
ATOM     75  C   UNL A   1      43.747  24.688  34.976  1.00  0.00     0.091 A 
ATOM     76  F   UNL A   1      44.933  26.278  33.742  1.00  0.00    -0.205 F 
ATOM     77  C   UNL A   1      42.650  24.377  35.769  1.00  0.00     0.022 A 
BRANCH  75  78
ATOM     78  S   UNL A   1      45.018  23.423  34.745  1.00  0.00     0.127 S 
ATOM     79  O   UNL A   1      46.100  23.903  35.604  1.00  0.00    -0.237 OA
ATOM     80  O   UNL A   1      44.330  22.228  35.235  1.00  0.00    -0.237 OA
ATOM     81  O   UNL A   1      45.322  23.403  33.320  1.00  0.00    -0.744 OA
ENDBRANCH  75  78
ENDBRANCH  47  71
BRANCH  59  82
ATOM     82  C   UNL A   1      40.128  31.423  30.866  1.00  0.00     0.023 A 
ATOM     83  C   UNL A   1      40.576  30.486  29.917  1.00  0.00     0.012 A 
ATOM     84  C   UNL A   1      38.809  31.920  30.698  1.00  0.00     0.148 A 
ATOM     85  C   UNL A   1      39.760  30.047  28.869  1.00  0.00     0.002 A 
ATOM     86  C   UNL A   1      37.994  31.494  29.639  1.00  0.00     0.091 A 
ATOM     87  F   UNL A   1      38.340  32.804  31.573  1.00  0.00    -0.205 F 
ATOM     88  C   UNL A   1      38.471  30.545  28.731  1.00  0.00     0.022 A 
BRANCH  86  89
ATOM     89  S   UNL A   1      36.335  32.135  29.311  1.00  0.00     0.127 S 
ATOM     90  O   UNL A   1      36.578  33.570  29.131  1.00  0.00    -0.237 OA
ATOM     91  O   UNL A   1      35.965  31.435  28.084  1.00  0.00    -0.237 OA
ATOM     92  O   UNL A   1      35.528  31.817  30.481  1.00  0.00    -0.744 OA
ENDBRANCH  86  89
ENDBRANCH  59  82
ENDBRANCH  33  34
ENDBRANCH  25  28
ENDBRANCH  23  24
ENDBRANCH  22  23
ENDBRANCH   1  22
TORSDOF 18
ENDMDL
MODEL 3
REMARK VINA RESULT:     -10.6      4.498     10.427
REMARK SMILES O=C(Cc1ccn(-c2ccccc2F)c1)NCCCCCCNC(=O)c1ccc(-c2c3nc(c(-c4cccc(S(=O)(=O)[O-])c4F)c4ccc([nH]4)c(-c4cccc(S(=O)(=O)[O-])c4F)c4nc(c(-c5cccc(S(=O)(=O)[O-])c5F)c5ccc2[nH]5)C=C4)C=C3)cc1
REMARK SMILES IDX 20 1 19 2 18 3 17 4 16 5 1 6 2 7 3 9 4 10 5 11 15 12 6 13
REMARK SMILES IDX 7 14 8 15 9 16 13 17 10 18 12 19 14 20 11 21 21 22 22 23
REMARK SMILES IDX 23 24 24 25 25 27 26 28 27 29 88 30 28 31 87 32 29 33 30 34
REMARK SMILES IDX 31 35 81 36 32 37 86 38 80 39 82 40 33 41 85 42 79 43 78 44
REMARK SMILES IDX 34 46 66 47 46 48 65 49 47 50 50 51 64 52 83 53 48 54 49 55
REMARK SMILES IDX 63 57 84 58 51 59 35 60 36 61 44 62 37 63 39 64 45 65 38 66
REMARK SMILES IDX 40 67 41 68 42 69 43 70 67 71 68 72 76 73 69 74 71 75 77 76
REMARK SMILES IDX 70 77 72 78 73 79 74 80 75 81 52 82 53 83 61 84 54 85 56 86
REMARK SMILES IDX 62 87 55 88 57 89 58 90 59 91 60 92
REMARK H PARENT 16 8 23 26 82 45 50 56
REMARK Flexibility Score: inf
ROOT
ATOM      1  C   UNL A   1      34.683  32.528  28.333  1.00  0.00     0.002 C 
ENDROOT
BRANCH   1   2
ATOM      2  C   UNL A   1      35.290  31.188  28.764  1.00  0.00     0.002 C 
BRANCH   2   3
ATOM      3  C   UNL A   1      35.577  30.198  27.625  1.00  0.00     0.021 C 
BRANCH   3   4
ATOM      4  C   UNL A   1      34.397  29.310  27.240  1.00  0.00     0.116 C 
BRANCH   4   5
ATOM      5  N   UNL A   1      34.342  29.112  25.808  1.00  0.00    -0.356 N 
ATOM      6  O   UNL A   1      32.087  29.485  25.522  1.00  0.00    -0.275 OA
ATOM      7  C   UNL A   1      33.192  29.228  25.057  1.00  0.00     0.224 C 
ATOM      8  H   UNL A   1      35.177  28.879  25.341  1.00  0.00     0.163 HD
BRANCH   7   9
ATOM      9  C   UNL A   1      33.421  29.002  23.567  1.00  0.00     0.137 C 
BRANCH   9  10
ATOM     10  C   UNL A   1      33.322  27.560  23.157  1.00  0.00    -0.021 A 
ATOM     11  C   UNL A   1      33.141  27.069  21.833  1.00  0.00     0.024 A 
ATOM     12  C   UNL A   1      33.394  26.440  23.965  1.00  0.00     0.095 A 
ATOM     13  C   UNL A   1      33.205  25.691  21.880  1.00  0.00     0.091 A 
ATOM     14  N   UNL A   1      33.332  25.305  23.194  1.00  0.00    -0.321 N 
BRANCH  14  15
ATOM     15  C   UNL A   1      33.479  23.996  23.689  1.00  0.00     0.081 A 
ATOM     16  C   UNL A   1      34.749  23.412  23.742  1.00  0.00     0.030 A 
ATOM     17  C   UNL A   1      32.373  23.322  24.213  1.00  0.00     0.147 A 
ATOM     18  C   UNL A   1      34.901  22.170  24.364  1.00  0.00     0.002 A 
ATOM     19  C   UNL A   1      32.522  22.065  24.788  1.00  0.00     0.041 A 
ATOM     20  F   UNL A   1      31.140  23.843  24.125  1.00  0.00    -0.205 F 
ATOM     21  C   UNL A   1      33.791  21.496  24.880  1.00  0.00     0.003 A 
ENDBRANCH  14  15
ENDBRANCH   9  10
ENDBRANCH   7   9
ENDBRANCH   4   5
ENDBRANCH   3   4
ENDBRANCH   2   3
ENDBRANCH   1   2
BRANCH   1  22
ATOM     22  C   UNL A   1      34.355  33.493  29.481  1.00  0.00     0.021 C 
BRANCH  22  23
ATOM     23  C   UNL A   1      34.861  33.022  30.846  1.00  0.00     0.116 C 
BRANCH  23  24
ATOM     24  N   UNL A   1      35.704  34.040  31.459  1.00  0.00    -0.352 N 
ATOM     25  C   UNL A   1      36.997  33.937  31.892  1.00  0.00     0.251 C 
ATOM     26  H   UNL A   1      35.285  34.924  31.579  1.00  0.00     0.163 HD
ATOM     27  O   UNL A   1      37.411  34.734  32.744  1.00  0.00    -0.269 OA
BRANCH  25  28
ATOM     28  C   UNL A   1      37.912  32.919  31.345  1.00  0.00     0.039 A 
ATOM     29  C   UNL A   1      38.162  32.904  29.964  1.00  0.00     0.014 A 
ATOM     30  C   UNL A   1      38.427  31.915  32.168  1.00  0.00     0.014 A 
ATOM     31  C   UNL A   1      38.973  31.913  29.419  1.00  0.00     0.010 A 
ATOM     32  C   UNL A   1      39.243  30.933  31.629  1.00  0.00     0.010 A 
ATOM     33  C   UNL A   1      39.530  30.943  30.262  1.00  0.00    -0.014 A 
BRANCH  33  34
ATOM     34  C   UNL A   1      40.585  30.041  29.751  1.00  0.00     0.031 A 
ATOM     35  C   UNL A   1      41.948  30.824  29.637  1.00  0.00     0.074 A 
ATOM     36  C   UNL A   1      40.182  28.746  29.514  1.00  0.00     0.049 A 
ATOM     37  N   UNL A   1      42.979  30.642  28.863  1.00  0.00    -0.248 NA
ATOM     38  C   UNL A   1      42.153  32.058  30.459  1.00  0.00     0.031 C 
ATOM     39  C   UNL A   1      38.819  28.203  29.770  1.00  0.00     0.029 A 
ATOM     40  N   UNL A   1      40.806  27.612  29.036  1.00  0.00    -0.354 N 
ATOM     41  C   UNL A   1      44.009  31.543  29.276  1.00  0.00     0.074 A 
ATOM     42  C   UNL A   1      43.390  32.471  30.164  1.00  0.00     0.031 C 
ATOM     43  C   UNL A   1      38.706  26.919  29.349  1.00  0.00     0.029 A 
ATOM     44  C   UNL A   1      39.974  26.478  28.803  1.00  0.00     0.049 A 
ATOM     45  H   UNL A   1      41.776  27.588  28.864  1.00  0.00     0.167 HD
ATOM     46  C   UNL A   1      45.333  31.374  28.963  1.00  0.00     0.034 A 
ATOM     47  C   UNL A   1      40.291  25.300  28.167  1.00  0.00     0.034 A 
ATOM     48  C   UNL A   1      45.463  30.180  28.196  1.00  0.00     0.049 A 
ATOM     49  C   UNL A   1      41.744  25.385  27.962  1.00  0.00     0.074 A 
ATOM     50  C   UNL A   1      45.151  29.885  26.897  1.00  0.00     0.029 A 
ATOM     51  N   UNL A   1      45.579  29.024  28.928  1.00  0.00    -0.354 N 
ATOM     52  N   UNL A   1      42.627  25.325  28.915  1.00  0.00    -0.248 NA
ATOM     53  C   UNL A   1      42.232  25.753  26.629  1.00  0.00     0.031 C 
ATOM     54  C   UNL A   1      44.547  28.620  27.022  1.00  0.00     0.029 A 
ATOM     55  C   UNL A   1      44.808  28.088  28.292  1.00  0.00     0.049 A 
ATOM     56  H   UNL A   1      46.110  28.894  29.746  1.00  0.00     0.167 HD
ATOM     57  C   UNL A   1      43.682  26.004  28.363  1.00  0.00     0.074 A 
ATOM     58  C   UNL A   1      43.513  25.940  26.925  1.00  0.00     0.031 C 
ATOM     59  C   UNL A   1      44.319  26.977  29.065  1.00  0.00     0.034 A 
BRANCH  46  60
ATOM     60  C   UNL A   1      46.654  31.985  29.398  1.00  0.00     0.023 A 
ATOM     61  C   UNL A   1      46.991  31.782  30.773  1.00  0.00     0.012 A 
ATOM     62  C   UNL A   1      47.389  32.959  28.703  1.00  0.00     0.148 A 
ATOM     63  C   UNL A   1      47.892  32.591  31.463  1.00  0.00     0.002 A 
ATOM     64  C   UNL A   1      48.335  33.738  29.391  1.00  0.00     0.091 A 
ATOM     65  F   UNL A   1      47.124  33.177  27.410  1.00  0.00    -0.205 F 
ATOM     66  C   UNL A   1      48.552  33.584  30.771  1.00  0.00     0.022 A 
BRANCH  64  67
ATOM     67  S   UNL A   1      49.343  35.005  28.604  1.00  0.00     0.127 S 
ATOM     68  O   UNL A   1      48.335  35.991  28.211  1.00  0.00    -0.237 OA
ATOM     69  O   UNL A   1      50.200  35.433  29.714  1.00  0.00    -0.237 OA
ATOM     70  O   UNL A   1      50.050  34.338  27.527  1.00  0.00    -0.744 OA
ENDBRANCH  64  67
ENDBRANCH  46  60
BRANCH  47  71
ATOM     71  C   UNL A   1      39.572  24.130  27.506  1.00  0.00     0.023 A 
ATOM     72  C   UNL A   1      38.423  24.242  26.712  1.00  0.00     0.012 A 
ATOM     73  C   UNL A   1      40.156  22.821  27.555  1.00  0.00     0.148 A 
ATOM     74  C   UNL A   1      37.969  23.158  25.922  1.00  0.00     0.002 A 
ATOM     75  C   UNL A   1      39.804  21.808  26.667  1.00  0.00     0.091 A 
ATOM     76  F   UNL A   1      41.051  22.529  28.506  1.00  0.00    -0.205 F 
ATOM     77  C   UNL A   1      38.693  21.967  25.850  1.00  0.00     0.022 A 
BRANCH  75  78
ATOM     78  S   UNL A   1      40.860  20.365  26.399  1.00  0.00     0.127 S 
ATOM     79  O   UNL A   1      41.019  19.834  27.752  1.00  0.00    -0.237 OA
ATOM     80  O   UNL A   1      40.022  19.552  25.516  1.00  0.00    -0.237 OA
ATOM     81  O   UNL A   1      42.083  20.861  25.782  1.00  0.00    -0.744 OA
ENDBRANCH  75  78
ENDBRANCH  47  71
BRANCH  59  82
ATOM     82  C   UNL A   1      44.233  26.895  30.590  1.00  0.00     0.023 A 
ATOM     83  C   UNL A   1      43.516  27.920  31.234  1.00  0.00     0.012 A 
ATOM     84  C   UNL A   1      44.835  25.917  31.424  1.00  0.00     0.148 A 
ATOM     85  C   UNL A   1      43.383  27.967  32.626  1.00  0.00     0.002 A 
ATOM     86  C   UNL A   1      44.717  25.971  32.821  1.00  0.00     0.091 A 
ATOM     87  F   UNL A   1      45.520  24.927  30.861  1.00  0.00    -0.205 F 
ATOM     88  C   UNL A   1      43.978  26.994  33.419  1.00  0.00     0.022 A 
BRANCH  86  89
ATOM     89  S   UNL A   1      45.519  24.810  33.954  1.00  0.00     0.127 S 
ATOM     90  O   UNL A   1      45.282  25.428  35.262  1.00  0.00    -0.237 OA
ATOM     91  O   UNL A   1      44.761  23.582  33.730  1.00  0.00    -0.237 OA
ATOM     92  O   UNL A   1      46.923  24.759  33.571  1.00  0.00    -0.744 OA
ENDBRANCH  86  89
ENDBRANCH  59  82
ENDBRANCH  33  34
ENDBRANCH  25  28
ENDBRANCH  23  24
ENDBRANCH  22  23
ENDBRANCH   1  22
TORSDOF 18
ENDMDL
