MODEL 1
REMARK VINA RESULT:     -12.3      0.000      0.000
REMARK SMILES Cc1cccc(OCC(=O)Nc2cc(C(=O)NCCCCCCNC(=O)c3ccc(-c4c5nc(c(-c6cccc(S(=O)(=O)[O-])c6F)c6ccc([nH]6)c(-c6cccc(S(=O)(=O)[O-])c6F)c6nc(c(-c7cccc(S(=O)(=O)[O-])c7F)c7ccc4[nH]7)C=C6)C=C5)cc3)c(Cl)cc2Cl)c1
REMARK SMILES IDX 20 1 19 2 18 3 17 4 15 5 16 6 14 8 12 9 13 10 93 11 92 12
REMARK SMILES IDX 94 13 90 14 91 15 11 16 9 17 10 18 8 20 7 21 6 22 1 23 2 24
REMARK SMILES IDX 3 25 95 26 4 27 5 28 21 29 22 30 23 31 24 32 25 33 26 35
REMARK SMILES IDX 27 36 28 37 89 38 29 39 88 40 30 41 31 42 32 43 82 44 33 45
REMARK SMILES IDX 87 46 81 47 83 48 34 49 86 50 80 51 79 52 35 54 67 55 47 56
REMARK SMILES IDX 66 57 48 58 51 59 65 60 84 61 49 62 50 63 64 65 85 66 52 67
REMARK SMILES IDX 36 68 37 69 45 70 38 71 40 72 46 73 39 74 41 75 42 76 43 77
REMARK SMILES IDX 44 78 68 79 69 80 77 81 70 82 72 83 78 84 71 85 73 86 74 87
REMARK SMILES IDX 75 88 76 89 53 90 54 91 62 92 55 93 57 94 63 95 56 96 58 97
REMARK SMILES IDX 59 98 60 99 61 100
REMARK H PARENT 17 7 11 19 24 34 83 53 51 64
REMARK Flexibility Score: inf
ROOT
ATOM      1  C   UNL A   1      31.799  28.672  24.965  1.00  0.00     0.002 C 
ENDROOT
BRANCH   1   2
ATOM      2  C   UNL A   1      31.828  28.647  23.422  1.00  0.00     0.021 C 
BRANCH   2   3
ATOM      3  C   UNL A   1      33.120  28.403  22.637  1.00  0.00     0.116 C 
BRANCH   3   4
ATOM      4  N   UNL A   1      33.085  27.370  21.629  1.00  0.00    -0.352 N 
ATOM      5  C   UNL A   1      33.038  25.999  21.779  1.00  0.00     0.252 C 
ATOM      6  O   UNL A   1      32.775  25.324  20.786  1.00  0.00    -0.269 OA
ATOM      7  H   UNL A   1      33.097  27.692  20.699  1.00  0.00     0.163 HD
BRANCH   5   8
ATOM      8  C   UNL A   1      33.297  25.301  23.082  1.00  0.00     0.060 A 
ATOM      9  C   UNL A   1      34.831  24.442  24.799  1.00  0.00     0.061 A 
ATOM     10  C   UNL A   1      34.611  25.091  23.574  1.00  0.00     0.043 A 
ATOM     11  C   UNL A   1      33.706  24.069  25.567  1.00  0.00     0.066 A 
ATOM     12  C   UNL A   1      32.411  24.318  25.126  1.00  0.00     0.044 A 
ATOM     13  Cl  UNL A   1      33.887  23.314  27.120  1.00  0.00    -0.082 Cl
ATOM     14  C   UNL A   1      32.203  24.914  23.881  1.00  0.00     0.055 A 
ATOM     15  Cl  UNL A   1      30.546  25.089  23.407  1.00  0.00    -0.083 Cl
BRANCH   9  16
ATOM     16  N   UNL A   1      36.087  24.081  25.332  1.00  0.00    -0.322 N 
ATOM     17  C   UNL A   1      36.845  22.958  25.440  1.00  0.00     0.262 C 
ATOM     18  O   UNL A   1      37.922  23.074  26.040  1.00  0.00    -0.271 OA
ATOM     19  H   UNL A   1      36.538  24.856  25.739  1.00  0.00     0.170 HD
BRANCH  17  20
ATOM     20  C   UNL A   1      36.496  21.636  24.761  1.00  0.00     0.329 C 
BRANCH  20  21
ATOM     21  O   UNL A   1      35.813  20.638  25.495  1.00  0.00    -0.484 OA
BRANCH  21  22
ATOM     22  C   UNL A   1      34.778  20.015  24.858  1.00  0.00     0.120 A 
ATOM     23  C   UNL A   1      33.349  16.731  23.583  1.00  0.00     0.044 C 
ATOM     24  C   UNL A   1      33.488  18.171  23.979  1.00  0.00    -0.047 A 
ATOM     25  C   UNL A   1      32.476  19.061  23.603  1.00  0.00     0.003 A 
ATOM     26  C   UNL A   1      34.641  18.652  24.627  1.00  0.00     0.049 A 
ATOM     27  C   UNL A   1      32.645  20.424  23.769  1.00  0.00     0.004 A 
ATOM     28  C   UNL A   1      33.808  20.878  24.365  1.00  0.00     0.046 A 
ENDBRANCH  21  22
ENDBRANCH  20  21
ENDBRANCH  17  20
ENDBRANCH   9  16
ENDBRANCH   5   8
ENDBRANCH   3   4
ENDBRANCH   2   3
ENDBRANCH   1   2
BRANCH   1  29
ATOM     29  C   UNL A   1      32.999  29.089  25.825  1.00  0.00     0.002 C 
BRANCH  29  30
ATOM     30  C   UNL A   1      33.105  30.516  26.374  1.00  0.00     0.021 C 
BRANCH  30  31
ATOM     31  C   UNL A   1      33.632  30.714  27.801  1.00  0.00     0.116 C 
BRANCH  31  32
ATOM     32  N   UNL A   1      34.650  31.759  27.940  1.00  0.00    -0.352 N 
ATOM     33  C   UNL A   1      35.992  31.665  28.289  1.00  0.00     0.251 C 
ATOM     34  H   UNL A   1      34.333  32.673  27.758  1.00  0.00     0.163 HD
ATOM     35  O   UNL A   1      36.644  32.699  28.430  1.00  0.00    -0.269 OA
BRANCH  33  36
ATOM     36  C   UNL A   1      36.661  30.340  28.362  1.00  0.00     0.039 A 
ATOM     37  C   UNL A   1      36.890  29.767  29.622  1.00  0.00     0.014 A 
ATOM     38  C   UNL A   1      37.254  29.783  27.240  1.00  0.00     0.014 A 
ATOM     39  C   UNL A   1      37.946  28.869  29.793  1.00  0.00     0.010 A 
ATOM     40  C   UNL A   1      38.349  28.967  27.421  1.00  0.00     0.010 A 
ATOM     41  C   UNL A   1      38.757  28.597  28.702  1.00  0.00    -0.014 A 
BRANCH  41  42
ATOM     42  C   UNL A   1      40.115  28.074  28.757  1.00  0.00     0.031 A 
ATOM     43  C   UNL A   1      40.389  26.633  28.661  1.00  0.00     0.074 A 
ATOM     44  C   UNL A   1      41.125  28.965  28.641  1.00  0.00     0.049 A 
ATOM     45  N   UNL A   1      41.547  26.107  28.869  1.00  0.00    -0.248 NA
ATOM     46  C   UNL A   1      39.348  25.660  28.366  1.00  0.00     0.031 C 
ATOM     47  C   UNL A   1      42.499  28.720  28.214  1.00  0.00     0.029 A 
ATOM     48  N   UNL A   1      41.150  30.277  29.125  1.00  0.00    -0.354 N 
ATOM     49  C   UNL A   1      41.480  24.792  28.467  1.00  0.00     0.074 A 
ATOM     50  C   UNL A   1      40.071  24.537  28.300  1.00  0.00     0.031 C 
ATOM     51  C   UNL A   1      43.280  29.696  28.704  1.00  0.00     0.029 A 
ATOM     52  C   UNL A   1      42.455  30.478  29.607  1.00  0.00     0.049 A 
ATOM     53  H   UNL A   1      40.408  30.925  29.127  1.00  0.00     0.167 HD
ATOM     54  C   UNL A   1      42.644  24.140  28.184  1.00  0.00     0.034 A 
ATOM     55  C   UNL A   1      42.744  30.737  30.917  1.00  0.00     0.034 A 
ATOM     56  C   UNL A   1      43.807  24.921  28.644  1.00  0.00     0.049 A 
ATOM     57  C   UNL A   1      43.728  29.754  31.525  1.00  0.00     0.074 A 
ATOM     58  C   UNL A   1      44.745  25.708  27.999  1.00  0.00     0.029 A 
ATOM     59  N   UNL A   1      43.971  25.155  30.006  1.00  0.00    -0.354 N 
ATOM     60  N   UNL A   1      44.118  28.646  30.959  1.00  0.00    -0.248 NA
ATOM     61  C   UNL A   1      44.323  29.937  32.845  1.00  0.00     0.031 C 
ATOM     62  C   UNL A   1      45.417  26.486  28.983  1.00  0.00     0.029 A 
ATOM     63  C   UNL A   1      44.915  26.146  30.229  1.00  0.00     0.049 A 
ATOM     64  H   UNL A   1      43.485  24.680  30.717  1.00  0.00     0.167 HD
ATOM     65  C   UNL A   1      44.864  27.906  31.844  1.00  0.00     0.074 A 
ATOM     66  C   UNL A   1      45.039  28.806  32.972  1.00  0.00     0.031 C 
ATOM     67  C   UNL A   1      45.203  26.601  31.589  1.00  0.00     0.034 A 
BRANCH  54  68
ATOM     68  C   UNL A   1      42.795  22.911  27.285  1.00  0.00     0.023 A 
ATOM     69  C   UNL A   1      42.057  21.757  27.643  1.00  0.00     0.012 A 
ATOM     70  C   UNL A   1      43.676  22.749  26.189  1.00  0.00     0.148 A 
ATOM     71  C   UNL A   1      42.225  20.521  27.004  1.00  0.00     0.002 A 
ATOM     72  C   UNL A   1      43.840  21.520  25.542  1.00  0.00     0.091 A 
ATOM     73  F   UNL A   1      44.403  23.771  25.751  1.00  0.00    -0.205 F 
ATOM     74  C   UNL A   1      43.124  20.397  25.956  1.00  0.00     0.022 A 
BRANCH  72  75
ATOM     75  S   UNL A   1      44.997  21.292  24.175  1.00  0.00     0.127 S 
ATOM     76  O   UNL A   1      46.288  21.497  24.832  1.00  0.00    -0.237 OA
ATOM     77  O   UNL A   1      44.734  19.912  23.769  1.00  0.00    -0.237 OA
ATOM     78  O   UNL A   1      44.662  22.295  23.171  1.00  0.00    -0.744 OA
ENDBRANCH  72  75
ENDBRANCH  54  68
BRANCH  55  79
ATOM     79  C   UNL A   1      41.624  31.391  31.660  1.00  0.00     0.023 A 
ATOM     80  C   UNL A   1      41.210  32.667  31.210  1.00  0.00     0.012 A 
ATOM     81  C   UNL A   1      40.751  30.639  32.466  1.00  0.00     0.148 A 
ATOM     82  C   UNL A   1      39.905  33.114  31.427  1.00  0.00     0.002 A 
ATOM     83  C   UNL A   1      39.453  31.097  32.685  1.00  0.00     0.091 A 
ATOM     84  F   UNL A   1      41.166  29.455  32.935  1.00  0.00    -0.205 F 
ATOM     85  C   UNL A   1      39.016  32.311  32.134  1.00  0.00     0.022 A 
BRANCH  83  86
ATOM     86  S   UNL A   1      38.249  30.086  33.561  1.00  0.00     0.127 S 
ATOM     87  O   UNL A   1      36.998  30.750  33.211  1.00  0.00    -0.237 OA
ATOM     88  O   UNL A   1      38.437  28.768  32.956  1.00  0.00    -0.237 OA
ATOM     89  O   UNL A   1      38.658  30.159  34.956  1.00  0.00    -0.744 OA
ENDBRANCH  83  86
ENDBRANCH  55  79
BRANCH  67  90
ATOM     90  C   UNL A   1      45.817  25.619  32.588  1.00  0.00     0.023 A 
ATOM     91  C   UNL A   1      47.174  25.662  32.965  1.00  0.00     0.012 A 
ATOM     92  C   UNL A   1      45.011  24.677  33.284  1.00  0.00     0.148 A 
ATOM     93  C   UNL A   1      47.720  24.792  33.918  1.00  0.00     0.002 A 
ATOM     94  C   UNL A   1      45.534  23.888  34.310  1.00  0.00     0.091 A 
ATOM     95  F   UNL A   1      43.725  24.512  32.944  1.00  0.00    -0.205 F 
ATOM     96  C   UNL A   1      46.895  23.919  34.609  1.00  0.00     0.022 A 
BRANCH  94  97
ATOM     97  S   UNL A   1      44.462  22.915  35.380  1.00  0.00     0.127 S 
ATOM     98  O   UNL A   1      45.195  22.932  36.643  1.00  0.00    -0.237 OA
ATOM     99  O   UNL A   1      43.225  23.700  35.385  1.00  0.00    -0.237 OA
ATOM    100  O   UNL A   1      44.341  21.623  34.720  1.00  0.00    -0.744 OA
ENDBRANCH  94  97
ENDBRANCH  67  90
ENDBRANCH  41  42
ENDBRANCH  33  36
ENDBRANCH  31  32
ENDBRANCH  30  31
ENDBRANCH  29  30
ENDBRANCH   1  29
TORSDOF 20
ENDMDL
MODEL 2
REMARK VINA RESULT:     -11.8      1.790      2.182
REMARK SMILES Cc1cccc(OCC(=O)Nc2cc(C(=O)NCCCCCCNC(=O)c3ccc(-c4c5nc(c(-c6cccc(S(=O)(=O)[O-])c6F)c6ccc([nH]6)c(-c6cccc(S(=O)(=O)[O-])c6F)c6nc(c(-c7cccc(S(=O)(=O)[O-])c7F)c7ccc4[nH]7)C=C6)C=C5)cc3)c(Cl)cc2Cl)c1
REMARK SMILES IDX 20 1 19 2 18 3 17 4 15 5 16 6 14 8 12 9 13 10 93 11 92 12
REMARK SMILES IDX 94 13 90 14 91 15 11 16 9 17 10 18 8 20 7 21 6 22 1 23 2 24
REMARK SMILES IDX 3 25 95 26 4 27 5 28 21 29 22 30 23 31 24 32 25 33 26 35
REMARK SMILES IDX 27 36 28 37 89 38 29 39 88 40 30 41 31 42 32 43 82 44 33 45
REMARK SMILES IDX 87 46 81 47 83 48 34 49 86 50 80 51 79 52 35 54 67 55 47 56
REMARK SMILES IDX 66 57 48 58 51 59 65 60 84 61 49 62 50 63 64 65 85 66 52 67
REMARK SMILES IDX 36 68 37 69 45 70 38 71 40 72 46 73 39 74 41 75 42 76 43 77
REMARK SMILES IDX 44 78 68 79 69 80 77 81 70 82 72 83 78 84 71 85 73 86 74 87
REMARK SMILES IDX 75 88 76 89 53 90 54 91 62 92 55 93 57 94 63 95 56 96 58 97
REMARK SMILES IDX 59 98 60 99 61 100
REMARK H PARENT 17 7 11 19 24 34 83 53 51 64
REMARK Flexibility Score: inf
ROOT
ATOM      1  C   UNL A   1      31.999  29.126  24.776  1.00  0.00     0.002 C 
ENDROOT
BRANCH   1   2
ATOM      2  C   UNL A   1      32.336  29.149  23.270  1.00  0.00     0.021 C 
BRANCH   2   3
ATOM      3  C   UNL A   1      33.644  28.575  22.720  1.00  0.00     0.116 C 
BRANCH   3   4
ATOM      4  N   UNL A   1      33.531  27.559  21.700  1.00  0.00    -0.352 N 
ATOM      5  C   UNL A   1      33.277  26.209  21.831  1.00  0.00     0.252 C 
ATOM      6  O   UNL A   1      32.989  25.580  20.815  1.00  0.00    -0.269 OA
ATOM      7  H   UNL A   1      33.654  27.876  20.777  1.00  0.00     0.163 HD
BRANCH   5   8
ATOM      8  C   UNL A   1      33.340  25.479  23.141  1.00  0.00     0.060 A 
ATOM      9  C   UNL A   1      34.611  24.453  24.977  1.00  0.00     0.061 A 
ATOM     10  C   UNL A   1      34.574  25.129  23.747  1.00  0.00     0.043 A 
ATOM     11  C   UNL A   1      33.388  24.196  25.633  1.00  0.00     0.066 A 
ATOM     12  C   UNL A   1      32.172  24.583  25.080  1.00  0.00     0.044 A 
ATOM     13  Cl  UNL A   1      33.344  23.417  27.184  1.00  0.00    -0.082 Cl
ATOM     14  C   UNL A   1      32.142  25.205  23.831  1.00  0.00     0.055 A 
ATOM     15  Cl  UNL A   1      30.564  25.557  23.211  1.00  0.00    -0.083 Cl
BRANCH   9  16
ATOM     16  N   UNL A   1      35.768  23.959  25.617  1.00  0.00    -0.322 N 
ATOM     17  C   UNL A   1      36.554  22.852  25.551  1.00  0.00     0.262 C 
ATOM     18  O   UNL A   1      37.497  22.795  26.351  1.00  0.00    -0.271 OA
ATOM     19  H   UNL A   1      36.095  24.588  26.298  1.00  0.00     0.170 HD
BRANCH  17  20
ATOM     20  C   UNL A   1      36.405  21.773  24.480  1.00  0.00     0.329 C 
BRANCH  20  21
ATOM     21  O   UNL A   1      36.336  20.415  24.868  1.00  0.00    -0.484 OA
BRANCH  21  22
ATOM     22  C   UNL A   1      35.125  19.801  24.720  1.00  0.00     0.120 A 
ATOM     23  C   UNL A   1      33.262  16.515  24.294  1.00  0.00     0.044 C 
ATOM     24  C   UNL A   1      33.567  17.965  24.519  1.00  0.00    -0.047 A 
ATOM     25  C   UNL A   1      32.502  18.873  24.515  1.00  0.00     0.003 A 
ATOM     26  C   UNL A   1      34.888  18.434  24.640  1.00  0.00     0.049 A 
ATOM     27  C   UNL A   1      32.743  20.235  24.521  1.00  0.00     0.004 A 
ATOM     28  C   UNL A   1      34.053  20.675  24.592  1.00  0.00     0.046 A 
ENDBRANCH  21  22
ENDBRANCH  20  21
ENDBRANCH  17  20
ENDBRANCH   9  16
ENDBRANCH   5   8
ENDBRANCH   3   4
ENDBRANCH   2   3
ENDBRANCH   1   2
BRANCH   1  29
ATOM     29  C   UNL A   1      33.033  29.403  25.876  1.00  0.00     0.002 C 
BRANCH  29  30
ATOM     30  C   UNL A   1      33.075  30.764  26.580  1.00  0.00     0.021 C 
BRANCH  30  31
ATOM     31  C   UNL A   1      33.779  30.863  27.939  1.00  0.00     0.116 C 
BRANCH  31  32
ATOM     32  N   UNL A   1      34.818  31.892  28.019  1.00  0.00    -0.352 N 
ATOM     33  C   UNL A   1      36.184  31.774  28.246  1.00  0.00     0.251 C 
ATOM     34  H   UNL A   1      34.497  32.815  27.894  1.00  0.00     0.163 HD
ATOM     35  O   UNL A   1      36.859  32.797  28.360  1.00  0.00    -0.269 OA
BRANCH  33  36
ATOM     36  C   UNL A   1      36.840  30.442  28.219  1.00  0.00     0.039 A 
ATOM     37  C   UNL A   1      36.778  29.635  29.366  1.00  0.00     0.014 A 
ATOM     38  C   UNL A   1      37.689  30.090  27.181  1.00  0.00     0.014 A 
ATOM     39  C   UNL A   1      37.780  28.691  29.603  1.00  0.00     0.010 A 
ATOM     40  C   UNL A   1      38.724  29.224  27.454  1.00  0.00     0.010 A 
ATOM     41  C   UNL A   1      38.827  28.607  28.700  1.00  0.00    -0.014 A 
BRANCH  41  42
ATOM     42  C   UNL A   1      40.144  28.045  28.970  1.00  0.00     0.031 A 
ATOM     43  C   UNL A   1      40.471  26.653  28.628  1.00  0.00     0.074 A 
ATOM     44  C   UNL A   1      41.128  28.910  29.305  1.00  0.00     0.049 A 
ATOM     45  N   UNL A   1      41.555  26.060  28.992  1.00  0.00    -0.248 NA
ATOM     46  C   UNL A   1      39.560  25.800  27.879  1.00  0.00     0.031 C 
ATOM     47  C   UNL A   1      42.570  28.725  29.184  1.00  0.00     0.029 A 
ATOM     48  N   UNL A   1      40.999  30.081  30.058  1.00  0.00    -0.354 N 
ATOM     49  C   UNL A   1      41.624  24.869  28.306  1.00  0.00     0.074 A 
ATOM     50  C   UNL A   1      40.307  24.699  27.747  1.00  0.00     0.031 C 
ATOM     51  C   UNL A   1      43.182  29.545  30.055  1.00  0.00     0.029 A 
ATOM     52  C   UNL A   1      42.139  30.133  30.878  1.00  0.00     0.049 A 
ATOM     53  H   UNL A   1      40.261  30.734  30.021  1.00  0.00     0.167 HD
ATOM     54  C   UNL A   1      42.839  24.262  28.180  1.00  0.00     0.034 A 
ATOM     55  C   UNL A   1      42.091  30.087  32.242  1.00  0.00     0.034 A 
ATOM     56  C   UNL A   1      43.832  24.887  29.072  1.00  0.00     0.049 A 
ATOM     57  C   UNL A   1      42.921  28.966  32.840  1.00  0.00     0.074 A 
ATOM     58  C   UNL A   1      44.879  25.770  28.867  1.00  0.00     0.029 A 
ATOM     59  N   UNL A   1      43.651  24.810  30.450  1.00  0.00    -0.354 N 
ATOM     60  N   UNL A   1      43.467  27.999  32.156  1.00  0.00    -0.248 NA
ATOM     61  C   UNL A   1      43.169  28.836  34.272  1.00  0.00     0.031 C 
ATOM     62  C   UNL A   1      45.268  26.290  30.133  1.00  0.00     0.029 A 
ATOM     63  C   UNL A   1      44.484  25.699  31.111  1.00  0.00     0.049 A 
ATOM     64  H   UNL A   1      43.017  24.204  30.897  1.00  0.00     0.167 HD
ATOM     65  C   UNL A   1      43.992  27.060  33.012  1.00  0.00     0.074 A 
ATOM     66  C   UNL A   1      43.861  27.684  34.318  1.00  0.00     0.031 C 
ATOM     67  C   UNL A   1      44.417  25.834  32.566  1.00  0.00     0.034 A 
BRANCH  54  68
ATOM     68  C   UNL A   1      43.238  23.257  27.097  1.00  0.00     0.023 A 
ATOM     69  C   UNL A   1      43.954  23.761  25.984  1.00  0.00     0.012 A 
ATOM     70  C   UNL A   1      42.878  21.890  27.016  1.00  0.00     0.148 A 
ATOM     71  C   UNL A   1      44.239  22.986  24.851  1.00  0.00     0.002 A 
ATOM     72  C   UNL A   1      43.169  21.110  25.892  1.00  0.00     0.091 A 
ATOM     73  F   UNL A   1      42.223  21.304  28.012  1.00  0.00    -0.205 F 
ATOM     74  C   UNL A   1      43.839  21.659  24.799  1.00  0.00     0.022 A 
BRANCH  72  75
ATOM     75  S   UNL A   1      42.673  19.379  25.760  1.00  0.00     0.127 S 
ATOM     76  O   UNL A   1      41.228  19.493  25.561  1.00  0.00    -0.237 OA
ATOM     77  O   UNL A   1      43.415  18.929  24.583  1.00  0.00    -0.237 OA
ATOM     78  O   UNL A   1      43.064  18.735  27.008  1.00  0.00    -0.744 OA
ENDBRANCH  72  75
ENDBRANCH  54  68
BRANCH  55  79
ATOM     79  C   UNL A   1      40.806  30.594  32.813  1.00  0.00     0.023 A 
ATOM     80  C   UNL A   1      39.748  29.663  32.946  1.00  0.00     0.012 A 
ATOM     81  C   UNL A   1      40.764  31.781  33.565  1.00  0.00     0.148 A 
ATOM     82  C   UNL A   1      38.757  29.839  33.914  1.00  0.00     0.002 A 
ATOM     83  C   UNL A   1      39.766  31.953  34.523  1.00  0.00     0.091 A 
ATOM     84  F   UNL A   1      41.738  32.684  33.398  1.00  0.00    -0.205 F 
ATOM     85  C   UNL A   1      38.788  30.967  34.728  1.00  0.00     0.022 A 
BRANCH  83  86
ATOM     86  S   UNL A   1      39.776  33.374  35.627  1.00  0.00     0.127 S 
ATOM     87  O   UNL A   1      40.242  34.433  34.738  1.00  0.00    -0.237 OA
ATOM     88  O   UNL A   1      38.373  33.478  36.027  1.00  0.00    -0.237 OA
ATOM     89  O   UNL A   1      40.671  32.989  36.708  1.00  0.00    -0.744 OA
ENDBRANCH  83  86
ENDBRANCH  55  79
BRANCH  67  90
ATOM     90  C   UNL A   1      44.793  24.639  33.442  1.00  0.00     0.023 A 
ATOM     91  C   UNL A   1      43.917  23.561  33.680  1.00  0.00     0.012 A 
ATOM     92  C   UNL A   1      46.107  24.496  33.968  1.00  0.00     0.148 A 
ATOM     93  C   UNL A   1      44.285  22.445  34.443  1.00  0.00     0.002 A 
ATOM     94  C   UNL A   1      46.502  23.334  34.632  1.00  0.00     0.091 A 
ATOM     95  F   UNL A   1      46.988  25.500  33.854  1.00  0.00    -0.205 F 
ATOM     96  C   UNL A   1      45.586  22.318  34.900  1.00  0.00     0.022 A 
BRANCH  94  97
ATOM     97  S   UNL A   1      48.231  23.033  35.038  1.00  0.00     0.127 S 
ATOM     98  O   UNL A   1      48.404  23.837  36.244  1.00  0.00    -0.237 OA
ATOM     99  O   UNL A   1      48.255  21.586  35.264  1.00  0.00    -0.237 OA
ATOM    100  O   UNL A   1      48.976  23.462  33.863  1.00  0.00    -0.744 OA
ENDBRANCH  94  97
ENDBRANCH  67  90
ENDBRANCH  41  42
ENDBRANCH  33  36
ENDBRANCH  31  32
ENDBRANCH  30  31
ENDBRANCH  29  30
ENDBRANCH   1  29
TORSDOF 20
ENDMDL
MODEL 3
REMARK VINA RESULT:     -11.6      4.166      9.908
REMARK SMILES Cc1cccc(OCC(=O)Nc2cc(C(=O)NCCCCCCNC(=O)c3ccc(-c4c5nc(c(-c6cccc(S(=O)(=O)[O-])c6F)c6ccc([nH]6)c(-c6cccc(S(=O)(=O)[O-])c6F)c6nc(c(-c7cccc(S(=O)(=O)[O-])c7F)c7ccc4[nH]7)C=C6)C=C5)cc3)c(Cl)cc2Cl)c1
REMARK SMILES IDX 20 1 19 2 18 3 17 4 15 5 16 6 14 8 12 9 13 10 93 11 92 12
REMARK SMILES IDX 94 13 90 14 91 15 11 16 9 17 10 18 8 20 7 21 6 22 1 23 2 24
REMARK SMILES IDX 3 25 95 26 4 27 5 28 21 29 22 30 23 31 24 32 25 33 26 35
REMARK SMILES IDX 27 36 28 37 89 38 29 39 88 40 30 41 31 42 32 43 82 44 33 45
REMARK SMILES IDX 87 46 81 47 83 48 34 49 86 50 80 51 79 52 35 54 67 55 47 56
REMARK SMILES IDX 66 57 48 58 51 59 65 60 84 61 49 62 50 63 64 65 85 66 52 67
REMARK SMILES IDX 36 68 37 69 45 70 38 71 40 72 46 73 39 74 41 75 42 76 43 77
REMARK SMILES IDX 44 78 68 79 69 80 77 81 70 82 72 83 78 84 71 85 73 86 74 87
REMARK SMILES IDX 75 88 76 89 53 90 54 91 62 92 55 93 57 94 63 95 56 96 58 97
REMARK SMILES IDX 59 98 60 99 61 100
REMARK H PARENT 17 7 11 19 24 34 83 53 51 64
REMARK Flexibility Score: inf
ROOT
ATOM      1  C   UNL A   1      39.821  22.955  27.014  1.00  0.00     0.002 C 
ENDROOT
BRANCH   1   2
ATOM      2  C   UNL A   1      38.753  24.044  26.777  1.00  0.00     0.021 C 
BRANCH   2   3
ATOM      3  C   UNL A   1      37.403  23.730  26.127  1.00  0.00     0.116 C 
BRANCH   3   4
ATOM      4  N   UNL A   1      37.385  23.609  24.689  1.00  0.00    -0.352 N 
ATOM      5  C   UNL A   1      36.509  22.916  23.878  1.00  0.00     0.252 C 
ATOM      6  O   UNL A   1      36.544  23.147  22.670  1.00  0.00    -0.269 OA
ATOM      7  H   UNL A   1      38.103  24.090  24.218  1.00  0.00     0.163 HD
BRANCH   5   8
ATOM      8  C   UNL A   1      35.532  21.901  24.393  1.00  0.00     0.060 A 
ATOM      9  C   UNL A   1      33.262  21.239  25.063  1.00  0.00     0.061 A 
ATOM     10  C   UNL A   1      34.160  22.207  24.586  1.00  0.00     0.043 A 
ATOM     11  C   UNL A   1      33.744  19.929  25.274  1.00  0.00     0.066 A 
ATOM     12  C   UNL A   1      35.073  19.597  25.037  1.00  0.00     0.044 A 
ATOM     13  Cl  UNL A   1      32.689  18.657  25.807  1.00  0.00    -0.082 Cl
ATOM     14  C   UNL A   1      35.971  20.580  24.616  1.00  0.00     0.055 A 
ATOM     15  Cl  UNL A   1      37.614  20.061  24.441  1.00  0.00    -0.083 Cl
BRANCH   9  16
ATOM     16  N   UNL A   1      31.908  21.458  25.396  1.00  0.00    -0.322 N 
ATOM     17  C   UNL A   1      31.199  22.267  26.226  1.00  0.00     0.262 C 
ATOM     18  O   UNL A   1      29.971  22.106  26.239  1.00  0.00    -0.271 OA
ATOM     19  H   UNL A   1      31.314  20.860  24.887  1.00  0.00     0.170 HD
BRANCH  17  20
ATOM     20  C   UNL A   1      31.819  23.416  27.019  1.00  0.00     0.329 C 
BRANCH  20  21
ATOM     21  O   UNL A   1      31.100  24.624  27.168  1.00  0.00    -0.484 OA
BRANCH  21  22
ATOM     22  C   UNL A   1      31.251  25.550  26.175  1.00  0.00     0.120 A 
ATOM     23  C   UNL A   1      33.567  28.043  24.483  1.00  0.00     0.044 C 
ATOM     24  C   UNL A   1      32.396  27.156  24.780  1.00  0.00    -0.047 A 
ATOM     25  C   UNL A   1      31.239  27.306  24.007  1.00  0.00     0.003 A 
ATOM     26  C   UNL A   1      32.405  26.257  25.863  1.00  0.00     0.049 A 
ATOM     27  C   UNL A   1      30.071  26.657  24.362  1.00  0.00     0.004 A 
ATOM     28  C   UNL A   1      30.090  25.814  25.460  1.00  0.00     0.046 A 
ENDBRANCH  21  22
ENDBRANCH  20  21
ENDBRANCH  17  20
ENDBRANCH   9  16
ENDBRANCH   5   8
ENDBRANCH   3   4
ENDBRANCH   2   3
ENDBRANCH   1   2
BRANCH   1  29
ATOM     29  C   UNL A   1      39.679  21.511  26.515  1.00  0.00     0.002 C 
BRANCH  29  30
ATOM     30  C   UNL A   1      40.889  20.570  26.498  1.00  0.00     0.021 C 
BRANCH  30  31
ATOM     31  C   UNL A   1      42.284  21.177  26.301  1.00  0.00     0.116 C 
BRANCH  31  32
ATOM     32  N   UNL A   1      43.092  20.535  25.261  1.00  0.00    -0.352 N 
ATOM     33  C   UNL A   1      44.270  20.952  24.653  1.00  0.00     0.251 C 
ATOM     34  H   UNL A   1      42.745  19.671  24.941  1.00  0.00     0.163 HD
ATOM     35  O   UNL A   1      44.732  20.283  23.729  1.00  0.00    -0.269 OA
BRANCH  33  36
ATOM     36  C   UNL A   1      45.029  22.109  25.194  1.00  0.00     0.039 A 
ATOM     37  C   UNL A   1      45.467  22.065  26.526  1.00  0.00     0.014 A 
ATOM     38  C   UNL A   1      45.106  23.299  24.487  1.00  0.00     0.014 A 
ATOM     39  C   UNL A   1      45.665  23.256  27.229  1.00  0.00     0.010 A 
ATOM     40  C   UNL A   1      45.215  24.472  25.201  1.00  0.00     0.010 A 
ATOM     41  C   UNL A   1      45.389  24.451  26.584  1.00  0.00    -0.014 A 
BRANCH  41  42
ATOM     42  C   UNL A   1      45.102  25.724  27.231  1.00  0.00     0.031 A 
ATOM     43  C   UNL A   1      43.757  26.317  27.200  1.00  0.00     0.074 A 
ATOM     44  C   UNL A   1      46.039  26.214  28.074  1.00  0.00     0.049 A 
ATOM     45  N   UNL A   1      43.488  27.509  27.609  1.00  0.00    -0.248 NA
ATOM     46  C   UNL A   1      42.607  25.613  26.651  1.00  0.00     0.031 C 
ATOM     47  C   UNL A   1      45.861  27.168  29.164  1.00  0.00     0.029 A 
ATOM     48  N   UNL A   1      47.427  26.101  27.946  1.00  0.00    -0.354 N 
ATOM     49  C   UNL A   1      42.117  27.633  27.646  1.00  0.00     0.074 A 
ATOM     50  C   UNL A   1      41.633  26.489  26.915  1.00  0.00     0.031 C 
ATOM     51  C   UNL A   1      47.040  27.764  29.408  1.00  0.00     0.029 A 
ATOM     52  C   UNL A   1      47.948  27.340  28.357  1.00  0.00     0.049 A 
ATOM     53  H   UNL A   1      47.934  25.315  27.634  1.00  0.00     0.167 HD
ATOM     54  C   UNL A   1      41.575  28.612  28.425  1.00  0.00     0.034 A 
ATOM     55  C   UNL A   1      48.647  28.175  27.534  1.00  0.00     0.034 A 
ATOM     56  C   UNL A   1      42.614  29.555  28.878  1.00  0.00     0.049 A 
ATOM     57  C   UNL A   1      48.054  29.569  27.439  1.00  0.00     0.074 A 
ATOM     58  C   UNL A   1      43.275  29.744  30.080  1.00  0.00     0.029 A 
ATOM     59  N   UNL A   1      43.290  30.325  27.936  1.00  0.00    -0.354 N 
ATOM     60  N   UNL A   1      46.887  29.914  27.910  1.00  0.00    -0.248 NA
ATOM     61  C   UNL A   1      48.727  30.678  26.771  1.00  0.00     0.031 C 
ATOM     62  C   UNL A   1      44.409  30.566  29.832  1.00  0.00     0.029 A 
ATOM     63  C   UNL A   1      44.419  30.908  28.489  1.00  0.00     0.049 A 
ATOM     64  H   UNL A   1      43.003  30.442  27.001  1.00  0.00     0.167 HD
ATOM     65  C   UNL A   1      46.577  31.189  27.503  1.00  0.00     0.074 A 
ATOM     66  C   UNL A   1      47.805  31.651  26.876  1.00  0.00     0.031 C 
ATOM     67  C   UNL A   1      45.318  31.711  27.660  1.00  0.00     0.034 A 
BRANCH  54  68
ATOM     68  C   UNL A   1      40.157  28.627  28.998  1.00  0.00     0.023 A 
ATOM     69  C   UNL A   1      39.094  28.811  28.082  1.00  0.00     0.012 A 
ATOM     70  C   UNL A   1      39.780  28.589  30.362  1.00  0.00     0.148 A 
ATOM     71  C   UNL A   1      37.766  29.005  28.489  1.00  0.00     0.002 A 
ATOM     72  C   UNL A   1      38.455  28.772  30.773  1.00  0.00     0.091 A 
ATOM     73  F   UNL A   1      40.691  28.398  31.310  1.00  0.00    -0.205 F 
ATOM     74  C   UNL A   1      37.445  28.995  29.838  1.00  0.00     0.022 A 
BRANCH  72  75
ATOM     75  S   UNL A   1      37.971  28.773  32.512  1.00  0.00     0.127 S 
ATOM     76  O   UNL A   1      36.613  29.314  32.449  1.00  0.00    -0.237 OA
ATOM     77  O   UNL A   1      38.045  27.354  32.859  1.00  0.00    -0.237 OA
ATOM     78  O   UNL A   1      38.928  29.621  33.212  1.00  0.00    -0.744 OA
ENDBRANCH  72  75
ENDBRANCH  54  68
BRANCH  55  79
ATOM     79  C   UNL A   1      49.344  27.469  26.416  1.00  0.00     0.023 A 
ATOM     80  C   UNL A   1      48.771  27.580  25.126  1.00  0.00     0.012 A 
ATOM     81  C   UNL A   1      50.691  27.083  26.528  1.00  0.00     0.148 A 
ATOM     82  C   UNL A   1      49.559  27.461  23.980  1.00  0.00     0.002 A 
ATOM     83  C   UNL A   1      51.469  26.957  25.378  1.00  0.00     0.091 A 
ATOM     84  F   UNL A   1      51.216  26.926  27.750  1.00  0.00    -0.205 F 
ATOM     85  C   UNL A   1      50.917  27.186  24.108  1.00  0.00     0.022 A 
BRANCH  83  86
ATOM     86  S   UNL A   1      53.236  26.637  25.485  1.00  0.00     0.127 S 
ATOM     87  O   UNL A   1      53.609  26.580  24.075  1.00  0.00    -0.237 OA
ATOM     88  O   UNL A   1      53.730  27.810  26.206  1.00  0.00    -0.237 OA
ATOM     89  O   UNL A   1      53.338  25.395  26.237  1.00  0.00    -0.744 OA
ENDBRANCH  83  86
ENDBRANCH  55  79
BRANCH  67  90
ATOM     90  C   UNL A   1      44.799  33.010  27.043  1.00  0.00     0.023 A 
ATOM     91  C   UNL A   1      44.555  33.155  25.662  1.00  0.00     0.012 A 
ATOM     92  C   UNL A   1      44.418  34.112  27.858  1.00  0.00     0.148 A 
ATOM     93  C   UNL A   1      44.031  34.331  25.109  1.00  0.00     0.002 A 
ATOM     94  C   UNL A   1      43.795  35.237  27.315  1.00  0.00     0.091 A 
ATOM     95  F   UNL A   1      44.677  34.095  29.173  1.00  0.00    -0.205 F 
ATOM     96  C   UNL A   1      43.628  35.365  25.938  1.00  0.00     0.022 A 
BRANCH  94  97
ATOM     97  S   UNL A   1      43.054  36.494  28.371  1.00  0.00     0.127 S 
ATOM     98  O   UNL A   1      42.451  37.395  27.394  1.00  0.00    -0.237 OA
ATOM     99  O   UNL A   1      42.092  35.718  29.158  1.00  0.00    -0.237 OA
ATOM    100  O   UNL A   1      44.160  37.033  29.150  1.00  0.00    -0.744 OA
ENDBRANCH  94  97
ENDBRANCH  67  90
ENDBRANCH  41  42
ENDBRANCH  33  36
ENDBRANCH  31  32
ENDBRANCH  30  31
ENDBRANCH  29  30
ENDBRANCH   1  29
TORSDOF 20
ENDMDL
