MODEL 1
REMARK VINA RESULT:     -11.7      0.000      0.000
REMARK SMILES CC(=O)N1CCC(C(=O)Nc2sccc2C(=O)NCCCCCCNC(=O)c2ccc(-c3c4nc(c(-c5cccc(S(=O)(=O)[O-])c5F)c5ccc([nH]5)c(-c5cccc(S(=O)(=O)[O-])c5F)c5nc(c(-c6cccc(S(=O)(=O)[O-])c6F)c6ccc3[nH]6)C=C5)C=C4)cc2)CC1
REMARK SMILES IDX 22 1 21 2 20 3 19 4 18 5 16 6 17 7 15 9 11 10 12 11 13 12
REMARK SMILES IDX 14 13 10 14 8 15 9 16 7 18 1 19 2 20 3 21 4 22 5 23 92 24
REMARK SMILES IDX 6 25 91 26 23 27 24 28 25 29 26 30 27 32 28 33 29 34 90 35
REMARK SMILES IDX 30 36 89 37 31 38 32 39 33 40 83 41 34 42 88 43 82 44 84 45
REMARK SMILES IDX 35 46 87 47 81 48 80 49 36 51 68 52 48 53 67 54 49 55 52 56
REMARK SMILES IDX 66 57 85 58 50 59 51 60 65 62 86 63 53 64 37 65 38 66 46 67
REMARK SMILES IDX 39 68 41 69 47 70 40 71 42 72 43 73 44 74 45 75 69 76 70 77
REMARK SMILES IDX 78 78 71 79 73 80 79 81 72 82 74 83 75 84 76 85 77 86 54 87
REMARK SMILES IDX 55 88 63 89 56 90 58 91 64 92 57 93 59 94 60 95 61 96 62 97
REMARK H PARENT 18 8 10 17 25 31 84 50 52 61
REMARK Flexibility Score: inf
ROOT
ATOM      1  C   UNL A   1      32.188  29.772  26.206  1.00  0.00     0.002 C 
ENDROOT
BRANCH   1   2
ATOM      2  C   UNL A   1      32.953  29.802  24.875  1.00  0.00     0.002 C 
BRANCH   2   3
ATOM      3  C   UNL A   1      33.673  28.512  24.453  1.00  0.00     0.021 C 
BRANCH   3   4
ATOM      4  C   UNL A   1      33.569  28.179  22.970  1.00  0.00     0.116 C 
BRANCH   4   5
ATOM      5  N   UNL A   1      32.251  28.397  22.427  1.00  0.00    -0.352 N 
ATOM      6  C   UNL A   1      31.091  27.680  22.566  1.00  0.00     0.254 C 
ATOM      7  O   UNL A   1      30.141  28.075  21.884  1.00  0.00    -0.269 OA
ATOM      8  H   UNL A   1      32.170  29.197  21.860  1.00  0.00     0.163 HD
BRANCH   6   9
ATOM      9  C   UNL A   1      30.948  26.488  23.423  1.00  0.00     0.074 A 
ATOM     10  C   UNL A   1      31.360  25.169  23.287  1.00  0.00     0.108 A 
ATOM     11  S   UNL A   1      30.588  24.122  24.405  1.00  0.00    -0.126 S 
ATOM     12  C   UNL A   1      30.043  25.428  25.345  1.00  0.00     0.068 A 
ATOM     13  C   UNL A   1      30.285  26.623  24.712  1.00  0.00     0.028 A 
BRANCH  10  14
ATOM     14  N   UNL A   1      32.139  24.433  22.427  1.00  0.00    -0.317 N 
ATOM     15  C   UNL A   1      33.272  23.705  22.630  1.00  0.00     0.228 C 
ATOM     16  O   UNL A   1      33.845  23.286  21.615  1.00  0.00    -0.274 OA
ATOM     17  H   UNL A   1      31.821  24.433  21.496  1.00  0.00     0.170 HD
BRANCH  15  18
ATOM     18  C   UNL A   1      33.801  23.264  23.993  1.00  0.00     0.082 C 
ATOM     19  C   UNL A   1      38.317  22.107  25.706  1.00  0.00     0.114 C 
ATOM     20  C   UNL A   1      37.035  21.398  25.348  1.00  0.00     0.219 C 
ATOM     21  O   UNL A   1      37.070  20.243  24.927  1.00  0.00    -0.275 OA
ATOM     22  N   UNL A   1      35.851  22.077  25.597  1.00  0.00    -0.343 N 
ATOM     23  C   UNL A   1      34.584  21.366  25.506  1.00  0.00     0.120 C 
ATOM     24  C   UNL A   1      35.717  23.528  25.625  1.00  0.00     0.120 C 
ATOM     25  C   UNL A   1      33.857  21.759  24.231  1.00  0.00     0.035 C 
ATOM     26  C   UNL A   1      35.122  23.992  24.299  1.00  0.00     0.035 C 
ENDBRANCH  15  18
ENDBRANCH  10  14
ENDBRANCH   6   9
ENDBRANCH   4   5
ENDBRANCH   3   4
ENDBRANCH   2   3
ENDBRANCH   1   2
BRANCH   1  27
ATOM     27  C   UNL A   1      31.855  31.120  26.845  1.00  0.00     0.021 C 
BRANCH  27  28
ATOM     28  C   UNL A   1      33.034  32.043  27.129  1.00  0.00     0.116 C 
BRANCH  28  29
ATOM     29  N   UNL A   1      32.648  33.400  27.469  1.00  0.00    -0.352 N 
ATOM     30  C   UNL A   1      33.184  34.241  28.419  1.00  0.00     0.251 C 
ATOM     31  H   UNL A   1      31.898  33.771  26.949  1.00  0.00     0.163 HD
ATOM     32  O   UNL A   1      32.682  35.337  28.618  1.00  0.00    -0.269 OA
BRANCH  30  33
ATOM     33  C   UNL A   1      34.347  33.796  29.224  1.00  0.00     0.039 A 
ATOM     34  C   UNL A   1      34.126  32.901  30.274  1.00  0.00     0.014 A 
ATOM     35  C   UNL A   1      35.642  34.240  28.945  1.00  0.00     0.014 A 
ATOM     36  C   UNL A   1      35.210  32.402  31.002  1.00  0.00     0.010 A 
ATOM     37  C   UNL A   1      36.727  33.684  29.619  1.00  0.00     0.010 A 
ATOM     38  C   UNL A   1      36.524  32.762  30.658  1.00  0.00    -0.014 A 
BRANCH  38  39
ATOM     39  C   UNL A   1      37.693  32.175  31.364  1.00  0.00     0.031 A 
ATOM     40  C   UNL A   1      38.479  31.056  30.737  1.00  0.00     0.074 A 
ATOM     41  C   UNL A   1      37.997  32.594  32.610  1.00  0.00     0.049 A 
ATOM     42  N   UNL A   1      39.497  30.391  31.221  1.00  0.00    -0.248 NA
ATOM     43  C   UNL A   1      38.051  30.604  29.402  1.00  0.00     0.031 C 
ATOM     44  C   UNL A   1      37.261  33.614  33.362  1.00  0.00     0.029 A 
ATOM     45  N   UNL A   1      38.986  32.196  33.475  1.00  0.00    -0.354 N 
ATOM     46  C   UNL A   1      39.806  29.424  30.271  1.00  0.00     0.074 A 
ATOM     47  C   UNL A   1      38.848  29.566  29.197  1.00  0.00     0.031 C 
ATOM     48  C   UNL A   1      37.828  33.764  34.569  1.00  0.00     0.029 A 
ATOM     49  C   UNL A   1      38.944  32.833  34.693  1.00  0.00     0.049 A 
ATOM     50  H   UNL A   1      39.662  31.519  33.244  1.00  0.00     0.167 HD
ATOM     51  C   UNL A   1      40.813  28.518  30.278  1.00  0.00     0.034 A 
ATOM     52  C   UNL A   1      39.711  32.678  35.791  1.00  0.00     0.034 A 
ATOM     53  C   UNL A   1      41.789  28.406  31.329  1.00  0.00     0.049 A 
ATOM     54  C   UNL A   1      40.847  31.692  35.756  1.00  0.00     0.074 A 
ATOM     55  C   UNL A   1      42.902  27.586  31.384  1.00  0.00     0.029 A 
ATOM     56  N   UNL A   1      41.765  29.129  32.511  1.00  0.00    -0.354 N 
ATOM     57  N   UNL A   1      41.225  30.902  34.781  1.00  0.00    -0.248 NA
ATOM     58  C   UNL A   1      41.688  31.604  36.959  1.00  0.00     0.031 C 
ATOM     59  C   UNL A   1      43.534  27.789  32.616  1.00  0.00     0.029 A 
ATOM     60  C   UNL A   1      42.835  28.763  33.311  1.00  0.00     0.049 A 
ATOM     61  H   UNL A   1      41.086  29.802  32.749  1.00  0.00     0.167 HD
ATOM     62  C   UNL A   1      42.365  30.250  35.237  1.00  0.00     0.074 A 
ATOM     63  C   UNL A   1      42.629  30.755  36.568  1.00  0.00     0.031 C 
ATOM     64  C   UNL A   1      43.117  29.309  34.614  1.00  0.00     0.034 A 
BRANCH  51  65
ATOM     65  C   UNL A   1      40.941  27.602  29.088  1.00  0.00     0.023 A 
ATOM     66  C   UNL A   1      40.150  26.437  29.016  1.00  0.00     0.012 A 
ATOM     67  C   UNL A   1      41.793  27.924  28.014  1.00  0.00     0.148 A 
ATOM     68  C   UNL A   1      40.233  25.587  27.914  1.00  0.00     0.002 A 
ATOM     69  C   UNL A   1      41.835  27.097  26.897  1.00  0.00     0.091 A 
ATOM     70  F   UNL A   1      42.552  29.025  28.107  1.00  0.00    -0.205 F 
ATOM     71  C   UNL A   1      41.067  25.923  26.851  1.00  0.00     0.022 A 
BRANCH  69  72
ATOM     72  S   UNL A   1      42.813  27.483  25.440  1.00  0.00     0.127 S 
ATOM     73  O   UNL A   1      42.570  26.309  24.602  1.00  0.00    -0.237 OA
ATOM     74  O   UNL A   1      42.181  28.713  24.962  1.00  0.00    -0.237 OA
ATOM     75  O   UNL A   1      44.184  27.644  25.905  1.00  0.00    -0.744 OA
ENDBRANCH  69  72
ENDBRANCH  51  65
BRANCH  52  76
ATOM     76  C   UNL A   1      39.467  33.521  36.997  1.00  0.00     0.023 A 
ATOM     77  C   UNL A   1      39.953  34.842  37.029  1.00  0.00     0.012 A 
ATOM     78  C   UNL A   1      38.740  33.031  38.099  1.00  0.00     0.148 A 
ATOM     79  C   UNL A   1      39.751  35.649  38.149  1.00  0.00     0.002 A 
ATOM     80  C   UNL A   1      38.493  33.858  39.189  1.00  0.00     0.091 A 
ATOM     81  F   UNL A   1      38.294  31.767  38.053  1.00  0.00    -0.205 F 
ATOM     82  C   UNL A   1      39.013  35.160  39.224  1.00  0.00     0.022 A 
BRANCH  80  83
ATOM     83  S   UNL A   1      37.446  33.359  40.560  1.00  0.00     0.127 S 
ATOM     84  O   UNL A   1      38.230  32.281  41.157  1.00  0.00    -0.237 OA
ATOM     85  O   UNL A   1      37.383  34.587  41.353  1.00  0.00    -0.237 OA
ATOM     86  O   UNL A   1      36.177  32.961  39.964  1.00  0.00    -0.744 OA
ENDBRANCH  80  83
ENDBRANCH  52  76
BRANCH  64  87
ATOM     87  C   UNL A   1      44.327  28.785  35.343  1.00  0.00     0.023 A 
ATOM     88  C   UNL A   1      45.585  29.389  35.146  1.00  0.00     0.012 A 
ATOM     89  C   UNL A   1      44.201  27.739  36.280  1.00  0.00     0.148 A 
ATOM     90  C   UNL A   1      46.704  28.939  35.846  1.00  0.00     0.002 A 
ATOM     91  C   UNL A   1      45.309  27.332  37.012  1.00  0.00     0.091 A 
ATOM     92  F   UNL A   1      42.999  27.166  36.441  1.00  0.00    -0.205 F 
ATOM     93  C   UNL A   1      46.563  27.920  36.787  1.00  0.00     0.022 A 
BRANCH  91  94
ATOM     94  S   UNL A   1      45.204  26.098  38.314  1.00  0.00     0.127 S 
ATOM     95  O   UNL A   1      46.588  26.043  38.783  1.00  0.00    -0.237 OA
ATOM     96  O   UNL A   1      44.267  26.716  39.251  1.00  0.00    -0.237 OA
ATOM     97  O   UNL A   1      44.711  24.884  37.679  1.00  0.00    -0.744 OA
ENDBRANCH  91  94
ENDBRANCH  64  87
ENDBRANCH  38  39
ENDBRANCH  30  33
ENDBRANCH  28  29
ENDBRANCH  27  28
ENDBRANCH   1  27
TORSDOF 18
ENDMDL
MODEL 2
REMARK VINA RESULT:     -11.5      6.253     11.644
REMARK SMILES CC(=O)N1CCC(C(=O)Nc2sccc2C(=O)NCCCCCCNC(=O)c2ccc(-c3c4nc(c(-c5cccc(S(=O)(=O)[O-])c5F)c5ccc([nH]5)c(-c5cccc(S(=O)(=O)[O-])c5F)c5nc(c(-c6cccc(S(=O)(=O)[O-])c6F)c6ccc3[nH]6)C=C5)C=C4)cc2)CC1
REMARK SMILES IDX 22 1 21 2 20 3 19 4 18 5 16 6 17 7 15 9 11 10 12 11 13 12
REMARK SMILES IDX 14 13 10 14 8 15 9 16 7 18 1 19 2 20 3 21 4 22 5 23 92 24
REMARK SMILES IDX 6 25 91 26 23 27 24 28 25 29 26 30 27 32 28 33 29 34 90 35
REMARK SMILES IDX 30 36 89 37 31 38 32 39 33 40 83 41 34 42 88 43 82 44 84 45
REMARK SMILES IDX 35 46 87 47 81 48 80 49 36 51 68 52 48 53 67 54 49 55 52 56
REMARK SMILES IDX 66 57 85 58 50 59 51 60 65 62 86 63 53 64 37 65 38 66 46 67
REMARK SMILES IDX 39 68 41 69 47 70 40 71 42 72 43 73 44 74 45 75 69 76 70 77
REMARK SMILES IDX 78 78 71 79 73 80 79 81 72 82 74 83 75 84 76 85 77 86 54 87
REMARK SMILES IDX 55 88 63 89 56 90 58 91 64 92 57 93 59 94 60 95 61 96 62 97
REMARK H PARENT 18 8 10 17 25 31 84 50 52 61
REMARK Flexibility Score: inf
ROOT
ATOM      1  C   UNL A   1      36.350  20.078  25.014  1.00  0.00     0.002 C 
ENDROOT
BRANCH   1   2
ATOM      2  C   UNL A   1      35.558  21.370  24.770  1.00  0.00     0.002 C 
BRANCH   2   3
ATOM      3  C   UNL A   1      35.235  22.235  25.997  1.00  0.00     0.021 C 
BRANCH   3   4
ATOM      4  C   UNL A   1      35.514  23.722  25.822  1.00  0.00     0.116 C 
BRANCH   4   5
ATOM      5  N   UNL A   1      35.197  24.211  24.503  1.00  0.00    -0.352 N 
ATOM      6  C   UNL A   1      33.994  24.506  23.918  1.00  0.00     0.254 C 
ATOM      7  O   UNL A   1      34.048  24.815  22.723  1.00  0.00    -0.269 OA
ATOM      8  H   UNL A   1      35.979  24.361  23.924  1.00  0.00     0.163 HD
BRANCH   6   9
ATOM      9  C   UNL A   1      32.692  24.433  24.609  1.00  0.00     0.074 A 
ATOM     10  C   UNL A   1      32.000  25.322  25.420  1.00  0.00     0.108 A 
ATOM     11  S   UNL A   1      30.711  24.570  26.266  1.00  0.00    -0.126 S 
ATOM     12  C   UNL A   1      30.775  23.198  25.266  1.00  0.00     0.068 A 
ATOM     13  C   UNL A   1      31.872  23.241  24.442  1.00  0.00     0.028 A 
BRANCH  10  14
ATOM     14  N   UNL A   1      32.122  26.627  25.830  1.00  0.00    -0.317 N 
ATOM     15  C   UNL A   1      31.830  27.803  25.208  1.00  0.00     0.228 C 
ATOM     16  O   UNL A   1      32.211  28.835  25.776  1.00  0.00    -0.274 OA
ATOM     17  H   UNL A   1      32.487  26.731  26.738  1.00  0.00     0.170 HD
BRANCH  15  18
ATOM     18  C   UNL A   1      30.969  27.943  23.954  1.00  0.00     0.082 C 
ATOM     19  C   UNL A   1      28.082  31.568  22.169  1.00  0.00     0.114 C 
ATOM     20  C   UNL A   1      27.917  30.214  22.811  1.00  0.00     0.219 C 
ATOM     21  O   UNL A   1      26.927  29.980  23.503  1.00  0.00    -0.275 OA
ATOM     22  N   UNL A   1      28.875  29.257  22.513  1.00  0.00    -0.343 N 
ATOM     23  C   UNL A   1      28.649  27.871  22.897  1.00  0.00     0.120 C 
ATOM     24  C   UNL A   1      30.252  29.550  22.135  1.00  0.00     0.120 C 
ATOM     25  C   UNL A   1      29.512  27.516  24.096  1.00  0.00     0.035 C 
ATOM     26  C   UNL A   1      31.149  29.348  23.354  1.00  0.00     0.035 C 
ENDBRANCH  15  18
ENDBRANCH  10  14
ENDBRANCH   6   9
ENDBRANCH   4   5
ENDBRANCH   3   4
ENDBRANCH   2   3
ENDBRANCH   1   2
BRANCH   1  27
ATOM     27  C   UNL A   1      37.826  20.084  24.613  1.00  0.00     0.021 C 
BRANCH  27  28
ATOM     28  C   UNL A   1      38.830  20.321  25.734  1.00  0.00     0.116 C 
BRANCH  28  29
ATOM     29  N   UNL A   1      39.836  19.282  25.851  1.00  0.00    -0.352 N 
ATOM     30  C   UNL A   1      41.176  19.401  26.147  1.00  0.00     0.251 C 
ATOM     31  H   UNL A   1      39.516  18.363  25.695  1.00  0.00     0.163 HD
ATOM     32  O   UNL A   1      41.895  18.414  26.134  1.00  0.00    -0.269 OA
BRANCH  30  33
ATOM     33  C   UNL A   1      41.748  20.737  26.443  1.00  0.00     0.039 A 
ATOM     34  C   UNL A   1      42.085  21.570  25.372  1.00  0.00     0.014 A 
ATOM     35  C   UNL A   1      41.939  21.175  27.755  1.00  0.00     0.014 A 
ATOM     36  C   UNL A   1      42.553  22.863  25.618  1.00  0.00     0.010 A 
ATOM     37  C   UNL A   1      42.331  22.490  27.999  1.00  0.00     0.010 A 
ATOM     38  C   UNL A   1      42.647  23.348  26.933  1.00  0.00    -0.014 A 
BRANCH  38  39
ATOM     39  C   UNL A   1      43.060  24.749  27.209  1.00  0.00     0.031 A 
ATOM     40  C   UNL A   1      42.096  25.717  27.842  1.00  0.00     0.074 A 
ATOM     41  C   UNL A   1      44.278  25.174  26.814  1.00  0.00     0.049 A 
ATOM     42  N   UNL A   1      42.263  26.985  28.116  1.00  0.00    -0.248 NA
ATOM     43  C   UNL A   1      40.761  25.201  28.189  1.00  0.00     0.031 C 
ATOM     44  C   UNL A   1      45.273  24.356  26.116  1.00  0.00     0.029 A 
ATOM     45  N   UNL A   1      44.876  26.406  26.918  1.00  0.00    -0.354 N 
ATOM     46  C   UNL A   1      41.049  27.426  28.631  1.00  0.00     0.074 A 
ATOM     47  C   UNL A   1      40.144  26.299  28.600  1.00  0.00     0.031 C 
ATOM     48  C   UNL A   1      46.357  25.106  25.860  1.00  0.00     0.029 A 
ATOM     49  C   UNL A   1      46.125  26.463  26.345  1.00  0.00     0.049 A 
ATOM     50  H   UNL A   1      44.451  27.175  27.361  1.00  0.00     0.167 HD
ATOM     51  C   UNL A   1      40.724  28.650  29.111  1.00  0.00     0.034 A 
ATOM     52  C   UNL A   1      46.984  27.493  26.215  1.00  0.00     0.034 A 
ATOM     53  C   UNL A   1      41.639  29.758  29.177  1.00  0.00     0.049 A 
ATOM     54  C   UNL A   1      46.612  28.832  26.793  1.00  0.00     0.074 A 
ATOM     55  C   UNL A   1      41.435  31.009  29.732  1.00  0.00     0.029 A 
ATOM     56  N   UNL A   1      42.927  29.753  28.664  1.00  0.00    -0.354 N 
ATOM     57  N   UNL A   1      45.520  29.184  27.425  1.00  0.00    -0.248 NA
ATOM     58  C   UNL A   1      47.609  29.907  26.674  1.00  0.00     0.031 C 
ATOM     59  C   UNL A   1      42.589  31.772  29.526  1.00  0.00     0.029 A 
ATOM     60  C   UNL A   1      43.525  30.984  28.876  1.00  0.00     0.049 A 
ATOM     61  H   UNL A   1      43.353  28.988  28.214  1.00  0.00     0.167 HD
ATOM     62  C   UNL A   1      45.710  30.506  27.811  1.00  0.00     0.074 A 
ATOM     63  C   UNL A   1      47.033  30.885  27.360  1.00  0.00     0.031 C 
ATOM     64  C   UNL A   1      44.861  31.334  28.467  1.00  0.00     0.034 A 
BRANCH  51  65
ATOM     65  C   UNL A   1      39.330  28.845  29.649  1.00  0.00     0.023 A 
ATOM     66  C   UNL A   1      39.033  28.469  30.975  1.00  0.00     0.012 A 
ATOM     67  C   UNL A   1      38.331  29.458  28.866  1.00  0.00     0.148 A 
ATOM     68  C   UNL A   1      37.757  28.662  31.501  1.00  0.00     0.002 A 
ATOM     69  C   UNL A   1      37.074  29.691  29.414  1.00  0.00     0.091 A 
ATOM     70  F   UNL A   1      38.624  29.793  27.602  1.00  0.00    -0.205 F 
ATOM     71  C   UNL A   1      36.782  29.282  30.725  1.00  0.00     0.022 A 
BRANCH  69  72
ATOM     72  S   UNL A   1      35.775  30.558  28.526  1.00  0.00     0.127 S 
ATOM     73  O   UNL A   1      36.552  31.421  27.636  1.00  0.00    -0.237 OA
ATOM     74  O   UNL A   1      35.077  29.462  27.855  1.00  0.00    -0.237 OA
ATOM     75  O   UNL A   1      34.989  31.252  29.536  1.00  0.00    -0.744 OA
ENDBRANCH  69  72
ENDBRANCH  51  65
BRANCH  52  76
ATOM     76  C   UNL A   1      48.307  27.284  25.559  1.00  0.00     0.023 A 
ATOM     77  C   UNL A   1      49.413  26.894  26.339  1.00  0.00     0.012 A 
ATOM     78  C   UNL A   1      48.471  27.446  24.169  1.00  0.00     0.148 A 
ATOM     79  C   UNL A   1      50.666  26.704  25.754  1.00  0.00     0.002 A 
ATOM     80  C   UNL A   1      49.707  27.201  23.584  1.00  0.00     0.091 A 
ATOM     81  F   UNL A   1      47.408  27.828  23.446  1.00  0.00    -0.205 F 
ATOM     82  C   UNL A   1      50.810  26.847  24.376  1.00  0.00     0.022 A 
BRANCH  80  83
ATOM     83  S   UNL A   1      49.957  27.236  21.806  1.00  0.00     0.127 S 
ATOM     84  O   UNL A   1      49.734  28.647  21.501  1.00  0.00    -0.237 OA
ATOM     85  O   UNL A   1      51.347  26.792  21.688  1.00  0.00    -0.237 OA
ATOM     86  O   UNL A   1      48.980  26.308  21.251  1.00  0.00    -0.744 OA
ENDBRANCH  80  83
ENDBRANCH  52  76
BRANCH  64  87
ATOM     87  C   UNL A   1      45.344  32.727  28.779  1.00  0.00     0.023 A 
ATOM     88  C   UNL A   1      46.084  32.970  29.954  1.00  0.00     0.012 A 
ATOM     89  C   UNL A   1      45.125  33.781  27.869  1.00  0.00     0.148 A 
ATOM     90  C   UNL A   1      46.571  34.247  30.232  1.00  0.00     0.002 A 
ATOM     91  C   UNL A   1      45.658  35.037  28.128  1.00  0.00     0.091 A 
ATOM     92  F   UNL A   1      44.403  33.534  26.766  1.00  0.00    -0.205 F 
ATOM     93  C   UNL A   1      46.369  35.276  29.315  1.00  0.00     0.022 A 
BRANCH  91  94
ATOM     94  S   UNL A   1      45.535  36.397  26.960  1.00  0.00     0.127 S 
ATOM     95  O   UNL A   1      44.089  36.484  26.756  1.00  0.00    -0.237 OA
ATOM     96  O   UNL A   1      46.112  37.508  27.715  1.00  0.00    -0.237 OA
ATOM     97  O   UNL A   1      46.306  35.995  25.792  1.00  0.00    -0.744 OA
ENDBRANCH  91  94
ENDBRANCH  64  87
ENDBRANCH  38  39
ENDBRANCH  30  33
ENDBRANCH  28  29
ENDBRANCH  27  28
ENDBRANCH   1  27
TORSDOF 18
ENDMDL
MODEL 3
REMARK VINA RESULT:     -11.5      1.730      2.109
REMARK SMILES CC(=O)N1CCC(C(=O)Nc2sccc2C(=O)NCCCCCCNC(=O)c2ccc(-c3c4nc(c(-c5cccc(S(=O)(=O)[O-])c5F)c5ccc([nH]5)c(-c5cccc(S(=O)(=O)[O-])c5F)c5nc(c(-c6cccc(S(=O)(=O)[O-])c6F)c6ccc3[nH]6)C=C5)C=C4)cc2)CC1
REMARK SMILES IDX 22 1 21 2 20 3 19 4 18 5 16 6 17 7 15 9 11 10 12 11 13 12
REMARK SMILES IDX 14 13 10 14 8 15 9 16 7 18 1 19 2 20 3 21 4 22 5 23 92 24
REMARK SMILES IDX 6 25 91 26 23 27 24 28 25 29 26 30 27 32 28 33 29 34 90 35
REMARK SMILES IDX 30 36 89 37 31 38 32 39 33 40 83 41 34 42 88 43 82 44 84 45
REMARK SMILES IDX 35 46 87 47 81 48 80 49 36 51 68 52 48 53 67 54 49 55 52 56
REMARK SMILES IDX 66 57 85 58 50 59 51 60 65 62 86 63 53 64 37 65 38 66 46 67
REMARK SMILES IDX 39 68 41 69 47 70 40 71 42 72 43 73 44 74 45 75 69 76 70 77
REMARK SMILES IDX 78 78 71 79 73 80 79 81 72 82 74 83 75 84 76 85 77 86 54 87
REMARK SMILES IDX 55 88 63 89 56 90 58 91 64 92 57 93 59 94 60 95 61 96 62 97
REMARK H PARENT 18 8 10 17 25 31 84 50 52 61
REMARK Flexibility Score: inf
ROOT
ATOM      1  C   UNL A   1      31.845  30.097  27.084  1.00  0.00     0.002 C 
ENDROOT
BRANCH   1   2
ATOM      2  C   UNL A   1      32.995  29.516  26.250  1.00  0.00     0.002 C 
BRANCH   2   3
ATOM      3  C   UNL A   1      33.771  28.336  26.855  1.00  0.00     0.021 C 
BRANCH   3   4
ATOM      4  C   UNL A   1      33.524  26.995  26.175  1.00  0.00     0.116 C 
BRANCH   4   5
ATOM      5  N   UNL A   1      32.242  26.419  26.496  1.00  0.00    -0.352 N 
ATOM      6  C   UNL A   1      31.149  26.164  25.710  1.00  0.00     0.254 C 
ATOM      7  O   UNL A   1      30.151  25.751  26.309  1.00  0.00    -0.269 OA
ATOM      8  H   UNL A   1      32.133  26.163  27.440  1.00  0.00     0.163 HD
BRANCH   6   9
ATOM      9  C   UNL A   1      31.101  26.392  24.252  1.00  0.00     0.074 A 
ATOM     10  C   UNL A   1      31.027  25.534  23.162  1.00  0.00     0.108 A 
ATOM     11  S   UNL A   1      31.390  26.323  21.683  1.00  0.00    -0.126 S 
ATOM     12  C   UNL A   1      31.225  27.858  22.390  1.00  0.00     0.068 A 
ATOM     13  C   UNL A   1      31.087  27.759  23.753  1.00  0.00     0.028 A 
BRANCH  10  14
ATOM     14  N   UNL A   1      30.852  24.190  22.939  1.00  0.00    -0.317 N 
ATOM     15  C   UNL A   1      31.607  23.109  23.282  1.00  0.00     0.228 C 
ATOM     16  O   UNL A   1      31.270  22.025  22.789  1.00  0.00    -0.274 OA
ATOM     17  H   UNL A   1      30.034  23.968  22.440  1.00  0.00     0.170 HD
BRANCH  15  18
ATOM     18  C   UNL A   1      32.732  23.116  24.315  1.00  0.00     0.082 C 
ATOM     19  C   UNL A   1      37.469  21.626  24.231  1.00  0.00     0.114 C 
ATOM     20  C   UNL A   1      36.161  21.178  24.833  1.00  0.00     0.219 C 
ATOM     21  O   UNL A   1      35.951  19.981  25.024  1.00  0.00    -0.275 OA
ATOM     22  N   UNL A   1      35.276  22.173  25.223  1.00  0.00    -0.343 N 
ATOM     23  C   UNL A   1      34.113  21.825  26.027  1.00  0.00     0.120 C 
ATOM     24  C   UNL A   1      35.213  23.505  24.634  1.00  0.00     0.120 C 
ATOM     25  C   UNL A   1      32.859  21.859  25.170  1.00  0.00     0.035 C 
ATOM     26  C   UNL A   1      34.049  23.550  23.648  1.00  0.00     0.035 C 
ENDBRANCH  15  18
ENDBRANCH  10  14
ENDBRANCH   6   9
ENDBRANCH   4   5
ENDBRANCH   3   4
ENDBRANCH   2   3
ENDBRANCH   1   2
BRANCH   1  27
ATOM     27  C   UNL A   1      31.389  31.516  26.743  1.00  0.00     0.021 C 
BRANCH  27  28
ATOM     28  C   UNL A   1      32.491  32.543  26.517  1.00  0.00     0.116 C 
BRANCH  28  29
ATOM     29  N   UNL A   1      32.275  33.799  27.211  1.00  0.00    -0.352 N 
ATOM     30  C   UNL A   1      32.980  34.342  28.262  1.00  0.00     0.251 C 
ATOM     31  H   UNL A   1      31.517  34.338  26.885  1.00  0.00     0.163 HD
ATOM     32  O   UNL A   1      32.609  35.388  28.772  1.00  0.00    -0.269 OA
BRANCH  30  33
ATOM     33  C   UNL A   1      34.167  33.631  28.797  1.00  0.00     0.039 A 
ATOM     34  C   UNL A   1      35.403  34.282  28.767  1.00  0.00     0.014 A 
ATOM     35  C   UNL A   1      34.068  32.345  29.334  1.00  0.00     0.014 A 
ATOM     36  C   UNL A   1      36.524  33.671  29.333  1.00  0.00     0.010 A 
ATOM     37  C   UNL A   1      35.168  31.770  29.966  1.00  0.00     0.010 A 
ATOM     38  C   UNL A   1      36.410  32.424  29.970  1.00  0.00    -0.014 A 
BRANCH  38  39
ATOM     39  C   UNL A   1      37.573  31.799  30.652  1.00  0.00     0.031 A 
ATOM     40  C   UNL A   1      38.395  30.751  29.951  1.00  0.00     0.074 A 
ATOM     41  C   UNL A   1      37.840  32.115  31.936  1.00  0.00     0.049 A 
ATOM     42  N   UNL A   1      39.415  30.065  30.401  1.00  0.00    -0.248 NA
ATOM     43  C   UNL A   1      38.007  30.408  28.573  1.00  0.00     0.031 C 
ATOM     44  C   UNL A   1      37.068  33.054  32.754  1.00  0.00     0.029 A 
ATOM     45  N   UNL A   1      38.817  31.661  32.788  1.00  0.00    -0.354 N 
ATOM     46  C   UNL A   1      39.764  29.188  29.381  1.00  0.00     0.074 A 
ATOM     47  C   UNL A   1      38.828  29.405  28.300  1.00  0.00     0.031 C 
ATOM     48  C   UNL A   1      37.604  33.110  33.983  1.00  0.00     0.029 A 
ATOM     49  C   UNL A   1      38.735  32.190  34.055  1.00  0.00     0.049 A 
ATOM     50  H   UNL A   1      39.511  31.018  32.517  1.00  0.00     0.167 HD
ATOM     51  C   UNL A   1      40.788  28.303  29.335  1.00  0.00     0.034 A 
ATOM     52  C   UNL A   1      39.480  31.956  35.153  1.00  0.00     0.034 A 
ATOM     53  C   UNL A   1      41.742  28.119  30.396  1.00  0.00     0.049 A 
ATOM     54  C   UNL A   1      40.635  30.996  35.062  1.00  0.00     0.074 A 
ATOM     55  C   UNL A   1      42.868  27.316  30.409  1.00  0.00     0.029 A 
ATOM     56  N   UNL A   1      41.676  28.736  31.635  1.00  0.00    -0.354 N 
ATOM     57  N   UNL A   1      41.050  30.299  34.033  1.00  0.00    -0.248 NA
ATOM     58  C   UNL A   1      41.450  30.820  36.274  1.00  0.00     0.031 C 
ATOM     59  C   UNL A   1      43.468  27.424  31.668  1.00  0.00     0.029 A 
ATOM     60  C   UNL A   1      42.734  28.322  32.426  1.00  0.00     0.049 A 
ATOM     61  H   UNL A   1      40.980  29.375  31.912  1.00  0.00     0.167 HD
ATOM     62  C   UNL A   1      42.192  29.630  34.460  1.00  0.00     0.074 A 
ATOM     63  C   UNL A   1      42.416  30.024  35.835  1.00  0.00     0.031 C 
ATOM     64  C   UNL A   1      42.976  28.759  33.778  1.00  0.00     0.034 A 
BRANCH  51  65
ATOM     65  C   UNL A   1      40.961  27.494  28.075  1.00  0.00     0.023 A 
ATOM     66  C   UNL A   1      41.488  28.106  26.919  1.00  0.00     0.012 A 
ATOM     67  C   UNL A   1      40.662  26.118  28.050  1.00  0.00     0.148 A 
ATOM     68  C   UNL A   1      41.679  27.373  25.749  1.00  0.00     0.002 A 
ATOM     69  C   UNL A   1      40.899  25.382  26.895  1.00  0.00     0.091 A 
ATOM     70  F   UNL A   1      40.143  25.556  29.152  1.00  0.00    -0.205 F 
ATOM     71  C   UNL A   1      41.395  26.010  25.741  1.00  0.00     0.022 A 
BRANCH  69  72
ATOM     72  S   UNL A   1      40.646  23.606  26.806  1.00  0.00     0.127 S 
ATOM     73  O   UNL A   1      41.058  23.183  28.145  1.00  0.00    -0.237 OA
ATOM     74  O   UNL A   1      39.208  23.512  26.555  1.00  0.00    -0.237 OA
ATOM     75  O   UNL A   1      41.487  23.132  25.716  1.00  0.00    -0.744 OA
ENDBRANCH  69  72
ENDBRANCH  51  65
BRANCH  52  76
ATOM     76  C   UNL A   1      39.191  32.688  36.420  1.00  0.00     0.023 A 
ATOM     77  C   UNL A   1      39.783  33.946  36.644  1.00  0.00     0.012 A 
ATOM     78  C   UNL A   1      38.320  32.157  37.392  1.00  0.00     0.148 A 
ATOM     79  C   UNL A   1      39.542  34.647  37.826  1.00  0.00     0.002 A 
ATOM     80  C   UNL A   1      38.040  32.886  38.542  1.00  0.00     0.091 A 
ATOM     81  F   UNL A   1      37.775  30.953  37.166  1.00  0.00    -0.205 F 
ATOM     82  C   UNL A   1      38.663  34.122  38.770  1.00  0.00     0.022 A 
BRANCH  80  83
ATOM     83  S   UNL A   1      36.825  32.349  39.752  1.00  0.00     0.127 S 
ATOM     84  O   UNL A   1      37.360  31.051  40.156  1.00  0.00    -0.237 OA
ATOM     85  O   UNL A   1      36.925  33.399  40.765  1.00  0.00    -0.237 OA
ATOM     86  O   UNL A   1      35.552  32.314  39.044  1.00  0.00    -0.744 OA
ENDBRANCH  80  83
ENDBRANCH  52  76
BRANCH  64  87
ATOM     87  C   UNL A   1      44.179  28.196  34.489  1.00  0.00     0.023 A 
ATOM     88  C   UNL A   1      45.390  28.916  34.504  1.00  0.00     0.012 A 
ATOM     89  C   UNL A   1      44.085  26.985  35.206  1.00  0.00     0.148 A 
ATOM     90  C   UNL A   1      46.498  28.424  35.193  1.00  0.00     0.002 A 
ATOM     91  C   UNL A   1      45.176  26.529  35.933  1.00  0.00     0.091 A 
ATOM     92  F   UNL A   1      42.929  26.306  35.165  1.00  0.00    -0.205 F 
ATOM     93  C   UNL A   1      46.387  27.238  35.917  1.00  0.00     0.022 A 
BRANCH  91  94
ATOM     94  S   UNL A   1      45.097  25.066  36.974  1.00  0.00     0.127 S 
ATOM     95  O   UNL A   1      43.909  25.339  37.780  1.00  0.00    -0.237 OA
ATOM     96  O   UNL A   1      44.935  23.995  35.992  1.00  0.00    -0.237 OA
ATOM     97  O   UNL A   1      46.354  25.027  37.708  1.00  0.00    -0.744 OA
ENDBRANCH  91  94
ENDBRANCH  64  87
ENDBRANCH  38  39
ENDBRANCH  30  33
ENDBRANCH  28  29
ENDBRANCH  27  28
ENDBRANCH   1  27
TORSDOF 18
ENDMDL
