MODEL 1
REMARK VINA RESULT:     -12.2      0.000      0.000
REMARK SMILES C[C@@H]1CN(C(=O)Nc2ccc(O)c(C(=O)NCCCCCCNC(=O)c3ccc(-c4c5nc(c(-c6cccc(S(=O)(=O)[O-])c6F)c6ccc([nH]6)c(-c6cccc(S(=O)(=O)[O-])c6F)c6nc(c(-c7cccc(S(=O)(=O)[O-])c7F)c7ccc4[nH]7)C=C6)C=C5)cc3)c2)C[C@H]1C
REMARK SMILES IDX 20 1 19 2 18 3 17 4 16 5 14 6 15 7 13 9 8 10 9 11 89 12
REMARK SMILES IDX 10 13 11 14 7 15 1 16 2 17 3 18 91 19 4 20 90 21 92 22 5 23
REMARK SMILES IDX 6 24 12 26 21 28 22 29 23 30 24 31 25 33 26 34 27 35 88 36
REMARK SMILES IDX 28 37 87 38 29 39 30 40 31 41 81 42 32 43 86 44 80 45 82 46
REMARK SMILES IDX 33 47 85 48 79 49 78 50 34 52 66 53 46 54 65 55 47 56 50 57
REMARK SMILES IDX 64 58 83 59 48 60 49 61 63 63 84 64 51 65 35 66 36 67 44 68
REMARK SMILES IDX 37 69 39 70 45 71 38 72 40 73 41 74 42 75 43 76 67 77 68 78
REMARK SMILES IDX 76 79 69 80 71 81 77 82 70 83 72 84 73 85 74 86 75 87 52 88
REMARK SMILES IDX 53 89 61 90 54 91 56 92 62 93 55 94 57 95 58 96 59 97 60 98
REMARK H PARENT 16 8 7 25 12 27 23 32 82 51 50 62
REMARK Flexibility Score: inf
ROOT
ATOM      1  C   UNL A   1      35.667  20.516  25.006  1.00  0.00     0.002 C 
ENDROOT
BRANCH   1   2
ATOM      2  C   UNL A   1      35.760  21.891  25.672  1.00  0.00     0.002 C 
BRANCH   2   3
ATOM      3  C   UNL A   1      35.002  22.008  26.998  1.00  0.00     0.021 C 
BRANCH   3   4
ATOM      4  C   UNL A   1      33.654  21.281  27.009  1.00  0.00     0.116 C 
BRANCH   4   5
ATOM      5  N   UNL A   1      32.593  22.215  27.315  1.00  0.00    -0.352 N 
ATOM      6  C   UNL A   1      32.159  23.350  26.688  1.00  0.00     0.255 C 
ATOM      7  O   UNL A   1      31.247  23.966  27.251  1.00  0.00    -0.269 OA
ATOM      8  H   UNL A   1      32.087  21.990  28.128  1.00  0.00     0.163 HD
BRANCH   6   9
ATOM      9  C   UNL A   1      32.624  23.849  25.358  1.00  0.00     0.083 A 
ATOM     10  C   UNL A   1      33.442  25.848  24.212  1.00  0.00     0.043 A 
ATOM     11  C   UNL A   1      33.639  25.118  23.048  1.00  0.00     0.030 A 
ATOM     12  C   UNL A   1      33.024  25.201  25.376  1.00  0.00     0.044 A 
ATOM     13  C   UNL A   1      33.256  23.782  23.003  1.00  0.00     0.049 A 
ATOM     14  C   UNL A   1      32.723  23.162  24.141  1.00  0.00     0.128 A 
BRANCH  10  15
ATOM     15  N   UNL A   1      33.630  27.229  24.258  1.00  0.00    -0.308 N 
ATOM     16  C   UNL A   1      28.257  26.810  23.876  1.00  0.00     0.010 C 
ATOM     17  C   UNL A   1      29.365  27.453  23.056  1.00  0.00     0.010 C 
ATOM     18  C   UNL A   1      30.744  26.984  23.507  1.00  0.00     0.125 C 
ATOM     19  C   UNL A   1      29.468  28.974  23.182  1.00  0.00     0.010 C 
ATOM     20  N   UNL A   1      31.660  28.089  23.239  1.00  0.00    -0.324 N 
ATOM     21  C   UNL A   1      30.915  29.241  22.755  1.00  0.00     0.125 C 
ATOM     22  C   UNL A   1      28.457  29.712  22.320  1.00  0.00     0.010 C 
ATOM     23  C   UNL A   1      32.974  28.239  23.619  1.00  0.00     0.321 C 
ATOM     24  O   UNL A   1      33.554  29.325  23.529  1.00  0.00    -0.248 OA
ATOM     25  H   UNL A   1      34.359  27.525  24.851  1.00  0.00     0.171 HD
ENDBRANCH  10  15
BRANCH  14  26
ATOM     26  O   UNL A   1      32.353  21.861  23.984  1.00  0.00    -0.507 OA
ATOM     27  H   UNL A   1      31.676  21.499  24.522  1.00  0.00     0.293 HD
ENDBRANCH  14  26
ENDBRANCH   6   9
ENDBRANCH   4   5
ENDBRANCH   3   4
ENDBRANCH   2   3
ENDBRANCH   1   2
BRANCH   1  28
ATOM     28  C   UNL A   1      37.015  19.868  24.680  1.00  0.00     0.021 C 
BRANCH  28  29
ATOM     29  C   UNL A   1      38.204  20.517  25.382  1.00  0.00     0.116 C 
BRANCH  29  30
ATOM     30  N   UNL A   1      39.218  19.532  25.731  1.00  0.00    -0.352 N 
ATOM     31  C   UNL A   1      40.519  19.735  26.121  1.00  0.00     0.251 C 
ATOM     32  H   UNL A   1      38.932  18.591  25.680  1.00  0.00     0.163 HD
ATOM     33  O   UNL A   1      41.318  18.807  26.125  1.00  0.00    -0.269 OA
BRANCH  31  34
ATOM     34  C   UNL A   1      40.943  21.090  26.530  1.00  0.00     0.039 A 
ATOM     35  C   UNL A   1      41.768  21.243  27.646  1.00  0.00     0.014 A 
ATOM     36  C   UNL A   1      40.528  22.205  25.796  1.00  0.00     0.014 A 
ATOM     37  C   UNL A   1      42.227  22.515  27.991  1.00  0.00     0.010 A 
ATOM     38  C   UNL A   1      41.048  23.458  26.096  1.00  0.00     0.010 A 
ATOM     39  C   UNL A   1      41.898  23.629  27.200  1.00  0.00    -0.014 A 
BRANCH  39  40
ATOM     40  C   UNL A   1      42.433  24.980  27.496  1.00  0.00     0.031 A 
ATOM     41  C   UNL A   1      41.553  26.013  28.144  1.00  0.00     0.074 A 
ATOM     42  C   UNL A   1      43.676  25.308  27.089  1.00  0.00     0.049 A 
ATOM     43  N   UNL A   1      41.805  27.271  28.395  1.00  0.00    -0.248 NA
ATOM     44  C   UNL A   1      40.199  25.584  28.535  1.00  0.00     0.031 C 
ATOM     45  C   UNL A   1      44.599  24.415  26.384  1.00  0.00     0.029 A 
ATOM     46  N   UNL A   1      44.365  26.492  27.178  1.00  0.00    -0.354 N 
ATOM     47  C   UNL A   1      40.636  27.792  28.935  1.00  0.00     0.074 A 
ATOM     48  C   UNL A   1      39.661  26.724  28.945  1.00  0.00     0.031 C 
ATOM     49  C   UNL A   1      45.730  25.082  26.107  1.00  0.00     0.029 A 
ATOM     50  C   UNL A   1      45.601  26.457  26.576  1.00  0.00     0.049 A 
ATOM     51  H   UNL A   1      44.008  27.290  27.630  1.00  0.00     0.167 HD
ATOM     52  C   UNL A   1      40.402  29.041  29.406  1.00  0.00     0.034 A 
ATOM     53  C   UNL A   1      46.519  27.428  26.406  1.00  0.00     0.034 A 
ATOM     54  C   UNL A   1      41.386  30.088  29.429  1.00  0.00     0.049 A 
ATOM     55  C   UNL A   1      46.244  28.800  26.960  1.00  0.00     0.074 A 
ATOM     56  C   UNL A   1      41.276  31.360  29.962  1.00  0.00     0.029 A 
ATOM     57  N   UNL A   1      42.657  29.991  28.884  1.00  0.00    -0.354 N 
ATOM     58  N   UNL A   1      45.186  29.232  27.603  1.00  0.00    -0.248 NA
ATOM     59  C   UNL A   1      47.300  29.809  26.795  1.00  0.00     0.031 C 
ATOM     60  C   UNL A   1      42.469  32.043  29.710  1.00  0.00     0.029 A 
ATOM     61  C   UNL A   1      43.337  31.184  29.055  1.00  0.00     0.049 A 
ATOM     62  H   UNL A   1      43.022  29.190  28.441  1.00  0.00     0.167 HD
ATOM     63  C   UNL A   1      45.465  30.547  27.954  1.00  0.00     0.074 A 
ATOM     64  C   UNL A   1      46.798  30.837  27.467  1.00  0.00     0.031 C 
ATOM     65  C   UNL A   1      44.684  31.440  28.612  1.00  0.00     0.034 A 
BRANCH  52  66
ATOM     66  C   UNL A   1      39.037  29.332  29.975  1.00  0.00     0.023 A 
ATOM     67  C   UNL A   1      38.718  28.900  31.280  1.00  0.00     0.012 A 
ATOM     68  C   UNL A   1      38.094  30.082  29.246  1.00  0.00     0.148 A 
ATOM     69  C   UNL A   1      37.469  29.177  31.835  1.00  0.00     0.002 A 
ATOM     70  C   UNL A   1      36.870  30.397  29.825  1.00  0.00     0.091 A 
ATOM     71  F   UNL A   1      38.408  30.466  28.001  1.00  0.00    -0.205 F 
ATOM     72  C   UNL A   1      36.552  29.934  31.112  1.00  0.00     0.022 A 
BRANCH  70  73
ATOM     73  S   UNL A   1      35.652  31.436  29.011  1.00  0.00     0.127 S 
ATOM     74  O   UNL A   1      34.973  30.471  28.146  1.00  0.00    -0.237 OA
ATOM     75  O   UNL A   1      34.853  31.912  30.140  1.00  0.00    -0.237 OA
ATOM     76  O   UNL A   1      36.404  32.471  28.317  1.00  0.00    -0.744 OA
ENDBRANCH  70  73
ENDBRANCH  52  66
BRANCH  53  77
ATOM     77  C   UNL A   1      47.809  27.125  25.722  1.00  0.00     0.023 A 
ATOM     78  C   UNL A   1      48.855  26.525  26.450  1.00  0.00     0.012 A 
ATOM     79  C   UNL A   1      47.997  27.406  24.354  1.00  0.00     0.148 A 
ATOM     80  C   UNL A   1      50.077  26.245  25.838  1.00  0.00     0.002 A 
ATOM     81  C   UNL A   1      49.197  27.070  23.737  1.00  0.00     0.091 A 
ATOM     82  F   UNL A   1      46.992  27.983  23.681  1.00  0.00    -0.205 F 
ATOM     83  C   UNL A   1      50.245  26.509  24.481  1.00  0.00     0.022 A 
BRANCH  81  84
ATOM     84  S   UNL A   1      49.453  27.254  21.968  1.00  0.00     0.127 S 
ATOM     85  O   UNL A   1      50.898  27.077  21.855  1.00  0.00    -0.237 OA
ATOM     86  O   UNL A   1      48.653  26.152  21.433  1.00  0.00    -0.237 OA
ATOM     87  O   UNL A   1      48.951  28.578  21.631  1.00  0.00    -0.744 OA
ENDBRANCH  81  84
ENDBRANCH  53  77
BRANCH  65  88
ATOM     88  C   UNL A   1      45.258  32.804  28.892  1.00  0.00     0.023 A 
ATOM     89  C   UNL A   1      46.029  33.021  30.052  1.00  0.00     0.012 A 
ATOM     90  C   UNL A   1      45.103  33.847  27.958  1.00  0.00     0.148 A 
ATOM     91  C   UNL A   1      46.611  34.264  30.290  1.00  0.00     0.002 A 
ATOM     92  C   UNL A   1      45.731  35.067  28.178  1.00  0.00     0.091 A 
ATOM     93  F   UNL A   1      44.352  33.625  26.870  1.00  0.00    -0.205 F 
ATOM     94  C   UNL A   1      46.474  35.282  29.349  1.00  0.00     0.022 A 
BRANCH  92  95
ATOM     95  S   UNL A   1      45.694  36.401  26.975  1.00  0.00     0.127 S 
ATOM     96  O   UNL A   1      46.596  37.376  27.585  1.00  0.00    -0.237 OA
ATOM     97  O   UNL A   1      46.221  35.749  25.776  1.00  0.00    -0.237 OA
ATOM     98  O   UNL A   1      44.302  36.819  26.876  1.00  0.00    -0.744 OA
ENDBRANCH  92  95
ENDBRANCH  65  88
ENDBRANCH  39  40
ENDBRANCH  31  34
ENDBRANCH  29  30
ENDBRANCH  28  29
ENDBRANCH   1  28
TORSDOF 18
ENDMDL
MODEL 2
REMARK VINA RESULT:     -11.9      1.667      2.104
REMARK SMILES C[C@@H]1CN(C(=O)Nc2ccc(O)c(C(=O)NCCCCCCNC(=O)c3ccc(-c4c5nc(c(-c6cccc(S(=O)(=O)[O-])c6F)c6ccc([nH]6)c(-c6cccc(S(=O)(=O)[O-])c6F)c6nc(c(-c7cccc(S(=O)(=O)[O-])c7F)c7ccc4[nH]7)C=C6)C=C5)cc3)c2)C[C@H]1C
REMARK SMILES IDX 20 1 19 2 18 3 17 4 16 5 14 6 15 7 13 9 8 10 9 11 89 12
REMARK SMILES IDX 10 13 11 14 7 15 1 16 2 17 3 18 91 19 4 20 90 21 92 22 5 23
REMARK SMILES IDX 6 24 12 26 21 28 22 29 23 30 24 31 25 33 26 34 27 35 88 36
REMARK SMILES IDX 28 37 87 38 29 39 30 40 31 41 81 42 32 43 86 44 80 45 82 46
REMARK SMILES IDX 33 47 85 48 79 49 78 50 34 52 66 53 46 54 65 55 47 56 50 57
REMARK SMILES IDX 64 58 83 59 48 60 49 61 63 63 84 64 51 65 35 66 36 67 44 68
REMARK SMILES IDX 37 69 39 70 45 71 38 72 40 73 41 74 42 75 43 76 67 77 68 78
REMARK SMILES IDX 76 79 69 80 71 81 77 82 70 83 72 84 73 85 74 86 75 87 52 88
REMARK SMILES IDX 53 89 61 90 54 91 56 92 62 93 55 94 57 95 58 96 59 97 60 98
REMARK H PARENT 16 8 7 25 12 27 23 32 82 51 50 62
REMARK Flexibility Score: inf
ROOT
ATOM      1  C   UNL A   1      37.329  21.590  24.577  1.00  0.00     0.002 C 
ENDROOT
BRANCH   1   2
ATOM      2  C   UNL A   1      35.811  21.460  24.423  1.00  0.00     0.002 C 
BRANCH   2   3
ATOM      3  C   UNL A   1      35.153  20.483  25.402  1.00  0.00     0.021 C 
BRANCH   3   4
ATOM      4  C   UNL A   1      33.781  19.977  24.946  1.00  0.00     0.116 C 
BRANCH   4   5
ATOM      5  N   UNL A   1      32.737  20.758  25.571  1.00  0.00    -0.352 N 
ATOM      6  C   UNL A   1      32.251  22.012  25.320  1.00  0.00     0.255 C 
ATOM      7  O   UNL A   1      31.375  22.419  26.092  1.00  0.00    -0.269 OA
ATOM      8  H   UNL A   1      32.290  20.300  26.319  1.00  0.00     0.163 HD
BRANCH   6   9
ATOM      9  C   UNL A   1      32.619  22.877  24.158  1.00  0.00     0.083 A 
ATOM     10  C   UNL A   1      33.550  25.063  23.586  1.00  0.00     0.043 A 
ATOM     11  C   UNL A   1      33.514  24.741  22.236  1.00  0.00     0.030 A 
ATOM     12  C   UNL A   1      33.191  24.109  24.537  1.00  0.00     0.044 A 
ATOM     13  C   UNL A   1      32.958  23.532  21.834  1.00  0.00     0.049 A 
ATOM     14  C   UNL A   1      32.485  22.621  22.788  1.00  0.00     0.128 A 
BRANCH  10  15
ATOM     15  N   UNL A   1      33.921  26.332  24.032  1.00  0.00    -0.308 N 
ATOM     16  C   UNL A   1      28.537  26.719  23.800  1.00  0.00     0.010 C 
ATOM     17  C   UNL A   1      29.714  27.436  23.157  1.00  0.00     0.010 C 
ATOM     18  C   UNL A   1      31.021  26.685  23.380  1.00  0.00     0.125 C 
ATOM     19  C   UNL A   1      30.019  28.823  23.726  1.00  0.00     0.010 C 
ATOM     20  N   UNL A   1      32.074  27.697  23.411  1.00  0.00    -0.324 N 
ATOM     21  C   UNL A   1      31.485  29.024  23.328  1.00  0.00     0.125 C 
ATOM     22  C   UNL A   1      29.108  29.906  23.172  1.00  0.00     0.010 C 
ATOM     23  C   UNL A   1      33.399  27.561  23.755  1.00  0.00     0.321 C 
ATOM     24  O   UNL A   1      34.118  28.543  23.965  1.00  0.00    -0.248 OA
ATOM     25  H   UNL A   1      34.687  26.342  24.650  1.00  0.00     0.171 HD
ENDBRANCH  10  15
BRANCH  14  26
ATOM     26  O   UNL A   1      31.933  21.481  22.290  1.00  0.00    -0.507 OA
ATOM     27  H   UNL A   1      31.160  21.527  21.762  1.00  0.00     0.293 HD
ENDBRANCH  14  26
ENDBRANCH   6   9
ENDBRANCH   4   5
ENDBRANCH   3   4
ENDBRANCH   2   3
ENDBRANCH   1   2
BRANCH   1  28
ATOM     28  C   UNL A   1      38.039  20.313  25.034  1.00  0.00     0.021 C 
BRANCH  28  29
ATOM     29  C   UNL A   1      39.151  20.550  26.051  1.00  0.00     0.116 C 
BRANCH  29  30
ATOM     30  N   UNL A   1      40.122  19.464  26.039  1.00  0.00    -0.352 N 
ATOM     31  C   UNL A   1      41.493  19.534  26.017  1.00  0.00     0.251 C 
ATOM     32  H   UNL A   1      39.743  18.555  26.048  1.00  0.00     0.163 HD
ATOM     33  O   UNL A   1      42.162  18.545  25.745  1.00  0.00    -0.269 OA
BRANCH  31  34
ATOM     34  C   UNL A   1      42.152  20.822  26.321  1.00  0.00     0.039 A 
ATOM     35  C   UNL A   1      42.490  21.683  25.275  1.00  0.00     0.014 A 
ATOM     36  C   UNL A   1      42.421  21.175  27.646  1.00  0.00     0.014 A 
ATOM     37  C   UNL A   1      43.048  22.929  25.566  1.00  0.00     0.010 A 
ATOM     38  C   UNL A   1      42.904  22.445  27.935  1.00  0.00     0.010 A 
ATOM     39  C   UNL A   1      43.228  23.334  26.899  1.00  0.00    -0.014 A 
BRANCH  39  40
ATOM     40  C   UNL A   1      43.745  24.682  27.240  1.00  0.00     0.031 A 
ATOM     41  C   UNL A   1      42.806  25.742  27.748  1.00  0.00     0.074 A 
ATOM     42  C   UNL A   1      45.037  24.982  26.995  1.00  0.00     0.049 A 
ATOM     43  N   UNL A   1      43.047  27.000  28.009  1.00  0.00    -0.248 NA
ATOM     44  C   UNL A   1      41.405  25.343  27.965  1.00  0.00     0.031 C 
ATOM     45  C   UNL A   1      46.027  24.060  26.434  1.00  0.00     0.029 A 
ATOM     46  N   UNL A   1      45.730  26.156  27.154  1.00  0.00    -0.354 N 
ATOM     47  C   UNL A   1      41.827  27.551  28.381  1.00  0.00     0.074 A 
ATOM     48  C   UNL A   1      40.840  26.499  28.280  1.00  0.00     0.031 C 
ATOM     49  C   UNL A   1      47.198  24.703  26.297  1.00  0.00     0.029 A 
ATOM     50  C   UNL A   1      47.034  26.089  26.721  1.00  0.00     0.049 A 
ATOM     51  H   UNL A   1      45.331  26.968  27.540  1.00  0.00     0.167 HD
ATOM     52  C   UNL A   1      41.556  28.812  28.795  1.00  0.00     0.034 A 
ATOM     53  C   UNL A   1      47.984  27.041  26.657  1.00  0.00     0.034 A 
ATOM     54  C   UNL A   1      42.548  29.843  28.929  1.00  0.00     0.049 A 
ATOM     55  C   UNL A   1      47.664  28.428  27.146  1.00  0.00     0.074 A 
ATOM     56  C   UNL A   1      42.393  31.127  29.421  1.00  0.00     0.029 A 
ATOM     57  N   UNL A   1      43.878  29.715  28.559  1.00  0.00    -0.354 N 
ATOM     58  N   UNL A   1      46.539  28.890  27.636  1.00  0.00    -0.248 NA
ATOM     59  C   UNL A   1      48.752  29.417  27.104  1.00  0.00     0.031 C 
ATOM     60  C   UNL A   1      43.621  31.785  29.317  1.00  0.00     0.029 A 
ATOM     61  C   UNL A   1      44.552  30.899  28.798  1.00  0.00     0.049 A 
ATOM     62  H   UNL A   1      44.283  28.900  28.182  1.00  0.00     0.167 HD
ATOM     63  C   UNL A   1      46.794  30.207  27.999  1.00  0.00     0.074 A 
ATOM     64  C   UNL A   1      48.185  30.465  27.686  1.00  0.00     0.031 C 
ATOM     65  C   UNL A   1      45.950  31.125  28.532  1.00  0.00     0.034 A 
BRANCH  52  66
ATOM     66  C   UNL A   1      40.134  29.136  29.174  1.00  0.00     0.023 A 
ATOM     67  C   UNL A   1      39.195  29.440  28.166  1.00  0.00     0.012 A 
ATOM     68  C   UNL A   1      39.713  29.082  30.517  1.00  0.00     0.148 A 
ATOM     69  C   UNL A   1      37.868  29.722  28.493  1.00  0.00     0.002 A 
ATOM     70  C   UNL A   1      38.379  29.316  30.829  1.00  0.00     0.091 A 
ATOM     71  F   UNL A   1      40.625  28.812  31.462  1.00  0.00    -0.205 F 
ATOM     72  C   UNL A   1      37.460  29.648  29.821  1.00  0.00     0.022 A 
BRANCH  70  73
ATOM     73  S   UNL A   1      37.734  29.165  32.499  1.00  0.00     0.127 S 
ATOM     74  O   UNL A   1      38.628  30.053  33.241  1.00  0.00    -0.237 OA
ATOM     75  O   UNL A   1      36.367  29.663  32.344  1.00  0.00    -0.237 OA
ATOM     76  O   UNL A   1      37.833  27.754  32.843  1.00  0.00    -0.744 OA
ENDBRANCH  70  73
ENDBRANCH  52  66
BRANCH  53  77
ATOM     77  C   UNL A   1      49.347  26.703  26.154  1.00  0.00     0.023 A 
ATOM     78  C   UNL A   1      50.207  25.926  26.954  1.00  0.00     0.012 A 
ATOM     79  C   UNL A   1      49.786  27.128  24.885  1.00  0.00     0.148 A 
ATOM     80  C   UNL A   1      51.493  25.609  26.515  1.00  0.00     0.002 A 
ATOM     81  C   UNL A   1      51.047  26.759  24.429  1.00  0.00     0.091 A 
ATOM     82  F   UNL A   1      48.955  27.873  24.142  1.00  0.00    -0.205 F 
ATOM     83  C   UNL A   1      51.909  26.017  25.250  1.00  0.00     0.022 A 
BRANCH  81  84
ATOM     84  S   UNL A   1      51.614  27.128  22.765  1.00  0.00     0.127 S 
ATOM     85  O   UNL A   1      51.862  28.566  22.845  1.00  0.00    -0.237 OA
ATOM     86  O   UNL A   1      52.816  26.300  22.667  1.00  0.00    -0.237 OA
ATOM     87  O   UNL A   1      50.532  26.723  21.879  1.00  0.00    -0.744 OA
ENDBRANCH  81  84
ENDBRANCH  53  77
BRANCH  65  88
ATOM     88  C   UNL A   1      46.508  32.485  28.862  1.00  0.00     0.023 A 
ATOM     89  C   UNL A   1      47.104  32.718  30.117  1.00  0.00     0.012 A 
ATOM     90  C   UNL A   1      46.516  33.505  27.890  1.00  0.00     0.148 A 
ATOM     91  C   UNL A   1      47.673  33.956  30.410  1.00  0.00     0.002 A 
ATOM     92  C   UNL A   1      47.132  34.719  28.172  1.00  0.00     0.091 A 
ATOM     93  F   UNL A   1      45.929  33.269  26.709  1.00  0.00    -0.205 F 
ATOM     94  C   UNL A   1      47.700  34.950  29.435  1.00  0.00     0.022 A 
BRANCH  92  95
ATOM     95  S   UNL A   1      47.304  36.020  26.946  1.00  0.00     0.127 S 
ATOM     96  O   UNL A   1      45.908  36.350  26.665  1.00  0.00    -0.237 OA
ATOM     97  O   UNL A   1      48.035  37.048  27.688  1.00  0.00    -0.237 OA
ATOM     98  O   UNL A   1      48.040  35.435  25.834  1.00  0.00    -0.744 OA
ENDBRANCH  92  95
ENDBRANCH  65  88
ENDBRANCH  39  40
ENDBRANCH  31  34
ENDBRANCH  29  30
ENDBRANCH  28  29
ENDBRANCH   1  28
TORSDOF 18
ENDMDL
MODEL 3
REMARK VINA RESULT:     -11.8      2.515      7.912
REMARK SMILES C[C@@H]1CN(C(=O)Nc2ccc(O)c(C(=O)NCCCCCCNC(=O)c3ccc(-c4c5nc(c(-c6cccc(S(=O)(=O)[O-])c6F)c6ccc([nH]6)c(-c6cccc(S(=O)(=O)[O-])c6F)c6nc(c(-c7cccc(S(=O)(=O)[O-])c7F)c7ccc4[nH]7)C=C6)C=C5)cc3)c2)C[C@H]1C
REMARK SMILES IDX 20 1 19 2 18 3 17 4 16 5 14 6 15 7 13 9 8 10 9 11 89 12
REMARK SMILES IDX 10 13 11 14 7 15 1 16 2 17 3 18 91 19 4 20 90 21 92 22 5 23
REMARK SMILES IDX 6 24 12 26 21 28 22 29 23 30 24 31 25 33 26 34 27 35 88 36
REMARK SMILES IDX 28 37 87 38 29 39 30 40 31 41 81 42 32 43 86 44 80 45 82 46
REMARK SMILES IDX 33 47 85 48 79 49 78 50 34 52 66 53 46 54 65 55 47 56 50 57
REMARK SMILES IDX 64 58 83 59 48 60 49 61 63 63 84 64 51 65 35 66 36 67 44 68
REMARK SMILES IDX 37 69 39 70 45 71 38 72 40 73 41 74 42 75 43 76 67 77 68 78
REMARK SMILES IDX 76 79 69 80 71 81 77 82 70 83 72 84 73 85 74 86 75 87 52 88
REMARK SMILES IDX 53 89 61 90 54 91 56 92 62 93 55 94 57 95 58 96 59 97 60 98
REMARK H PARENT 16 8 7 25 12 27 23 32 82 51 50 62
REMARK Flexibility Score: inf
ROOT
ATOM      1  C   UNL A   1      36.541  21.755  24.356  1.00  0.00     0.002 C 
ENDROOT
BRANCH   1   2
ATOM      2  C   UNL A   1      35.678  20.578  24.818  1.00  0.00     0.002 C 
BRANCH   2   3
ATOM      3  C   UNL A   1      34.503  20.966  25.719  1.00  0.00     0.021 C 
BRANCH   3   4
ATOM      4  C   UNL A   1      33.251  20.106  25.513  1.00  0.00     0.116 C 
BRANCH   4   5
ATOM      5  N   UNL A   1      32.066  20.891  25.777  1.00  0.00    -0.352 N 
ATOM      6  C   UNL A   1      31.644  22.104  25.307  1.00  0.00     0.255 C 
ATOM      7  O   UNL A   1      30.587  22.533  25.786  1.00  0.00    -0.269 OA
ATOM      8  H   UNL A   1      31.446  20.472  26.416  1.00  0.00     0.163 HD
BRANCH   6   9
ATOM      9  C   UNL A   1      32.291  22.895  24.217  1.00  0.00     0.083 A 
ATOM     10  C   UNL A   1      33.492  24.979  23.783  1.00  0.00     0.043 A 
ATOM     11  C   UNL A   1      33.679  24.612  22.457  1.00  0.00     0.030 A 
ATOM     12  C   UNL A   1      32.884  24.091  24.670  1.00  0.00     0.044 A 
ATOM     13  C   UNL A   1      33.108  23.437  21.984  1.00  0.00     0.049 A 
ATOM     14  C   UNL A   1      32.391  22.601  22.851  1.00  0.00     0.128 A 
BRANCH  10  15
ATOM     15  N   UNL A   1      33.879  26.230  24.263  1.00  0.00    -0.308 N 
ATOM     16  C   UNL A   1      28.533  26.801  23.737  1.00  0.00     0.010 C 
ATOM     17  C   UNL A   1      29.767  27.484  23.168  1.00  0.00     0.010 C 
ATOM     18  C   UNL A   1      31.034  26.688  23.456  1.00  0.00     0.125 C 
ATOM     19  C   UNL A   1      30.085  28.854  23.769  1.00  0.00     0.010 C 
ATOM     20  N   UNL A   1      32.117  27.662  23.556  1.00  0.00    -0.324 N 
ATOM     21  C   UNL A   1      31.577  29.010  23.457  1.00  0.00     0.125 C 
ATOM     22  C   UNL A   1      29.243  29.973  23.179  1.00  0.00     0.010 C 
ATOM     23  C   UNL A   1      33.415  27.479  23.972  1.00  0.00     0.321 C 
ATOM     24  O   UNL A   1      34.153  28.434  24.234  1.00  0.00    -0.248 OA
ATOM     25  H   UNL A   1      34.609  26.209  24.924  1.00  0.00     0.171 HD
ENDBRANCH  10  15
BRANCH  14  26
ATOM     26  O   UNL A   1      31.848  21.490  22.283  1.00  0.00    -0.507 OA
ATOM     27  H   UNL A   1      31.051  21.132  22.623  1.00  0.00     0.293 HD
ENDBRANCH  14  26
ENDBRANCH   6   9
ENDBRANCH   4   5
ENDBRANCH   3   4
ENDBRANCH   2   3
ENDBRANCH   1   2
BRANCH   1  28
ATOM     28  C   UNL A   1      36.266  23.076  25.080  1.00  0.00     0.021 C 
BRANCH  28  29
ATOM     29  C   UNL A   1      37.314  23.441  26.127  1.00  0.00     0.116 C 
BRANCH  29  30
ATOM     30  N   UNL A   1      38.368  22.438  26.197  1.00  0.00    -0.352 N 
ATOM     31  C   UNL A   1      39.716  22.616  26.386  1.00  0.00     0.251 C 
ATOM     32  H   UNL A   1      38.073  21.504  26.095  1.00  0.00     0.163 HD
ATOM     33  O   UNL A   1      40.501  21.704  26.159  1.00  0.00    -0.269 OA
BRANCH  31  34
ATOM     34  C   UNL A   1      40.208  23.926  26.860  1.00  0.00     0.039 A 
ATOM     35  C   UNL A   1      40.387  24.964  25.945  1.00  0.00     0.014 A 
ATOM     36  C   UNL A   1      40.480  24.122  28.217  1.00  0.00     0.014 A 
ATOM     37  C   UNL A   1      40.784  26.222  26.402  1.00  0.00     0.010 A 
ATOM     38  C   UNL A   1      40.800  25.393  28.678  1.00  0.00     0.010 A 
ATOM     39  C   UNL A   1      40.962  26.455  27.776  1.00  0.00    -0.014 A 
BRANCH  39  40
ATOM     40  C   UNL A   1      41.307  27.800  28.299  1.00  0.00     0.031 A 
ATOM     41  C   UNL A   1      42.748  28.180  28.506  1.00  0.00     0.074 A 
ATOM     42  C   UNL A   1      40.323  28.639  28.684  1.00  0.00     0.049 A 
ATOM     43  N   UNL A   1      43.246  29.264  29.040  1.00  0.00    -0.248 NA
ATOM     44  C   UNL A   1      43.762  27.199  28.086  1.00  0.00     0.031 C 
ATOM     45  C   UNL A   1      38.889  28.354  28.600  1.00  0.00     0.029 A 
ATOM     46  N   UNL A   1      40.381  29.886  29.252  1.00  0.00    -0.354 N 
ATOM     47  C   UNL A   1      44.623  29.082  29.055  1.00  0.00     0.074 A 
ATOM     48  C   UNL A   1      44.882  27.768  28.509  1.00  0.00     0.031 C 
ATOM     49  C   UNL A   1      38.205  29.395  29.099  1.00  0.00     0.029 A 
ATOM     50  C   UNL A   1      39.147  30.404  29.572  1.00  0.00     0.049 A 
ATOM     51  H   UNL A   1      41.225  30.365  29.416  1.00  0.00     0.167 HD
ATOM     52  C   UNL A   1      45.588  29.941  29.462  1.00  0.00     0.034 A 
ATOM     53  C   UNL A   1      38.813  31.552  30.192  1.00  0.00     0.034 A 
ATOM     54  C   UNL A   1      45.327  31.260  29.969  1.00  0.00     0.049 A 
ATOM     55  C   UNL A   1      39.905  32.499  30.613  1.00  0.00     0.074 A 
ATOM     56  C   UNL A   1      46.236  32.239  30.327  1.00  0.00     0.029 A 
ATOM     57  N   UNL A   1      44.064  31.783  30.202  1.00  0.00    -0.354 N 
ATOM     58  N   UNL A   1      41.203  32.372  30.481  1.00  0.00    -0.248 NA
ATOM     59  C   UNL A   1      39.486  33.763  31.237  1.00  0.00     0.031 C 
ATOM     60  C   UNL A   1      45.524  33.342  30.808  1.00  0.00     0.029 A 
ATOM     61  C   UNL A   1      44.170  33.065  30.712  1.00  0.00     0.049 A 
ATOM     62  H   UNL A   1      43.217  31.311  30.029  1.00  0.00     0.167 HD
ATOM     63  C   UNL A   1      41.753  33.552  30.966  1.00  0.00     0.074 A 
ATOM     64  C   UNL A   1      40.646  34.389  31.381  1.00  0.00     0.031 C 
ATOM     65  C   UNL A   1      43.057  33.907  31.071  1.00  0.00     0.034 A 
BRANCH  52  66
ATOM     66  C   UNL A   1      47.022  29.496  29.337  1.00  0.00     0.023 A 
ATOM     67  C   UNL A   1      47.665  28.890  30.437  1.00  0.00     0.012 A 
ATOM     68  C   UNL A   1      47.715  29.620  28.117  1.00  0.00     0.148 A 
ATOM     69  C   UNL A   1      48.985  28.451  30.337  1.00  0.00     0.002 A 
ATOM     70  C   UNL A   1      49.013  29.136  28.010  1.00  0.00     0.091 A 
ATOM     71  F   UNL A   1      47.095  30.217  27.088  1.00  0.00    -0.205 F 
ATOM     72  C   UNL A   1      49.653  28.564  29.121  1.00  0.00     0.022 A 
BRANCH  70  73
ATOM     73  S   UNL A   1      49.932  29.158  26.466  1.00  0.00     0.127 S 
ATOM     74  O   UNL A   1      48.976  28.542  25.546  1.00  0.00    -0.237 OA
ATOM     75  O   UNL A   1      50.145  30.590  26.258  1.00  0.00    -0.237 OA
ATOM     76  O   UNL A   1      51.145  28.390  26.709  1.00  0.00    -0.744 OA
ENDBRANCH  70  73
ENDBRANCH  52  66
BRANCH  53  77
ATOM     77  C   UNL A   1      37.378  31.894  30.409  1.00  0.00     0.023 A 
ATOM     78  C   UNL A   1      36.829  31.792  31.701  1.00  0.00     0.012 A 
ATOM     79  C   UNL A   1      36.563  32.339  29.349  1.00  0.00     0.148 A 
ATOM     80  C   UNL A   1      35.485  32.090  31.929  1.00  0.00     0.002 A 
ATOM     81  C   UNL A   1      35.241  32.691  29.594  1.00  0.00     0.091 A 
ATOM     82  F   UNL A   1      37.103  32.423  28.125  1.00  0.00    -0.205 F 
ATOM     83  C   UNL A   1      34.694  32.548  30.878  1.00  0.00     0.022 A 
BRANCH  81  84
ATOM     84  S   UNL A   1      34.187  33.413  28.330  1.00  0.00     0.127 S 
ATOM     85  O   UNL A   1      33.319  34.280  29.123  1.00  0.00    -0.237 OA
ATOM     86  O   UNL A   1      35.161  34.115  27.493  1.00  0.00    -0.237 OA
ATOM     87  O   UNL A   1      33.530  32.291  27.674  1.00  0.00    -0.744 OA
ENDBRANCH  81  84
ENDBRANCH  53  77
BRANCH  65  88
ATOM     88  C   UNL A   1      43.372  35.278  31.610  1.00  0.00     0.023 A 
ATOM     89  C   UNL A   1      43.529  35.473  32.996  1.00  0.00     0.012 A 
ATOM     90  C   UNL A   1      43.596  36.355  30.729  1.00  0.00     0.148 A 
ATOM     91  C   UNL A   1      43.875  36.726  33.499  1.00  0.00     0.002 A 
ATOM     92  C   UNL A   1      43.993  37.587  31.234  1.00  0.00     0.091 A 
ATOM     93  F   UNL A   1      43.425  36.152  29.414  1.00  0.00    -0.205 F 
ATOM     94  C   UNL A   1      44.121  37.778  32.619  1.00  0.00     0.022 A 
BRANCH  92  95
ATOM     95  S   UNL A   1      44.428  38.969  30.173  1.00  0.00     0.127 S 
ATOM     96  O   UNL A   1      43.184  39.182  29.436  1.00  0.00    -0.237 OA
ATOM     97  O   UNL A   1      44.747  40.015  31.145  1.00  0.00    -0.237 OA
ATOM     98  O   UNL A   1      45.558  38.523  29.370  1.00  0.00    -0.744 OA
ENDBRANCH  92  95
ENDBRANCH  65  88
ENDBRANCH  39  40
ENDBRANCH  31  34
ENDBRANCH  29  30
ENDBRANCH  28  29
ENDBRANCH   1  28
TORSDOF 18
ENDMDL
