MODEL 1
REMARK VINA RESULT:     -10.9      0.000      0.000
REMARK SMILES CCN(CC)C(=O)CN(CC(=O)NCCCCCCNC(=O)c1ccc(-c2c3nc(c(-c4cccc(S(=O)(=O)[O-])c4F)c4ccc([nH]4)c(-c4cccc(S(=O)(=O)[O-])c4F)c4nc(c(-c5cccc(S(=O)(=O)[O-])c5F)c5ccc2[nH]5)C=C4)C=C3)cc1)c1ccccc1
REMARK SMILES IDX 16 1 15 2 14 3 13 4 11 5 12 6 10 8 9 9 8 10 6 11 3 12 7 13
REMARK SMILES IDX 2 14 1 15 4 16 5 17 86 18 87 19 91 20 88 21 90 22 89 23
REMARK SMILES IDX 17 24 18 25 19 26 20 27 21 28 22 30 23 31 24 32 85 33 25 34
REMARK SMILES IDX 84 35 26 36 27 37 28 38 78 39 29 40 83 41 77 42 79 43 30 44
REMARK SMILES IDX 82 45 76 46 75 47 31 49 63 50 43 51 62 52 44 53 47 54 61 55
REMARK SMILES IDX 80 56 45 57 46 58 60 60 81 61 48 62 32 63 33 64 41 65 34 66
REMARK SMILES IDX 36 67 42 68 35 69 37 70 38 71 39 72 40 73 64 74 65 75 73 76
REMARK SMILES IDX 66 77 68 78 74 79 67 80 69 81 70 82 71 83 72 84 49 85 50 86
REMARK SMILES IDX 58 87 51 88 53 89 59 90 52 91 54 92 55 93 56 94 57 95
REMARK H PARENT 13 7 20 29 79 48 47 59
REMARK Flexibility Score: inf
ROOT
ATOM      1  C   UNL A   1      33.096  30.084  26.283  1.00  0.00     0.002 C 
ENDROOT
BRANCH   1   2
ATOM      2  C   UNL A   1      33.488  29.168  25.115  1.00  0.00     0.021 C 
BRANCH   2   3
ATOM      3  C   UNL A   1      33.244  27.688  25.395  1.00  0.00     0.116 C 
BRANCH   3   4
ATOM      4  N   UNL A   1      33.697  26.864  24.298  1.00  0.00    -0.355 N 
ATOM      5  C   UNL A   1      33.183  26.752  23.043  1.00  0.00     0.239 C 
ATOM      6  O   UNL A   1      33.715  25.935  22.283  1.00  0.00    -0.273 OA
ATOM      7  H   UNL A   1      34.485  26.305  24.486  1.00  0.00     0.163 HD
BRANCH   5   8
ATOM      8  C   UNL A   1      32.062  27.670  22.552  1.00  0.00     0.217 C 
BRANCH   8   9
ATOM      9  N   UNL A   1      30.659  27.309  22.867  1.00  0.00    -0.353 N 
BRANCH   9  10
ATOM     10  C   UNL A   1      30.337  25.866  23.038  1.00  0.00     0.217 C 
BRANCH  10  11
ATOM     11  C   UNL A   1      30.540  25.218  24.415  1.00  0.00     0.242 C 
ATOM     12  N   UNL A   1      31.116  23.956  24.546  1.00  0.00    -0.342 N 
ATOM     13  O   UNL A   1      30.147  25.830  25.418  1.00  0.00    -0.273 OA
BRANCH  12  14
ATOM     14  C   UNL A   1      31.373  23.472  25.904  1.00  0.00     0.116 C 
ATOM     15  C   UNL A   1      32.639  24.085  26.494  1.00  0.00     0.027 C 
ENDBRANCH  12  14
BRANCH  12  16
ATOM     16  C   UNL A   1      31.498  23.081  23.444  1.00  0.00     0.116 C 
ATOM     17  C   UNL A   1      32.970  22.699  23.480  1.00  0.00     0.027 C 
ENDBRANCH  12  16
ENDBRANCH  10  11
ENDBRANCH   9  10
BRANCH   9  18
ATOM     18  C   UNL A   1      29.683  28.288  23.023  1.00  0.00     0.038 A 
ATOM     19  C   UNL A   1      28.312  27.993  23.018  1.00  0.00     0.026 A 
ATOM     20  C   UNL A   1      30.001  29.645  23.198  1.00  0.00     0.026 A 
ATOM     21  C   UNL A   1      27.325  28.978  23.176  1.00  0.00     0.002 A 
ATOM     22  C   UNL A   1      29.027  30.643  23.342  1.00  0.00     0.002 A 
ATOM     23  C   UNL A   1      27.684  30.308  23.333  1.00  0.00     0.000 A 
ENDBRANCH   9  18
ENDBRANCH   8   9
ENDBRANCH   5   8
ENDBRANCH   3   4
ENDBRANCH   2   3
ENDBRANCH   1   2
BRANCH   1  24
ATOM     24  C   UNL A   1      31.655  30.602  26.237  1.00  0.00     0.002 C 
BRANCH  24  25
ATOM     25  C   UNL A   1      31.466  32.024  26.770  1.00  0.00     0.021 C 
BRANCH  25  26
ATOM     26  C   UNL A   1      32.731  32.653  27.345  1.00  0.00     0.116 C 
BRANCH  26  27
ATOM     27  N   UNL A   1      32.545  34.067  27.640  1.00  0.00    -0.352 N 
ATOM     28  C   UNL A   1      33.129  34.834  28.614  1.00  0.00     0.251 C 
ATOM     29  H   UNL A   1      31.908  34.539  27.056  1.00  0.00     0.163 HD
ATOM     30  O   UNL A   1      32.683  35.956  28.858  1.00  0.00    -0.269 OA
BRANCH  28  31
ATOM     31  C   UNL A   1      34.280  34.311  29.377  1.00  0.00     0.039 A 
ATOM     32  C   UNL A   1      34.050  33.685  30.604  1.00  0.00     0.014 A 
ATOM     33  C   UNL A   1      35.584  34.445  28.890  1.00  0.00     0.014 A 
ATOM     34  C   UNL A   1      35.122  33.144  31.316  1.00  0.00     0.010 A 
ATOM     35  C   UNL A   1      36.642  33.840  29.564  1.00  0.00     0.010 A 
ATOM     36  C   UNL A   1      36.423  33.188  30.787  1.00  0.00    -0.014 A 
BRANCH  36  37
ATOM     37  C   UNL A   1      37.556  32.531  31.489  1.00  0.00     0.031 A 
ATOM     38  C   UNL A   1      38.283  31.374  30.860  1.00  0.00     0.074 A 
ATOM     39  C   UNL A   1      37.881  32.935  32.734  1.00  0.00     0.049 A 
ATOM     40  N   UNL A   1      39.280  30.672  31.335  1.00  0.00    -0.248 NA
ATOM     41  C   UNL A   1      37.816  30.929  29.536  1.00  0.00     0.031 C 
ATOM     42  C   UNL A   1      37.196  33.988  33.486  1.00  0.00     0.029 A 
ATOM     43  N   UNL A   1      38.856  32.494  33.593  1.00  0.00    -0.354 N 
ATOM     44  C   UNL A   1      39.539  29.689  30.388  1.00  0.00     0.074 A 
ATOM     45  C   UNL A   1      38.573  29.861  29.326  1.00  0.00     0.031 C 
ATOM     46  C   UNL A   1      37.777  34.118  34.689  1.00  0.00     0.029 A 
ATOM     47  C   UNL A   1      38.852  33.139  34.808  1.00  0.00     0.049 A 
ATOM     48  H   UNL A   1      39.496  31.782  33.364  1.00  0.00     0.167 HD
ATOM     49  C   UNL A   1      40.512  28.745  30.388  1.00  0.00     0.034 A 
ATOM     50  C   UNL A   1      39.623  32.960  35.899  1.00  0.00     0.034 A 
ATOM     51  C   UNL A   1      41.492  28.597  31.431  1.00  0.00     0.049 A 
ATOM     52  C   UNL A   1      40.718  31.929  35.856  1.00  0.00     0.074 A 
ATOM     53  C   UNL A   1      42.570  27.732  31.482  1.00  0.00     0.029 A 
ATOM     54  N   UNL A   1      41.505  29.320  32.614  1.00  0.00    -0.354 N 
ATOM     55  N   UNL A   1      41.054  31.121  34.880  1.00  0.00    -0.248 NA
ATOM     56  C   UNL A   1      41.564  31.813  37.053  1.00  0.00     0.031 C 
ATOM     57  C   UNL A   1      43.215  27.909  32.710  1.00  0.00     0.029 A 
ATOM     58  C   UNL A   1      42.563  28.910  33.409  1.00  0.00     0.049 A 
ATOM     59  H   UNL A   1      40.857  30.022  32.855  1.00  0.00     0.167 HD
ATOM     60  C   UNL A   1      42.170  30.423  35.331  1.00  0.00     0.074 A 
ATOM     61  C   UNL A   1      42.467  30.925  36.657  1.00  0.00     0.031 C 
ATOM     62  C   UNL A   1      42.875  29.446  34.709  1.00  0.00     0.034 A 
BRANCH  49  63
ATOM     63  C   UNL A   1      40.594  27.824  29.197  1.00  0.00     0.023 A 
ATOM     64  C   UNL A   1      39.715  26.725  29.103  1.00  0.00     0.012 A 
ATOM     65  C   UNL A   1      41.492  28.079  28.142  1.00  0.00     0.148 A 
ATOM     66  C   UNL A   1      39.753  25.874  28.000  1.00  0.00     0.002 A 
ATOM     67  C   UNL A   1      41.492  27.253  27.023  1.00  0.00     0.091 A 
ATOM     68  F   UNL A   1      42.334  29.117  28.255  1.00  0.00    -0.205 F 
ATOM     69  C   UNL A   1      40.633  26.144  26.957  1.00  0.00     0.022 A 
BRANCH  67  70
ATOM     70  S   UNL A   1      42.528  27.563  25.589  1.00  0.00     0.127 S 
ATOM     71  O   UNL A   1      43.855  27.648  26.196  1.00  0.00    -0.237 OA
ATOM     72  O   UNL A   1      42.303  26.362  24.783  1.00  0.00    -0.237 OA
ATOM     73  O   UNL A   1      42.034  28.796  24.993  1.00  0.00    -0.744 OA
ENDBRANCH  67  70
ENDBRANCH  49  63
BRANCH  50  74
ATOM     74  C   UNL A   1      39.424  33.819  37.100  1.00  0.00     0.023 A 
ATOM     75  C   UNL A   1      39.843  35.163  37.069  1.00  0.00     0.012 A 
ATOM     76  C   UNL A   1      38.802  33.320  38.261  1.00  0.00     0.148 A 
ATOM     77  C   UNL A   1      39.679  35.986  38.184  1.00  0.00     0.002 A 
ATOM     78  C   UNL A   1      38.588  34.160  39.347  1.00  0.00     0.091 A 
ATOM     79  F   UNL A   1      38.419  32.035  38.273  1.00  0.00    -0.205 F 
ATOM     80  C   UNL A   1      39.043  35.488  39.319  1.00  0.00     0.022 A 
BRANCH  78  81
ATOM     81  S   UNL A   1      37.657  33.644  40.794  1.00  0.00     0.127 S 
ATOM     82  O   UNL A   1      37.471  34.911  41.497  1.00  0.00    -0.237 OA
ATOM     83  O   UNL A   1      36.445  33.090  40.191  1.00  0.00    -0.237 OA
ATOM     84  O   UNL A   1      38.492  32.663  41.472  1.00  0.00    -0.744 OA
ENDBRANCH  78  81
ENDBRANCH  50  74
BRANCH  62  85
ATOM     85  C   UNL A   1      44.060  28.872  35.441  1.00  0.00     0.023 A 
ATOM     86  C   UNL A   1      45.344  29.418  35.242  1.00  0.00     0.012 A 
ATOM     87  C   UNL A   1      43.892  27.824  36.369  1.00  0.00     0.148 A 
ATOM     88  C   UNL A   1      46.448  28.904  35.923  1.00  0.00     0.002 A 
ATOM     89  C   UNL A   1      44.988  27.354  37.083  1.00  0.00     0.091 A 
ATOM     90  F   UNL A   1      42.667  27.305  36.534  1.00  0.00    -0.205 F 
ATOM     91  C   UNL A   1      46.268  27.882  36.850  1.00  0.00     0.022 A 
BRANCH  89  92
ATOM     92  S   UNL A   1      44.836  26.107  38.367  1.00  0.00     0.127 S 
ATOM     93  O   UNL A   1      44.111  25.046  37.669  1.00  0.00    -0.237 OA
ATOM     94  O   UNL A   1      46.235  25.795  38.664  1.00  0.00    -0.237 OA
ATOM     95  O   UNL A   1      44.114  26.741  39.461  1.00  0.00    -0.744 OA
ENDBRANCH  89  92
ENDBRANCH  62  85
ENDBRANCH  36  37
ENDBRANCH  28  31
ENDBRANCH  26  27
ENDBRANCH  25  26
ENDBRANCH  24  25
ENDBRANCH   1  24
TORSDOF 22
ENDMDL
MODEL 2
REMARK VINA RESULT:     -10.7      1.696      3.142
REMARK SMILES CCN(CC)C(=O)CN(CC(=O)NCCCCCCNC(=O)c1ccc(-c2c3nc(c(-c4cccc(S(=O)(=O)[O-])c4F)c4ccc([nH]4)c(-c4cccc(S(=O)(=O)[O-])c4F)c4nc(c(-c5cccc(S(=O)(=O)[O-])c5F)c5ccc2[nH]5)C=C4)C=C3)cc1)c1ccccc1
REMARK SMILES IDX 16 1 15 2 14 3 13 4 11 5 12 6 10 8 9 9 8 10 6 11 3 12 7 13
REMARK SMILES IDX 2 14 1 15 4 16 5 17 86 18 87 19 91 20 88 21 90 22 89 23
REMARK SMILES IDX 17 24 18 25 19 26 20 27 21 28 22 30 23 31 24 32 85 33 25 34
REMARK SMILES IDX 84 35 26 36 27 37 28 38 78 39 29 40 83 41 77 42 79 43 30 44
REMARK SMILES IDX 82 45 76 46 75 47 31 49 63 50 43 51 62 52 44 53 47 54 61 55
REMARK SMILES IDX 80 56 45 57 46 58 60 60 81 61 48 62 32 63 33 64 41 65 34 66
REMARK SMILES IDX 36 67 42 68 35 69 37 70 38 71 39 72 40 73 64 74 65 75 73 76
REMARK SMILES IDX 66 77 68 78 74 79 67 80 69 81 70 82 71 83 72 84 49 85 50 86
REMARK SMILES IDX 58 87 51 88 53 89 59 90 52 91 54 92 55 93 56 94 57 95
REMARK H PARENT 13 7 20 29 79 48 47 59
REMARK Flexibility Score: inf
ROOT
ATOM      1  C   UNL A   1      32.520  29.486  27.154  1.00  0.00     0.002 C 
ENDROOT
BRANCH   1   2
ATOM      2  C   UNL A   1      31.754  28.231  27.600  1.00  0.00     0.021 C 
BRANCH   2   3
ATOM      3  C   UNL A   1      31.591  27.194  26.492  1.00  0.00     0.116 C 
BRANCH   3   4
ATOM      4  N   UNL A   1      31.327  25.882  27.035  1.00  0.00    -0.355 N 
ATOM      5  C   UNL A   1      31.354  24.675  26.407  1.00  0.00     0.239 C 
ATOM      6  O   UNL A   1      31.040  23.682  27.074  1.00  0.00    -0.273 OA
ATOM      7  H   UNL A   1      31.095  25.858  27.991  1.00  0.00     0.163 HD
BRANCH   5   8
ATOM      8  C   UNL A   1      31.852  24.532  24.967  1.00  0.00     0.217 C 
BRANCH   8   9
ATOM      9  N   UNL A   1      32.680  23.353  24.616  1.00  0.00    -0.353 N 
BRANCH   9  10
ATOM     10  C   UNL A   1      31.984  22.157  24.069  1.00  0.00     0.217 C 
BRANCH  10  11
ATOM     11  C   UNL A   1      32.207  20.795  24.743  1.00  0.00     0.242 C 
ATOM     12  N   UNL A   1      32.401  19.638  23.992  1.00  0.00    -0.342 N 
ATOM     13  O   UNL A   1      32.177  20.738  25.980  1.00  0.00    -0.273 OA
BRANCH  12  14
ATOM     14  C   UNL A   1      32.720  18.408  24.722  1.00  0.00     0.116 C 
ATOM     15  C   UNL A   1      34.181  18.007  24.544  1.00  0.00     0.027 C 
ENDBRANCH  12  14
BRANCH  12  16
ATOM     16  C   UNL A   1      32.327  19.547  22.539  1.00  0.00     0.116 C 
ATOM     17  C   UNL A   1      32.232  18.112  22.043  1.00  0.00     0.027 C 
ENDBRANCH  12  16
ENDBRANCH  10  11
ENDBRANCH   9  10
BRANCH   9  18
ATOM     18  C   UNL A   1      34.063  23.377  24.766  1.00  0.00     0.038 A 
ATOM     19  C   UNL A   1      34.934  23.579  23.685  1.00  0.00     0.026 A 
ATOM     20  C   UNL A   1      34.687  23.199  26.011  1.00  0.00     0.026 A 
ATOM     21  C   UNL A   1      36.330  23.604  23.833  1.00  0.00     0.002 A 
ATOM     22  C   UNL A   1      36.080  23.206  26.173  1.00  0.00     0.002 A 
ATOM     23  C   UNL A   1      36.905  23.411  25.080  1.00  0.00     0.000 A 
ENDBRANCH   9  18
ENDBRANCH   8   9
ENDBRANCH   5   8
ENDBRANCH   3   4
ENDBRANCH   2   3
ENDBRANCH   1   2
BRANCH   1  24
ATOM     24  C   UNL A   1      31.758  30.391  26.180  1.00  0.00     0.002 C 
BRANCH  24  25
ATOM     25  C   UNL A   1      31.538  31.823  26.673  1.00  0.00     0.021 C 
BRANCH  25  26
ATOM     26  C   UNL A   1      32.765  32.463  27.314  1.00  0.00     0.116 C 
BRANCH  26  27
ATOM     27  N   UNL A   1      32.539  33.866  27.629  1.00  0.00    -0.352 N 
ATOM     28  C   UNL A   1      33.099  34.634  28.616  1.00  0.00     0.251 C 
ATOM     29  H   UNL A   1      31.891  34.329  27.051  1.00  0.00     0.163 HD
ATOM     30  O   UNL A   1      32.622  35.740  28.875  1.00  0.00    -0.269 OA
BRANCH  28  31
ATOM     31  C   UNL A   1      34.263  34.132  29.375  1.00  0.00     0.039 A 
ATOM     32  C   UNL A   1      34.042  33.372  30.526  1.00  0.00     0.014 A 
ATOM     33  C   UNL A   1      35.567  34.416  28.959  1.00  0.00     0.014 A 
ATOM     34  C   UNL A   1      35.130  32.851  31.228  1.00  0.00     0.010 A 
ATOM     35  C   UNL A   1      36.647  33.834  29.617  1.00  0.00     0.010 A 
ATOM     36  C   UNL A   1      36.441  33.049  30.761  1.00  0.00    -0.014 A 
BRANCH  36  37
ATOM     37  C   UNL A   1      37.599  32.419  31.446  1.00  0.00     0.031 A 
ATOM     38  C   UNL A   1      38.323  31.258  30.820  1.00  0.00     0.074 A 
ATOM     39  C   UNL A   1      37.952  32.850  32.674  1.00  0.00     0.049 A 
ATOM     40  N   UNL A   1      39.340  30.577  31.282  1.00  0.00    -0.248 NA
ATOM     41  C   UNL A   1      37.828  30.783  29.518  1.00  0.00     0.031 C 
ATOM     42  C   UNL A   1      37.275  33.910  33.424  1.00  0.00     0.029 A 
ATOM     43  N   UNL A   1      38.954  32.436  33.516  1.00  0.00    -0.354 N 
ATOM     44  C   UNL A   1      39.586  29.579  30.347  1.00  0.00     0.074 A 
ATOM     45  C   UNL A   1      38.591  29.720  29.308  1.00  0.00     0.031 C 
ATOM     46  C   UNL A   1      37.885  34.070  34.609  1.00  0.00     0.029 A 
ATOM     47  C   UNL A   1      38.974  33.105  34.718  1.00  0.00     0.049 A 
ATOM     48  H   UNL A   1      39.596  31.728  33.283  1.00  0.00     0.167 HD
ATOM     49  C   UNL A   1      40.569  28.646  30.339  1.00  0.00     0.034 A 
ATOM     50  C   UNL A   1      39.775  32.955  35.791  1.00  0.00     0.034 A 
ATOM     51  C   UNL A   1      41.578  28.529  31.359  1.00  0.00     0.049 A 
ATOM     52  C   UNL A   1      40.881  31.936  35.740  1.00  0.00     0.074 A 
ATOM     53  C   UNL A   1      42.667  27.677  31.398  1.00  0.00     0.029 A 
ATOM     54  N   UNL A   1      41.613  29.274  32.528  1.00  0.00    -0.354 N 
ATOM     55  N   UNL A   1      41.201  31.113  34.770  1.00  0.00    -0.248 NA
ATOM     56  C   UNL A   1      41.759  31.852  36.915  1.00  0.00     0.031 C 
ATOM     57  C   UNL A   1      43.342  27.884  32.605  1.00  0.00     0.029 A 
ATOM     58  C   UNL A   1      42.696  28.891  33.302  1.00  0.00     0.049 A 
ATOM     59  H   UNL A   1      40.964  29.973  32.772  1.00  0.00     0.167 HD
ATOM     60  C   UNL A   1      42.336  30.437  35.205  1.00  0.00     0.074 A 
ATOM     61  C   UNL A   1      42.662  30.967  36.513  1.00  0.00     0.031 C 
ATOM     62  C   UNL A   1      43.036  29.456  34.583  1.00  0.00     0.034 A 
BRANCH  49  63
ATOM     63  C   UNL A   1      40.632  27.703  29.164  1.00  0.00     0.023 A 
ATOM     64  C   UNL A   1      39.736  26.616  29.095  1.00  0.00     0.012 A 
ATOM     65  C   UNL A   1      41.526  27.927  28.100  1.00  0.00     0.148 A 
ATOM     66  C   UNL A   1      39.756  25.745  28.006  1.00  0.00     0.002 A 
ATOM     67  C   UNL A   1      41.508  27.082  26.996  1.00  0.00     0.091 A 
ATOM     68  F   UNL A   1      42.384  28.954  28.190  1.00  0.00    -0.205 F 
ATOM     69  C   UNL A   1      40.634  25.985  26.953  1.00  0.00     0.022 A 
BRANCH  67  70
ATOM     70  S   UNL A   1      42.540  27.352  25.550  1.00  0.00     0.127 S 
ATOM     71  O   UNL A   1      43.861  27.505  26.155  1.00  0.00    -0.237 OA
ATOM     72  O   UNL A   1      42.353  26.108  24.803  1.00  0.00    -0.237 OA
ATOM     73  O   UNL A   1      42.012  28.539  24.895  1.00  0.00    -0.744 OA
ENDBRANCH  67  70
ENDBRANCH  49  63
BRANCH  50  74
ATOM     74  C   UNL A   1      39.598  33.834  36.981  1.00  0.00     0.023 A 
ATOM     75  C   UNL A   1      40.009  35.180  36.917  1.00  0.00     0.012 A 
ATOM     76  C   UNL A   1      39.003  33.354  38.163  1.00  0.00     0.148 A 
ATOM     77  C   UNL A   1      39.864  36.022  38.020  1.00  0.00     0.002 A 
ATOM     78  C   UNL A   1      38.808  34.212  39.239  1.00  0.00     0.091 A 
ATOM     79  F   UNL A   1      38.627  32.067  38.207  1.00  0.00    -0.205 F 
ATOM     80  C   UNL A   1      39.255  35.541  39.177  1.00  0.00     0.022 A 
BRANCH  78  81
ATOM     81  S   UNL A   1      37.912  33.718  40.715  1.00  0.00     0.127 S 
ATOM     82  O   UNL A   1      38.807  32.716  41.288  1.00  0.00    -0.237 OA
ATOM     83  O   UNL A   1      37.837  34.976  41.458  1.00  0.00    -0.237 OA
ATOM     84  O   UNL A   1      36.625  33.221  40.248  1.00  0.00    -0.744 OA
ENDBRANCH  78  81
ENDBRANCH  50  74
BRANCH  62  85
ATOM     85  C   UNL A   1      44.246  28.908  35.294  1.00  0.00     0.023 A 
ATOM     86  C   UNL A   1      45.520  29.460  35.045  1.00  0.00     0.012 A 
ATOM     87  C   UNL A   1      44.114  27.883  36.252  1.00  0.00     0.148 A 
ATOM     88  C   UNL A   1      46.646  28.971  35.706  1.00  0.00     0.002 A 
ATOM     89  C   UNL A   1      45.233  27.439  36.946  1.00  0.00     0.091 A 
ATOM     90  F   UNL A   1      42.898  27.359  36.465  1.00  0.00    -0.205 F 
ATOM     91  C   UNL A   1      46.502  27.971  36.663  1.00  0.00     0.022 A 
BRANCH  89  92
ATOM     92  S   UNL A   1      45.129  26.223  38.264  1.00  0.00     0.127 S 
ATOM     93  O   UNL A   1      43.917  26.646  38.965  1.00  0.00    -0.237 OA
ATOM     94  O   UNL A   1      44.996  24.970  37.520  1.00  0.00    -0.237 OA
ATOM     95  O   UNL A   1      46.365  26.346  39.023  1.00  0.00    -0.744 OA
ENDBRANCH  89  92
ENDBRANCH  62  85
ENDBRANCH  36  37
ENDBRANCH  28  31
ENDBRANCH  26  27
ENDBRANCH  25  26
ENDBRANCH  24  25
ENDBRANCH   1  24
TORSDOF 22
ENDMDL
MODEL 3
REMARK VINA RESULT:     -10.7      1.833      2.726
REMARK SMILES CCN(CC)C(=O)CN(CC(=O)NCCCCCCNC(=O)c1ccc(-c2c3nc(c(-c4cccc(S(=O)(=O)[O-])c4F)c4ccc([nH]4)c(-c4cccc(S(=O)(=O)[O-])c4F)c4nc(c(-c5cccc(S(=O)(=O)[O-])c5F)c5ccc2[nH]5)C=C4)C=C3)cc1)c1ccccc1
REMARK SMILES IDX 16 1 15 2 14 3 13 4 11 5 12 6 10 8 9 9 8 10 6 11 3 12 7 13
REMARK SMILES IDX 2 14 1 15 4 16 5 17 86 18 87 19 91 20 88 21 90 22 89 23
REMARK SMILES IDX 17 24 18 25 19 26 20 27 21 28 22 30 23 31 24 32 85 33 25 34
REMARK SMILES IDX 84 35 26 36 27 37 28 38 78 39 29 40 83 41 77 42 79 43 30 44
REMARK SMILES IDX 82 45 76 46 75 47 31 49 63 50 43 51 62 52 44 53 47 54 61 55
REMARK SMILES IDX 80 56 45 57 46 58 60 60 81 61 48 62 32 63 33 64 41 65 34 66
REMARK SMILES IDX 36 67 42 68 35 69 37 70 38 71 39 72 40 73 64 74 65 75 73 76
REMARK SMILES IDX 66 77 68 78 74 79 67 80 69 81 70 82 71 83 72 84 49 85 50 86
REMARK SMILES IDX 58 87 51 88 53 89 59 90 52 91 54 92 55 93 56 94 57 95
REMARK H PARENT 13 7 20 29 79 48 47 59
REMARK Flexibility Score: inf
ROOT
ATOM      1  C   UNL A   1      32.266  29.931  25.987  1.00  0.00     0.002 C 
ENDROOT
BRANCH   1   2
ATOM      2  C   UNL A   1      31.779  28.988  27.097  1.00  0.00     0.021 C 
BRANCH   2   3
ATOM      3  C   UNL A   1      32.293  27.558  26.948  1.00  0.00     0.116 C 
BRANCH   3   4
ATOM      4  N   UNL A   1      31.206  26.608  26.939  1.00  0.00    -0.355 N 
ATOM      5  C   UNL A   1      31.147  25.380  26.354  1.00  0.00     0.239 C 
ATOM      6  O   UNL A   1      30.080  24.761  26.440  1.00  0.00    -0.273 OA
ATOM      7  H   UNL A   1      30.394  26.887  27.422  1.00  0.00     0.163 HD
BRANCH   5   8
ATOM      8  C   UNL A   1      32.378  24.742  25.707  1.00  0.00     0.217 C 
BRANCH   8   9
ATOM      9  N   UNL A   1      32.610  24.956  24.258  1.00  0.00    -0.353 N 
BRANCH   9  10
ATOM     10  C   UNL A   1      32.942  23.767  23.427  1.00  0.00     0.217 C 
BRANCH  10  11
ATOM     11  C   UNL A   1      34.331  23.126  23.569  1.00  0.00     0.242 C 
ATOM     12  N   UNL A   1      34.532  22.000  24.363  1.00  0.00    -0.342 N 
ATOM     13  O   UNL A   1      35.287  23.656  22.985  1.00  0.00    -0.273 OA
BRANCH  12  14
ATOM     14  C   UNL A   1      35.865  21.393  24.344  1.00  0.00     0.116 C 
ATOM     15  C   UNL A   1      36.578  21.548  25.683  1.00  0.00     0.027 C 
ENDBRANCH  12  14
BRANCH  12  16
ATOM     16  C   UNL A   1      33.524  21.363  25.202  1.00  0.00     0.116 C 
ATOM     17  C   UNL A   1      32.709  20.320  24.453  1.00  0.00     0.027 C 
ENDBRANCH  12  16
ENDBRANCH  10  11
ENDBRANCH   9  10
BRANCH   9  18
ATOM     18  C   UNL A   1      32.491  26.221  23.691  1.00  0.00     0.038 A 
ATOM     19  C   UNL A   1      33.592  27.073  23.514  1.00  0.00     0.026 A 
ATOM     20  C   UNL A   1      31.260  26.738  23.257  1.00  0.00     0.026 A 
ATOM     21  C   UNL A   1      33.477  28.349  22.943  1.00  0.00     0.002 A 
ATOM     22  C   UNL A   1      31.126  28.017  22.698  1.00  0.00     0.002 A 
ATOM     23  C   UNL A   1      32.239  28.826  22.539  1.00  0.00     0.000 A 
ENDBRANCH   9  18
ENDBRANCH   8   9
ENDBRANCH   5   8
ENDBRANCH   3   4
ENDBRANCH   2   3
ENDBRANCH   1   2
BRANCH   1  24
ATOM     24  C   UNL A   1      31.221  30.941  25.499  1.00  0.00     0.002 C 
BRANCH  24  25
ATOM     25  C   UNL A   1      31.114  32.212  26.345  1.00  0.00     0.021 C 
BRANCH  25  26
ATOM     26  C   UNL A   1      32.314  32.468  27.250  1.00  0.00     0.116 C 
BRANCH  26  27
ATOM     27  N   UNL A   1      32.492  33.888  27.521  1.00  0.00    -0.352 N 
ATOM     28  C   UNL A   1      33.400  34.508  28.339  1.00  0.00     0.251 C 
ATOM     29  H   UNL A   1      31.871  34.488  27.049  1.00  0.00     0.163 HD
ATOM     30  O   UNL A   1      33.258  35.699  28.619  1.00  0.00    -0.269 OA
BRANCH  28  31
ATOM     31  C   UNL A   1      34.538  33.746  28.893  1.00  0.00     0.039 A 
ATOM     32  C   UNL A   1      35.837  34.178  28.621  1.00  0.00     0.014 A 
ATOM     33  C   UNL A   1      34.325  32.605  29.674  1.00  0.00     0.014 A 
ATOM     34  C   UNL A   1      36.922  33.497  29.176  1.00  0.00     0.010 A 
ATOM     35  C   UNL A   1      35.404  31.974  30.287  1.00  0.00     0.010 A 
ATOM     36  C   UNL A   1      36.714  32.409  30.040  1.00  0.00    -0.014 A 
BRANCH  36  37
ATOM     37  C   UNL A   1      37.856  31.738  30.713  1.00  0.00     0.031 A 
ATOM     38  C   UNL A   1      38.653  30.678  30.001  1.00  0.00     0.074 A 
ATOM     39  C   UNL A   1      38.130  32.036  32.000  1.00  0.00     0.049 A 
ATOM     40  N   UNL A   1      39.667  29.978  30.438  1.00  0.00    -0.248 NA
ATOM     41  C   UNL A   1      38.242  30.342  28.627  1.00  0.00     0.031 C 
ATOM     42  C   UNL A   1      37.377  32.982  32.826  1.00  0.00     0.029 A 
ATOM     43  N   UNL A   1      39.100  31.557  32.844  1.00  0.00    -0.354 N 
ATOM     44  C   UNL A   1      39.996  29.102  29.412  1.00  0.00     0.074 A 
ATOM     45  C   UNL A   1      39.052  29.333  28.341  1.00  0.00     0.031 C 
ATOM     46  C   UNL A   1      37.919  33.022  34.053  1.00  0.00     0.029 A 
ATOM     47  C   UNL A   1      39.034  32.083  34.113  1.00  0.00     0.049 A 
ATOM     48  H   UNL A   1      39.778  30.899  32.569  1.00  0.00     0.167 HD
ATOM     49  C   UNL A   1      41.011  28.205  29.353  1.00  0.00     0.034 A 
ATOM     50  C   UNL A   1      39.783  31.834  35.205  1.00  0.00     0.034 A 
ATOM     51  C   UNL A   1      41.968  28.000  30.408  1.00  0.00     0.049 A 
ATOM     52  C   UNL A   1      40.924  30.860  35.101  1.00  0.00     0.074 A 
ATOM     53  C   UNL A   1      43.083  27.181  30.411  1.00  0.00     0.029 A 
ATOM     54  N   UNL A   1      41.916  28.607  31.654  1.00  0.00    -0.354 N 
ATOM     55  N   UNL A   1      41.323  30.163  34.064  1.00  0.00    -0.248 NA
ATOM     56  C   UNL A   1      41.742  30.666  36.306  1.00  0.00     0.031 C 
ATOM     57  C   UNL A   1      43.686  27.268  31.669  1.00  0.00     0.029 A 
ATOM     58  C   UNL A   1      42.970  28.169  32.439  1.00  0.00     0.049 A 
ATOM     59  H   UNL A   1      41.231  29.254  31.939  1.00  0.00     0.167 HD
ATOM     60  C   UNL A   1      42.457  29.474  34.481  1.00  0.00     0.074 A 
ATOM     61  C   UNL A   1      42.695  29.860  35.858  1.00  0.00     0.031 C 
ATOM     62  C   UNL A   1      43.222  28.592  33.792  1.00  0.00     0.034 A 
BRANCH  49  63
ATOM     63  C   UNL A   1      41.167  27.405  28.084  1.00  0.00     0.023 A 
ATOM     64  C   UNL A   1      41.717  28.017  26.938  1.00  0.00     0.012 A 
ATOM     65  C   UNL A   1      40.834  26.038  28.042  1.00  0.00     0.148 A 
ATOM     66  C   UNL A   1      41.895  27.293  25.761  1.00  0.00     0.002 A 
ATOM     67  C   UNL A   1      41.060  25.310  26.879  1.00  0.00     0.091 A 
ATOM     68  F   UNL A   1      40.296  25.476  29.134  1.00  0.00    -0.205 F 
ATOM     69  C   UNL A   1      41.578  25.938  25.735  1.00  0.00     0.022 A 
BRANCH  67  70
ATOM     70  S   UNL A   1      40.763  23.542  26.768  1.00  0.00     0.127 S 
ATOM     71  O   UNL A   1      39.334  23.501  26.464  1.00  0.00    -0.237 OA
ATOM     72  O   UNL A   1      41.632  23.154  25.656  1.00  0.00    -0.237 OA
ATOM     73  O   UNL A   1      41.143  22.987  28.058  1.00  0.00    -0.744 OA
ENDBRANCH  67  70
ENDBRANCH  49  63
BRANCH  50  74
ATOM     74  C   UNL A   1      39.513  32.565  36.475  1.00  0.00     0.023 A 
ATOM     75  C   UNL A   1      40.193  33.770  36.740  1.00  0.00     0.012 A 
ATOM     76  C   UNL A   1      38.571  32.089  37.408  1.00  0.00     0.148 A 
ATOM     77  C   UNL A   1      39.966  34.469  37.927  1.00  0.00     0.002 A 
ATOM     78  C   UNL A   1      38.308  32.820  38.560  1.00  0.00     0.091 A 
ATOM     79  F   UNL A   1      37.941  30.936  37.141  1.00  0.00    -0.205 F 
ATOM     80  C   UNL A   1      39.017  33.999  38.831  1.00  0.00     0.022 A 
BRANCH  78  81
ATOM     81  S   UNL A   1      37.007  32.364  39.712  1.00  0.00     0.127 S 
ATOM     82  O   UNL A   1      37.140  33.395  40.738  1.00  0.00    -0.237 OA
ATOM     83  O   UNL A   1      35.811  32.477  38.877  1.00  0.00    -0.237 OA
ATOM     84  O   UNL A   1      37.314  31.005  40.138  1.00  0.00    -0.744 OA
ENDBRANCH  78  81
ENDBRANCH  50  74
BRANCH  62  85
ATOM     85  C   UNL A   1      44.413  28.002  34.504  1.00  0.00     0.023 A 
ATOM     86  C   UNL A   1      45.641  28.694  34.516  1.00  0.00     0.012 A 
ATOM     87  C   UNL A   1      44.298  26.786  35.208  1.00  0.00     0.148 A 
ATOM     88  C   UNL A   1      46.747  28.165  35.182  1.00  0.00     0.002 A 
ATOM     89  C   UNL A   1      45.389  26.293  35.914  1.00  0.00     0.091 A 
ATOM     90  F   UNL A   1      43.128  26.133  35.172  1.00  0.00    -0.205 F 
ATOM     91  C   UNL A   1      46.618  26.972  35.888  1.00  0.00     0.022 A 
BRANCH  89  92
ATOM     92  S   UNL A   1      45.289  24.816  36.930  1.00  0.00     0.127 S 
ATOM     93  O   UNL A   1      44.954  23.793  35.940  1.00  0.00    -0.237 OA
ATOM     94  O   UNL A   1      46.646  24.719  37.471  1.00  0.00    -0.237 OA
ATOM     95  O   UNL A   1      44.261  25.082  37.926  1.00  0.00    -0.744 OA
ENDBRANCH  89  92
ENDBRANCH  62  85
ENDBRANCH  36  37
ENDBRANCH  28  31
ENDBRANCH  26  27
ENDBRANCH  25  26
ENDBRANCH  24  25
ENDBRANCH   1  24
TORSDOF 22
ENDMDL
