MODEL 1
REMARK VINA RESULT:     -10.9      0.000      0.000
REMARK SMILES Cc1noc(C)c1[C@@H](C)NC(=O)N(CC(=O)NCCCCCCNC(=O)c1ccc(-c2c3nc(c(-c4cccc(S(=O)(=O)[O-])c4F)c4ccc([nH]4)c(-c4cccc(S(=O)(=O)[O-])c4F)c4nc(c(-c5cccc(S(=O)(=O)[O-])c5F)c5ccc2[nH]5)C=C4)C=C3)cc1)C(C)C
REMARK SMILES IDX 20 1 19 2 18 3 17 4 15 5 16 6 14 8 13 9 11 10 10 11 12 13
REMARK SMILES IDX 8 14 9 15 7 16 1 17 2 18 3 19 4 20 5 21 6 22 90 23 91 24
REMARK SMILES IDX 92 25 21 26 22 27 23 28 24 29 25 30 26 32 27 33 28 34 89 35
REMARK SMILES IDX 29 36 88 37 30 38 31 39 32 40 82 41 33 42 87 43 81 44 83 45
REMARK SMILES IDX 34 46 86 47 80 48 79 49 35 51 67 52 47 53 66 54 48 55 51 56
REMARK SMILES IDX 65 57 84 58 49 59 50 60 64 62 85 63 52 64 36 65 37 66 45 67
REMARK SMILES IDX 38 68 40 69 46 70 39 71 41 72 42 73 43 74 44 75 68 76 69 77
REMARK SMILES IDX 77 78 70 79 72 80 78 81 71 82 73 83 74 84 75 85 76 86 53 87
REMARK SMILES IDX 54 88 62 89 55 90 57 91 63 92 56 93 58 94 59 95 60 96 61 97
REMARK H PARENT 17 7 10 12 24 31 83 50 51 61
REMARK Flexibility Score: inf
ROOT
ATOM      1  C   UNL A   1      32.241  30.325  27.091  1.00  0.00     0.002 C 
ENDROOT
BRANCH   1   2
ATOM      2  C   UNL A   1      32.841  29.165  26.300  1.00  0.00     0.021 C 
BRANCH   2   3
ATOM      3  C   UNL A   1      32.022  28.765  25.080  1.00  0.00     0.116 C 
BRANCH   3   4
ATOM      4  N   UNL A   1      32.779  28.028  24.094  1.00  0.00    -0.355 N 
ATOM      5  C   UNL A   1      33.238  26.747  24.101  1.00  0.00     0.239 C 
ATOM      6  O   UNL A   1      33.661  26.307  23.024  1.00  0.00    -0.273 OA
ATOM      7  H   UNL A   1      33.000  28.537  23.282  1.00  0.00     0.163 HD
BRANCH   5   8
ATOM      8  C   UNL A   1      33.090  25.793  25.302  1.00  0.00     0.221 C 
BRANCH   8   9
ATOM      9  N   UNL A   1      31.939  24.893  25.349  1.00  0.00    -0.313 N 
BRANCH   9  10
ATOM     10  C   UNL A   1      31.761  23.787  26.137  1.00  0.00     0.318 C 
ATOM     11  N   UNL A   1      32.002  22.517  25.773  1.00  0.00    -0.331 N 
ATOM     12  H   UNL A   1      31.820  21.920  26.535  1.00  0.00     0.165 HD
ATOM     13  O   UNL A   1      31.318  23.887  27.287  1.00  0.00    -0.249 OA
BRANCH  11  14
ATOM     14  C   UNL A   1      32.443  21.720  24.629  1.00  0.00     0.116 C 
ATOM     15  C   UNL A   1      32.481  20.226  24.970  1.00  0.00     0.036 C 
BRANCH  14  16
ATOM     16  C   UNL A   1      33.767  22.257  24.179  1.00  0.00     0.040 A 
ATOM     17  C   UNL A   1      33.302  23.210  21.761  1.00  0.00     0.071 C 
ATOM     18  C   UNL A   1      34.131  22.899  22.952  1.00  0.00     0.086 A 
ATOM     19  N   UNL A   1      35.423  23.250  22.949  1.00  0.00    -0.085 NA
ATOM     20  O   UNL A   1      35.935  22.831  24.154  1.00  0.00    -0.361 OA
ATOM     21  C   UNL A   1      34.957  22.240  24.884  1.00  0.00     0.139 A 
ATOM     22  C   UNL A   1      35.370  21.730  26.203  1.00  0.00     0.091 C 
ENDBRANCH  14  16
ENDBRANCH  11  14
ENDBRANCH   9  10
BRANCH   9  23
ATOM     23  C   UNL A   1      30.840  25.303  24.427  1.00  0.00     0.081 C 
ATOM     24  C   UNL A   1      30.392  24.201  23.470  1.00  0.00     0.031 C 
ATOM     25  C   UNL A   1      29.646  25.946  25.139  1.00  0.00     0.031 C 
ENDBRANCH   9  23
ENDBRANCH   8   9
ENDBRANCH   5   8
ENDBRANCH   3   4
ENDBRANCH   2   3
ENDBRANCH   1   2
BRANCH   1  26
ATOM     26  C   UNL A   1      31.245  31.177  26.302  1.00  0.00     0.002 C 
BRANCH  26  27
ATOM     27  C   UNL A   1      31.409  32.690  26.477  1.00  0.00     0.021 C 
BRANCH  27  28
ATOM     28  C   UNL A   1      32.647  33.106  27.267  1.00  0.00     0.116 C 
BRANCH  28  29
ATOM     29  N   UNL A   1      32.516  34.452  27.803  1.00  0.00    -0.352 N 
ATOM     30  C   UNL A   1      33.143  35.016  28.886  1.00  0.00     0.251 C 
ATOM     31  H   UNL A   1      31.889  35.040  27.323  1.00  0.00     0.163 HD
ATOM     32  O   UNL A   1      32.754  36.088  29.334  1.00  0.00    -0.269 OA
BRANCH  30  33
ATOM     33  C   UNL A   1      34.282  34.312  29.512  1.00  0.00     0.039 A 
ATOM     34  C   UNL A   1      35.575  34.585  29.064  1.00  0.00     0.014 A 
ATOM     35  C   UNL A   1      34.069  33.386  30.536  1.00  0.00     0.014 A 
ATOM     36  C   UNL A   1      36.662  33.964  29.681  1.00  0.00     0.010 A 
ATOM     37  C   UNL A   1      35.156  32.828  31.201  1.00  0.00     0.010 A 
ATOM     38  C   UNL A   1      36.464  33.101  30.773  1.00  0.00    -0.014 A 
BRANCH  38  39
ATOM     39  C   UNL A   1      37.612  32.479  31.478  1.00  0.00     0.031 A 
ATOM     40  C   UNL A   1      38.356  31.331  30.852  1.00  0.00     0.074 A 
ATOM     41  C   UNL A   1      37.936  32.898  32.718  1.00  0.00     0.049 A 
ATOM     42  N   UNL A   1      39.351  30.635  31.333  1.00  0.00    -0.248 NA
ATOM     43  C   UNL A   1      37.906  30.891  29.520  1.00  0.00     0.031 C 
ATOM     44  C   UNL A   1      37.241  33.950  33.464  1.00  0.00     0.029 A 
ATOM     45  N   UNL A   1      38.915  32.473  33.580  1.00  0.00    -0.354 N 
ATOM     46  C   UNL A   1      39.625  29.656  30.385  1.00  0.00     0.074 A 
ATOM     47  C   UNL A   1      38.666  29.825  29.316  1.00  0.00     0.031 C 
ATOM     48  C   UNL A   1      37.819  34.091  34.667  1.00  0.00     0.029 A 
ATOM     49  C   UNL A   1      38.901  33.120  34.794  1.00  0.00     0.049 A 
ATOM     50  H   UNL A   1      39.567  31.771  33.352  1.00  0.00     0.167 HD
ATOM     51  C   UNL A   1      40.603  28.718  30.390  1.00  0.00     0.034 A 
ATOM     52  C   UNL A   1      39.664  32.944  35.890  1.00  0.00     0.034 A 
ATOM     53  C   UNL A   1      41.574  28.576  31.440  1.00  0.00     0.049 A 
ATOM     54  C   UNL A   1      40.762  31.914  35.857  1.00  0.00     0.074 A 
ATOM     55  C   UNL A   1      42.655  27.714  31.499  1.00  0.00     0.029 A 
ATOM     56  N   UNL A   1      41.576  29.301  32.621  1.00  0.00    -0.354 N 
ATOM     57  N   UNL A   1      41.104  31.103  34.886  1.00  0.00    -0.248 NA
ATOM     58  C   UNL A   1      41.603  31.802  37.057  1.00  0.00     0.031 C 
ATOM     59  C   UNL A   1      43.290  27.894  32.732  1.00  0.00     0.029 A 
ATOM     60  C   UNL A   1      42.630  28.898  33.423  1.00  0.00     0.049 A 
ATOM     61  H   UNL A   1      40.923  29.999  32.856  1.00  0.00     0.167 HD
ATOM     62  C   UNL A   1      42.221  30.412  35.341  1.00  0.00     0.074 A 
ATOM     63  C   UNL A   1      42.510  30.916  36.668  1.00  0.00     0.031 C 
ATOM     64  C   UNL A   1      42.936  29.441  34.721  1.00  0.00     0.034 A 
BRANCH  51  65
ATOM     65  C   UNL A   1      40.696  27.798  29.200  1.00  0.00     0.023 A 
ATOM     66  C   UNL A   1      39.881  26.649  29.139  1.00  0.00     0.012 A 
ATOM     67  C   UNL A   1      41.544  28.099  28.116  1.00  0.00     0.148 A 
ATOM     68  C   UNL A   1      39.937  25.794  28.040  1.00  0.00     0.002 A 
ATOM     69  C   UNL A   1      41.558  27.269  27.001  1.00  0.00     0.091 A 
ATOM     70  F   UNL A   1      42.325  29.186  28.198  1.00  0.00    -0.205 F 
ATOM     71  C   UNL A   1      40.765  26.109  26.968  1.00  0.00     0.022 A 
BRANCH  69  72
ATOM     72  S   UNL A   1      42.526  27.632  25.533  1.00  0.00     0.127 S 
ATOM     73  O   UNL A   1      43.881  27.692  26.082  1.00  0.00    -0.237 OA
ATOM     74  O   UNL A   1      42.260  26.463  24.694  1.00  0.00    -0.237 OA
ATOM     75  O   UNL A   1      42.009  28.889  25.009  1.00  0.00    -0.744 OA
ENDBRANCH  69  72
ENDBRANCH  51  65
BRANCH  52  76
ATOM     76  C   UNL A   1      39.450  33.797  37.092  1.00  0.00     0.023 A 
ATOM     77  C   UNL A   1      39.918  35.125  37.094  1.00  0.00     0.012 A 
ATOM     78  C   UNL A   1      38.767  33.308  38.223  1.00  0.00     0.148 A 
ATOM     79  C   UNL A   1      39.743  35.940  38.215  1.00  0.00     0.002 A 
ATOM     80  C   UNL A   1      38.544  34.143  39.311  1.00  0.00     0.091 A 
ATOM     81  F   UNL A   1      38.336  32.039  38.204  1.00  0.00    -0.205 F 
ATOM     82  C   UNL A   1      39.049  35.452  39.318  1.00  0.00     0.022 A 
BRANCH  80  83
ATOM     83  S   UNL A   1      37.545  33.644  40.717  1.00  0.00     0.127 S 
ATOM     84  O   UNL A   1      36.404  33.008  40.064  1.00  0.00    -0.237 OA
ATOM     85  O   UNL A   1      38.445  32.727  41.416  1.00  0.00    -0.237 OA
ATOM     86  O   UNL A   1      37.251  34.869  41.449  1.00  0.00    -0.744 OA
ENDBRANCH  80  83
ENDBRANCH  52  76
BRANCH  64  87
ATOM     87  C   UNL A   1      44.135  28.885  35.446  1.00  0.00     0.023 A 
ATOM     88  C   UNL A   1      45.411  29.444  35.235  1.00  0.00     0.012 A 
ATOM     89  C   UNL A   1      43.980  27.853  36.393  1.00  0.00     0.148 A 
ATOM     90  C   UNL A   1      46.519  28.958  35.927  1.00  0.00     0.002 A 
ATOM     91  C   UNL A   1      45.079  27.411  37.119  1.00  0.00     0.091 A 
ATOM     92  F   UNL A   1      42.759  27.323  36.567  1.00  0.00    -0.205 F 
ATOM     93  C   UNL A   1      46.352  27.952  36.876  1.00  0.00     0.022 A 
BRANCH  91  94
ATOM     94  S   UNL A   1      44.941  26.192  38.431  1.00  0.00     0.127 S 
ATOM     95  O   UNL A   1      44.262  25.094  37.746  1.00  0.00    -0.237 OA
ATOM     96  O   UNL A   1      46.343  25.933  38.759  1.00  0.00    -0.237 OA
ATOM     97  O   UNL A   1      44.178  26.830  39.495  1.00  0.00    -0.744 OA
ENDBRANCH  91  94
ENDBRANCH  64  87
ENDBRANCH  38  39
ENDBRANCH  30  33
ENDBRANCH  28  29
ENDBRANCH  27  28
ENDBRANCH  26  27
ENDBRANCH   1  26
TORSDOF 21
ENDMDL
MODEL 2
REMARK VINA RESULT:     -10.9      5.591      8.496
REMARK SMILES Cc1noc(C)c1[C@@H](C)NC(=O)N(CC(=O)NCCCCCCNC(=O)c1ccc(-c2c3nc(c(-c4cccc(S(=O)(=O)[O-])c4F)c4ccc([nH]4)c(-c4cccc(S(=O)(=O)[O-])c4F)c4nc(c(-c5cccc(S(=O)(=O)[O-])c5F)c5ccc2[nH]5)C=C4)C=C3)cc1)C(C)C
REMARK SMILES IDX 20 1 19 2 18 3 17 4 15 5 16 6 14 8 13 9 11 10 10 11 12 13
REMARK SMILES IDX 8 14 9 15 7 16 1 17 2 18 3 19 4 20 5 21 6 22 90 23 91 24
REMARK SMILES IDX 92 25 21 26 22 27 23 28 24 29 25 30 26 32 27 33 28 34 89 35
REMARK SMILES IDX 29 36 88 37 30 38 31 39 32 40 82 41 33 42 87 43 81 44 83 45
REMARK SMILES IDX 34 46 86 47 80 48 79 49 35 51 67 52 47 53 66 54 48 55 51 56
REMARK SMILES IDX 65 57 84 58 49 59 50 60 64 62 85 63 52 64 36 65 37 66 45 67
REMARK SMILES IDX 38 68 40 69 46 70 39 71 41 72 42 73 43 74 44 75 68 76 69 77
REMARK SMILES IDX 77 78 70 79 72 80 78 81 71 82 73 83 74 84 75 85 76 86 53 87
REMARK SMILES IDX 54 88 62 89 55 90 57 91 63 92 56 93 58 94 59 95 60 96 61 97
REMARK H PARENT 17 7 10 12 24 31 83 50 51 61
REMARK Flexibility Score: inf
ROOT
ATOM      1  C   UNL A   1      34.396  21.313  24.708  1.00  0.00     0.002 C 
ENDROOT
BRANCH   1   2
ATOM      2  C   UNL A   1      33.140  21.845  24.022  1.00  0.00     0.021 C 
BRANCH   2   3
ATOM      3  C   UNL A   1      31.873  21.690  24.851  1.00  0.00     0.116 C 
BRANCH   3   4
ATOM      4  N   UNL A   1      32.032  22.099  26.228  1.00  0.00    -0.355 N 
ATOM      5  C   UNL A   1      32.360  23.305  26.764  1.00  0.00     0.239 C 
ATOM      6  O   UNL A   1      32.201  23.427  27.986  1.00  0.00    -0.273 OA
ATOM      7  H   UNL A   1      31.876  21.386  26.888  1.00  0.00     0.163 HD
BRANCH   5   8
ATOM      8  C   UNL A   1      32.735  24.540  25.923  1.00  0.00     0.221 C 
BRANCH   8   9
ATOM      9  N   UNL A   1      31.956  25.766  26.086  1.00  0.00    -0.313 N 
BRANCH   9  10
ATOM     10  C   UNL A   1      30.682  26.024  25.656  1.00  0.00     0.318 C 
ATOM     11  N   UNL A   1      30.349  26.785  24.600  1.00  0.00    -0.331 N 
ATOM     12  H   UNL A   1      29.370  26.781  24.491  1.00  0.00     0.165 HD
ATOM     13  O   UNL A   1      29.701  25.571  26.256  1.00  0.00    -0.249 OA
BRANCH  11  14
ATOM     14  C   UNL A   1      30.947  27.618  23.557  1.00  0.00     0.116 C 
ATOM     15  C   UNL A   1      29.879  28.198  22.624  1.00  0.00     0.036 C 
BRANCH  14  16
ATOM     16  C   UNL A   1      31.970  26.791  22.841  1.00  0.00     0.040 A 
ATOM     17  C   UNL A   1      30.884  24.388  22.691  1.00  0.00     0.071 C 
ATOM     18  C   UNL A   1      31.938  25.408  22.467  1.00  0.00     0.086 A 
ATOM     19  N   UNL A   1      33.053  25.052  21.818  1.00  0.00    -0.085 NA
ATOM     20  O   UNL A   1      33.842  26.177  21.770  1.00  0.00    -0.361 OA
ATOM     21  C   UNL A   1      33.205  27.208  22.377  1.00  0.00     0.139 A 
ATOM     22  C   UNL A   1      33.945  28.482  22.410  1.00  0.00     0.091 C 
ENDBRANCH  14  16
ENDBRANCH  11  14
ENDBRANCH   9  10
BRANCH   9  23
ATOM     23  C   UNL A   1      32.680  26.820  26.856  1.00  0.00     0.081 C 
ATOM     24  C   UNL A   1      33.827  27.472  26.087  1.00  0.00     0.031 C 
ATOM     25  C   UNL A   1      31.757  27.870  27.483  1.00  0.00     0.031 C 
ENDBRANCH   9  23
ENDBRANCH   8   9
ENDBRANCH   5   8
ENDBRANCH   3   4
ENDBRANCH   2   3
ENDBRANCH   1   2
BRANCH   1  26
ATOM     26  C   UNL A   1      35.694  21.984  24.255  1.00  0.00     0.002 C 
BRANCH  26  27
ATOM     27  C   UNL A   1      35.845  23.448  24.678  1.00  0.00     0.021 C 
BRANCH  27  28
ATOM     28  C   UNL A   1      36.742  23.668  25.893  1.00  0.00     0.116 C 
BRANCH  28  29
ATOM     29  N   UNL A   1      37.736  22.614  26.027  1.00  0.00    -0.352 N 
ATOM     30  C   UNL A   1      39.063  22.715  26.361  1.00  0.00     0.251 C 
ATOM     31  H   UNL A   1      37.412  21.701  25.852  1.00  0.00     0.163 HD
ATOM     32  O   UNL A   1      39.811  21.756  26.213  1.00  0.00    -0.269 OA
BRANCH  30  33
ATOM     33  C   UNL A   1      39.582  23.993  26.890  1.00  0.00     0.039 A 
ATOM     34  C   UNL A   1      40.109  24.932  26.001  1.00  0.00     0.014 A 
ATOM     35  C   UNL A   1      39.547  24.261  28.262  1.00  0.00     0.014 A 
ATOM     36  C   UNL A   1      40.556  26.162  26.484  1.00  0.00     0.010 A 
ATOM     37  C   UNL A   1      39.919  25.517  28.730  1.00  0.00     0.010 A 
ATOM     38  C   UNL A   1      40.439  26.476  27.849  1.00  0.00    -0.014 A 
BRANCH  38  39
ATOM     39  C   UNL A   1      40.854  27.803  28.370  1.00  0.00     0.031 A 
ATOM     40  C   UNL A   1      42.313  28.127  28.545  1.00  0.00     0.074 A 
ATOM     41  C   UNL A   1      39.914  28.687  28.758  1.00  0.00     0.049 A 
ATOM     42  N   UNL A   1      42.863  29.211  29.025  1.00  0.00    -0.248 NA
ATOM     43  C   UNL A   1      43.280  27.087  28.154  1.00  0.00     0.031 C 
ATOM     44  C   UNL A   1      38.467  28.461  28.711  1.00  0.00     0.029 A 
ATOM     45  N   UNL A   1      40.034  29.946  29.293  1.00  0.00    -0.354 N 
ATOM     46  C   UNL A   1      44.233  28.973  29.027  1.00  0.00     0.074 A 
ATOM     47  C   UNL A   1      44.428  27.628  28.534  1.00  0.00     0.031 C 
ATOM     48  C   UNL A   1      37.836  29.543  29.190  1.00  0.00     0.029 A 
ATOM     49  C   UNL A   1      38.828  30.527  29.611  1.00  0.00     0.049 A 
ATOM     50  H   UNL A   1      40.900  30.390  29.436  1.00  0.00     0.167 HD
ATOM     51  C   UNL A   1      45.239  29.809  29.379  1.00  0.00     0.034 A 
ATOM     52  C   UNL A   1      38.553  31.713  30.188  1.00  0.00     0.034 A 
ATOM     53  C   UNL A   1      45.041  31.157  29.837  1.00  0.00     0.049 A 
ATOM     54  C   UNL A   1      39.690  32.633  30.544  1.00  0.00     0.074 A 
ATOM     55  C   UNL A   1      45.997  32.111  30.138  1.00  0.00     0.029 A 
ATOM     56  N   UNL A   1      43.806  31.740  30.074  1.00  0.00    -0.354 N 
ATOM     57  N   UNL A   1      40.979  32.450  30.391  1.00  0.00    -0.248 NA
ATOM     58  C   UNL A   1      39.332  33.939  31.116  1.00  0.00     0.031 C 
ATOM     59  C   UNL A   1      45.340  33.260  30.591  1.00  0.00     0.029 A 
ATOM     60  C   UNL A   1      43.974  33.036  30.532  1.00  0.00     0.049 A 
ATOM     61  H   UNL A   1      42.937  31.297  29.938  1.00  0.00     0.167 HD
ATOM     62  C   UNL A   1      41.584  33.629  30.811  1.00  0.00     0.074 A 
ATOM     63  C   UNL A   1      40.519  34.527  31.205  1.00  0.00     0.031 C 
ATOM     64  C   UNL A   1      42.903  33.936  30.875  1.00  0.00     0.034 A 
BRANCH  51  65
ATOM     65  C   UNL A   1      46.651  29.300  29.244  1.00  0.00     0.023 A 
ATOM     66  C   UNL A   1      47.265  28.642  30.330  1.00  0.00     0.012 A 
ATOM     67  C   UNL A   1      47.350  29.419  28.026  1.00  0.00     0.148 A 
ATOM     68  C   UNL A   1      48.563  28.147  30.220  1.00  0.00     0.002 A 
ATOM     69  C   UNL A   1      48.625  28.878  27.908  1.00  0.00     0.091 A 
ATOM     70  F   UNL A   1      46.759  30.062  27.010  1.00  0.00    -0.205 F 
ATOM     71  C   UNL A   1      49.238  28.254  29.008  1.00  0.00     0.022 A 
BRANCH  69  72
ATOM     72  S   UNL A   1      49.545  28.889  26.367  1.00  0.00     0.127 S 
ATOM     73  O   UNL A   1      48.537  28.417  25.418  1.00  0.00    -0.237 OA
ATOM     74  O   UNL A   1      49.897  30.302  26.230  1.00  0.00    -0.237 OA
ATOM     75  O   UNL A   1      50.678  27.996  26.567  1.00  0.00    -0.744 OA
ENDBRANCH  69  72
ENDBRANCH  51  65
BRANCH  52  76
ATOM     76  C   UNL A   1      37.138  32.119  30.417  1.00  0.00     0.023 A 
ATOM     77  C   UNL A   1      36.539  31.877  31.668  1.00  0.00     0.012 A 
ATOM     78  C   UNL A   1      36.392  32.765  29.412  1.00  0.00     0.148 A 
ATOM     79  C   UNL A   1      35.210  32.235  31.902  1.00  0.00     0.002 A 
ATOM     80  C   UNL A   1      35.089  33.173  29.671  1.00  0.00     0.091 A 
ATOM     81  F   UNL A   1      36.978  32.980  28.226  1.00  0.00    -0.205 F 
ATOM     82  C   UNL A   1      34.489  32.891  30.908  1.00  0.00     0.022 A 
BRANCH  80  83
ATOM     83  S   UNL A   1      34.133  34.142  28.500  1.00  0.00     0.127 S 
ATOM     84  O   UNL A   1      34.995  35.303  28.296  1.00  0.00    -0.237 OA
ATOM     85  O   UNL A   1      34.044  33.231  27.358  1.00  0.00    -0.237 OA
ATOM     86  O   UNL A   1      32.858  34.408  29.153  1.00  0.00    -0.744 OA
ENDBRANCH  80  83
ENDBRANCH  52  76
BRANCH  64  87
ATOM     87  C   UNL A   1      43.277  35.318  31.345  1.00  0.00     0.023 A 
ATOM     88  C   UNL A   1      43.506  35.562  32.713  1.00  0.00     0.012 A 
ATOM     89  C   UNL A   1      43.474  36.359  30.415  1.00  0.00     0.148 A 
ATOM     90  C   UNL A   1      43.887  36.829  33.153  1.00  0.00     0.002 A 
ATOM     91  C   UNL A   1      43.908  37.604  30.853  1.00  0.00     0.091 A 
ATOM     92  F   UNL A   1      43.236  36.111  29.118  1.00  0.00    -0.205 F 
ATOM     93  C   UNL A   1      44.099  37.845  32.224  1.00  0.00     0.022 A 
BRANCH  91  94
ATOM     94  S   UNL A   1      44.304  38.940  29.721  1.00  0.00     0.127 S 
ATOM     95  O   UNL A   1      44.990  39.883  30.603  1.00  0.00    -0.237 OA
ATOM     96  O   UNL A   1      45.170  38.274  28.748  1.00  0.00    -0.237 OA
ATOM     97  O   UNL A   1      43.032  39.403  29.183  1.00  0.00    -0.744 OA
ENDBRANCH  91  94
ENDBRANCH  64  87
ENDBRANCH  38  39
ENDBRANCH  30  33
ENDBRANCH  28  29
ENDBRANCH  27  28
ENDBRANCH  26  27
ENDBRANCH   1  26
TORSDOF 21
ENDMDL
MODEL 3
REMARK VINA RESULT:     -10.9      5.685     11.676
REMARK SMILES Cc1noc(C)c1[C@@H](C)NC(=O)N(CC(=O)NCCCCCCNC(=O)c1ccc(-c2c3nc(c(-c4cccc(S(=O)(=O)[O-])c4F)c4ccc([nH]4)c(-c4cccc(S(=O)(=O)[O-])c4F)c4nc(c(-c5cccc(S(=O)(=O)[O-])c5F)c5ccc2[nH]5)C=C4)C=C3)cc1)C(C)C
REMARK SMILES IDX 20 1 19 2 18 3 17 4 15 5 16 6 14 8 13 9 11 10 10 11 12 13
REMARK SMILES IDX 8 14 9 15 7 16 1 17 2 18 3 19 4 20 5 21 6 22 90 23 91 24
REMARK SMILES IDX 92 25 21 26 22 27 23 28 24 29 25 30 26 32 27 33 28 34 89 35
REMARK SMILES IDX 29 36 88 37 30 38 31 39 32 40 82 41 33 42 87 43 81 44 83 45
REMARK SMILES IDX 34 46 86 47 80 48 79 49 35 51 67 52 47 53 66 54 48 55 51 56
REMARK SMILES IDX 65 57 84 58 49 59 50 60 64 62 85 63 52 64 36 65 37 66 45 67
REMARK SMILES IDX 38 68 40 69 46 70 39 71 41 72 42 73 43 74 44 75 68 76 69 77
REMARK SMILES IDX 77 78 70 79 72 80 78 81 71 82 73 83 74 84 75 85 76 86 53 87
REMARK SMILES IDX 54 88 62 89 55 90 57 91 63 92 56 93 58 94 59 95 60 96 61 97
REMARK H PARENT 17 7 10 12 24 31 83 50 51 61
REMARK Flexibility Score: inf
ROOT
ATOM      1  C   UNL A   1      37.082  22.232  24.601  1.00  0.00     0.002 C 
ENDROOT
BRANCH   1   2
ATOM      2  C   UNL A   1      36.473  22.649  23.264  1.00  0.00     0.021 C 
BRANCH   2   3
ATOM      3  C   UNL A   1      35.034  23.135  23.369  1.00  0.00     0.116 C 
BRANCH   3   4
ATOM      4  N   UNL A   1      34.903  24.408  24.040  1.00  0.00    -0.355 N 
ATOM      5  C   UNL A   1      34.099  24.793  25.067  1.00  0.00     0.239 C 
ATOM      6  O   UNL A   1      34.359  25.883  25.592  1.00  0.00    -0.273 OA
ATOM      7  H   UNL A   1      35.495  25.116  23.696  1.00  0.00     0.163 HD
BRANCH   5   8
ATOM      8  C   UNL A   1      33.030  23.883  25.702  1.00  0.00     0.221 C 
BRANCH   8   9
ATOM      9  N   UNL A   1      31.636  24.041  25.292  1.00  0.00    -0.313 N 
BRANCH   9  10
ATOM     10  C   UNL A   1      31.141  24.221  24.028  1.00  0.00     0.318 C 
ATOM     11  N   UNL A   1      30.924  25.405  23.432  1.00  0.00    -0.331 N 
ATOM     12  H   UNL A   1      30.594  25.253  22.516  1.00  0.00     0.165 HD
ATOM     13  O   UNL A   1      30.819  23.257  23.324  1.00  0.00    -0.249 OA
BRANCH  11  14
ATOM     14  C   UNL A   1      31.012  26.844  23.680  1.00  0.00     0.116 C 
ATOM     15  C   UNL A   1      29.771  27.577  23.160  1.00  0.00     0.036 C 
BRANCH  14  16
ATOM     16  C   UNL A   1      32.288  27.337  23.070  1.00  0.00     0.040 A 
ATOM     17  C   UNL A   1      33.004  29.368  24.598  1.00  0.00     0.071 C 
ATOM     18  C   UNL A   1      33.142  28.415  23.469  1.00  0.00     0.086 A 
ATOM     19  N   UNL A   1      34.206  28.519  22.663  1.00  0.00    -0.085 NA
ATOM     20  O   UNL A   1      34.064  27.533  21.715  1.00  0.00    -0.361 OA
ATOM     21  C   UNL A   1      32.928  26.833  21.952  1.00  0.00     0.139 A 
ATOM     22  C   UNL A   1      32.642  25.745  21.000  1.00  0.00     0.091 C 
ENDBRANCH  14  16
ENDBRANCH  11  14
ENDBRANCH   9  10
BRANCH   9  23
ATOM     23  C   UNL A   1      30.678  23.949  26.432  1.00  0.00     0.081 C 
ATOM     24  C   UNL A   1      29.642  25.071  26.461  1.00  0.00     0.031 C 
ATOM     25  C   UNL A   1      30.019  22.574  26.575  1.00  0.00     0.031 C 
ENDBRANCH   9  23
ENDBRANCH   8   9
ENDBRANCH   5   8
ENDBRANCH   3   4
ENDBRANCH   2   3
ENDBRANCH   1   2
BRANCH   1  26
ATOM     26  C   UNL A   1      36.778  20.789  25.009  1.00  0.00     0.002 C 
BRANCH  26  27
ATOM     27  C   UNL A   1      37.977  19.838  24.959  1.00  0.00     0.021 C 
BRANCH  27  28
ATOM     28  C   UNL A   1      39.191  20.305  25.758  1.00  0.00     0.116 C 
BRANCH  28  29
ATOM     29  N   UNL A   1      40.177  19.246  25.909  1.00  0.00    -0.352 N 
ATOM     30  C   UNL A   1      41.536  19.346  26.066  1.00  0.00     0.251 C 
ATOM     31  H   UNL A   1      39.819  18.329  25.895  1.00  0.00     0.163 HD
ATOM     32  O   UNL A   1      42.244  18.353  25.956  1.00  0.00    -0.269 OA
BRANCH  30  33
ATOM     33  C   UNL A   1      42.136  20.665  26.358  1.00  0.00     0.039 A 
ATOM     34  C   UNL A   1      42.524  21.484  25.296  1.00  0.00     0.014 A 
ATOM     35  C   UNL A   1      42.314  21.088  27.678  1.00  0.00     0.014 A 
ATOM     36  C   UNL A   1      43.045  22.751  25.559  1.00  0.00     0.010 A 
ATOM     37  C   UNL A   1      42.760  22.380  27.936  1.00  0.00     0.010 A 
ATOM     38  C   UNL A   1      43.142  23.221  26.880  1.00  0.00    -0.014 A 
BRANCH  38  39
ATOM     39  C   UNL A   1      43.638  24.588  27.175  1.00  0.00     0.031 A 
ATOM     40  C   UNL A   1      42.694  25.647  27.677  1.00  0.00     0.074 A 
ATOM     41  C   UNL A   1      44.925  24.898  26.915  1.00  0.00     0.049 A 
ATOM     42  N   UNL A   1      42.934  26.903  27.946  1.00  0.00    -0.248 NA
ATOM     43  C   UNL A   1      41.291  25.248  27.881  1.00  0.00     0.031 C 
ATOM     44  C   UNL A   1      45.920  23.982  26.354  1.00  0.00     0.029 A 
ATOM     45  N   UNL A   1      45.610  26.078  27.066  1.00  0.00    -0.354 N 
ATOM     46  C   UNL A   1      41.711  27.453  28.315  1.00  0.00     0.074 A 
ATOM     47  C   UNL A   1      40.725  26.402  28.200  1.00  0.00     0.031 C 
ATOM     48  C   UNL A   1      47.086  24.630  26.213  1.00  0.00     0.029 A 
ATOM     49  C   UNL A   1      46.916  26.015  26.640  1.00  0.00     0.049 A 
ATOM     50  H   UNL A   1      45.205  26.892  27.443  1.00  0.00     0.167 HD
ATOM     51  C   UNL A   1      41.439  28.710  28.738  1.00  0.00     0.034 A 
ATOM     52  C   UNL A   1      47.867  26.968  26.586  1.00  0.00     0.034 A 
ATOM     53  C   UNL A   1      42.430  29.742  28.881  1.00  0.00     0.049 A 
ATOM     54  C   UNL A   1      47.545  28.350  27.089  1.00  0.00     0.074 A 
ATOM     55  C   UNL A   1      42.270  31.023  29.382  1.00  0.00     0.029 A 
ATOM     56  N   UNL A   1      43.760  29.619  28.513  1.00  0.00    -0.354 N 
ATOM     57  N   UNL A   1      46.420  28.807  27.583  1.00  0.00    -0.248 NA
ATOM     58  C   UNL A   1      48.634  29.336  27.064  1.00  0.00     0.031 C 
ATOM     59  C   UNL A   1      43.498  31.686  29.283  1.00  0.00     0.029 A 
ATOM     60  C   UNL A   1      44.431  30.805  28.761  1.00  0.00     0.049 A 
ATOM     61  H   UNL A   1      44.168  28.810  28.130  1.00  0.00     0.167 HD
ATOM     62  C   UNL A   1      46.674  30.120  27.961  1.00  0.00     0.074 A 
ATOM     63  C   UNL A   1      48.067  30.378  27.659  1.00  0.00     0.031 C 
ATOM     64  C   UNL A   1      45.830  31.033  28.500  1.00  0.00     0.034 A 
BRANCH  51  65
ATOM     65  C   UNL A   1      40.015  29.029  29.116  1.00  0.00     0.023 A 
ATOM     66  C   UNL A   1      39.052  29.232  28.107  1.00  0.00     0.012 A 
ATOM     67  C   UNL A   1      39.617  29.069  30.468  1.00  0.00     0.148 A 
ATOM     68  C   UNL A   1      37.725  29.509  28.434  1.00  0.00     0.002 A 
ATOM     69  C   UNL A   1      38.282  29.296  30.785  1.00  0.00     0.091 A 
ATOM     70  F   UNL A   1      40.548  28.891  31.414  1.00  0.00    -0.205 F 
ATOM     71  C   UNL A   1      37.339  29.529  29.770  1.00  0.00     0.022 A 
BRANCH  69  72
ATOM     72  S   UNL A   1      37.667  29.259  32.471  1.00  0.00     0.127 S 
ATOM     73  O   UNL A   1      38.584  30.181  33.140  1.00  0.00    -0.237 OA
ATOM     74  O   UNL A   1      36.303  29.765  32.311  1.00  0.00    -0.237 OA
ATOM     75  O   UNL A   1      37.755  27.870  32.902  1.00  0.00    -0.744 OA
ENDBRANCH  69  72
ENDBRANCH  51  65
BRANCH  52  76
ATOM     76  C   UNL A   1      49.229  26.634  26.085  1.00  0.00     0.023 A 
ATOM     77  C   UNL A   1      50.076  25.820  26.862  1.00  0.00     0.012 A 
ATOM     78  C   UNL A   1      49.682  27.099  24.835  1.00  0.00     0.148 A 
ATOM     79  C   UNL A   1      51.363  25.505  26.420  1.00  0.00     0.002 A 
ATOM     80  C   UNL A   1      50.941  26.734  24.375  1.00  0.00     0.091 A 
ATOM     81  F   UNL A   1      48.864  27.879  24.114  1.00  0.00    -0.205 F 
ATOM     82  C   UNL A   1      51.791  25.954  25.174  1.00  0.00     0.022 A 
BRANCH  80  83
ATOM     83  S   UNL A   1      51.522  27.152  22.728  1.00  0.00     0.127 S 
ATOM     84  O   UNL A   1      51.724  28.594  22.838  1.00  0.00    -0.237 OA
ATOM     85  O   UNL A   1      52.750  26.363  22.632  1.00  0.00    -0.237 OA
ATOM     86  O   UNL A   1      50.467  26.730  21.816  1.00  0.00    -0.744 OA
ENDBRANCH  80  83
ENDBRANCH  52  76
BRANCH  64  87
ATOM     87  C   UNL A   1      46.392  32.388  28.847  1.00  0.00     0.023 A 
ATOM     88  C   UNL A   1      46.995  32.604  30.101  1.00  0.00     0.012 A 
ATOM     89  C   UNL A   1      46.385  33.427  27.895  1.00  0.00     0.148 A 
ATOM     90  C   UNL A   1      47.549  33.844  30.416  1.00  0.00     0.002 A 
ATOM     91  C   UNL A   1      46.988  34.642  28.195  1.00  0.00     0.091 A 
ATOM     92  F   UNL A   1      45.791  33.207  26.712  1.00  0.00    -0.205 F 
ATOM     93  C   UNL A   1      47.556  34.858  29.461  1.00  0.00     0.022 A 
BRANCH  91  94
ATOM     94  S   UNL A   1      47.134  35.969  26.993  1.00  0.00     0.127 S 
ATOM     95  O   UNL A   1      47.908  35.326  25.933  1.00  0.00    -0.237 OA
ATOM     96  O   UNL A   1      45.735  36.233  26.654  1.00  0.00    -0.237 OA
ATOM     97  O   UNL A   1      47.806  37.063  27.681  1.00  0.00    -0.744 OA
ENDBRANCH  91  94
ENDBRANCH  64  87
ENDBRANCH  38  39
ENDBRANCH  30  33
ENDBRANCH  28  29
ENDBRANCH  27  28
ENDBRANCH  26  27
ENDBRANCH   1  26
TORSDOF 21
ENDMDL
