MODEL 1
REMARK VINA RESULT:     -12.7      0.000      0.000
REMARK SMILES O=C1C[C@H](C(=O)NCCCCCCNC(=O)c2ccc(-c3c4nc(c(-c5cccc(S(=O)(=O)[O-])c5F)c5ccc([nH]5)c(-c5cccc(S(=O)(=O)[O-])c5F)c5nc(c(-c6cccc(S(=O)(=O)[O-])c6F)c6ccc3[nH]6)C=C5)C=C4)cc2)c2c(nc(Nc3ccc(Oc4ccccc4)cc3)[nH]c2=O)N1
REMARK SMILES IDX 10 1 9 2 8 3 7 4 5 5 6 6 4 8 1 9 2 10 3 11 101 12 81 13
REMARK SMILES IDX 80 15 82 16 99 17 83 18 98 19 100 20 84 22 85 24 86 25 97 26
REMARK SMILES IDX 87 27 96 28 88 29 89 30 90 31 91 32 95 33 92 34 94 35 93 36
REMARK SMILES IDX 11 37 12 38 13 39 14 40 15 41 16 43 17 44 18 45 79 46 19 47
REMARK SMILES IDX 78 48 20 49 21 50 22 51 72 52 23 53 77 54 71 55 73 56 24 57
REMARK SMILES IDX 76 58 70 59 69 60 25 62 57 63 37 64 56 65 38 66 41 67 55 68
REMARK SMILES IDX 74 69 39 70 40 71 54 73 75 74 42 75 26 76 27 77 35 78 28 79
REMARK SMILES IDX 30 80 36 81 29 82 31 83 32 84 33 85 34 86 58 87 59 88 67 89
REMARK SMILES IDX 60 90 62 91 68 92 61 93 63 94 64 95 65 96 66 97 43 98 44 99
REMARK SMILES IDX 52 100 45 101 47 102 53 103 46 104 48 105 49 106 50 107
REMARK SMILES IDX 51 108
REMARK H PARENT 7 7 101 14 98 21 84 23 14 42 73 61 41 72
REMARK Flexibility Score: inf
ROOT
ATOM      1  C   UNL A   1      32.855  25.166  26.042  1.00  0.00     0.002 C 
ENDROOT
BRANCH   1   2
ATOM      2  C   UNL A   1      34.306  24.690  26.174  1.00  0.00     0.021 C 
BRANCH   2   3
ATOM      3  C   UNL A   1      34.459  23.256  26.676  1.00  0.00     0.116 C 
BRANCH   3   4
ATOM      4  N   UNL A   1      35.736  22.695  26.271  1.00  0.00    -0.356 N 
ATOM      5  C   UNL A   1      36.044  21.733  25.358  1.00  0.00     0.228 C 
ATOM      6  O   UNL A   1      37.213  21.340  25.316  1.00  0.00    -0.274 OA
ATOM      7  H   UNL A   1      36.514  23.077  26.737  1.00  0.00     0.163 HD
BRANCH   5   8
ATOM      8  C   UNL A   1      34.981  21.100  24.457  1.00  0.00     0.127 C 
ATOM      9  O   UNL A   1      32.073  18.985  25.365  1.00  0.00    -0.275 OA
ATOM     10  C   UNL A   1      32.740  19.940  24.971  1.00  0.00     0.226 C 
ATOM     11  C   UNL A   1      34.224  20.022  25.241  1.00  0.00     0.119 C 
ATOM     12  N   UNL A   1      32.159  20.989  24.328  1.00  0.00    -0.310 N 
ATOM     13  C   UNL A   1      32.794  22.057  23.783  1.00  0.00     0.146 A 
ATOM     14  H   UNL A   1      31.177  20.970  24.250  1.00  0.00     0.171 HD
ATOM     15  C   UNL A   1      34.125  22.136  23.802  1.00  0.00     0.073 A 
ATOM     16  N   UNL A   1      31.961  22.970  23.230  1.00  0.00    -0.196 NA
ATOM     17  C   UNL A   1      34.713  23.305  23.124  1.00  0.00     0.258 A 
ATOM     18  C   UNL A   1      32.465  24.022  22.661  1.00  0.00     0.209 A 
ATOM     19  N   UNL A   1      33.821  24.201  22.612  1.00  0.00    -0.292 N 
ATOM     20  O   UNL A   1      35.922  23.462  23.004  1.00  0.00    -0.269 OA
ATOM     21  H   UNL A   1      34.169  25.018  22.186  1.00  0.00     0.173 HD
BRANCH  18  22
ATOM     22  N   UNL A   1      31.704  24.985  22.051  1.00  0.00    -0.326 N 
ATOM     23  H   UNL A   1      31.393  24.832  21.130  1.00  0.00     0.170 HD
BRANCH  22  24
ATOM     24  C   UNL A   1      31.350  26.182  22.695  1.00  0.00     0.041 A 
ATOM     25  C   UNL A   1      32.151  27.318  22.552  1.00  0.00     0.030 A 
ATOM     26  C   UNL A   1      30.134  26.294  23.379  1.00  0.00     0.030 A 
ATOM     27  C   UNL A   1      31.710  28.556  23.031  1.00  0.00     0.049 A 
ATOM     28  C   UNL A   1      29.706  27.522  23.884  1.00  0.00     0.049 A 
ATOM     29  C   UNL A   1      30.478  28.668  23.679  1.00  0.00     0.127 A 
BRANCH  29  30
ATOM     30  O   UNL A   1      30.114  29.952  24.036  1.00  0.00    -0.457 OA
BRANCH  30  31
ATOM     31  C   UNL A   1      29.389  30.676  23.122  1.00  0.00     0.127 A 
ATOM     32  C   UNL A   1      29.028  31.994  23.408  1.00  0.00     0.047 A 
ATOM     33  C   UNL A   1      29.005  30.077  21.928  1.00  0.00     0.047 A 
ATOM     34  C   UNL A   1      28.318  32.732  22.458  1.00  0.00     0.004 A 
ATOM     35  C   UNL A   1      28.299  30.818  20.983  1.00  0.00     0.004 A 
ATOM     36  C   UNL A   1      27.960  32.145  21.243  1.00  0.00     0.000 A 
ENDBRANCH  30  31
ENDBRANCH  29  30
ENDBRANCH  22  24
ENDBRANCH  18  22
ENDBRANCH   5   8
ENDBRANCH   3   4
ENDBRANCH   2   3
ENDBRANCH   1   2
BRANCH   1  37
ATOM     37  C   UNL A   1      32.649  26.679  26.156  1.00  0.00     0.002 C 
BRANCH  37  38
ATOM     38  C   UNL A   1      33.792  27.445  26.827  1.00  0.00     0.021 C 
BRANCH  38  39
ATOM     39  C   UNL A   1      34.396  28.560  25.980  1.00  0.00     0.116 C 
BRANCH  39  40
ATOM     40  N   UNL A   1      33.964  29.876  26.423  1.00  0.00    -0.352 N 
ATOM     41  C   UNL A   1      34.494  30.660  27.421  1.00  0.00     0.251 C 
ATOM     42  H   UNL A   1      33.191  30.255  25.947  1.00  0.00     0.163 HD
ATOM     43  O   UNL A   1      33.913  31.665  27.801  1.00  0.00    -0.269 OA
BRANCH  41  44
ATOM     44  C   UNL A   1      35.774  30.255  28.040  1.00  0.00     0.039 A 
ATOM     45  C   UNL A   1      35.757  29.663  29.303  1.00  0.00     0.014 A 
ATOM     46  C   UNL A   1      36.977  30.439  27.351  1.00  0.00     0.014 A 
ATOM     47  C   UNL A   1      36.953  29.206  29.860  1.00  0.00     0.010 A 
ATOM     48  C   UNL A   1      38.160  29.938  27.887  1.00  0.00     0.010 A 
ATOM     49  C   UNL A   1      38.158  29.322  29.148  1.00  0.00    -0.014 A 
BRANCH  49  50
ATOM     50  C   UNL A   1      39.430  28.816  29.717  1.00  0.00     0.031 A 
ATOM     51  C   UNL A   1      40.122  27.652  29.071  1.00  0.00     0.074 A 
ATOM     52  C   UNL A   1      39.945  29.397  30.819  1.00  0.00     0.049 A 
ATOM     53  N   UNL A   1      41.259  27.093  29.393  1.00  0.00    -0.248 NA
ATOM     54  C   UNL A   1      39.454  27.029  27.915  1.00  0.00     0.031 C 
ATOM     55  C   UNL A   1      39.351  30.533  31.526  1.00  0.00     0.029 A 
ATOM     56  N   UNL A   1      41.091  29.128  31.528  1.00  0.00    -0.354 N 
ATOM     57  C   UNL A   1      41.434  26.049  28.494  1.00  0.00     0.074 A 
ATOM     58  C   UNL A   1      40.276  26.029  27.629  1.00  0.00     0.031 C 
ATOM     59  C   UNL A   1      40.169  30.906  32.522  1.00  0.00     0.029 A 
ATOM     60  C   UNL A   1      41.326  30.015  32.554  1.00  0.00     0.049 A 
ATOM     61  H   UNL A   1      41.686  28.371  31.321  1.00  0.00     0.167 HD
ATOM     62  C   UNL A   1      42.487  25.209  28.374  1.00  0.00     0.034 A 
ATOM     63  C   UNL A   1      42.375  30.114  33.397  1.00  0.00     0.034 A 
ATOM     64  C   UNL A   1      43.663  25.274  29.192  1.00  0.00     0.049 A 
ATOM     65  C   UNL A   1      43.498  29.114  33.273  1.00  0.00     0.074 A 
ATOM     66  C   UNL A   1      44.816  24.516  29.096  1.00  0.00     0.029 A 
ATOM     67  N   UNL A   1      43.839  26.147  30.253  1.00  0.00    -0.354 N 
ATOM     68  N   UNL A   1      43.699  28.210  32.347  1.00  0.00    -0.248 NA
ATOM     69  C   UNL A   1      44.544  29.155  34.308  1.00  0.00     0.031 C 
ATOM     70  C   UNL A   1      45.689  24.927  30.107  1.00  0.00     0.029 A 
ATOM     71  C   UNL A   1      45.078  25.938  30.830  1.00  0.00     0.049 A 
ATOM     72  H   UNL A   1      43.181  26.815  30.551  1.00  0.00     0.167 HD
ATOM     73  C   UNL A   1      44.922  27.620  32.646  1.00  0.00     0.074 A 
ATOM     74  C   UNL A   1      45.410  28.258  33.852  1.00  0.00     0.031 C 
ATOM     75  C   UNL A   1      45.579  26.637  31.984  1.00  0.00     0.034 A 
BRANCH  62  76
ATOM     76  C   UNL A   1      42.456  24.193  27.269  1.00  0.00     0.023 A 
ATOM     77  C   UNL A   1      43.031  24.520  26.025  1.00  0.00     0.012 A 
ATOM     78  C   UNL A   1      41.955  22.896  27.487  1.00  0.00     0.148 A 
ATOM     79  C   UNL A   1      43.103  23.571  25.009  1.00  0.00     0.002 A 
ATOM     80  C   UNL A   1      42.054  21.947  26.478  1.00  0.00     0.091 A 
ATOM     81  F   UNL A   1      41.403  22.618  28.677  1.00  0.00    -0.205 F 
ATOM     82  C   UNL A   1      42.625  22.283  25.238  1.00  0.00     0.022 A 
BRANCH  80  83
ATOM     83  S   UNL A   1      41.513  20.247  26.682  1.00  0.00     0.127 S 
ATOM     84  O   UNL A   1      40.072  20.417  26.876  1.00  0.00    -0.237 OA
ATOM     85  O   UNL A   1      41.889  19.651  25.400  1.00  0.00    -0.237 OA
ATOM     86  O   UNL A   1      42.232  19.729  27.837  1.00  0.00    -0.744 OA
ENDBRANCH  80  83
ENDBRANCH  62  76
BRANCH  63  87
ATOM     87  C   UNL A   1      42.498  31.286  34.316  1.00  0.00     0.023 A 
ATOM     88  C   UNL A   1      43.135  32.447  33.832  1.00  0.00     0.012 A 
ATOM     89  C   UNL A   1      41.954  31.306  35.613  1.00  0.00     0.148 A 
ATOM     90  C   UNL A   1      43.239  33.593  34.622  1.00  0.00     0.002 A 
ATOM     91  C   UNL A   1      42.000  32.476  36.368  1.00  0.00     0.091 A 
ATOM     92  F   UNL A   1      41.387  30.188  36.090  1.00  0.00    -0.205 F 
ATOM     93  C   UNL A   1      42.657  33.615  35.883  1.00  0.00     0.022 A 
BRANCH  91  94
ATOM     94  S   UNL A   1      41.117  32.614  37.925  1.00  0.00     0.127 S 
ATOM     95  O   UNL A   1      41.932  31.783  38.805  1.00  0.00    -0.237 OA
ATOM     96  O   UNL A   1      41.176  34.048  38.210  1.00  0.00    -0.237 OA
ATOM     97  O   UNL A   1      39.775  32.128  37.627  1.00  0.00    -0.744 OA
ENDBRANCH  91  94
ENDBRANCH  63  87
BRANCH  75  98
ATOM     98  C   UNL A   1      46.922  26.203  32.502  1.00  0.00     0.023 A 
ATOM     99  C   UNL A   1      48.065  26.947  32.161  1.00  0.00     0.012 A 
ATOM    100  C   UNL A   1      47.022  25.158  33.441  1.00  0.00     0.148 A 
ATOM    101  C   UNL A   1      49.296  26.657  32.747  1.00  0.00     0.002 A 
ATOM    102  C   UNL A   1      48.244  24.897  34.048  1.00  0.00     0.091 A 
ATOM    103  F   UNL A   1      45.916  24.461  33.742  1.00  0.00    -0.205 F 
ATOM    104  C   UNL A   1      49.382  25.642  33.699  1.00  0.00     0.022 A 
BRANCH 102 105
ATOM    105  S   UNL A   1      48.438  23.671  35.348  1.00  0.00     0.127 S 
ATOM    106  O   UNL A   1      49.826  23.887  35.754  1.00  0.00    -0.237 OA
ATOM    107  O   UNL A   1      47.440  24.100  36.328  1.00  0.00    -0.237 OA
ATOM    108  O   UNL A   1      48.166  22.381  34.729  1.00  0.00    -0.744 OA
ENDBRANCH 102 105
ENDBRANCH  75  98
ENDBRANCH  49  50
ENDBRANCH  41  44
ENDBRANCH  39  40
ENDBRANCH  38  39
ENDBRANCH  37  38
ENDBRANCH   1  37
TORSDOF 20
ENDMDL
MODEL 2
REMARK VINA RESULT:     -12.6      4.059      9.778
REMARK SMILES O=C1C[C@H](C(=O)NCCCCCCNC(=O)c2ccc(-c3c4nc(c(-c5cccc(S(=O)(=O)[O-])c5F)c5ccc([nH]5)c(-c5cccc(S(=O)(=O)[O-])c5F)c5nc(c(-c6cccc(S(=O)(=O)[O-])c6F)c6ccc3[nH]6)C=C5)C=C4)cc2)c2c(nc(Nc3ccc(Oc4ccccc4)cc3)[nH]c2=O)N1
REMARK SMILES IDX 10 1 9 2 8 3 7 4 5 5 6 6 4 8 1 9 2 10 3 11 101 12 81 13
REMARK SMILES IDX 80 15 82 16 99 17 83 18 98 19 100 20 84 22 85 24 86 25 97 26
REMARK SMILES IDX 87 27 96 28 88 29 89 30 90 31 91 32 95 33 92 34 94 35 93 36
REMARK SMILES IDX 11 37 12 38 13 39 14 40 15 41 16 43 17 44 18 45 79 46 19 47
REMARK SMILES IDX 78 48 20 49 21 50 22 51 72 52 23 53 77 54 71 55 73 56 24 57
REMARK SMILES IDX 76 58 70 59 69 60 25 62 57 63 37 64 56 65 38 66 41 67 55 68
REMARK SMILES IDX 74 69 39 70 40 71 54 73 75 74 42 75 26 76 27 77 35 78 28 79
REMARK SMILES IDX 30 80 36 81 29 82 31 83 32 84 33 85 34 86 58 87 59 88 67 89
REMARK SMILES IDX 60 90 62 91 68 92 61 93 63 94 64 95 65 96 66 97 43 98 44 99
REMARK SMILES IDX 52 100 45 101 47 102 53 103 46 104 48 105 49 106 50 107
REMARK SMILES IDX 51 108
REMARK H PARENT 7 7 101 14 98 21 84 23 14 42 73 61 41 72
REMARK Flexibility Score: inf
ROOT
ATOM      1  C   UNL A   1      34.345  26.253  24.543  1.00  0.00     0.002 C 
ENDROOT
BRANCH   1   2
ATOM      2  C   UNL A   1      33.486  26.689  23.350  1.00  0.00     0.021 C 
BRANCH   2   3
ATOM      3  C   UNL A   1      33.585  28.173  23.007  1.00  0.00     0.116 C 
BRANCH   3   4
ATOM      4  N   UNL A   1      33.743  28.977  24.206  1.00  0.00    -0.356 N 
ATOM      5  C   UNL A   1      32.826  29.476  25.080  1.00  0.00     0.228 C 
ATOM      6  O   UNL A   1      33.229  30.258  25.945  1.00  0.00    -0.274 OA
ATOM      7  H   UNL A   1      34.677  29.199  24.426  1.00  0.00     0.163 HD
BRANCH   5   8
ATOM      8  C   UNL A   1      31.336  29.147  24.967  1.00  0.00     0.127 C 
ATOM      9  O   UNL A   1      29.180  28.965  21.955  1.00  0.00    -0.275 OA
ATOM     10  C   UNL A   1      29.822  28.631  22.949  1.00  0.00     0.226 C 
ATOM     11  C   UNL A   1      30.824  29.565  23.585  1.00  0.00     0.119 C 
ATOM     12  N   UNL A   1      29.700  27.384  23.481  1.00  0.00    -0.310 N 
ATOM     13  C   UNL A   1      30.293  26.924  24.611  1.00  0.00     0.146 A 
ATOM     14  H   UNL A   1      29.121  26.751  22.996  1.00  0.00     0.171 HD
ATOM     15  C   UNL A   1      31.054  27.730  25.353  1.00  0.00     0.073 A 
ATOM     16  N   UNL A   1      30.019  25.627  24.889  1.00  0.00    -0.196 NA
ATOM     17  C   UNL A   1      31.595  27.146  26.594  1.00  0.00     0.258 A 
ATOM     18  C   UNL A   1      30.519  25.092  25.960  1.00  0.00     0.209 A 
ATOM     19  N   UNL A   1      31.306  25.830  26.803  1.00  0.00    -0.292 N 
ATOM     20  O   UNL A   1      32.247  27.797  27.401  1.00  0.00    -0.269 OA
ATOM     21  H   UNL A   1      31.681  25.388  27.599  1.00  0.00     0.173 HD
BRANCH  18  22
ATOM     22  N   UNL A   1      30.275  23.797  26.338  1.00  0.00    -0.326 N 
ATOM     23  H   UNL A   1      29.429  23.588  26.797  1.00  0.00     0.170 HD
BRANCH  22  24
ATOM     24  C   UNL A   1      31.187  22.757  26.093  1.00  0.00     0.041 A 
ATOM     25  C   UNL A   1      31.146  22.061  24.881  1.00  0.00     0.030 A 
ATOM     26  C   UNL A   1      32.223  22.488  26.993  1.00  0.00     0.030 A 
ATOM     27  C   UNL A   1      32.162  21.158  24.554  1.00  0.00     0.049 A 
ATOM     28  C   UNL A   1      33.222  21.565  26.681  1.00  0.00     0.049 A 
ATOM     29  C   UNL A   1      33.215  20.922  25.440  1.00  0.00     0.127 A 
BRANCH  29  30
ATOM     30  O   UNL A   1      34.199  20.073  24.974  1.00  0.00    -0.457 OA
BRANCH  30  31
ATOM     31  C   UNL A   1      33.886  18.740  24.879  1.00  0.00     0.127 A 
ATOM     32  C   UNL A   1      34.645  17.903  24.060  1.00  0.00     0.047 A 
ATOM     33  C   UNL A   1      32.797  18.243  25.588  1.00  0.00     0.047 A 
ATOM     34  C   UNL A   1      34.338  16.542  23.996  1.00  0.00     0.004 A 
ATOM     35  C   UNL A   1      32.496  16.885  25.523  1.00  0.00     0.004 A 
ATOM     36  C   UNL A   1      33.267  16.033  24.734  1.00  0.00     0.000 A 
ENDBRANCH  30  31
ENDBRANCH  29  30
ENDBRANCH  22  24
ENDBRANCH  18  22
ENDBRANCH   5   8
ENDBRANCH   3   4
ENDBRANCH   2   3
ENDBRANCH   1   2
BRANCH   1  37
ATOM     37  C   UNL A   1      34.276  24.763  24.890  1.00  0.00     0.002 C 
BRANCH  37  38
ATOM     38  C   UNL A   1      35.606  24.009  24.795  1.00  0.00     0.021 C 
BRANCH  38  39
ATOM     39  C   UNL A   1      36.379  23.912  26.106  1.00  0.00     0.116 C 
BRANCH  39  40
ATOM     40  N   UNL A   1      37.338  22.819  26.093  1.00  0.00    -0.352 N 
ATOM     41  C   UNL A   1      38.692  22.865  26.329  1.00  0.00     0.251 C 
ATOM     42  H   UNL A   1      36.970  21.929  25.889  1.00  0.00     0.163 HD
ATOM     43  O   UNL A   1      39.399  21.894  26.106  1.00  0.00    -0.269 OA
BRANCH  41  44
ATOM     44  C   UNL A   1      39.282  24.120  26.841  1.00  0.00     0.039 A 
ATOM     45  C   UNL A   1      39.917  24.983  25.948  1.00  0.00     0.014 A 
ATOM     46  C   UNL A   1      39.175  24.444  28.198  1.00  0.00     0.014 A 
ATOM     47  C   UNL A   1      40.407  26.206  26.410  1.00  0.00     0.010 A 
ATOM     48  C   UNL A   1      39.621  25.684  28.646  1.00  0.00     0.010 A 
ATOM     49  C   UNL A   1      40.244  26.573  27.757  1.00  0.00    -0.014 A 
BRANCH  49  50
ATOM     50  C   UNL A   1      40.737  27.880  28.254  1.00  0.00     0.031 A 
ATOM     51  C   UNL A   1      39.755  28.912  28.728  1.00  0.00     0.074 A 
ATOM     52  C   UNL A   1      42.060  28.136  28.260  1.00  0.00     0.049 A 
ATOM     53  N   UNL A   1      39.990  30.093  29.236  1.00  0.00    -0.248 NA
ATOM     54  C   UNL A   1      38.324  28.579  28.618  1.00  0.00     0.031 C 
ATOM     55  C   UNL A   1      43.098  27.203  27.818  1.00  0.00     0.029 A 
ATOM     56  N   UNL A   1      42.761  29.245  28.667  1.00  0.00    -0.354 N 
ATOM     57  C   UNL A   1      38.742  30.649  29.490  1.00  0.00     0.074 A 
ATOM     58  C   UNL A   1      37.750  29.691  29.056  1.00  0.00     0.031 C 
ATOM     59  C   UNL A   1      44.303  27.750  28.043  1.00  0.00     0.029 A 
ATOM     60  C   UNL A   1      44.128  29.087  28.606  1.00  0.00     0.049 A 
ATOM     61  H   UNL A   1      42.327  30.074  28.973  1.00  0.00     0.167 HD
ATOM     62  C   UNL A   1      38.452  31.834  30.072  1.00  0.00     0.034 A 
ATOM     63  C   UNL A   1      45.119  29.916  28.994  1.00  0.00     0.034 A 
ATOM     64  C   UNL A   1      39.439  32.753  30.560  1.00  0.00     0.049 A 
ATOM     65  C   UNL A   1      44.752  31.258  29.577  1.00  0.00     0.074 A 
ATOM     66  C   UNL A   1      39.242  33.943  31.235  1.00  0.00     0.029 A 
ATOM     67  N   UNL A   1      40.808  32.583  30.429  1.00  0.00    -0.354 N 
ATOM     68  N   UNL A   1      43.572  31.715  29.915  1.00  0.00    -0.248 NA
ATOM     69  C   UNL A   1      45.856  32.194  29.840  1.00  0.00     0.031 C 
ATOM     70  C   UNL A   1      40.495  34.500  31.507  1.00  0.00     0.029 A 
ATOM     71  C   UNL A   1      41.469  33.654  31.000  1.00  0.00     0.049 A 
ATOM     72  H   UNL A   1      41.243  31.814  29.996  1.00  0.00     0.167 HD
ATOM     73  C   UNL A   1      43.795  32.961  30.489  1.00  0.00     0.074 A 
ATOM     74  C   UNL A   1      45.224  33.196  30.440  1.00  0.00     0.031 C 
ATOM     75  C   UNL A   1      42.897  33.833  31.008  1.00  0.00     0.034 A 
BRANCH  62  76
ATOM     76  C   UNL A   1      37.006  32.178  30.288  1.00  0.00     0.023 A 
ATOM     77  C   UNL A   1      36.409  31.867  31.526  1.00  0.00     0.012 A 
ATOM     78  C   UNL A   1      36.274  32.889  29.319  1.00  0.00     0.148 A 
ATOM     79  C   UNL A   1      35.098  32.254  31.794  1.00  0.00     0.002 A 
ATOM     80  C   UNL A   1      34.977  33.294  29.604  1.00  0.00     0.091 A 
ATOM     81  F   UNL A   1      36.866  33.160  28.146  1.00  0.00    -0.205 F 
ATOM     82  C   UNL A   1      34.387  32.975  30.840  1.00  0.00     0.022 A 
BRANCH  80  83
ATOM     83  S   UNL A   1      33.987  34.268  28.465  1.00  0.00     0.127 S 
ATOM     84  O   UNL A   1      33.790  33.324  27.365  1.00  0.00    -0.237 OA
ATOM     85  O   UNL A   1      32.789  34.540  29.258  1.00  0.00    -0.237 OA
ATOM     86  O   UNL A   1      34.786  35.440  28.134  1.00  0.00    -0.744 OA
ENDBRANCH  80  83
ENDBRANCH  62  76
BRANCH  63  87
ATOM     87  C   UNL A   1      46.537  29.445  29.003  1.00  0.00     0.023 A 
ATOM     88  C   UNL A   1      47.024  28.819  30.169  1.00  0.00     0.012 A 
ATOM     89  C   UNL A   1      47.385  29.539  27.884  1.00  0.00     0.148 A 
ATOM     90  C   UNL A   1      48.324  28.313  30.226  1.00  0.00     0.002 A 
ATOM     91  C   UNL A   1      48.656  28.969  27.925  1.00  0.00     0.091 A 
ATOM     92  F   UNL A   1      46.938  30.172  26.790  1.00  0.00    -0.205 F 
ATOM     93  C   UNL A   1      49.135  28.371  29.099  1.00  0.00     0.022 A 
BRANCH  91  94
ATOM     94  S   UNL A   1      49.676  28.861  26.451  1.00  0.00     0.127 S 
ATOM     95  O   UNL A   1      50.698  27.906  26.865  1.00  0.00    -0.237 OA
ATOM     96  O   UNL A   1      48.742  28.359  25.443  1.00  0.00    -0.237 OA
ATOM     97  O   UNL A   1      50.119  30.230  26.215  1.00  0.00    -0.744 OA
ENDBRANCH  91  94
ENDBRANCH  63  87
BRANCH  75  98
ATOM     98  C   UNL A   1      43.410  35.111  31.612  1.00  0.00     0.023 A 
ATOM     99  C   UNL A   1      43.690  36.205  30.774  1.00  0.00     0.012 A 
ATOM    100  C   UNL A   1      43.465  35.269  33.011  1.00  0.00     0.148 A 
ATOM    101  C   UNL A   1      44.021  37.444  31.320  1.00  0.00     0.002 A 
ATOM    102  C   UNL A   1      43.761  36.515  33.548  1.00  0.00     0.091 A 
ATOM    103  F   UNL A   1      43.200  34.206  33.785  1.00  0.00    -0.205 F 
ATOM    104  C   UNL A   1      44.044  37.602  32.705  1.00  0.00     0.022 A 
BRANCH 102 105
ATOM    105  S   UNL A   1      43.729  36.840  35.316  1.00  0.00     0.127 S 
ATOM    106  O   UNL A   1      42.292  36.884  35.582  1.00  0.00    -0.237 OA
ATOM    107  O   UNL A   1      44.416  35.669  35.858  1.00  0.00    -0.237 OA
ATOM    108  O   UNL A   1      44.434  38.100  35.506  1.00  0.00    -0.744 OA
ENDBRANCH 102 105
ENDBRANCH  75  98
ENDBRANCH  49  50
ENDBRANCH  41  44
ENDBRANCH  39  40
ENDBRANCH  38  39
ENDBRANCH  37  38
ENDBRANCH   1  37
TORSDOF 20
ENDMDL
MODEL 3
REMARK VINA RESULT:     -12.2      4.650      8.981
REMARK SMILES O=C1C[C@H](C(=O)NCCCCCCNC(=O)c2ccc(-c3c4nc(c(-c5cccc(S(=O)(=O)[O-])c5F)c5ccc([nH]5)c(-c5cccc(S(=O)(=O)[O-])c5F)c5nc(c(-c6cccc(S(=O)(=O)[O-])c6F)c6ccc3[nH]6)C=C5)C=C4)cc2)c2c(nc(Nc3ccc(Oc4ccccc4)cc3)[nH]c2=O)N1
REMARK SMILES IDX 10 1 9 2 8 3 7 4 5 5 6 6 4 8 1 9 2 10 3 11 101 12 81 13
REMARK SMILES IDX 80 15 82 16 99 17 83 18 98 19 100 20 84 22 85 24 86 25 97 26
REMARK SMILES IDX 87 27 96 28 88 29 89 30 90 31 91 32 95 33 92 34 94 35 93 36
REMARK SMILES IDX 11 37 12 38 13 39 14 40 15 41 16 43 17 44 18 45 79 46 19 47
REMARK SMILES IDX 78 48 20 49 21 50 22 51 72 52 23 53 77 54 71 55 73 56 24 57
REMARK SMILES IDX 76 58 70 59 69 60 25 62 57 63 37 64 56 65 38 66 41 67 55 68
REMARK SMILES IDX 74 69 39 70 40 71 54 73 75 74 42 75 26 76 27 77 35 78 28 79
REMARK SMILES IDX 30 80 36 81 29 82 31 83 32 84 33 85 34 86 58 87 59 88 67 89
REMARK SMILES IDX 60 90 62 91 68 92 61 93 63 94 64 95 65 96 66 97 43 98 44 99
REMARK SMILES IDX 52 100 45 101 47 102 53 103 46 104 48 105 49 106 50 107
REMARK SMILES IDX 51 108
REMARK H PARENT 7 7 101 14 98 21 84 23 14 42 73 61 41 72
REMARK Flexibility Score: inf
ROOT
ATOM      1  C   UNL A   1      33.945  25.332  23.702  1.00  0.00     0.002 C 
ENDROOT
BRANCH   1   2
ATOM      2  C   UNL A   1      34.075  26.537  24.640  1.00  0.00     0.021 C 
BRANCH   2   3
ATOM      3  C   UNL A   1      33.929  27.893  23.955  1.00  0.00     0.116 C 
BRANCH   3   4
ATOM      4  N   UNL A   1      33.827  28.964  24.932  1.00  0.00    -0.356 N 
ATOM      5  C   UNL A   1      32.746  29.626  25.427  1.00  0.00     0.228 C 
ATOM      6  O   UNL A   1      32.958  30.604  26.149  1.00  0.00    -0.274 OA
ATOM      7  H   UNL A   1      34.690  29.261  25.300  1.00  0.00     0.163 HD
BRANCH   5   8
ATOM      8  C   UNL A   1      31.314  29.232  25.058  1.00  0.00     0.127 C 
ATOM      9  O   UNL A   1      29.733  28.939  21.716  1.00  0.00    -0.275 OA
ATOM     10  C   UNL A   1      30.203  28.639  22.812  1.00  0.00     0.226 C 
ATOM     11  C   UNL A   1      31.038  29.620  23.601  1.00  0.00     0.119 C 
ATOM     12  N   UNL A   1      30.041  27.391  23.330  1.00  0.00    -0.310 N 
ATOM     13  C   UNL A   1      30.443  26.964  24.553  1.00  0.00     0.146 A 
ATOM     14  H   UNL A   1      29.583  26.732  22.759  1.00  0.00     0.171 HD
ATOM     15  C   UNL A   1      31.027  27.807  25.407  1.00  0.00     0.073 A 
ATOM     16  N   UNL A   1      30.178  25.659  24.796  1.00  0.00    -0.196 NA
ATOM     17  C   UNL A   1      31.364  27.254  26.731  1.00  0.00     0.258 A 
ATOM     18  C   UNL A   1      30.503  25.152  25.946  1.00  0.00     0.209 A 
ATOM     19  N   UNL A   1      31.097  25.928  26.904  1.00  0.00    -0.292 N 
ATOM     20  O   UNL A   1      31.835  27.937  27.632  1.00  0.00    -0.269 OA
ATOM     21  H   UNL A   1      31.343  25.508  27.760  1.00  0.00     0.173 HD
BRANCH  18  22
ATOM     22  N   UNL A   1      30.249  23.850  26.292  1.00  0.00    -0.326 N 
ATOM     23  H   UNL A   1      29.394  23.633  26.728  1.00  0.00     0.170 HD
BRANCH  22  24
ATOM     24  C   UNL A   1      31.166  22.814  26.047  1.00  0.00     0.041 A 
ATOM     25  C   UNL A   1      31.140  22.131  24.828  1.00  0.00     0.030 A 
ATOM     26  C   UNL A   1      32.193  22.538  26.956  1.00  0.00     0.030 A 
ATOM     27  C   UNL A   1      32.163  21.233  24.503  1.00  0.00     0.049 A 
ATOM     28  C   UNL A   1      33.197  21.620  26.646  1.00  0.00     0.049 A 
ATOM     29  C   UNL A   1      33.206  20.990  25.399  1.00  0.00     0.127 A 
BRANCH  29  30
ATOM     30  O   UNL A   1      34.197  20.147  24.936  1.00  0.00    -0.457 OA
BRANCH  30  31
ATOM     31  C   UNL A   1      33.911  18.805  24.893  1.00  0.00     0.127 A 
ATOM     32  C   UNL A   1      34.721  17.944  24.151  1.00  0.00     0.047 A 
ATOM     33  C   UNL A   1      32.801  18.322  25.578  1.00  0.00     0.047 A 
ATOM     34  C   UNL A   1      34.442  16.576  24.142  1.00  0.00     0.004 A 
ATOM     35  C   UNL A   1      32.527  16.956  25.566  1.00  0.00     0.004 A 
ATOM     36  C   UNL A   1      33.348  16.082  24.855  1.00  0.00     0.000 A 
ENDBRANCH  30  31
ENDBRANCH  29  30
ENDBRANCH  22  24
ENDBRANCH  18  22
ENDBRANCH   5   8
ENDBRANCH   3   4
ENDBRANCH   2   3
ENDBRANCH   1   2
BRANCH   1  37
ATOM     37  C   UNL A   1      34.545  24.025  24.226  1.00  0.00     0.002 C 
BRANCH  37  38
ATOM     38  C   UNL A   1      36.065  24.032  24.408  1.00  0.00     0.021 C 
BRANCH  38  39
ATOM     39  C   UNL A   1      36.535  23.908  25.854  1.00  0.00     0.116 C 
BRANCH  39  40
ATOM     40  N   UNL A   1      37.436  22.782  26.040  1.00  0.00    -0.352 N 
ATOM     41  C   UNL A   1      38.746  22.794  26.458  1.00  0.00     0.251 C 
ATOM     42  H   UNL A   1      37.059  21.895  25.840  1.00  0.00     0.163 HD
ATOM     43  O   UNL A   1      39.431  21.784  26.394  1.00  0.00    -0.269 OA
BRANCH  41  44
ATOM     44  C   UNL A   1      39.317  24.056  26.972  1.00  0.00     0.039 A 
ATOM     45  C   UNL A   1      39.981  24.908  26.087  1.00  0.00     0.014 A 
ATOM     46  C   UNL A   1      39.166  24.400  28.319  1.00  0.00     0.014 A 
ATOM     47  C   UNL A   1      40.454  26.138  26.547  1.00  0.00     0.010 A 
ATOM     48  C   UNL A   1      39.595  25.647  28.763  1.00  0.00     0.010 A 
ATOM     49  C   UNL A   1      40.247  26.524  27.882  1.00  0.00    -0.014 A 
BRANCH  49  50
ATOM     50  C   UNL A   1      40.721  27.839  28.376  1.00  0.00     0.031 A 
ATOM     51  C   UNL A   1      42.193  28.091  28.522  1.00  0.00     0.074 A 
ATOM     52  C   UNL A   1      39.825  28.791  28.704  1.00  0.00     0.049 A 
ATOM     53  N   UNL A   1      42.804  29.184  28.895  1.00  0.00    -0.248 NA
ATOM     54  C   UNL A   1      43.101  26.972  28.211  1.00  0.00     0.031 C 
ATOM     55  C   UNL A   1      38.372  28.647  28.602  1.00  0.00     0.029 A 
ATOM     56  N   UNL A   1      40.000  30.071  29.171  1.00  0.00    -0.354 N 
ATOM     57  C   UNL A   1      44.160  28.883  28.879  1.00  0.00     0.074 A 
ATOM     58  C   UNL A   1      44.286  27.497  28.489  1.00  0.00     0.031 C 
ATOM     59  C   UNL A   1      37.792  29.814  28.927  1.00  0.00     0.029 A 
ATOM     60  C   UNL A   1      38.825  30.777  29.300  1.00  0.00     0.049 A 
ATOM     61  H   UNL A   1      40.883  30.446  29.393  1.00  0.00     0.167 HD
ATOM     62  C   UNL A   1      45.207  29.701  29.129  1.00  0.00     0.034 A 
ATOM     63  C   UNL A   1      38.616  32.064  29.646  1.00  0.00     0.034 A 
ATOM     64  C   UNL A   1      45.079  31.092  29.453  1.00  0.00     0.049 A 
ATOM     65  C   UNL A   1      39.808  32.925  29.982  1.00  0.00     0.074 A 
ATOM     66  C   UNL A   1      46.085  32.022  29.646  1.00  0.00     0.029 A 
ATOM     67  N   UNL A   1      43.876  31.754  29.629  1.00  0.00    -0.354 N 
ATOM     68  N   UNL A   1      41.084  32.656  29.850  1.00  0.00    -0.248 NA
ATOM     69  C   UNL A   1      39.531  34.272  30.507  1.00  0.00     0.031 C 
ATOM     70  C   UNL A   1      45.487  33.249  29.947  1.00  0.00     0.029 A 
ATOM     71  C   UNL A   1      44.112  33.080  29.941  1.00  0.00     0.049 A 
ATOM     72  H   UNL A   1      42.986  31.342  29.543  1.00  0.00     0.167 HD
ATOM     73  C   UNL A   1      41.759  33.816  30.211  1.00  0.00     0.074 A 
ATOM     74  C   UNL A   1      40.752  34.788  30.583  1.00  0.00     0.031 C 
ATOM     75  C   UNL A   1      43.093  34.053  30.234  1.00  0.00     0.034 A 
BRANCH  62  76
ATOM     76  C   UNL A   1      46.592  29.138  28.985  1.00  0.00     0.023 A 
ATOM     77  C   UNL A   1      47.249  28.643  30.129  1.00  0.00     0.012 A 
ATOM     78  C   UNL A   1      47.196  29.006  27.721  1.00  0.00     0.148 A 
ATOM     79  C   UNL A   1      48.494  28.030  30.018  1.00  0.00     0.002 A 
ATOM     80  C   UNL A   1      48.426  28.370  27.615  1.00  0.00     0.091 A 
ATOM     81  F   UNL A   1      46.552  29.497  26.652  1.00  0.00    -0.205 F 
ATOM     82  C   UNL A   1      49.078  27.884  28.763  1.00  0.00     0.022 A 
BRANCH  80  83
ATOM     83  S   UNL A   1      49.246  28.087  26.043  1.00  0.00     0.127 S 
ATOM     84  O   UNL A   1      48.115  28.108  25.113  1.00  0.00    -0.237 OA
ATOM     85  O   UNL A   1      50.135  29.244  25.948  1.00  0.00    -0.237 OA
ATOM     86  O   UNL A   1      49.918  26.801  26.162  1.00  0.00    -0.744 OA
ENDBRANCH  80  83
ENDBRANCH  62  76
BRANCH  63  87
ATOM     87  C   UNL A   1      37.252  32.664  29.533  1.00  0.00     0.023 A 
ATOM     88  C   UNL A   1      36.636  32.685  28.265  1.00  0.00     0.012 A 
ATOM     89  C   UNL A   1      36.532  33.150  30.640  1.00  0.00     0.148 A 
ATOM     90  C   UNL A   1      35.344  33.186  28.100  1.00  0.00     0.002 A 
ATOM     91  C   UNL A   1      35.218  33.583  30.479  1.00  0.00     0.091 A 
ATOM     92  F   UNL A   1      37.133  33.172  31.839  1.00  0.00    -0.205 F 
ATOM     93  C   UNL A   1      34.627  33.620  29.209  1.00  0.00     0.022 A 
BRANCH  91  94
ATOM     94  S   UNL A   1      34.191  33.988  31.895  1.00  0.00     0.127 S 
ATOM     95  O   UNL A   1      35.069  34.869  32.658  1.00  0.00    -0.237 OA
ATOM     96  O   UNL A   1      33.038  34.651  31.285  1.00  0.00    -0.237 OA
ATOM     97  O   UNL A   1      33.877  32.698  32.498  1.00  0.00    -0.744 OA
ENDBRANCH  91  94
ENDBRANCH  63  87
BRANCH  75  98
ATOM     98  C   UNL A   1      43.567  35.424  30.629  1.00  0.00     0.023 A 
ATOM     99  C   UNL A   1      43.892  35.679  31.974  1.00  0.00     0.012 A 
ATOM    100  C   UNL A   1      43.832  36.399  29.648  1.00  0.00     0.148 A 
ATOM    101  C   UNL A   1      44.475  36.891  32.340  1.00  0.00     0.002 A 
ATOM    102  C   UNL A   1      44.446  37.590  30.015  1.00  0.00     0.091 A 
ATOM    103  F   UNL A   1      43.506  36.130  28.375  1.00  0.00    -0.205 F 
ATOM    104  C   UNL A   1      44.763  37.839  31.360  1.00  0.00     0.022 A 
BRANCH 102 105
ATOM    105  S   UNL A   1      44.937  38.836  28.816  1.00  0.00     0.127 S 
ATOM    106  O   UNL A   1      43.651  39.205  28.228  1.00  0.00    -0.237 OA
ATOM    107  O   UNL A   1      45.539  39.863  29.666  1.00  0.00    -0.237 OA
ATOM    108  O   UNL A   1      45.867  38.177  27.909  1.00  0.00    -0.744 OA
ENDBRANCH 102 105
ENDBRANCH  75  98
ENDBRANCH  49  50
ENDBRANCH  41  44
ENDBRANCH  39  40
ENDBRANCH  38  39
ENDBRANCH  37  38
ENDBRANCH   1  37
TORSDOF 20
ENDMDL
