MODEL 1
REMARK VINA RESULT:     -10.9      0.000      0.000
REMARK SMILES Cc1cnc(S[C@H]2CC[C@@]([NH2+]C(C)C)(C(=O)NCCCCCCNC(=O)c3ccc(-c4c5nc(c(-c6cccc(S(=O)(=O)[O-])c6F)c6ccc([nH]6)c(-c6cccc(S(=O)(=O)[O-])c6F)c6nc(c(-c7cccc(S(=O)(=O)[O-])c7F)c7ccc4[nH]7)C=C6)C=C5)cc3)C2)nc1
REMARK SMILES IDX 21 1 20 2 19 3 18 4 17 5 15 6 16 7 10 9 7 10 8 11 90 12 9 13
REMARK SMILES IDX 6 14 5 15 1 16 2 17 3 18 92 19 4 20 91 21 11 22 12 25 13 26
REMARK SMILES IDX 14 27 22 28 23 29 24 30 25 31 26 33 27 34 28 35 89 36 29 37
REMARK SMILES IDX 88 38 30 39 31 40 32 41 82 42 33 43 87 44 81 45 83 46 34 47
REMARK SMILES IDX 86 48 80 49 79 50 35 52 67 53 47 54 66 55 48 56 51 57 65 58
REMARK SMILES IDX 84 59 49 60 50 61 64 63 85 64 52 65 36 66 37 67 45 68 38 69
REMARK SMILES IDX 40 70 46 71 39 72 41 73 42 74 43 75 44 76 68 77 69 78 77 79
REMARK SMILES IDX 70 80 72 81 78 82 71 83 73 84 74 85 75 86 76 87 53 88 54 89
REMARK SMILES IDX 62 90 55 91 57 92 63 93 56 94 58 95 59 96 60 97 61 98
REMARK H PARENT 17 8 11 23 11 24 24 32 83 51 51 62
REMARK Flexibility Score: inf
ROOT
ATOM      1  C   UNL A   1      33.922  23.016  26.783  1.00  0.00     0.002 C 
ENDROOT
BRANCH   1   2
ATOM      2  C   UNL A   1      32.477  22.658  27.143  1.00  0.00     0.002 C 
BRANCH   2   3
ATOM      3  C   UNL A   1      31.447  23.763  26.875  1.00  0.00     0.021 C 
BRANCH   3   4
ATOM      4  C   UNL A   1      32.055  25.106  26.470  1.00  0.00     0.116 C 
BRANCH   4   5
ATOM      5  N   UNL A   1      31.083  25.937  25.780  1.00  0.00    -0.351 N 
ATOM      6  C   UNL A   1      31.255  27.088  25.064  1.00  0.00     0.281 C 
ATOM      7  O   UNL A   1      30.281  27.480  24.411  1.00  0.00    -0.268 OA
ATOM      8  H   UNL A   1      30.154  25.621  25.839  1.00  0.00     0.163 HD
BRANCH   6   9
ATOM      9  C   UNL A   1      32.658  27.786  24.970  1.00  0.00     0.176 C 
ATOM     10  C   UNL A   1      33.651  27.235  22.770  1.00  0.00     0.062 C 
ATOM     11  C   UNL A   1      33.476  28.745  22.817  1.00  0.00     0.022 C 
ATOM     12  C   UNL A   1      33.719  26.895  24.269  1.00  0.00     0.094 C 
ATOM     13  C   UNL A   1      32.600  29.029  24.037  1.00  0.00     0.080 C 
BRANCH  10  14
ATOM     14  S   UNL A   1      32.264  26.317  22.009  1.00  0.00    -0.083 SA
BRANCH  14  15
ATOM     15  C   UNL A   1      32.457  24.660  22.583  1.00  0.00     0.187 A 
ATOM     16  C   UNL A   1      32.556  20.613  23.693  1.00  0.00     0.048 C 
ATOM     17  C   UNL A   1      32.530  22.054  23.325  1.00  0.00    -0.014 A 
ATOM     18  C   UNL A   1      33.616  22.706  22.776  1.00  0.00     0.119 A 
ATOM     19  C   UNL A   1      31.410  22.836  23.487  1.00  0.00     0.119 A 
ATOM     20  N   UNL A   1      33.613  24.004  22.405  1.00  0.00    -0.231 NA
ATOM     21  N   UNL A   1      31.350  24.127  23.128  1.00  0.00    -0.231 NA
ENDBRANCH  14  15
ENDBRANCH  10  14
BRANCH   9  22
ATOM     22  N   UNL A   1      33.076  28.182  26.344  1.00  0.00    -0.332 N 
ATOM     23  H   UNL A   1      33.748  27.488  26.673  1.00  0.00     0.347 HD
ATOM     24  H   UNL A   1      32.209  28.229  26.881  1.00  0.00     0.347 HD
BRANCH  22  25
ATOM     25  C   UNL A   1      33.695  29.509  26.499  1.00  0.00     0.176 C 
ATOM     26  C   UNL A   1      32.820  30.511  27.251  1.00  0.00     0.075 C 
ATOM     27  C   UNL A   1      35.015  29.322  27.252  1.00  0.00     0.075 C 
ENDBRANCH  22  25
ENDBRANCH   9  22
ENDBRANCH   6   9
ENDBRANCH   4   5
ENDBRANCH   3   4
ENDBRANCH   2   3
ENDBRANCH   1   2
BRANCH   1  28
ATOM     28  C   UNL A   1      34.797  21.831  26.368  1.00  0.00     0.021 C 
BRANCH  28  29
ATOM     29  C   UNL A   1      36.080  22.210  25.637  1.00  0.00     0.116 C 
BRANCH  29  30
ATOM     30  N   UNL A   1      37.015  21.097  25.553  1.00  0.00    -0.352 N 
ATOM     31  C   UNL A   1      38.375  21.099  25.750  1.00  0.00     0.251 C 
ATOM     32  H   UNL A   1      36.620  20.225  25.324  1.00  0.00     0.163 HD
ATOM     33  O   UNL A   1      39.044  20.108  25.472  1.00  0.00    -0.269 OA
BRANCH  31  34
ATOM     34  C   UNL A   1      39.030  22.313  26.282  1.00  0.00     0.039 A 
ATOM     35  C   UNL A   1      40.039  22.180  27.238  1.00  0.00     0.014 A 
ATOM     36  C   UNL A   1      38.656  23.579  25.822  1.00  0.00     0.014 A 
ATOM     37  C   UNL A   1      40.716  23.315  27.692  1.00  0.00     0.010 A 
ATOM     38  C   UNL A   1      39.378  24.699  26.223  1.00  0.00     0.010 A 
ATOM     39  C   UNL A   1      40.411  24.580  27.165  1.00  0.00    -0.014 A 
BRANCH  39  40
ATOM     40  C   UNL A   1      41.154  25.798  27.580  1.00  0.00     0.031 A 
ATOM     41  C   UNL A   1      40.436  26.904  28.305  1.00  0.00     0.074 A 
ATOM     42  C   UNL A   1      42.441  25.955  27.211  1.00  0.00     0.049 A 
ATOM     43  N   UNL A   1      40.875  28.086  28.650  1.00  0.00    -0.248 NA
ATOM     44  C   UNL A   1      39.028  26.661  28.665  1.00  0.00     0.031 C 
ATOM     45  C   UNL A   1      43.227  24.989  26.443  1.00  0.00     0.029 A 
ATOM     46  N   UNL A   1      43.305  27.007  27.402  1.00  0.00    -0.354 N 
ATOM     47  C   UNL A   1      39.791  28.742  29.222  1.00  0.00     0.074 A 
ATOM     48  C   UNL A   1      38.666  27.837  29.157  1.00  0.00     0.031 C 
ATOM     49  C   UNL A   1      44.452  25.494  26.219  1.00  0.00     0.029 A 
ATOM     50  C   UNL A   1      44.529  26.830  26.798  1.00  0.00     0.049 A 
ATOM     51  H   UNL A   1      43.070  27.810  27.920  1.00  0.00     0.167 HD
ATOM     52  C   UNL A   1      39.744  29.977  29.776  1.00  0.00     0.034 A 
ATOM     53  C   UNL A   1      45.589  27.659  26.709  1.00  0.00     0.034 A 
ATOM     54  C   UNL A   1      40.878  30.851  29.890  1.00  0.00     0.049 A 
ATOM     55  C   UNL A   1      45.523  29.007  27.377  1.00  0.00     0.074 A 
ATOM     56  C   UNL A   1      40.955  32.081  30.519  1.00  0.00     0.029 A 
ATOM     57  N   UNL A   1      42.134  30.592  29.363  1.00  0.00    -0.354 N 
ATOM     58  N   UNL A   1      44.536  29.546  28.051  1.00  0.00    -0.248 NA
ATOM     59  C   UNL A   1      46.727  29.848  27.304  1.00  0.00     0.031 C 
ATOM     60  C   UNL A   1      42.252  32.577  30.353  1.00  0.00     0.029 A 
ATOM     61  C   UNL A   1      42.990  31.641  29.646  1.00  0.00     0.049 A 
ATOM     62  H   UNL A   1      42.380  29.782  28.860  1.00  0.00     0.167 HD
ATOM     63  C   UNL A   1      45.014  30.765  28.518  1.00  0.00     0.074 A 
ATOM     64  C   UNL A   1      46.383  30.880  28.062  1.00  0.00     0.031 C 
ATOM     65  C   UNL A   1      44.372  31.711  29.247  1.00  0.00     0.034 A 
BRANCH  52  66
ATOM     66  C   UNL A   1      38.433  30.440  30.356  1.00  0.00     0.023 A 
ATOM     67  C   UNL A   1      38.090  30.077  31.673  1.00  0.00     0.012 A 
ATOM     68  C   UNL A   1      37.582  31.296  29.629  1.00  0.00     0.148 A 
ATOM     69  C   UNL A   1      36.904  30.533  32.249  1.00  0.00     0.002 A 
ATOM     70  C   UNL A   1      36.425  31.782  30.226  1.00  0.00     0.091 A 
ATOM     71  F   UNL A   1      37.917  31.614  28.371  1.00  0.00    -0.205 F 
ATOM     72  C   UNL A   1      36.080  31.393  31.531  1.00  0.00     0.022 A 
BRANCH  70  73
ATOM     73  S   UNL A   1      35.336  32.960  29.416  1.00  0.00     0.127 S 
ATOM     74  O   UNL A   1      35.525  32.617  28.007  1.00  0.00    -0.237 OA
ATOM     75  O   UNL A   1      34.028  32.595  29.963  1.00  0.00    -0.237 OA
ATOM     76  O   UNL A   1      35.811  34.280  29.804  1.00  0.00    -0.744 OA
ENDBRANCH  70  73
ENDBRANCH  52  66
BRANCH  53  77
ATOM     77  C   UNL A   1      46.829  27.218  26.007  1.00  0.00     0.023 A 
ATOM     78  C   UNL A   1      46.945  27.419  24.618  1.00  0.00     0.012 A 
ATOM     79  C   UNL A   1      47.894  26.616  26.705  1.00  0.00     0.148 A 
ATOM     80  C   UNL A   1      48.081  26.992  23.930  1.00  0.00     0.002 A 
ATOM     81  C   UNL A   1      49.046  26.243  26.022  1.00  0.00     0.091 A 
ATOM     82  F   UNL A   1      47.760  26.421  28.024  1.00  0.00    -0.205 F 
ATOM     83  C   UNL A   1      49.135  26.413  24.632  1.00  0.00     0.022 A 
BRANCH  81  84
ATOM     84  S   UNL A   1      50.499  25.610  26.866  1.00  0.00     0.127 S 
ATOM     85  O   UNL A   1      51.395  25.326  25.747  1.00  0.00    -0.237 OA
ATOM     86  O   UNL A   1      50.891  26.751  27.694  1.00  0.00    -0.237 OA
ATOM     87  O   UNL A   1      50.039  24.453  27.622  1.00  0.00    -0.744 OA
ENDBRANCH  81  84
ENDBRANCH  53  77
BRANCH  65  88
ATOM     88  C   UNL A   1      45.148  32.936  29.652  1.00  0.00     0.023 A 
ATOM     89  C   UNL A   1      45.890  32.934  30.850  1.00  0.00     0.012 A 
ATOM     90  C   UNL A   1      45.217  34.052  28.794  1.00  0.00     0.148 A 
ATOM     91  C   UNL A   1      46.669  34.035  31.200  1.00  0.00     0.002 A 
ATOM     92  C   UNL A   1      46.035  35.125  29.126  1.00  0.00     0.091 A 
ATOM     93  F   UNL A   1      44.489  34.039  27.669  1.00  0.00    -0.205 F 
ATOM     94  C   UNL A   1      46.753  35.124  30.333  1.00  0.00     0.022 A 
BRANCH  92  95
ATOM     95  S   UNL A   1      46.282  36.524  28.026  1.00  0.00     0.127 S 
ATOM     96  O   UNL A   1      46.777  37.543  28.949  1.00  0.00    -0.237 OA
ATOM     97  O   UNL A   1      47.283  36.009  27.091  1.00  0.00    -0.237 OA
ATOM     98  O   UNL A   1      44.982  36.800  27.429  1.00  0.00    -0.744 OA
ENDBRANCH  92  95
ENDBRANCH  65  88
ENDBRANCH  39  40
ENDBRANCH  31  34
ENDBRANCH  29  30
ENDBRANCH  28  29
ENDBRANCH   1  28
TORSDOF 20
ENDMDL
MODEL 2
REMARK VINA RESULT:     -10.9      5.770     10.556
REMARK SMILES Cc1cnc(S[C@H]2CC[C@@]([NH2+]C(C)C)(C(=O)NCCCCCCNC(=O)c3ccc(-c4c5nc(c(-c6cccc(S(=O)(=O)[O-])c6F)c6ccc([nH]6)c(-c6cccc(S(=O)(=O)[O-])c6F)c6nc(c(-c7cccc(S(=O)(=O)[O-])c7F)c7ccc4[nH]7)C=C6)C=C5)cc3)C2)nc1
REMARK SMILES IDX 21 1 20 2 19 3 18 4 17 5 15 6 16 7 10 9 7 10 8 11 90 12 9 13
REMARK SMILES IDX 6 14 5 15 1 16 2 17 3 18 92 19 4 20 91 21 11 22 12 25 13 26
REMARK SMILES IDX 14 27 22 28 23 29 24 30 25 31 26 33 27 34 28 35 89 36 29 37
REMARK SMILES IDX 88 38 30 39 31 40 32 41 82 42 33 43 87 44 81 45 83 46 34 47
REMARK SMILES IDX 86 48 80 49 79 50 35 52 67 53 47 54 66 55 48 56 51 57 65 58
REMARK SMILES IDX 84 59 49 60 50 61 64 63 85 64 52 65 36 66 37 67 45 68 38 69
REMARK SMILES IDX 40 70 46 71 39 72 41 73 42 74 43 75 44 76 68 77 69 78 77 79
REMARK SMILES IDX 70 80 72 81 78 82 71 83 73 84 74 85 75 86 76 87 53 88 54 89
REMARK SMILES IDX 62 90 55 91 57 92 63 93 56 94 58 95 59 96 60 97 61 98
REMARK H PARENT 17 8 11 23 11 24 24 32 83 51 51 62
REMARK Flexibility Score: inf
ROOT
ATOM      1  C   UNL A   1      31.976  30.502  26.859  1.00  0.00     0.002 C 
ENDROOT
BRANCH   1   2
ATOM      2  C   UNL A   1      33.435  30.060  27.005  1.00  0.00     0.002 C 
BRANCH   2   3
ATOM      3  C   UNL A   1      33.639  28.559  27.244  1.00  0.00     0.021 C 
BRANCH   3   4
ATOM      4  C   UNL A   1      33.176  27.668  26.090  1.00  0.00     0.116 C 
BRANCH   4   5
ATOM      5  N   UNL A   1      32.272  26.631  26.555  1.00  0.00    -0.351 N 
ATOM      6  C   UNL A   1      31.948  25.426  25.998  1.00  0.00     0.281 C 
ATOM      7  O   UNL A   1      31.303  24.647  26.710  1.00  0.00    -0.268 OA
ATOM      8  H   UNL A   1      31.820  26.828  27.406  1.00  0.00     0.163 HD
BRANCH   6   9
ATOM      9  C   UNL A   1      32.495  25.009  24.587  1.00  0.00     0.176 C 
ATOM     10  C   UNL A   1      30.987  25.952  22.864  1.00  0.00     0.062 C 
ATOM     11  C   UNL A   1      32.360  26.569  22.644  1.00  0.00     0.022 C 
ATOM     12  C   UNL A   1      31.358  24.649  23.592  1.00  0.00     0.094 C 
ATOM     13  C   UNL A   1      33.185  26.211  23.880  1.00  0.00     0.080 C 
BRANCH  10  14
ATOM     14  S   UNL A   1      29.859  26.930  23.921  1.00  0.00    -0.083 SA
BRANCH  14  15
ATOM     15  C   UNL A   1      29.362  28.286  22.909  1.00  0.00     0.187 A 
ATOM     16  C   UNL A   1      28.005  31.699  20.875  1.00  0.00     0.048 C 
ATOM     17  C   UNL A   1      28.480  30.474  21.573  1.00  0.00    -0.014 A 
ATOM     18  C   UNL A   1      29.793  30.051  21.531  1.00  0.00     0.119 A 
ATOM     19  C   UNL A   1      27.645  29.686  22.330  1.00  0.00     0.119 A 
ATOM     20  N   UNL A   1      30.260  28.962  22.178  1.00  0.00    -0.231 NA
ATOM     21  N   UNL A   1      28.057  28.599  22.999  1.00  0.00    -0.231 NA
ENDBRANCH  14  15
ENDBRANCH  10  14
BRANCH   9  22
ATOM     22  N   UNL A   1      33.457  23.887  24.771  1.00  0.00    -0.332 N 
ATOM     23  H   UNL A   1      33.113  23.094  24.228  1.00  0.00     0.347 HD
ATOM     24  H   UNL A   1      33.495  23.733  25.779  1.00  0.00     0.347 HD
BRANCH  22  25
ATOM     25  C   UNL A   1      34.853  24.130  24.369  1.00  0.00     0.176 C 
ATOM     26  C   UNL A   1      35.840  24.115  25.535  1.00  0.00     0.075 C 
ATOM     27  C   UNL A   1      35.242  23.045  23.360  1.00  0.00     0.075 C 
ENDBRANCH  22  25
ENDBRANCH   9  22
ENDBRANCH   6   9
ENDBRANCH   4   5
ENDBRANCH   3   4
ENDBRANCH   2   3
ENDBRANCH   1   2
BRANCH   1  28
ATOM     28  C   UNL A   1      31.755  32.016  26.871  1.00  0.00     0.021 C 
BRANCH  28  29
ATOM     29  C   UNL A   1      32.973  32.836  27.280  1.00  0.00     0.116 C 
BRANCH  29  30
ATOM     30  N   UNL A   1      32.617  34.190  27.681  1.00  0.00    -0.352 N 
ATOM     31  C   UNL A   1      33.114  34.938  28.720  1.00  0.00     0.251 C 
ATOM     32  H   UNL A   1      31.927  34.629  27.133  1.00  0.00     0.163 HD
ATOM     33  O   UNL A   1      32.584  36.002  29.029  1.00  0.00    -0.269 OA
BRANCH  31  34
ATOM     34  C   UNL A   1      34.283  34.442  29.479  1.00  0.00     0.039 A 
ATOM     35  C   UNL A   1      34.077  33.784  30.693  1.00  0.00     0.014 A 
ATOM     36  C   UNL A   1      35.576  34.615  28.980  1.00  0.00     0.014 A 
ATOM     37  C   UNL A   1      35.168  33.245  31.381  1.00  0.00     0.010 A 
ATOM     38  C   UNL A   1      36.652  34.018  29.631  1.00  0.00     0.010 A 
ATOM     39  C   UNL A   1      36.460  33.332  30.840  1.00  0.00    -0.014 A 
BRANCH  39  40
ATOM     40  C   UNL A   1      37.632  32.716  31.515  1.00  0.00     0.031 A 
ATOM     41  C   UNL A   1      38.350  31.563  30.866  1.00  0.00     0.074 A 
ATOM     42  C   UNL A   1      37.981  33.120  32.752  1.00  0.00     0.049 A 
ATOM     43  N   UNL A   1      39.316  30.821  31.340  1.00  0.00    -0.248 NA
ATOM     44  C   UNL A   1      37.903  31.173  29.517  1.00  0.00     0.031 C 
ATOM     45  C   UNL A   1      37.318  34.177  33.517  1.00  0.00     0.029 A 
ATOM     46  N   UNL A   1      38.960  32.662  33.601  1.00  0.00    -0.354 N 
ATOM     47  C   UNL A   1      39.560  29.852  30.374  1.00  0.00     0.074 A 
ATOM     48  C   UNL A   1      38.625  30.085  29.296  1.00  0.00     0.031 C 
ATOM     49  C   UNL A   1      37.901  34.281  34.723  1.00  0.00     0.029 A 
ATOM     50  C   UNL A   1      38.955  33.279  34.831  1.00  0.00     0.049 A 
ATOM     51  H   UNL A   1      39.602  31.959  33.352  1.00  0.00     0.167 HD
ATOM     52  C   UNL A   1      40.496  28.873  30.372  1.00  0.00     0.034 A 
ATOM     53  C   UNL A   1      39.707  33.052  35.927  1.00  0.00     0.034 A 
ATOM     54  C   UNL A   1      41.460  28.681  31.420  1.00  0.00     0.049 A 
ATOM     55  C   UNL A   1      40.772  31.989  35.877  1.00  0.00     0.074 A 
ATOM     56  C   UNL A   1      42.509  27.780  31.467  1.00  0.00     0.029 A 
ATOM     57  N   UNL A   1      41.495  29.399  32.605  1.00  0.00    -0.354 N 
ATOM     58  N   UNL A   1      41.091  31.186  34.891  1.00  0.00    -0.248 NA
ATOM     59  C   UNL A   1      41.606  31.823  37.077  1.00  0.00     0.031 C 
ATOM     60  C   UNL A   1      43.165  27.937  32.691  1.00  0.00     0.029 A 
ATOM     61  C   UNL A   1      42.543  28.956  33.393  1.00  0.00     0.049 A 
ATOM     62  H   UNL A   1      40.867  30.116  32.850  1.00  0.00     0.167 HD
ATOM     63  C   UNL A   1      42.186  30.453  35.334  1.00  0.00     0.074 A 
ATOM     64  C   UNL A   1      42.486  30.917  36.672  1.00  0.00     0.031 C 
ATOM     65  C   UNL A   1      42.873  29.475  34.695  1.00  0.00     0.034 A 
BRANCH  52  66
ATOM     66  C   UNL A   1      40.564  27.964  29.172  1.00  0.00     0.023 A 
ATOM     67  C   UNL A   1      39.635  26.913  29.044  1.00  0.00     0.012 A 
ATOM     68  C   UNL A   1      41.492  28.198  28.139  1.00  0.00     0.148 A 
ATOM     69  C   UNL A   1      39.647  26.088  27.920  1.00  0.00     0.002 A 
ATOM     70  C   UNL A   1      41.470  27.400  27.002  1.00  0.00     0.091 A 
ATOM     71  F   UNL A   1      42.381  29.191  28.289  1.00  0.00    -0.205 F 
ATOM     72  C   UNL A   1      40.555  26.339  26.896  1.00  0.00     0.022 A 
BRANCH  70  73
ATOM     73  S   UNL A   1      42.543  27.690  25.590  1.00  0.00     0.127 S 
ATOM     74  O   UNL A   1      42.318  26.483  24.795  1.00  0.00    -0.237 OA
ATOM     75  O   UNL A   1      41.975  28.912  25.019  1.00  0.00    -0.237 OA
ATOM     76  O   UNL A   1      43.887  27.838  26.130  1.00  0.00    -0.744 OA
ENDBRANCH  70  73
ENDBRANCH  52  66
BRANCH  53  77
ATOM     77  C   UNL A   1      39.520  33.885  37.150  1.00  0.00     0.023 A 
ATOM     78  C   UNL A   1      40.013  35.204  37.169  1.00  0.00     0.012 A 
ATOM     79  C   UNL A   1      38.851  33.386  38.284  1.00  0.00     0.148 A 
ATOM     80  C   UNL A   1      39.878  35.998  38.309  1.00  0.00     0.002 A 
ATOM     81  C   UNL A   1      38.671  34.200  39.396  1.00  0.00     0.091 A 
ATOM     82  F   UNL A   1      38.400  32.124  38.252  1.00  0.00    -0.205 F 
ATOM     83  C   UNL A   1      39.200  35.500  39.418  1.00  0.00     0.022 A 
BRANCH  81  84
ATOM     84  S   UNL A   1      37.699  33.685  40.816  1.00  0.00     0.127 S 
ATOM     85  O   UNL A   1      37.437  34.961  41.477  1.00  0.00    -0.237 OA
ATOM     86  O   UNL A   1      36.534  33.070  40.180  1.00  0.00    -0.237 OA
ATOM     87  O   UNL A   1      38.543  32.750  41.548  1.00  0.00    -0.744 OA
ENDBRANCH  81  84
ENDBRANCH  53  77
BRANCH  65  88
ATOM     88  C   UNL A   1      44.056  28.867  35.402  1.00  0.00     0.023 A 
ATOM     89  C   UNL A   1      45.336  29.430  35.243  1.00  0.00     0.012 A 
ATOM     90  C   UNL A   1      43.875  27.796  36.300  1.00  0.00     0.148 A 
ATOM     91  C   UNL A   1      46.426  28.921  35.948  1.00  0.00     0.002 A 
ATOM     92  C   UNL A   1      44.956  27.326  37.036  1.00  0.00     0.091 A 
ATOM     93  F   UNL A   1      42.651  27.263  36.423  1.00  0.00    -0.205 F 
ATOM     94  C   UNL A   1      46.234  27.879  36.854  1.00  0.00     0.022 A 
BRANCH  92  95
ATOM     95  S   UNL A   1      44.784  26.057  38.297  1.00  0.00     0.127 S 
ATOM     96  O   UNL A   1      43.861  26.694  39.235  1.00  0.00    -0.237 OA
ATOM     97  O   UNL A   1      44.212  24.943  37.540  1.00  0.00    -0.237 OA
ATOM     98  O   UNL A   1      46.126  25.815  38.809  1.00  0.00    -0.744 OA
ENDBRANCH  92  95
ENDBRANCH  65  88
ENDBRANCH  39  40
ENDBRANCH  31  34
ENDBRANCH  29  30
ENDBRANCH  28  29
ENDBRANCH   1  28
TORSDOF 20
ENDMDL
MODEL 3
REMARK VINA RESULT:     -10.8      1.316      7.757
REMARK SMILES Cc1cnc(S[C@H]2CC[C@@]([NH2+]C(C)C)(C(=O)NCCCCCCNC(=O)c3ccc(-c4c5nc(c(-c6cccc(S(=O)(=O)[O-])c6F)c6ccc([nH]6)c(-c6cccc(S(=O)(=O)[O-])c6F)c6nc(c(-c7cccc(S(=O)(=O)[O-])c7F)c7ccc4[nH]7)C=C6)C=C5)cc3)C2)nc1
REMARK SMILES IDX 21 1 20 2 19 3 18 4 17 5 15 6 16 7 10 9 7 10 8 11 90 12 9 13
REMARK SMILES IDX 6 14 5 15 1 16 2 17 3 18 92 19 4 20 91 21 11 22 12 25 13 26
REMARK SMILES IDX 14 27 22 28 23 29 24 30 25 31 26 33 27 34 28 35 89 36 29 37
REMARK SMILES IDX 88 38 30 39 31 40 32 41 82 42 33 43 87 44 81 45 83 46 34 47
REMARK SMILES IDX 86 48 80 49 79 50 35 52 67 53 47 54 66 55 48 56 51 57 65 58
REMARK SMILES IDX 84 59 49 60 50 61 64 63 85 64 52 65 36 66 37 67 45 68 38 69
REMARK SMILES IDX 40 70 46 71 39 72 41 73 42 74 43 75 44 76 68 77 69 78 77 79
REMARK SMILES IDX 70 80 72 81 78 82 71 83 73 84 74 85 75 86 76 87 53 88 54 89
REMARK SMILES IDX 62 90 55 91 57 92 63 93 56 94 58 95 59 96 60 97 61 98
REMARK H PARENT 17 8 11 23 11 24 24 32 83 51 51 62
REMARK Flexibility Score: inf
ROOT
ATOM      1  C   UNL A   1      33.951  23.030  27.030  1.00  0.00     0.002 C 
ENDROOT
BRANCH   1   2
ATOM      2  C   UNL A   1      32.493  22.641  27.291  1.00  0.00     0.002 C 
BRANCH   2   3
ATOM      3  C   UNL A   1      31.451  23.652  26.799  1.00  0.00     0.021 C 
BRANCH   3   4
ATOM      4  C   UNL A   1      32.034  24.996  26.361  1.00  0.00     0.116 C 
BRANCH   4   5
ATOM      5  N   UNL A   1      31.045  25.797  25.660  1.00  0.00    -0.351 N 
ATOM      6  C   UNL A   1      31.184  26.967  24.970  1.00  0.00     0.281 C 
ATOM      7  O   UNL A   1      30.211  27.328  24.298  1.00  0.00    -0.268 OA
ATOM      8  H   UNL A   1      30.129  25.440  25.689  1.00  0.00     0.163 HD
BRANCH   6   9
ATOM      9  C   UNL A   1      32.557  27.727  24.925  1.00  0.00     0.176 C 
ATOM     10  C   UNL A   1      33.666  27.199  22.775  1.00  0.00     0.062 C 
ATOM     11  C   UNL A   1      33.421  28.700  22.796  1.00  0.00     0.022 C 
ATOM     12  C   UNL A   1      33.686  26.878  24.280  1.00  0.00     0.094 C 
ATOM     13  C   UNL A   1      32.482  28.957  23.974  1.00  0.00     0.080 C 
BRANCH  10  14
ATOM     14  S   UNL A   1      32.354  26.211  21.969  1.00  0.00    -0.083 SA
BRANCH  14  15
ATOM     15  C   UNL A   1      32.585  24.575  22.587  1.00  0.00     0.187 A 
ATOM     16  C   UNL A   1      32.799  20.554  23.778  1.00  0.00     0.048 C 
ATOM     17  C   UNL A   1      32.730  21.987  23.381  1.00  0.00    -0.014 A 
ATOM     18  C   UNL A   1      33.822  22.686  22.908  1.00  0.00     0.119 A 
ATOM     19  C   UNL A   1      31.563  22.712  23.440  1.00  0.00     0.119 A 
ATOM     20  N   UNL A   1      33.783  23.976  22.513  1.00  0.00    -0.231 NA
ATOM     21  N   UNL A   1      31.466  23.993  23.054  1.00  0.00    -0.231 NA
ENDBRANCH  14  15
ENDBRANCH  10  14
BRANCH   9  22
ATOM     22  N   UNL A   1      32.899  28.156  26.310  1.00  0.00    -0.332 N 
ATOM     23  H   UNL A   1      33.533  27.459  26.701  1.00  0.00     0.347 HD
ATOM     24  H   UNL A   1      32.002  28.239  26.791  1.00  0.00     0.347 HD
BRANCH  22  25
ATOM     25  C   UNL A   1      33.538  29.474  26.464  1.00  0.00     0.176 C 
ATOM     26  C   UNL A   1      32.681  30.489  27.218  1.00  0.00     0.075 C 
ATOM     27  C   UNL A   1      34.858  29.267  27.214  1.00  0.00     0.075 C 
ENDBRANCH  22  25
ENDBRANCH   9  22
ENDBRANCH   6   9
ENDBRANCH   4   5
ENDBRANCH   3   4
ENDBRANCH   2   3
ENDBRANCH   1   2
BRANCH   1  28
ATOM     28  C   UNL A   1      34.869  21.873  26.632  1.00  0.00     0.021 C 
BRANCH  28  29
ATOM     29  C   UNL A   1      36.091  22.278  25.816  1.00  0.00     0.116 C 
BRANCH  29  30
ATOM     30  N   UNL A   1      37.096  21.226  25.770  1.00  0.00    -0.352 N 
ATOM     31  C   UNL A   1      38.455  21.326  25.948  1.00  0.00     0.251 C 
ATOM     32  H   UNL A   1      36.757  20.320  25.587  1.00  0.00     0.163 HD
ATOM     33  O   UNL A   1      39.185  20.368  25.707  1.00  0.00    -0.269 OA
BRANCH  31  34
ATOM     34  C   UNL A   1      39.035  22.604  26.414  1.00  0.00     0.039 A 
ATOM     35  C   UNL A   1      40.091  22.580  27.327  1.00  0.00     0.014 A 
ATOM     36  C   UNL A   1      38.543  23.821  25.935  1.00  0.00     0.014 A 
ATOM     37  C   UNL A   1      40.696  23.778  27.716  1.00  0.00     0.010 A 
ATOM     38  C   UNL A   1      39.191  25.006  26.270  1.00  0.00     0.010 A 
ATOM     39  C   UNL A   1      40.270  24.998  27.168  1.00  0.00    -0.014 A 
BRANCH  39  40
ATOM     40  C   UNL A   1      40.932  26.283  27.513  1.00  0.00     0.031 A 
ATOM     41  C   UNL A   1      42.362  26.522  27.106  1.00  0.00     0.074 A 
ATOM     42  C   UNL A   1      40.287  27.184  28.280  1.00  0.00     0.049 A 
ATOM     43  N   UNL A   1      43.148  27.522  27.407  1.00  0.00    -0.248 NA
ATOM     44  C   UNL A   1      43.002  25.486  26.277  1.00  0.00     0.031 C 
ATOM     45  C   UNL A   1      38.926  27.036  28.799  1.00  0.00     0.029 A 
ATOM     46  N   UNL A   1      40.706  28.389  28.790  1.00  0.00    -0.354 N 
ATOM     47  C   UNL A   1      44.383  27.216  26.846  1.00  0.00     0.074 A 
ATOM     48  C   UNL A   1      44.249  25.926  26.207  1.00  0.00     0.031 C 
ATOM     49  C   UNL A   1      38.626  28.102  29.560  1.00  0.00     0.029 A 
ATOM     50  C   UNL A   1      39.780  28.992  29.610  1.00  0.00     0.049 A 
ATOM     51  H   UNL A   1      41.585  28.783  28.587  1.00  0.00     0.167 HD
ATOM     52  C   UNL A   1      45.518  27.955  26.841  1.00  0.00     0.034 A 
ATOM     53  C   UNL A   1      39.858  30.128  30.332  1.00  0.00     0.034 A 
ATOM     54  C   UNL A   1      45.630  29.261  27.428  1.00  0.00     0.049 A 
ATOM     55  C   UNL A   1      41.117  30.952  30.267  1.00  0.00     0.074 A 
ATOM     56  C   UNL A   1      46.706  30.130  27.392  1.00  0.00     0.029 A 
ATOM     57  N   UNL A   1      44.632  29.890  28.158  1.00  0.00    -0.354 N 
ATOM     58  N   UNL A   1      42.222  30.720  29.600  1.00  0.00    -0.248 NA
ATOM     59  C   UNL A   1      41.128  32.213  31.024  1.00  0.00     0.031 C 
ATOM     60  C   UNL A   1      46.369  31.275  28.120  1.00  0.00     0.029 A 
ATOM     61  C   UNL A   1      45.071  31.131  28.583  1.00  0.00     0.049 A 
ATOM     62  H   UNL A   1      43.745  29.508  28.346  1.00  0.00     0.167 HD
ATOM     63  C   UNL A   1      43.040  31.822  29.821  1.00  0.00     0.074 A 
ATOM     64  C   UNL A   1      42.299  32.729  30.671  1.00  0.00     0.031 C 
ATOM     65  C   UNL A   1      44.297  32.055  29.371  1.00  0.00     0.034 A 
BRANCH  52  66
ATOM     66  C   UNL A   1      46.721  27.394  26.129  1.00  0.00     0.023 A 
ATOM     67  C   UNL A   1      46.860  27.590  24.741  1.00  0.00     0.012 A 
ATOM     68  C   UNL A   1      47.747  26.745  26.843  1.00  0.00     0.148 A 
ATOM     69  C   UNL A   1      47.989  27.122  24.067  1.00  0.00     0.002 A 
ATOM     70  C   UNL A   1      48.888  26.321  26.172  1.00  0.00     0.091 A 
ATOM     71  F   UNL A   1      47.586  26.550  28.159  1.00  0.00    -0.205 F 
ATOM     72  C   UNL A   1      49.005  26.499  24.784  1.00  0.00     0.022 A 
BRANCH  70  73
ATOM     73  S   UNL A   1      50.291  25.580  27.016  1.00  0.00     0.127 S 
ATOM     74  O   UNL A   1      51.228  25.379  25.911  1.00  0.00    -0.237 OA
ATOM     75  O   UNL A   1      50.674  26.633  27.958  1.00  0.00    -0.237 OA
ATOM     76  O   UNL A   1      49.790  24.362  27.637  1.00  0.00    -0.744 OA
ENDBRANCH  70  73
ENDBRANCH  52  66
BRANCH  53  77
ATOM     77  C   UNL A   1      38.690  30.586  31.137  1.00  0.00     0.023 A 
ATOM     78  C   UNL A   1      38.650  30.307  32.517  1.00  0.00     0.012 A 
ATOM     79  C   UNL A   1      37.629  31.305  30.551  1.00  0.00     0.148 A 
ATOM     80  C   UNL A   1      37.557  30.699  33.291  1.00  0.00     0.002 A 
ATOM     81  C   UNL A   1      36.570  31.740  31.339  1.00  0.00     0.091 A 
ATOM     82  F   UNL A   1      37.679  31.549  29.235  1.00  0.00    -0.205 F 
ATOM     83  C   UNL A   1      36.522  31.424  32.705  1.00  0.00     0.022 A 
BRANCH  81  84
ATOM     84  S   UNL A   1      35.262  32.788  30.693  1.00  0.00     0.127 S 
ATOM     85  O   UNL A   1      34.784  32.004  29.557  1.00  0.00    -0.237 OA
ATOM     86  O   UNL A   1      34.339  32.856  31.826  1.00  0.00    -0.237 OA
ATOM     87  O   UNL A   1      35.902  34.056  30.367  1.00  0.00    -0.744 OA
ENDBRANCH  81  84
ENDBRANCH  53  77
BRANCH  65  88
ATOM     88  C   UNL A   1      44.945  33.364  29.736  1.00  0.00     0.023 A 
ATOM     89  C   UNL A   1      44.784  34.486  28.900  1.00  0.00     0.012 A 
ATOM     90  C   UNL A   1      45.630  33.502  30.960  1.00  0.00     0.148 A 
ATOM     91  C   UNL A   1      45.319  35.721  29.264  1.00  0.00     0.002 A 
ATOM     92  C   UNL A   1      46.118  34.747  31.338  1.00  0.00     0.091 A 
ATOM     93  F   UNL A   1      45.787  32.418  31.732  1.00  0.00    -0.205 F 
ATOM     94  C   UNL A   1      45.973  35.855  30.488  1.00  0.00     0.022 A 
BRANCH  92  95
ATOM     95  S   UNL A   1      46.883  35.037  32.938  1.00  0.00     0.127 S 
ATOM     96  O   UNL A   1      45.821  34.627  33.854  1.00  0.00    -0.237 OA
ATOM     97  O   UNL A   1      48.036  34.136  32.897  1.00  0.00    -0.237 OA
ATOM     98  O   UNL A   1      47.223  36.453  32.970  1.00  0.00    -0.744 OA
ENDBRANCH  92  95
ENDBRANCH  65  88
ENDBRANCH  39  40
ENDBRANCH  31  34
ENDBRANCH  29  30
ENDBRANCH  28  29
ENDBRANCH   1  28
TORSDOF 20
ENDMDL
