MODEL 1
REMARK VINA RESULT:     -12.2      0.000      0.000
REMARK SMILES Cc1ccc(N2C(=O)[NH+]=C(NCCCCCCNC(=O)c3ccc(-c4c5nc(c(-c6cccc(S(=O)(=O)[O-])c6F)c6ccc([nH]6)c(-c6cccc(S(=O)(=O)[O-])c6F)c6nc(c(-c7cccc(S(=O)(=O)[O-])c7F)c7ccc4[nH]7)C=C6)C=C5)cc3)/C(=C\c3ccccc3OCc3cccc(C(=O)[O-])c3)C2=O)cc1
REMARK SMILES IDX 14 1 13 2 12 3 11 4 6 5 7 6 103 7 8 8 9 9 84 10 104 11 10 12
REMARK SMILES IDX 85 14 5 16 1 17 2 18 3 19 106 20 4 21 105 22 86 23 87 24
REMARK SMILES IDX 91 25 88 26 90 27 89 28 92 29 93 30 94 31 95 32 102 33 96 34
REMARK SMILES IDX 98 35 97 36 99 37 100 38 101 39 15 40 16 41 17 42 18 43
REMARK SMILES IDX 19 44 20 46 21 47 22 48 83 49 23 50 82 51 24 52 25 53 26 54
REMARK SMILES IDX 76 55 27 56 81 57 75 58 77 59 28 60 80 61 74 62 73 63 29 65
REMARK SMILES IDX 61 66 41 67 60 68 42 69 45 70 59 71 78 72 43 73 44 74 58 76
REMARK SMILES IDX 79 77 46 78 30 79 31 80 39 81 32 82 34 83 40 84 33 85 35 86
REMARK SMILES IDX 36 87 37 88 38 89 62 90 63 91 71 92 64 93 66 94 72 95 65 96
REMARK SMILES IDX 67 97 68 98 69 99 70 100 47 101 48 102 56 103 49 104 51 105
REMARK SMILES IDX 57 106 50 107 52 108 53 109 54 110 55 111
REMARK H PARENT 9 13 11 15 18 45 77 64 45 75
REMARK Flexibility Score: inf
ROOT
ATOM      1  C   UNL A   1      38.989  32.091  29.832  1.00  0.00     0.003 C 
ENDROOT
BRANCH   1   2
ATOM      2  C   UNL A   1      37.569  32.664  29.881  1.00  0.00     0.037 C 
BRANCH   2   3
ATOM      3  C   UNL A   1      37.439  34.105  29.396  1.00  0.00     0.194 C 
BRANCH   3   4
ATOM      4  N   UNL A   1      36.107  34.372  28.875  1.00  0.00    -0.305 N 
ATOM      5  N   UNL A   1      33.711  31.357  27.323  1.00  0.00    -0.155 N 
ATOM      6  C   UNL A   1      35.086  31.208  27.568  1.00  0.00     0.448 C 
ATOM      7  C   UNL A   1      33.028  32.544  27.579  1.00  0.00     0.328 C 
ATOM      8  O   UNL A   1      35.686  30.158  27.330  1.00  0.00    -0.212 OA
ATOM      9  N   UNL A   1      35.811  32.264  28.035  1.00  0.00    -0.209 N 
ATOM     10  C   UNL A   1      33.798  33.529  28.387  1.00  0.00     0.129 C 
ATOM     11  O   UNL A   1      31.843  32.764  27.319  1.00  0.00    -0.249 OA
ATOM     12  C   UNL A   1      35.273  33.373  28.431  1.00  0.00     0.236 C 
ATOM     13  H   UNL A   1      36.791  32.180  28.075  1.00  0.00     0.270 HD
ATOM     14  C   UNL A   1      33.056  34.324  29.190  1.00  0.00     0.034 C 
ATOM     15  H   UNL A   1      35.791  35.303  28.840  1.00  0.00     0.256 HD
BRANCH   5  16
ATOM     16  C   UNL A   1      32.974  30.228  26.815  1.00  0.00     0.111 A 
ATOM     17  C   UNL A   1      30.784  26.806  25.315  1.00  0.00     0.044 C 
ATOM     18  C   UNL A   1      31.536  27.997  25.829  1.00  0.00    -0.051 A 
ATOM     19  C   UNL A   1      31.909  28.060  27.173  1.00  0.00     0.007 A 
ATOM     20  C   UNL A   1      31.865  29.061  24.985  1.00  0.00     0.007 A 
ATOM     21  C   UNL A   1      32.626  29.157  27.655  1.00  0.00     0.044 A 
ATOM     22  C   UNL A   1      32.569  30.166  25.475  1.00  0.00     0.044 A 
ENDBRANCH   5  16
BRANCH  14  23
ATOM     23  C   UNL A   1      33.464  35.152  30.337  1.00  0.00     0.018 A 
ATOM     24  C   UNL A   1      33.089  36.507  30.293  1.00  0.00     0.012 A 
ATOM     25  C   UNL A   1      34.143  34.681  31.476  1.00  0.00     0.127 A 
ATOM     26  C   UNL A   1      33.451  37.394  31.310  1.00  0.00     0.001 A 
ATOM     27  C   UNL A   1      34.492  35.579  32.495  1.00  0.00     0.047 A 
ATOM     28  C   UNL A   1      34.169  36.931  32.405  1.00  0.00     0.004 A 
BRANCH  25  29
ATOM     29  O   UNL A   1      34.663  33.421  31.630  1.00  0.00    -0.488 OA
BRANCH  29  30
ATOM     30  C   UNL A   1      34.820  32.966  32.972  1.00  0.00     0.265 C 
BRANCH  30  31
ATOM     31  C   UNL A   1      36.234  32.472  33.199  1.00  0.00    -0.010 A 
ATOM     32  C   UNL A   1      37.251  33.393  33.500  1.00  0.00     0.007 A 
ATOM     33  C   UNL A   1      36.572  31.120  33.045  1.00  0.00     0.017 A 
ATOM     34  C   UNL A   1      38.576  32.977  33.640  1.00  0.00     0.001 A 
ATOM     35  C   UNL A   1      37.906  30.702  33.158  1.00  0.00    -0.002 A 
ATOM     36  C   UNL A   1      38.906  31.635  33.457  1.00  0.00     0.010 A 
BRANCH  35  37
ATOM     37  C   UNL A   1      38.301  29.299  32.914  1.00  0.00     0.071 C 
ATOM     38  O   UNL A   1      39.423  28.919  32.581  1.00  0.00    -0.545 OA
ATOM     39  O   UNL A   1      37.292  28.431  33.068  1.00  0.00    -0.545 OA
ENDBRANCH  35  37
ENDBRANCH  30  31
ENDBRANCH  29  30
ENDBRANCH  25  29
ENDBRANCH  14  23
ENDBRANCH   3   4
ENDBRANCH   2   3
ENDBRANCH   1   2
BRANCH   1  40
ATOM     40  C   UNL A   1      39.094  30.601  29.478  1.00  0.00     0.002 C 
BRANCH  40  41
ATOM     41  C   UNL A   1      40.479  29.967  29.496  1.00  0.00     0.021 C 
BRANCH  41  42
ATOM     42  C   UNL A   1      40.680  28.913  28.432  1.00  0.00     0.116 C 
BRANCH  42  43
ATOM     43  N   UNL A   1      39.910  27.703  28.624  1.00  0.00    -0.352 N 
ATOM     44  C   UNL A   1      40.156  26.426  28.150  1.00  0.00     0.251 C 
ATOM     45  H   UNL A   1      39.096  27.802  29.170  1.00  0.00     0.163 HD
ATOM     46  O   UNL A   1      39.230  25.618  28.191  1.00  0.00    -0.269 OA
BRANCH  44  47
ATOM     47  C   UNL A   1      41.541  25.987  27.799  1.00  0.00     0.039 A 
ATOM     48  C   UNL A   1      41.961  24.753  28.312  1.00  0.00     0.014 A 
ATOM     49  C   UNL A   1      42.498  26.913  27.417  1.00  0.00     0.014 A 
ATOM     50  C   UNL A   1      43.268  24.613  28.759  1.00  0.00     0.010 A 
ATOM     51  C   UNL A   1      43.704  26.881  28.052  1.00  0.00     0.010 A 
ATOM     52  C   UNL A   1      44.064  25.743  28.770  1.00  0.00    -0.014 A 
BRANCH  52  53
ATOM     53  C   UNL A   1      45.397  25.845  29.304  1.00  0.00     0.031 A 
ATOM     54  C   UNL A   1      46.476  25.358  28.421  1.00  0.00     0.074 A 
ATOM     55  C   UNL A   1      45.595  26.724  30.314  1.00  0.00     0.049 A 
ATOM     56  N   UNL A   1      47.714  25.357  28.747  1.00  0.00    -0.248 NA
ATOM     57  C   UNL A   1      46.239  24.832  27.074  1.00  0.00     0.031 C 
ATOM     58  C   UNL A   1      46.813  27.478  30.589  1.00  0.00     0.029 A 
ATOM     59  N   UNL A   1      44.760  27.124  31.360  1.00  0.00    -0.354 N 
ATOM     60  C   UNL A   1      48.443  25.155  27.594  1.00  0.00     0.074 A 
ATOM     61  C   UNL A   1      47.490  24.694  26.620  1.00  0.00     0.031 C 
ATOM     62  C   UNL A   1      46.749  27.965  31.840  1.00  0.00     0.029 A 
ATOM     63  C   UNL A   1      45.602  27.334  32.463  1.00  0.00     0.049 A 
ATOM     64  H   UNL A   1      43.782  27.234  31.330  1.00  0.00     0.167 HD
ATOM     65  C   UNL A   1      49.741  25.564  27.594  1.00  0.00     0.034 A 
ATOM     66  C   UNL A   1      45.687  26.485  33.540  1.00  0.00     0.034 A 
ATOM     67  C   UNL A   1      50.098  26.071  28.931  1.00  0.00     0.049 A 
ATOM     68  C   UNL A   1      47.079  25.873  33.734  1.00  0.00     0.074 A 
ATOM     69  C   UNL A   1      50.243  27.337  29.474  1.00  0.00     0.029 A 
ATOM     70  N   UNL A   1      50.046  25.196  30.004  1.00  0.00    -0.354 N 
ATOM     71  N   UNL A   1      48.086  26.044  32.921  1.00  0.00    -0.248 NA
ATOM     72  C   UNL A   1      47.433  24.985  34.838  1.00  0.00     0.031 C 
ATOM     73  C   UNL A   1      50.280  27.206  30.894  1.00  0.00     0.029 A 
ATOM     74  C   UNL A   1      50.194  25.860  31.210  1.00  0.00     0.049 A 
ATOM     75  H   UNL A   1      49.920  24.223  29.920  1.00  0.00     0.167 HD
ATOM     76  C   UNL A   1      49.132  25.215  33.256  1.00  0.00     0.074 A 
ATOM     77  C   UNL A   1      48.681  24.610  34.501  1.00  0.00     0.031 C 
ATOM     78  C   UNL A   1      50.230  25.071  32.437  1.00  0.00     0.034 A 
BRANCH  65  79
ATOM     79  C   UNL A   1      50.671  25.724  26.404  1.00  0.00     0.023 A 
ATOM     80  C   UNL A   1      51.868  24.970  26.448  1.00  0.00     0.012 A 
ATOM     81  C   UNL A   1      50.522  26.569  25.277  1.00  0.00     0.148 A 
ATOM     82  C   UNL A   1      52.878  25.088  25.489  1.00  0.00     0.002 A 
ATOM     83  C   UNL A   1      51.529  26.684  24.309  1.00  0.00     0.091 A 
ATOM     84  F   UNL A   1      49.412  27.285  25.114  1.00  0.00    -0.205 F 
ATOM     85  C   UNL A   1      52.713  25.952  24.422  1.00  0.00     0.022 A 
BRANCH  83  86
ATOM     86  S   UNL A   1      51.399  27.779  22.881  1.00  0.00     0.127 S 
ATOM     87  O   UNL A   1      52.677  27.550  22.205  1.00  0.00    -0.237 OA
ATOM     88  O   UNL A   1      50.237  27.242  22.176  1.00  0.00    -0.237 OA
ATOM     89  O   UNL A   1      51.228  29.129  23.404  1.00  0.00    -0.744 OA
ENDBRANCH  83  86
ENDBRANCH  65  79
BRANCH  66  90
ATOM     90  C   UNL A   1      44.388  25.804  33.839  1.00  0.00     0.023 A 
ATOM     91  C   UNL A   1      44.316  24.427  33.515  1.00  0.00     0.012 A 
ATOM     92  C   UNL A   1      43.512  26.320  34.810  1.00  0.00     0.148 A 
ATOM     93  C   UNL A   1      43.564  23.553  34.299  1.00  0.00     0.002 A 
ATOM     94  C   UNL A   1      42.748  25.441  35.576  1.00  0.00     0.091 A 
ATOM     95  F   UNL A   1      43.495  27.643  35.022  1.00  0.00    -0.205 F 
ATOM     96  C   UNL A   1      42.824  24.055  35.365  1.00  0.00     0.022 A 
BRANCH  94  97
ATOM     97  S   UNL A   1      41.731  26.018  36.944  1.00  0.00     0.127 S 
ATOM     98  O   UNL A   1      40.909  24.843  37.212  1.00  0.00    -0.237 OA
ATOM     99  O   UNL A   1      42.725  26.318  37.973  1.00  0.00    -0.237 OA
ATOM    100  O   UNL A   1      41.033  27.187  36.429  1.00  0.00    -0.744 OA
ENDBRANCH  94  97
ENDBRANCH  66  90
BRANCH  78 101
ATOM    101  C   UNL A   1      51.420  24.118  32.629  1.00  0.00     0.023 A 
ATOM    102  C   UNL A   1      51.271  22.730  32.776  1.00  0.00     0.012 A 
ATOM    103  C   UNL A   1      52.766  24.595  32.695  1.00  0.00     0.148 A 
ATOM    104  C   UNL A   1      52.372  21.862  32.846  1.00  0.00     0.002 A 
ATOM    105  C   UNL A   1      53.859  23.734  32.722  1.00  0.00     0.091 A 
ATOM    106  F   UNL A   1      53.019  25.901  32.824  1.00  0.00    -0.205 F 
ATOM    107  C   UNL A   1      53.665  22.360  32.782  1.00  0.00     0.022 A 
BRANCH 105 108
ATOM    108  S   UNL A   1      55.550  24.348  32.652  1.00  0.00     0.127 S 
ATOM    109  O   UNL A   1      55.643  25.099  33.902  1.00  0.00    -0.237 OA
ATOM    110  O   UNL A   1      56.322  23.104  32.628  1.00  0.00    -0.237 OA
ATOM    111  O   UNL A   1      55.639  25.133  31.430  1.00  0.00    -0.744 OA
ENDBRANCH 105 108
ENDBRANCH  78 101
ENDBRANCH  52  53
ENDBRANCH  44  47
ENDBRANCH  42  43
ENDBRANCH  41  42
ENDBRANCH  40  41
ENDBRANCH   1  40
TORSDOF 21
ENDMDL
MODEL 2
REMARK VINA RESULT:     -12.0      4.962     10.602
REMARK SMILES Cc1ccc(N2C(=O)[NH+]=C(NCCCCCCNC(=O)c3ccc(-c4c5nc(c(-c6cccc(S(=O)(=O)[O-])c6F)c6ccc([nH]6)c(-c6cccc(S(=O)(=O)[O-])c6F)c6nc(c(-c7cccc(S(=O)(=O)[O-])c7F)c7ccc4[nH]7)C=C6)C=C5)cc3)/C(=C\c3ccccc3OCc3cccc(C(=O)[O-])c3)C2=O)cc1
REMARK SMILES IDX 14 1 13 2 12 3 11 4 6 5 7 6 103 7 8 8 9 9 84 10 104 11 10 12
REMARK SMILES IDX 85 14 5 16 1 17 2 18 3 19 106 20 4 21 105 22 86 23 87 24
REMARK SMILES IDX 91 25 88 26 90 27 89 28 92 29 93 30 94 31 95 32 102 33 96 34
REMARK SMILES IDX 98 35 97 36 99 37 100 38 101 39 15 40 16 41 17 42 18 43
REMARK SMILES IDX 19 44 20 46 21 47 22 48 83 49 23 50 82 51 24 52 25 53 26 54
REMARK SMILES IDX 76 55 27 56 81 57 75 58 77 59 28 60 80 61 74 62 73 63 29 65
REMARK SMILES IDX 61 66 41 67 60 68 42 69 45 70 59 71 78 72 43 73 44 74 58 76
REMARK SMILES IDX 79 77 46 78 30 79 31 80 39 81 32 82 34 83 40 84 33 85 35 86
REMARK SMILES IDX 36 87 37 88 38 89 62 90 63 91 71 92 64 93 66 94 72 95 65 96
REMARK SMILES IDX 67 97 68 98 69 99 70 100 47 101 48 102 56 103 49 104 51 105
REMARK SMILES IDX 57 106 50 107 52 108 53 109 54 110 55 111
REMARK H PARENT 9 13 11 15 18 45 77 64 45 75
REMARK Flexibility Score: inf
ROOT
ATOM      1  C   UNL A   1      37.154  29.937  27.741  1.00  0.00     0.003 C 
ENDROOT
BRANCH   1   2
ATOM      2  C   UNL A   1      38.409  29.312  28.359  1.00  0.00     0.037 C 
BRANCH   2   3
ATOM      3  C   UNL A   1      38.847  27.992  27.733  1.00  0.00     0.194 C 
BRANCH   3   4
ATOM      4  N   UNL A   1      39.914  27.368  28.500  1.00  0.00    -0.305 N 
ATOM      5  N   UNL A   1      41.209  23.500  27.721  1.00  0.00    -0.155 N 
ATOM      6  C   UNL A   1      40.013  24.037  27.214  1.00  0.00     0.448 C 
ATOM      7  C   UNL A   1      42.068  24.229  28.541  1.00  0.00     0.328 C 
ATOM      8  O   UNL A   1      39.252  23.384  26.498  1.00  0.00    -0.212 OA
ATOM      9  N   UNL A   1      39.638  25.301  27.557  1.00  0.00    -0.209 N 
ATOM     10  C   UNL A   1      41.769  25.685  28.599  1.00  0.00     0.129 C 
ATOM     11  O   UNL A   1      43.091  23.796  29.077  1.00  0.00    -0.249 OA
ATOM     12  C   UNL A   1      40.407  26.119  28.203  1.00  0.00     0.236 C 
ATOM     13  H   UNL A   1      38.739  25.610  27.301  1.00  0.00     0.270 HD
ATOM     14  C   UNL A   1      42.839  26.489  28.782  1.00  0.00     0.034 C 
ATOM     15  H   UNL A   1      40.299  27.860  29.260  1.00  0.00     0.256 HD
BRANCH   5  16
ATOM     16  C   UNL A   1      41.573  22.156  27.354  1.00  0.00     0.111 A 
ATOM     17  C   UNL A   1      42.666  18.126  26.205  1.00  0.00     0.044 C 
ATOM     18  C   UNL A   1      42.288  19.518  26.612  1.00  0.00    -0.051 A 
ATOM     19  C   UNL A   1      42.840  20.614  25.946  1.00  0.00     0.007 A 
ATOM     20  C   UNL A   1      41.395  19.745  27.662  1.00  0.00     0.007 A 
ATOM     21  C   UNL A   1      42.479  21.914  26.307  1.00  0.00     0.044 A 
ATOM     22  C   UNL A   1      41.048  21.048  28.033  1.00  0.00     0.044 A 
ENDBRANCH   5  16
BRANCH  14  23
ATOM     23  C   UNL A   1      42.980  27.939  28.564  1.00  0.00     0.018 A 
ATOM     24  C   UNL A   1      42.816  28.758  29.696  1.00  0.00     0.012 A 
ATOM     25  C   UNL A   1      43.314  28.546  27.340  1.00  0.00     0.127 A 
ATOM     26  C   UNL A   1      42.894  30.149  29.602  1.00  0.00     0.001 A 
ATOM     27  C   UNL A   1      43.400  29.944  27.260  1.00  0.00     0.047 A 
ATOM     28  C   UNL A   1      43.170  30.744  28.378  1.00  0.00     0.004 A 
BRANCH  25  29
ATOM     29  O   UNL A   1      43.409  27.904  26.132  1.00  0.00    -0.488 OA
BRANCH  29  30
ATOM     30  C   UNL A   1      44.729  27.633  25.666  1.00  0.00     0.265 C 
BRANCH  30  31
ATOM     31  C   UNL A   1      45.104  26.194  25.953  1.00  0.00    -0.010 A 
ATOM     32  C   UNL A   1      45.692  25.861  27.184  1.00  0.00     0.007 A 
ATOM     33  C   UNL A   1      44.945  25.189  24.987  1.00  0.00     0.017 A 
ATOM     34  C   UNL A   1      46.117  24.557  27.446  1.00  0.00     0.001 A 
ATOM     35  C   UNL A   1      45.395  23.884  25.236  1.00  0.00    -0.002 A 
ATOM     36  C   UNL A   1      45.980  23.573  26.469  1.00  0.00     0.010 A 
BRANCH  35  37
ATOM     37  C   UNL A   1      45.319  22.829  24.204  1.00  0.00     0.071 C 
ATOM     38  O   UNL A   1      44.394  22.673  23.408  1.00  0.00    -0.545 OA
ATOM     39  O   UNL A   1      46.372  22.002  24.214  1.00  0.00    -0.545 OA
ENDBRANCH  35  37
ENDBRANCH  30  31
ENDBRANCH  29  30
ENDBRANCH  25  29
ENDBRANCH  14  23
ENDBRANCH   3   4
ENDBRANCH   2   3
ENDBRANCH   1   2
BRANCH   1  40
ATOM     40  C   UNL A   1      36.420  30.961  28.617  1.00  0.00     0.002 C 
BRANCH  40  41
ATOM     41  C   UNL A   1      36.204  32.355  28.041  1.00  0.00     0.021 C 
BRANCH  41  42
ATOM     42  C   UNL A   1      36.163  33.446  29.086  1.00  0.00     0.116 C 
BRANCH  42  43
ATOM     43  N   UNL A   1      35.114  33.301  30.073  1.00  0.00    -0.352 N 
ATOM     44  C   UNL A   1      35.180  32.759  31.345  1.00  0.00     0.251 C 
ATOM     45  H   UNL A   1      34.229  33.636  29.801  1.00  0.00     0.163 HD
ATOM     46  O   UNL A   1      34.118  32.476  31.897  1.00  0.00    -0.269 OA
BRANCH  44  47
ATOM     47  C   UNL A   1      36.470  32.714  32.098  1.00  0.00     0.039 A 
ATOM     48  C   UNL A   1      36.900  33.910  32.687  1.00  0.00     0.014 A 
ATOM     49  C   UNL A   1      37.403  31.723  31.838  1.00  0.00     0.014 A 
ATOM     50  C   UNL A   1      38.251  34.229  32.669  1.00  0.00     0.010 A 
ATOM     51  C   UNL A   1      38.689  32.108  31.599  1.00  0.00     0.010 A 
ATOM     52  C   UNL A   1      39.096  33.388  31.970  1.00  0.00    -0.014 A 
BRANCH  52  53
ATOM     53  C   UNL A   1      40.499  33.597  31.723  1.00  0.00     0.031 A 
ATOM     54  C   UNL A   1      40.826  34.316  30.474  1.00  0.00     0.074 A 
ATOM     55  C   UNL A   1      41.333  33.523  32.786  1.00  0.00     0.049 A 
ATOM     56  N   UNL A   1      42.022  34.567  30.093  1.00  0.00    -0.248 NA
ATOM     57  C   UNL A   1      39.811  34.825  29.548  1.00  0.00     0.031 C 
ATOM     58  C   UNL A   1      42.573  34.268  32.976  1.00  0.00     0.029 A 
ATOM     59  N   UNL A   1      41.287  32.732  33.935  1.00  0.00    -0.354 N 
ATOM     60  C   UNL A   1      41.944  35.513  29.093  1.00  0.00     0.074 A 
ATOM     61  C   UNL A   1      40.562  35.531  28.696  1.00  0.00     0.031 C 
ATOM     62  C   UNL A   1      43.283  33.685  33.957  1.00  0.00     0.029 A 
ATOM     63  C   UNL A   1      42.622  32.428  34.246  1.00  0.00     0.049 A 
ATOM     64  H   UNL A   1      40.484  32.445  34.427  1.00  0.00     0.167 HD
ATOM     65  C   UNL A   1      43.053  36.264  28.854  1.00  0.00     0.034 A 
ATOM     66  C   UNL A   1      43.198  31.198  34.045  1.00  0.00     0.034 A 
ATOM     67  C   UNL A   1      44.159  35.798  29.710  1.00  0.00     0.049 A 
ATOM     68  C   UNL A   1      44.374  31.221  33.061  1.00  0.00     0.074 A 
ATOM     69  C   UNL A   1      44.732  36.263  30.882  1.00  0.00     0.029 A 
ATOM     70  N   UNL A   1      44.618  34.501  29.546  1.00  0.00    -0.354 N 
ATOM     71  N   UNL A   1      44.760  32.271  32.387  1.00  0.00    -0.248 NA
ATOM     72  C   UNL A   1      45.182  30.050  32.726  1.00  0.00     0.031 C 
ATOM     73  C   UNL A   1      45.548  35.222  31.417  1.00  0.00     0.029 A 
ATOM     74  C   UNL A   1      45.497  34.141  30.553  1.00  0.00     0.049 A 
ATOM     75  H   UNL A   1      44.353  33.909  28.805  1.00  0.00     0.167 HD
ATOM     76  C   UNL A   1      45.706  31.931  31.448  1.00  0.00     0.074 A 
ATOM     77  C   UNL A   1      45.967  30.530  31.744  1.00  0.00     0.031 C 
ATOM     78  C   UNL A   1      46.125  32.825  30.489  1.00  0.00     0.034 A 
BRANCH  65  79
ATOM     79  C   UNL A   1      43.162  37.538  28.032  1.00  0.00     0.023 A 
ATOM     80  C   UNL A   1      41.942  38.196  27.747  1.00  0.00     0.012 A 
ATOM     81  C   UNL A   1      44.320  38.127  27.470  1.00  0.00     0.148 A 
ATOM     82  C   UNL A   1      41.857  39.314  26.913  1.00  0.00     0.002 A 
ATOM     83  C   UNL A   1      44.241  39.253  26.640  1.00  0.00     0.091 A 
ATOM     84  F   UNL A   1      45.524  37.616  27.717  1.00  0.00    -0.205 F 
ATOM     85  C   UNL A   1      43.007  39.839  26.351  1.00  0.00     0.022 A 
BRANCH  83  86
ATOM     86  S   UNL A   1      45.686  40.011  25.870  1.00  0.00     0.127 S 
ATOM     87  O   UNL A   1      45.078  41.060  25.049  1.00  0.00    -0.237 OA
ATOM     88  O   UNL A   1      46.437  40.504  27.023  1.00  0.00    -0.237 OA
ATOM     89  O   UNL A   1      46.353  38.961  25.109  1.00  0.00    -0.744 OA
ENDBRANCH  83  86
ENDBRANCH  65  79
BRANCH  66  90
ATOM     90  C   UNL A   1      42.225  30.073  34.210  1.00  0.00     0.023 A 
ATOM     91  C   UNL A   1      41.672  29.546  33.017  1.00  0.00     0.012 A 
ATOM     92  C   UNL A   1      42.244  29.269  35.363  1.00  0.00     0.148 A 
ATOM     93  C   UNL A   1      41.367  28.188  32.917  1.00  0.00     0.002 A 
ATOM     94  C   UNL A   1      41.917  27.918  35.259  1.00  0.00     0.091 A 
ATOM     95  F   UNL A   1      42.649  29.813  36.518  1.00  0.00    -0.205 F 
ATOM     96  C   UNL A   1      41.544  27.365  34.024  1.00  0.00     0.022 A 
BRANCH  94  97
ATOM     97  S   UNL A   1      42.078  26.796  36.656  1.00  0.00     0.127 S 
ATOM     98  O   UNL A   1      40.826  27.033  37.367  1.00  0.00    -0.237 OA
ATOM     99  O   UNL A   1      42.176  25.490  36.005  1.00  0.00    -0.237 OA
ATOM    100  O   UNL A   1      43.294  27.215  37.339  1.00  0.00    -0.744 OA
ENDBRANCH  94  97
ENDBRANCH  66  90
BRANCH  78 101
ATOM    101  C   UNL A   1      47.094  32.561  29.326  1.00  0.00     0.023 A 
ATOM    102  C   UNL A   1      47.998  33.523  28.851  1.00  0.00     0.012 A 
ATOM    103  C   UNL A   1      47.117  31.311  28.632  1.00  0.00     0.148 A 
ATOM    104  C   UNL A   1      48.948  33.234  27.859  1.00  0.00     0.002 A 
ATOM    105  C   UNL A   1      48.083  31.009  27.678  1.00  0.00     0.091 A 
ATOM    106  F   UNL A   1      46.143  30.413  28.816  1.00  0.00    -0.205 F 
ATOM    107  C   UNL A   1      49.015  31.966  27.298  1.00  0.00     0.022 A 
BRANCH 105 108
ATOM    108  S   UNL A   1      48.191  29.378  26.922  1.00  0.00     0.127 S 
ATOM    109  O   UNL A   1      47.238  29.501  25.820  1.00  0.00    -0.237 OA
ATOM    110  O   UNL A   1      49.595  29.327  26.513  1.00  0.00    -0.237 OA
ATOM    111  O   UNL A   1      47.835  28.430  27.968  1.00  0.00    -0.744 OA
ENDBRANCH 105 108
ENDBRANCH  78 101
ENDBRANCH  52  53
ENDBRANCH  44  47
ENDBRANCH  42  43
ENDBRANCH  41  42
ENDBRANCH  40  41
ENDBRANCH   1  40
TORSDOF 21
ENDMDL
MODEL 3
REMARK VINA RESULT:     -12.0      4.384      8.745
REMARK SMILES Cc1ccc(N2C(=O)[NH+]=C(NCCCCCCNC(=O)c3ccc(-c4c5nc(c(-c6cccc(S(=O)(=O)[O-])c6F)c6ccc([nH]6)c(-c6cccc(S(=O)(=O)[O-])c6F)c6nc(c(-c7cccc(S(=O)(=O)[O-])c7F)c7ccc4[nH]7)C=C6)C=C5)cc3)/C(=C\c3ccccc3OCc3cccc(C(=O)[O-])c3)C2=O)cc1
REMARK SMILES IDX 14 1 13 2 12 3 11 4 6 5 7 6 103 7 8 8 9 9 84 10 104 11 10 12
REMARK SMILES IDX 85 14 5 16 1 17 2 18 3 19 106 20 4 21 105 22 86 23 87 24
REMARK SMILES IDX 91 25 88 26 90 27 89 28 92 29 93 30 94 31 95 32 102 33 96 34
REMARK SMILES IDX 98 35 97 36 99 37 100 38 101 39 15 40 16 41 17 42 18 43
REMARK SMILES IDX 19 44 20 46 21 47 22 48 83 49 23 50 82 51 24 52 25 53 26 54
REMARK SMILES IDX 76 55 27 56 81 57 75 58 77 59 28 60 80 61 74 62 73 63 29 65
REMARK SMILES IDX 61 66 41 67 60 68 42 69 45 70 59 71 78 72 43 73 44 74 58 76
REMARK SMILES IDX 79 77 46 78 30 79 31 80 39 81 32 82 34 83 40 84 33 85 35 86
REMARK SMILES IDX 36 87 37 88 38 89 62 90 63 91 71 92 64 93 66 94 72 95 65 96
REMARK SMILES IDX 67 97 68 98 69 99 70 100 47 101 48 102 56 103 49 104 51 105
REMARK SMILES IDX 57 106 50 107 52 108 53 109 54 110 55 111
REMARK H PARENT 9 13 11 15 18 45 77 64 45 75
REMARK Flexibility Score: inf
ROOT
ATOM      1  C   UNL A   1      40.923  26.543  28.356  1.00  0.00     0.003 C 
ENDROOT
BRANCH   1   2
ATOM      2  C   UNL A   1      39.503  26.831  28.856  1.00  0.00     0.037 C 
BRANCH   2   3
ATOM      3  C   UNL A   1      38.745  27.894  28.065  1.00  0.00     0.194 C 
BRANCH   3   4
ATOM      4  N   UNL A   1      39.221  29.231  28.381  1.00  0.00    -0.305 N 
ATOM      5  N   UNL A   1      36.614  32.355  29.206  1.00  0.00    -0.155 N 
ATOM      6  C   UNL A   1      36.212  31.141  28.623  1.00  0.00     0.448 C 
ATOM      7  C   UNL A   1      37.936  32.618  29.556  1.00  0.00     0.328 C 
ATOM      8  O   UNL A   1      35.043  30.919  28.307  1.00  0.00    -0.212 OA
ATOM      9  N   UNL A   1      37.141  30.184  28.342  1.00  0.00    -0.209 N 
ATOM     10  C   UNL A   1      38.823  31.423  29.530  1.00  0.00     0.129 C 
ATOM     11  O   UNL A   1      38.366  33.684  30.000  1.00  0.00    -0.249 OA
ATOM     12  C   UNL A   1      38.374  30.255  28.733  1.00  0.00     0.236 C 
ATOM     13  H   UNL A   1      36.863  29.400  27.817  1.00  0.00     0.270 HD
ATOM     14  C   UNL A   1      39.836  31.434  30.425  1.00  0.00     0.034 C 
ATOM     15  H   UNL A   1      40.188  29.410  28.342  1.00  0.00     0.256 HD
BRANCH   5  16
ATOM     16  C   UNL A   1      35.612  33.354  29.478  1.00  0.00     0.111 A 
ATOM     17  C   UNL A   1      32.623  36.386  30.269  1.00  0.00     0.044 C 
ATOM     18  C   UNL A   1      33.653  35.330  30.001  1.00  0.00    -0.051 A 
ATOM     19  C   UNL A   1      34.195  35.193  28.722  1.00  0.00     0.007 A 
ATOM     20  C   UNL A   1      34.077  34.464  31.011  1.00  0.00     0.007 A 
ATOM     21  C   UNL A   1      35.168  34.224  28.468  1.00  0.00     0.044 A 
ATOM     22  C   UNL A   1      35.040  33.483  30.750  1.00  0.00     0.044 A 
ENDBRANCH   5  16
BRANCH  14  23
ATOM     23  C   UNL A   1      40.681  30.331  30.909  1.00  0.00     0.018 A 
ATOM     24  C   UNL A   1      41.866  30.090  30.189  1.00  0.00     0.012 A 
ATOM     25  C   UNL A   1      40.421  29.550  32.050  1.00  0.00     0.127 A 
ATOM     26  C   UNL A   1      42.727  29.047  30.536  1.00  0.00     0.001 A 
ATOM     27  C   UNL A   1      41.299  28.513  32.396  1.00  0.00     0.047 A 
ATOM     28  C   UNL A   1      42.434  28.246  31.633  1.00  0.00     0.004 A 
BRANCH  25  29
ATOM     29  O   UNL A   1      39.272  29.590  32.798  1.00  0.00    -0.488 OA
BRANCH  29  30
ATOM     30  C   UNL A   1      39.393  30.142  34.107  1.00  0.00     0.265 C 
BRANCH  30  31
ATOM     31  C   UNL A   1      38.878  31.566  34.128  1.00  0.00    -0.010 A 
ATOM     32  C   UNL A   1      37.711  31.895  33.416  1.00  0.00     0.007 A 
ATOM     33  C   UNL A   1      39.578  32.590  34.782  1.00  0.00     0.017 A 
ATOM     34  C   UNL A   1      37.256  33.213  33.356  1.00  0.00     0.001 A 
ATOM     35  C   UNL A   1      39.139  33.920  34.701  1.00  0.00    -0.002 A 
ATOM     36  C   UNL A   1      37.975  34.226  33.987  1.00  0.00     0.010 A 
BRANCH  35  37
ATOM     37  C   UNL A   1      39.907  35.026  35.309  1.00  0.00     0.071 C 
ATOM     38  O   UNL A   1      39.524  36.192  35.409  1.00  0.00    -0.545 OA
ATOM     39  O   UNL A   1      41.117  34.654  35.745  1.00  0.00    -0.545 OA
ENDBRANCH  35  37
ENDBRANCH  30  31
ENDBRANCH  29  30
ENDBRANCH  25  29
ENDBRANCH  14  23
ENDBRANCH   3   4
ENDBRANCH   2   3
ENDBRANCH   1   2
BRANCH   1  40
ATOM     40  C   UNL A   1      41.566  25.255  28.888  1.00  0.00     0.002 C 
BRANCH  40  41
ATOM     41  C   UNL A   1      41.513  24.020  27.997  1.00  0.00     0.021 C 
BRANCH  41  42
ATOM     42  C   UNL A   1      41.380  24.337  26.526  1.00  0.00     0.116 C 
BRANCH  42  43
ATOM     43  N   UNL A   1      42.031  23.394  25.641  1.00  0.00    -0.352 N 
ATOM     44  C   UNL A   1      43.298  23.448  25.086  1.00  0.00     0.251 C 
ATOM     45  H   UNL A   1      41.497  22.603  25.400  1.00  0.00     0.163 HD
ATOM     46  O   UNL A   1      43.537  22.695  24.144  1.00  0.00    -0.269 OA
BRANCH  44  47
ATOM     47  C   UNL A   1      44.391  24.233  25.734  1.00  0.00     0.039 A 
ATOM     48  C   UNL A   1      45.318  23.513  26.499  1.00  0.00     0.014 A 
ATOM     49  C   UNL A   1      44.239  25.590  25.972  1.00  0.00     0.014 A 
ATOM     50  C   UNL A   1      45.791  24.059  27.685  1.00  0.00     0.010 A 
ATOM     51  C   UNL A   1      44.500  26.049  27.229  1.00  0.00     0.010 A 
ATOM     52  C   UNL A   1      45.235  25.253  28.105  1.00  0.00    -0.014 A 
BRANCH  52  53
ATOM     53  C   UNL A   1      45.489  25.922  29.354  1.00  0.00     0.031 A 
ATOM     54  C   UNL A   1      44.980  25.237  30.559  1.00  0.00     0.074 A 
ATOM     55  C   UNL A   1      46.489  26.834  29.376  1.00  0.00     0.049 A 
ATOM     56  N   UNL A   1      45.102  25.704  31.745  1.00  0.00    -0.248 NA
ATOM     57  C   UNL A   1      44.290  23.946  30.521  1.00  0.00     0.031 C 
ATOM     58  C   UNL A   1      47.352  27.156  30.507  1.00  0.00     0.029 A 
ATOM     59  N   UNL A   1      46.946  27.719  28.397  1.00  0.00    -0.354 N 
ATOM     60  C   UNL A   1      44.821  24.678  32.622  1.00  0.00     0.074 A 
ATOM     61  C   UNL A   1      44.188  23.662  31.824  1.00  0.00     0.031 C 
ATOM     62  C   UNL A   1      47.972  28.323  30.261  1.00  0.00     0.029 A 
ATOM     63  C   UNL A   1      47.339  28.879  29.082  1.00  0.00     0.049 A 
ATOM     64  H   UNL A   1      46.984  27.561  27.425  1.00  0.00     0.167 HD
ATOM     65  C   UNL A   1      45.316  24.780  33.885  1.00  0.00     0.034 A 
ATOM     66  C   UNL A   1      46.626  30.054  29.078  1.00  0.00     0.034 A 
ATOM     67  C   UNL A   1      45.996  26.078  34.045  1.00  0.00     0.049 A 
ATOM     68  C   UNL A   1      46.138  30.482  30.466  1.00  0.00     0.074 A 
ATOM     69  C   UNL A   1      47.322  26.477  34.051  1.00  0.00     0.029 A 
ATOM     70  N   UNL A   1      45.247  27.236  33.908  1.00  0.00    -0.354 N 
ATOM     71  N   UNL A   1      46.284  29.778  31.557  1.00  0.00    -0.248 NA
ATOM     72  C   UNL A   1      45.408  31.720  30.729  1.00  0.00     0.031 C 
ATOM     73  C   UNL A   1      47.356  27.897  33.919  1.00  0.00     0.029 A 
ATOM     74  C   UNL A   1      46.053  28.361  33.868  1.00  0.00     0.049 A 
ATOM     75  H   UNL A   1      44.265  27.256  33.847  1.00  0.00     0.167 HD
ATOM     76  C   UNL A   1      45.573  30.331  32.596  1.00  0.00     0.074 A 
ATOM     77  C   UNL A   1      45.083  31.579  32.028  1.00  0.00     0.031 C 
ATOM     78  C   UNL A   1      45.413  29.671  33.794  1.00  0.00     0.034 A 
BRANCH  65  79
ATOM     79  C   UNL A   1      45.404  23.696  34.946  1.00  0.00     0.023 A 
ATOM     80  C   UNL A   1      45.296  24.134  36.288  1.00  0.00     0.012 A 
ATOM     81  C   UNL A   1      45.630  22.309  34.772  1.00  0.00     0.148 A 
ATOM     82  C   UNL A   1      45.467  23.283  37.383  1.00  0.00     0.002 A 
ATOM     83  C   UNL A   1      45.793  21.450  35.867  1.00  0.00     0.091 A 
ATOM     84  F   UNL A   1      45.697  21.786  33.550  1.00  0.00    -0.205 F 
ATOM     85  C   UNL A   1      45.725  21.940  37.173  1.00  0.00     0.022 A 
BRANCH  83  86
ATOM     86  S   UNL A   1      46.123  19.685  35.691  1.00  0.00     0.127 S 
ATOM     87  O   UNL A   1      44.888  19.204  35.072  1.00  0.00    -0.237 OA
ATOM     88  O   UNL A   1      47.289  19.668  34.810  1.00  0.00    -0.237 OA
ATOM     89  O   UNL A   1      46.365  19.169  37.034  1.00  0.00    -0.744 OA
ENDBRANCH  83  86
ENDBRANCH  65  79
BRANCH  66  90
ATOM     90  C   UNL A   1      45.895  30.279  27.792  1.00  0.00     0.023 A 
ATOM     91  C   UNL A   1      44.725  29.506  27.594  1.00  0.00     0.012 A 
ATOM     92  C   UNL A   1      46.039  31.486  27.085  1.00  0.00     0.148 A 
ATOM     93  C   UNL A   1      43.635  30.032  26.900  1.00  0.00     0.002 A 
ATOM     94  C   UNL A   1      44.952  31.996  26.376  1.00  0.00     0.091 A 
ATOM     95  F   UNL A   1      47.199  32.149  27.176  1.00  0.00    -0.205 F 
ATOM     96  C   UNL A   1      43.732  31.302  26.340  1.00  0.00     0.022 A 
BRANCH  94  97
ATOM     97  S   UNL A   1      45.012  33.611  25.587  1.00  0.00     0.127 S 
ATOM     98  O   UNL A   1      44.304  34.438  26.558  1.00  0.00    -0.237 OA
ATOM     99  O   UNL A   1      46.449  33.867  25.496  1.00  0.00    -0.237 OA
ATOM    100  O   UNL A   1      44.356  33.426  24.300  1.00  0.00    -0.744 OA
ENDBRANCH  94  97
ENDBRANCH  66  90
BRANCH  78 101
ATOM    101  C   UNL A   1      44.572  30.115  35.001  1.00  0.00     0.023 A 
ATOM    102  C   UNL A   1      43.184  30.306  34.936  1.00  0.00     0.012 A 
ATOM    103  C   UNL A   1      45.164  30.388  36.273  1.00  0.00     0.148 A 
ATOM    104  C   UNL A   1      42.415  30.610  36.071  1.00  0.00     0.002 A 
ATOM    105  C   UNL A   1      44.401  30.648  37.407  1.00  0.00     0.091 A 
ATOM    106  F   UNL A   1      46.491  30.491  36.398  1.00  0.00    -0.205 F 
ATOM    107  C   UNL A   1      43.019  30.745  37.313  1.00  0.00     0.022 A 
BRANCH 105 108
ATOM    108  S   UNL A   1      45.153  30.841  39.032  1.00  0.00     0.127 S 
ATOM    109  O   UNL A   1      43.979  30.831  39.903  1.00  0.00    -0.237 OA
ATOM    110  O   UNL A   1      45.991  29.644  39.121  1.00  0.00    -0.237 OA
ATOM    111  O   UNL A   1      45.896  32.092  38.981  1.00  0.00    -0.744 OA
ENDBRANCH 105 108
ENDBRANCH  78 101
ENDBRANCH  52  53
ENDBRANCH  44  47
ENDBRANCH  42  43
ENDBRANCH  41  42
ENDBRANCH  40  41
ENDBRANCH   1  40
TORSDOF 21
ENDMDL
