MODEL 1
REMARK VINA RESULT:     -11.0      0.000      0.000
REMARK SMILES COC(=O)C[C@H](NC(=O)N[C@@H]1CCCCC1(C)C)C(=O)NCCCCCCNC(=O)c1ccc(-c2c3nc(c(-c4cccc(S(=O)(=O)[O-])c4F)c4ccc([nH]4)c(-c4cccc(S(=O)(=O)[O-])c4F)c4nc(c(-c5cccc(S(=O)(=O)[O-])c5F)c5ccc2[nH]5)C=C4)C=C3)cc1
REMARK SMILES IDX 24 1 23 2 22 3 21 4 19 5 20 6 6 8 5 9 3 10 4 11 2 12 1 13
REMARK SMILES IDX 7 14 8 15 9 17 10 18 11 20 12 21 16 22 13 23 15 24 17 25
REMARK SMILES IDX 18 26 14 27 25 28 26 29 27 30 28 31 29 32 30 34 31 35 32 36
REMARK SMILES IDX 93 37 33 38 92 39 34 40 35 41 36 42 86 43 37 44 91 45 85 46
REMARK SMILES IDX 87 47 38 48 90 49 84 50 83 51 39 53 71 54 51 55 70 56 52 57
REMARK SMILES IDX 55 58 69 59 88 60 53 61 54 62 68 64 89 65 56 66 40 67 41 68
REMARK SMILES IDX 49 69 42 70 44 71 50 72 43 73 45 74 46 75 47 76 48 77 72 78
REMARK SMILES IDX 73 79 81 80 74 81 76 82 82 83 75 84 77 85 78 86 79 87 80 88
REMARK SMILES IDX 57 89 58 90 66 91 59 92 61 93 67 94 60 95 62 96 63 97 64 98
REMARK SMILES IDX 65 99
REMARK H PARENT 21 7 7 16 10 19 28 33 87 52 55 63
REMARK Flexibility Score: inf
ROOT
ATOM      1  C   UNL A   1      32.333  29.620  26.665  1.00  0.00     0.002 C 
ENDROOT
BRANCH   1   2
ATOM      2  C   UNL A   1      31.657  28.326  27.110  1.00  0.00     0.021 C 
BRANCH   2   3
ATOM      3  C   UNL A   1      31.485  27.231  26.066  1.00  0.00     0.116 C 
BRANCH   3   4
ATOM      4  N   UNL A   1      30.726  26.085  26.497  1.00  0.00    -0.354 N 
ATOM      5  C   UNL A   1      30.584  24.894  25.862  1.00  0.00     0.243 C 
ATOM      6  O   UNL A   1      30.175  23.929  26.515  1.00  0.00    -0.273 OA
ATOM      7  H   UNL A   1      30.254  26.177  27.356  1.00  0.00     0.163 HD
BRANCH   5   8
ATOM      8  C   UNL A   1      30.993  24.725  24.393  1.00  0.00     0.184 C 
BRANCH   8   9
ATOM      9  C   UNL A   1      30.183  25.740  23.565  1.00  0.00     0.157 C 
BRANCH   9  10
ATOM     10  C   UNL A   1      30.992  26.528  22.586  1.00  0.00     0.308 C 
ATOM     11  O   UNL A   1      30.573  27.469  21.944  1.00  0.00    -0.252 OA
BRANCH  10  12
ATOM     12  O   UNL A   1      32.235  25.974  22.490  1.00  0.00    -0.469 OA
ATOM     13  C   UNL A   1      33.311  26.907  22.577  1.00  0.00     0.282 C 
ENDBRANCH  10  12
ENDBRANCH   9  10
ENDBRANCH   8   9
BRANCH   8  14
ATOM     14  N   UNL A   1      31.083  23.327  23.870  1.00  0.00    -0.326 N 
ATOM     15  C   UNL A   1      32.032  22.431  23.514  1.00  0.00     0.315 C 
ATOM     16  H   UNL A   1      30.184  22.945  23.749  1.00  0.00     0.166 HD
ATOM     17  O   UNL A   1      31.635  21.385  22.988  1.00  0.00    -0.249 OA
ATOM     18  N   UNL A   1      33.367  22.559  23.717  1.00  0.00    -0.335 N 
ATOM     19  H   UNL A   1      33.898  21.756  23.510  1.00  0.00     0.165 HD
BRANCH  18  20
ATOM     20  C   UNL A   1      34.133  23.697  24.193  1.00  0.00     0.089 C 
ATOM     21  C   UNL A   1      35.336  23.848  23.261  1.00  0.00     0.025 C 
ATOM     22  C   UNL A   1      34.559  23.828  25.717  1.00  0.00    -0.015 C 
ATOM     23  C   UNL A   1      36.508  22.988  23.646  1.00  0.00     0.002 C 
ATOM     24  C   UNL A   1      35.998  23.313  26.036  1.00  0.00     0.008 C 
ATOM     25  C   UNL A   1      34.500  25.354  26.036  1.00  0.00     0.013 C 
ATOM     26  C   UNL A   1      33.623  23.151  26.741  1.00  0.00     0.013 C 
ATOM     27  C   UNL A   1      37.043  23.509  24.949  1.00  0.00     0.001 C 
ENDBRANCH  18  20
ENDBRANCH   8  14
ENDBRANCH   5   8
ENDBRANCH   3   4
ENDBRANCH   2   3
ENDBRANCH   1   2
BRANCH   1  28
ATOM     28  C   UNL A   1      31.464  30.612  25.894  1.00  0.00     0.002 C 
BRANCH  28  29
ATOM     29  C   UNL A   1      31.384  32.021  26.473  1.00  0.00     0.021 C 
BRANCH  29  30
ATOM     30  C   UNL A   1      32.639  32.489  27.187  1.00  0.00     0.116 C 
BRANCH  30  31
ATOM     31  N   UNL A   1      32.553  33.890  27.543  1.00  0.00    -0.352 N 
ATOM     32  C   UNL A   1      33.216  34.548  28.548  1.00  0.00     0.251 C 
ATOM     33  H   UNL A   1      31.945  34.439  26.997  1.00  0.00     0.163 HD
ATOM     34  O   UNL A   1      32.860  35.671  28.891  1.00  0.00    -0.269 OA
BRANCH  32  35
ATOM     35  C   UNL A   1      34.352  33.881  29.222  1.00  0.00     0.039 A 
ATOM     36  C   UNL A   1      35.651  34.295  28.926  1.00  0.00     0.014 A 
ATOM     37  C   UNL A   1      34.132  32.860  30.154  1.00  0.00     0.014 A 
ATOM     38  C   UNL A   1      36.729  33.704  29.588  1.00  0.00     0.010 A 
ATOM     39  C   UNL A   1      35.200  32.344  30.881  1.00  0.00     0.010 A 
ATOM     40  C   UNL A   1      36.512  32.739  30.586  1.00  0.00    -0.014 A 
BRANCH  40  41
ATOM     41  C   UNL A   1      37.650  32.115  31.309  1.00  0.00     0.031 A 
ATOM     42  C   UNL A   1      38.425  30.993  30.671  1.00  0.00     0.074 A 
ATOM     43  C   UNL A   1      37.951  32.519  32.559  1.00  0.00     0.049 A 
ATOM     44  N   UNL A   1      39.444  30.322  31.143  1.00  0.00    -0.248 NA
ATOM     45  C   UNL A   1      37.983  30.547  29.339  1.00  0.00     0.031 C 
ATOM     46  C   UNL A   1      37.228  33.544  33.315  1.00  0.00     0.029 A 
ATOM     47  N   UNL A   1      38.935  32.104  33.420  1.00  0.00    -0.354 N 
ATOM     48  C   UNL A   1      39.740  29.356  30.188  1.00  0.00     0.074 A 
ATOM     49  C   UNL A   1      38.766  29.499  29.128  1.00  0.00     0.031 C 
ATOM     50  C   UNL A   1      37.807  33.694  34.516  1.00  0.00     0.029 A 
ATOM     51  C   UNL A   1      38.918  32.755  34.632  1.00  0.00     0.049 A 
ATOM     52  H   UNL A   1      39.592  31.407  33.193  1.00  0.00     0.167 HD
ATOM     53  C   UNL A   1      40.746  28.451  30.176  1.00  0.00     0.034 A 
ATOM     54  C   UNL A   1      39.708  32.609  35.714  1.00  0.00     0.034 A 
ATOM     55  C   UNL A   1      41.733  28.336  31.216  1.00  0.00     0.049 A 
ATOM     56  C   UNL A   1      40.834  31.613  35.666  1.00  0.00     0.074 A 
ATOM     57  C   UNL A   1      42.844  27.513  31.261  1.00  0.00     0.029 A 
ATOM     58  N   UNL A   1      41.718  29.052  32.403  1.00  0.00    -0.354 N 
ATOM     59  N   UNL A   1      41.195  30.819  34.687  1.00  0.00    -0.248 NA
ATOM     60  C   UNL A   1      41.686  31.519  36.860  1.00  0.00     0.031 C 
ATOM     61  C   UNL A   1      43.479  27.704  32.493  1.00  0.00     0.029 A 
ATOM     62  C   UNL A   1      42.789  28.680  33.196  1.00  0.00     0.049 A 
ATOM     63  H   UNL A   1      41.044  29.729  32.646  1.00  0.00     0.167 HD
ATOM     64  C   UNL A   1      42.339  30.164  35.128  1.00  0.00     0.074 A 
ATOM     65  C   UNL A   1      42.621  30.669  36.457  1.00  0.00     0.031 C 
ATOM     66  C   UNL A   1      43.085  29.224  34.496  1.00  0.00     0.034 A 
BRANCH  53  67
ATOM     67  C   UNL A   1      40.849  27.534  28.984  1.00  0.00     0.023 A 
ATOM     68  C   UNL A   1      40.000  26.411  28.885  1.00  0.00     0.012 A 
ATOM     69  C   UNL A   1      41.757  27.804  27.941  1.00  0.00     0.148 A 
ATOM     70  C   UNL A   1      40.084  25.549  27.792  1.00  0.00     0.002 A 
ATOM     71  C   UNL A   1      41.798  26.969  26.831  1.00  0.00     0.091 A 
ATOM     72  F   UNL A   1      42.570  28.863  28.059  1.00  0.00    -0.205 F 
ATOM     73  C   UNL A   1      40.975  25.833  26.762  1.00  0.00     0.022 A 
BRANCH  71  74
ATOM     74  S   UNL A   1      42.849  27.296  25.412  1.00  0.00     0.127 S 
ATOM     75  O   UNL A   1      42.767  26.030  24.685  1.00  0.00    -0.237 OA
ATOM     76  O   UNL A   1      42.158  28.414  24.769  1.00  0.00    -0.237 OA
ATOM     77  O   UNL A   1      44.163  27.623  25.950  1.00  0.00    -0.744 OA
ENDBRANCH  71  74
ENDBRANCH  53  67
BRANCH  54  78
ATOM     78  C   UNL A   1      39.506  33.476  36.909  1.00  0.00     0.023 A 
ATOM     79  C   UNL A   1      39.973  34.805  36.886  1.00  0.00     0.012 A 
ATOM     80  C   UNL A   1      38.849  33.000  38.060  1.00  0.00     0.148 A 
ATOM     81  C   UNL A   1      39.822  35.633  37.999  1.00  0.00     0.002 A 
ATOM     82  C   UNL A   1      38.651  33.847  39.145  1.00  0.00     0.091 A 
ATOM     83  F   UNL A   1      38.419  31.730  38.065  1.00  0.00    -0.205 F 
ATOM     84  C   UNL A   1      39.154  35.157  39.123  1.00  0.00     0.022 A 
BRANCH  82  85
ATOM     85  S   UNL A   1      37.697  33.363  40.586  1.00  0.00     0.127 S 
ATOM     86  O   UNL A   1      37.648  34.611  41.344  1.00  0.00    -0.237 OA
ATOM     87  O   UNL A   1      36.427  32.957  39.983  1.00  0.00    -0.237 OA
ATOM     88  O   UNL A   1      38.443  32.278  41.208  1.00  0.00    -0.744 OA
ENDBRANCH  82  85
ENDBRANCH  54  78
BRANCH  66  89
ATOM     89  C   UNL A   1      44.313  28.713  35.206  1.00  0.00     0.023 A 
ATOM     90  C   UNL A   1      45.538  29.397  35.085  1.00  0.00     0.012 A 
ATOM     91  C   UNL A   1      44.231  27.585  36.046  1.00  0.00     0.148 A 
ATOM     92  C   UNL A   1      46.674  28.941  35.755  1.00  0.00     0.002 A 
ATOM     93  C   UNL A   1      45.352  27.170  36.755  1.00  0.00     0.091 A 
ATOM     94  F   UNL A   1      43.061  26.936  36.136  1.00  0.00    -0.205 F 
ATOM     95  C   UNL A   1      46.578  27.837  36.598  1.00  0.00     0.022 A 
BRANCH  93  96
ATOM     96  S   UNL A   1      45.297  25.823  37.941  1.00  0.00     0.127 S 
ATOM     97  O   UNL A   1      46.719  25.566  38.166  1.00  0.00    -0.237 OA
ATOM     98  O   UNL A   1      44.601  26.435  39.073  1.00  0.00    -0.237 OA
ATOM     99  O   UNL A   1      44.563  24.745  37.291  1.00  0.00    -0.744 OA
ENDBRANCH  93  96
ENDBRANCH  66  89
ENDBRANCH  40  41
ENDBRANCH  32  35
ENDBRANCH  30  31
ENDBRANCH  29  30
ENDBRANCH  28  29
ENDBRANCH   1  28
TORSDOF 21
ENDMDL
MODEL 2
REMARK VINA RESULT:     -10.9      0.600      7.636
REMARK SMILES COC(=O)C[C@H](NC(=O)N[C@@H]1CCCCC1(C)C)C(=O)NCCCCCCNC(=O)c1ccc(-c2c3nc(c(-c4cccc(S(=O)(=O)[O-])c4F)c4ccc([nH]4)c(-c4cccc(S(=O)(=O)[O-])c4F)c4nc(c(-c5cccc(S(=O)(=O)[O-])c5F)c5ccc2[nH]5)C=C4)C=C3)cc1
REMARK SMILES IDX 24 1 23 2 22 3 21 4 19 5 20 6 6 8 5 9 3 10 4 11 2 12 1 13
REMARK SMILES IDX 7 14 8 15 9 17 10 18 11 20 12 21 16 22 13 23 15 24 17 25
REMARK SMILES IDX 18 26 14 27 25 28 26 29 27 30 28 31 29 32 30 34 31 35 32 36
REMARK SMILES IDX 93 37 33 38 92 39 34 40 35 41 36 42 86 43 37 44 91 45 85 46
REMARK SMILES IDX 87 47 38 48 90 49 84 50 83 51 39 53 71 54 51 55 70 56 52 57
REMARK SMILES IDX 55 58 69 59 88 60 53 61 54 62 68 64 89 65 56 66 40 67 41 68
REMARK SMILES IDX 49 69 42 70 44 71 50 72 43 73 45 74 46 75 47 76 48 77 72 78
REMARK SMILES IDX 73 79 81 80 74 81 76 82 82 83 75 84 77 85 78 86 79 87 80 88
REMARK SMILES IDX 57 89 58 90 66 91 59 92 61 93 67 94 60 95 62 96 63 97 64 98
REMARK SMILES IDX 65 99
REMARK H PARENT 21 7 7 16 10 19 28 33 87 52 55 63
REMARK Flexibility Score: inf
ROOT
ATOM      1  C   UNL A   1      32.389  29.548  26.896  1.00  0.00     0.002 C 
ENDROOT
BRANCH   1   2
ATOM      2  C   UNL A   1      31.693  28.242  27.270  1.00  0.00     0.021 C 
BRANCH   2   3
ATOM      3  C   UNL A   1      31.563  27.182  26.184  1.00  0.00     0.116 C 
BRANCH   3   4
ATOM      4  N   UNL A   1      30.798  26.018  26.551  1.00  0.00    -0.354 N 
ATOM      5  C   UNL A   1      30.616  24.881  25.832  1.00  0.00     0.243 C 
ATOM      6  O   UNL A   1      30.210  23.876  26.422  1.00  0.00    -0.273 OA
ATOM      7  H   UNL A   1      30.352  26.051  27.427  1.00  0.00     0.163 HD
BRANCH   5   8
ATOM      8  C   UNL A   1      30.978  24.818  24.342  1.00  0.00     0.184 C 
BRANCH   8   9
ATOM      9  C   UNL A   1      30.156  25.900  23.617  1.00  0.00     0.157 C 
BRANCH   9  10
ATOM     10  C   UNL A   1      30.909  26.651  22.567  1.00  0.00     0.308 C 
ATOM     11  O   UNL A   1      30.562  27.716  22.098  1.00  0.00    -0.252 OA
BRANCH  10  12
ATOM     12  O   UNL A   1      31.991  25.915  22.184  1.00  0.00    -0.469 OA
ATOM     13  C   UNL A   1      33.181  26.673  21.969  1.00  0.00     0.282 C 
ENDBRANCH  10  12
ENDBRANCH   9  10
ENDBRANCH   8   9
BRANCH   8  14
ATOM     14  N   UNL A   1      31.036  23.463  23.714  1.00  0.00    -0.326 N 
ATOM     15  C   UNL A   1      31.965  22.568  23.302  1.00  0.00     0.315 C 
ATOM     16  H   UNL A   1      30.129  23.118  23.553  1.00  0.00     0.166 HD
ATOM     17  O   UNL A   1      31.546  21.578  22.693  1.00  0.00    -0.249 OA
ATOM     18  N   UNL A   1      33.299  22.641  23.532  1.00  0.00    -0.335 N 
ATOM     19  H   UNL A   1      33.811  21.841  23.270  1.00  0.00     0.165 HD
BRANCH  18  20
ATOM     20  C   UNL A   1      34.090  23.716  24.104  1.00  0.00     0.089 C 
ATOM     21  C   UNL A   1      35.301  23.917  23.190  1.00  0.00     0.025 C 
ATOM     22  C   UNL A   1      34.515  23.708  25.634  1.00  0.00    -0.015 C 
ATOM     23  C   UNL A   1      36.450  22.999  23.503  1.00  0.00     0.002 C 
ATOM     24  C   UNL A   1      35.939  23.133  25.910  1.00  0.00     0.008 C 
ATOM     25  C   UNL A   1      34.491  25.202  26.081  1.00  0.00     0.013 C 
ATOM     26  C   UNL A   1      33.559  22.970  26.595  1.00  0.00     0.013 C 
ATOM     27  C   UNL A   1      36.992  23.395  24.845  1.00  0.00     0.001 C 
ENDBRANCH  18  20
ENDBRANCH   8  14
ENDBRANCH   5   8
ENDBRANCH   3   4
ENDBRANCH   2   3
ENDBRANCH   1   2
BRANCH   1  28
ATOM     28  C   UNL A   1      31.607  30.501  25.994  1.00  0.00     0.002 C 
BRANCH  28  29
ATOM     29  C   UNL A   1      31.457  31.931  26.505  1.00  0.00     0.021 C 
BRANCH  29  30
ATOM     30  C   UNL A   1      32.655  32.463  27.272  1.00  0.00     0.116 C 
BRANCH  30  31
ATOM     31  N   UNL A   1      32.495  33.866  27.596  1.00  0.00    -0.352 N 
ATOM     32  C   UNL A   1      33.132  34.584  28.576  1.00  0.00     0.251 C 
ATOM     33  H   UNL A   1      31.849  34.366  27.046  1.00  0.00     0.163 HD
ATOM     34  O   UNL A   1      32.717  35.692  28.898  1.00  0.00    -0.269 OA
BRANCH  32  35
ATOM     35  C   UNL A   1      34.313  33.998  29.249  1.00  0.00     0.039 A 
ATOM     36  C   UNL A   1      34.115  33.112  30.309  1.00  0.00     0.014 A 
ATOM     37  C   UNL A   1      35.608  34.312  28.824  1.00  0.00     0.014 A 
ATOM     38  C   UNL A   1      35.220  32.519  30.924  1.00  0.00     0.010 A 
ATOM     39  C   UNL A   1      36.698  33.645  29.373  1.00  0.00     0.010 A 
ATOM     40  C   UNL A   1      36.519  32.763  30.448  1.00  0.00    -0.014 A 
BRANCH  40  41
ATOM     41  C   UNL A   1      37.700  32.126  31.083  1.00  0.00     0.031 A 
ATOM     42  C   UNL A   1      38.238  32.659  32.384  1.00  0.00     0.074 A 
ATOM     43  C   UNL A   1      38.323  31.102  30.464  1.00  0.00     0.049 A 
ATOM     44  N   UNL A   1      39.258  32.240  33.089  1.00  0.00    -0.248 NA
ATOM     45  C   UNL A   1      37.559  33.834  32.958  1.00  0.00     0.031 C 
ATOM     46  C   UNL A   1      37.944  30.544  29.164  1.00  0.00     0.029 A 
ATOM     47  N   UNL A   1      39.414  30.361  30.839  1.00  0.00    -0.354 N 
ATOM     48  C   UNL A   1      39.365  33.117  34.162  1.00  0.00     0.074 A 
ATOM     49  C   UNL A   1      38.333  34.117  33.995  1.00  0.00     0.031 C 
ATOM     50  C   UNL A   1      38.775  29.534  28.861  1.00  0.00     0.029 A 
ATOM     51  C   UNL A   1      39.765  29.395  29.924  1.00  0.00     0.049 A 
ATOM     52  H   UNL A   1      39.901  30.507  31.682  1.00  0.00     0.167 HD
ATOM     53  C   UNL A   1      40.221  33.080  35.210  1.00  0.00     0.034 A 
ATOM     54  C   UNL A   1      40.772  28.500  29.941  1.00  0.00     0.034 A 
ATOM     55  C   UNL A   1      41.222  32.063  35.390  1.00  0.00     0.049 A 
ATOM     56  C   UNL A   1      41.696  28.463  31.128  1.00  0.00     0.074 A 
ATOM     57  C   UNL A   1      42.083  31.883  36.458  1.00  0.00     0.029 A 
ATOM     58  N   UNL A   1      41.510  31.065  34.472  1.00  0.00    -0.354 N 
ATOM     59  N   UNL A   1      41.680  29.202  32.212  1.00  0.00    -0.248 NA
ATOM     60  C   UNL A   1      42.756  27.445  31.111  1.00  0.00     0.031 C 
ATOM     61  C   UNL A   1      42.918  30.799  36.168  1.00  0.00     0.029 A 
ATOM     62  C   UNL A   1      42.546  30.275  34.939  1.00  0.00     0.049 A 
ATOM     63  H   UNL A   1      41.045  30.936  33.613  1.00  0.00     0.167 HD
ATOM     64  C   UNL A   1      42.695  28.710  33.024  1.00  0.00     0.074 A 
ATOM     65  C   UNL A   1      43.295  27.598  32.314  1.00  0.00     0.031 C 
ATOM     66  C   UNL A   1      43.102  29.143  34.243  1.00  0.00     0.034 A 
BRANCH  53  67
ATOM     67  C   UNL A   1      40.091  34.154  36.260  1.00  0.00     0.023 A 
ATOM     68  C   UNL A   1      40.398  35.493  35.938  1.00  0.00     0.012 A 
ATOM     69  C   UNL A   1      39.627  33.847  37.554  1.00  0.00     0.148 A 
ATOM     70  C   UNL A   1      40.288  36.500  36.896  1.00  0.00     0.002 A 
ATOM     71  C   UNL A   1      39.471  34.863  38.489  1.00  0.00     0.091 A 
ATOM     72  F   UNL A   1      39.359  32.567  37.850  1.00  0.00    -0.205 F 
ATOM     73  C   UNL A   1      39.816  36.187  38.167  1.00  0.00     0.022 A 
BRANCH  71  74
ATOM     74  S   UNL A   1      38.788  34.577  40.125  1.00  0.00     0.127 S 
ATOM     75  O   UNL A   1      39.876  33.848  40.775  1.00  0.00    -0.237 OA
ATOM     76  O   UNL A   1      38.589  35.940  40.617  1.00  0.00    -0.237 OA
ATOM     77  O   UNL A   1      37.561  33.819  39.923  1.00  0.00    -0.744 OA
ENDBRANCH  71  74
ENDBRANCH  53  67
BRANCH  54  78
ATOM     78  C   UNL A   1      40.918  27.517  28.831  1.00  0.00     0.023 A 
ATOM     79  C   UNL A   1      40.098  26.371  28.810  1.00  0.00     0.012 A 
ATOM     80  C   UNL A   1      41.850  27.712  27.794  1.00  0.00     0.148 A 
ATOM     81  C   UNL A   1      40.228  25.421  27.797  1.00  0.00     0.002 A 
ATOM     82  C   UNL A   1      41.936  26.790  26.757  1.00  0.00     0.091 A 
ATOM     83  F   UNL A   1      42.626  28.805  27.836  1.00  0.00    -0.205 F 
ATOM     84  C   UNL A   1      41.140  25.634  26.767  1.00  0.00     0.022 A 
BRANCH  82  85
ATOM     85  S   UNL A   1      42.992  27.040  25.327  1.00  0.00     0.127 S 
ATOM     86  O   UNL A   1      42.310  28.135  24.640  1.00  0.00    -0.237 OA
ATOM     87  O   UNL A   1      44.265  27.401  25.953  1.00  0.00    -0.237 OA
ATOM     88  O   UNL A   1      43.008  25.766  24.621  1.00  0.00    -0.744 OA
ENDBRANCH  82  85
ENDBRANCH  54  78
BRANCH  66  89
ATOM     89  C   UNL A   1      44.216  28.383  34.919  1.00  0.00     0.023 A 
ATOM     90  C   UNL A   1      45.559  28.696  34.636  1.00  0.00     0.012 A 
ATOM     91  C   UNL A   1      43.922  27.400  35.884  1.00  0.00     0.148 A 
ATOM     92  C   UNL A   1      46.595  28.011  35.273  1.00  0.00     0.002 A 
ATOM     93  C   UNL A   1      44.958  26.763  36.556  1.00  0.00     0.091 A 
ATOM     94  F   UNL A   1      42.637  27.104  36.128  1.00  0.00    -0.205 F 
ATOM     95  C   UNL A   1      46.295  27.055  36.240  1.00  0.00     0.022 A 
BRANCH  93  96
ATOM     96  S   UNL A   1      44.667  25.592  37.887  1.00  0.00     0.127 S 
ATOM     97  O   UNL A   1      43.865  26.389  38.815  1.00  0.00    -0.237 OA
ATOM     98  O   UNL A   1      43.932  24.526  37.206  1.00  0.00    -0.237 OA
ATOM     99  O   UNL A   1      45.983  25.204  38.375  1.00  0.00    -0.744 OA
ENDBRANCH  93  96
ENDBRANCH  66  89
ENDBRANCH  40  41
ENDBRANCH  32  35
ENDBRANCH  30  31
ENDBRANCH  29  30
ENDBRANCH  28  29
ENDBRANCH   1  28
TORSDOF 21
ENDMDL
MODEL 3
REMARK VINA RESULT:     -10.4      6.114     11.368
REMARK SMILES COC(=O)C[C@H](NC(=O)N[C@@H]1CCCCC1(C)C)C(=O)NCCCCCCNC(=O)c1ccc(-c2c3nc(c(-c4cccc(S(=O)(=O)[O-])c4F)c4ccc([nH]4)c(-c4cccc(S(=O)(=O)[O-])c4F)c4nc(c(-c5cccc(S(=O)(=O)[O-])c5F)c5ccc2[nH]5)C=C4)C=C3)cc1
REMARK SMILES IDX 24 1 23 2 22 3 21 4 19 5 20 6 6 8 5 9 3 10 4 11 2 12 1 13
REMARK SMILES IDX 7 14 8 15 9 17 10 18 11 20 12 21 16 22 13 23 15 24 17 25
REMARK SMILES IDX 18 26 14 27 25 28 26 29 27 30 28 31 29 32 30 34 31 35 32 36
REMARK SMILES IDX 93 37 33 38 92 39 34 40 35 41 36 42 86 43 37 44 91 45 85 46
REMARK SMILES IDX 87 47 38 48 90 49 84 50 83 51 39 53 71 54 51 55 70 56 52 57
REMARK SMILES IDX 55 58 69 59 88 60 53 61 54 62 68 64 89 65 56 66 40 67 41 68
REMARK SMILES IDX 49 69 42 70 44 71 50 72 43 73 45 74 46 75 47 76 48 77 72 78
REMARK SMILES IDX 73 79 81 80 74 81 76 82 82 83 75 84 77 85 78 86 79 87 80 88
REMARK SMILES IDX 57 89 58 90 66 91 59 92 61 93 67 94 60 95 62 96 63 97 64 98
REMARK SMILES IDX 65 99
REMARK H PARENT 21 7 7 16 10 19 28 33 87 52 55 63
REMARK Flexibility Score: inf
ROOT
ATOM      1  C   UNL A   1      36.655  21.696  25.187  1.00  0.00     0.002 C 
ENDROOT
BRANCH   1   2
ATOM      2  C   UNL A   1      36.060  22.208  23.878  1.00  0.00     0.021 C 
BRANCH   2   3
ATOM      3  C   UNL A   1      35.513  23.630  23.866  1.00  0.00     0.116 C 
BRANCH   3   4
ATOM      4  N   UNL A   1      34.816  24.029  25.062  1.00  0.00    -0.354 N 
ATOM      5  C   UNL A   1      33.476  24.048  25.277  1.00  0.00     0.243 C 
ATOM      6  O   UNL A   1      33.072  24.105  26.443  1.00  0.00    -0.273 OA
ATOM      7  H   UNL A   1      35.379  24.324  25.813  1.00  0.00     0.163 HD
BRANCH   5   8
ATOM      8  C   UNL A   1      32.484  23.924  24.114  1.00  0.00     0.184 C 
BRANCH   8   9
ATOM      9  C   UNL A   1      31.839  22.528  24.199  1.00  0.00     0.157 C 
BRANCH   9  10
ATOM     10  C   UNL A   1      32.411  21.521  23.253  1.00  0.00     0.308 C 
ATOM     11  O   UNL A   1      32.145  21.457  22.070  1.00  0.00    -0.252 OA
BRANCH  10  12
ATOM     12  O   UNL A   1      33.211  20.664  23.948  1.00  0.00    -0.469 OA
ATOM     13  C   UNL A   1      32.527  19.854  24.904  1.00  0.00     0.282 C 
ENDBRANCH  10  12
ENDBRANCH   9  10
ENDBRANCH   8   9
BRANCH   8  14
ATOM     14  N   UNL A   1      32.952  24.384  22.770  1.00  0.00    -0.326 N 
ATOM     15  C   UNL A   1      32.755  25.419  21.921  1.00  0.00     0.315 C 
ATOM     16  H   UNL A   1      33.595  23.743  22.391  1.00  0.00     0.166 HD
ATOM     17  O   UNL A   1      33.278  25.326  20.806  1.00  0.00    -0.249 OA
ATOM     18  N   UNL A   1      32.074  26.559  22.197  1.00  0.00    -0.335 N 
ATOM     19  H   UNL A   1      32.137  27.259  21.507  1.00  0.00     0.165 HD
BRANCH  18  20
ATOM     20  C   UNL A   1      31.267  26.906  23.353  1.00  0.00     0.089 C 
ATOM     21  C   UNL A   1      29.978  27.539  22.825  1.00  0.00     0.025 C 
ATOM     22  C   UNL A   1      31.868  27.740  24.563  1.00  0.00    -0.015 C 
ATOM     23  C   UNL A   1      30.098  29.014  22.554  1.00  0.00     0.002 C 
ATOM     24  C   UNL A   1      31.600  29.276  24.491  1.00  0.00     0.008 C 
ATOM     25  C   UNL A   1      31.175  27.178  25.842  1.00  0.00     0.013 C 
ATOM     26  C   UNL A   1      33.385  27.579  24.806  1.00  0.00     0.013 C 
ATOM     27  C   UNL A   1      30.277  29.703  23.875  1.00  0.00     0.001 C 
ENDBRANCH  18  20
ENDBRANCH   8  14
ENDBRANCH   5   8
ENDBRANCH   3   4
ENDBRANCH   2   3
ENDBRANCH   1   2
BRANCH   1  28
ATOM     28  C   UNL A   1      38.179  21.657  25.273  1.00  0.00     0.002 C 
BRANCH  28  29
ATOM     29  C   UNL A   1      38.815  20.271  25.224  1.00  0.00     0.021 C 
BRANCH  29  30
ATOM     30  C   UNL A   1      39.427  19.804  26.532  1.00  0.00     0.116 C 
BRANCH  30  31
ATOM     31  N   UNL A   1      40.624  19.020  26.306  1.00  0.00    -0.352 N 
ATOM     32  C   UNL A   1      41.901  19.472  26.093  1.00  0.00     0.251 C 
ATOM     33  H   UNL A   1      40.507  18.043  26.304  1.00  0.00     0.163 HD
ATOM     34  O   UNL A   1      42.764  18.710  25.670  1.00  0.00    -0.269 OA
BRANCH  32  35
ATOM     35  C   UNL A   1      42.220  20.892  26.365  1.00  0.00     0.039 A 
ATOM     36  C   UNL A   1      42.562  21.270  27.664  1.00  0.00     0.014 A 
ATOM     37  C   UNL A   1      42.195  21.841  25.338  1.00  0.00     0.014 A 
ATOM     38  C   UNL A   1      42.908  22.598  27.926  1.00  0.00     0.010 A 
ATOM     39  C   UNL A   1      42.634  23.138  25.582  1.00  0.00     0.010 A 
ATOM     40  C   UNL A   1      42.968  23.538  26.883  1.00  0.00    -0.014 A 
BRANCH  40  41
ATOM     41  C   UNL A   1      43.350  24.949  27.145  1.00  0.00     0.031 A 
ATOM     42  C   UNL A   1      42.376  25.884  27.813  1.00  0.00     0.074 A 
ATOM     43  C   UNL A   1      44.550  25.405  26.734  1.00  0.00     0.049 A 
ATOM     44  N   UNL A   1      42.525  27.146  28.122  1.00  0.00    -0.248 NA
ATOM     45  C   UNL A   1      41.052  25.338  28.155  1.00  0.00     0.031 C 
ATOM     46  C   UNL A   1      45.552  24.619  26.010  1.00  0.00     0.029 A 
ATOM     47  N   UNL A   1      45.125  26.645  26.854  1.00  0.00    -0.354 N 
ATOM     48  C   UNL A   1      41.308  27.553  28.658  1.00  0.00     0.074 A 
ATOM     49  C   UNL A   1      40.417  26.415  28.593  1.00  0.00     0.031 C 
ATOM     50  C   UNL A   1      46.625  25.388  25.771  1.00  0.00     0.029 A 
ATOM     51  C   UNL A   1      46.378  26.729  26.291  1.00  0.00     0.049 A 
ATOM     52  H   UNL A   1      44.683  27.403  27.301  1.00  0.00     0.167 HD
ATOM     53  C   UNL A   1      40.968  28.752  29.185  1.00  0.00     0.034 A 
ATOM     54  C   UNL A   1      47.228  27.770  26.203  1.00  0.00     0.034 A 
ATOM     55  C   UNL A   1      41.868  29.870  29.279  1.00  0.00     0.049 A 
ATOM     56  C   UNL A   1      46.836  29.087  26.818  1.00  0.00     0.074 A 
ATOM     57  C   UNL A   1      41.653  31.100  29.873  1.00  0.00     0.029 A 
ATOM     58  N   UNL A   1      43.150  29.900  28.751  1.00  0.00    -0.354 N 
ATOM     59  N   UNL A   1      45.740  29.405  27.463  1.00  0.00    -0.248 NA
ATOM     60  C   UNL A   1      47.816  30.179  26.724  1.00  0.00     0.031 C 
ATOM     61  C   UNL A   1      42.791  31.889  29.669  1.00  0.00     0.029 A 
ATOM     62  C   UNL A   1      43.732  31.132  28.988  1.00  0.00     0.049 A 
ATOM     63  H   UNL A   1      43.583  29.153  28.276  1.00  0.00     0.167 HD
ATOM     64  C   UNL A   1      45.915  30.716  27.890  1.00  0.00     0.074 A 
ATOM     65  C   UNL A   1      47.231  31.126  27.445  1.00  0.00     0.031 C 
ATOM     66  C   UNL A   1      45.061  31.512  28.581  1.00  0.00     0.034 A 
BRANCH  53  67
ATOM     67  C   UNL A   1      39.571  28.908  29.730  1.00  0.00     0.023 A 
ATOM     68  C   UNL A   1      39.287  28.523  31.057  1.00  0.00     0.012 A 
ATOM     69  C   UNL A   1      38.548  29.473  28.943  1.00  0.00     0.148 A 
ATOM     70  C   UNL A   1      38.000  28.654  31.577  1.00  0.00     0.002 A 
ATOM     71  C   UNL A   1      37.280  29.649  29.486  1.00  0.00     0.091 A 
ATOM     72  F   UNL A   1      38.829  29.815  27.678  1.00  0.00    -0.205 F 
ATOM     73  C   UNL A   1      37.001  29.226  30.796  1.00  0.00     0.022 A 
BRANCH  71  74
ATOM     74  S   UNL A   1      35.948  30.454  28.591  1.00  0.00     0.127 S 
ATOM     75  O   UNL A   1      35.288  31.206  29.657  1.00  0.00    -0.237 OA
ATOM     76  O   UNL A   1      36.678  31.277  27.627  1.00  0.00    -0.237 OA
ATOM     77  O   UNL A   1      35.156  29.384  27.999  1.00  0.00    -0.744 OA
ENDBRANCH  71  74
ENDBRANCH  53  67
BRANCH  54  78
ATOM     78  C   UNL A   1      48.565  27.593  25.569  1.00  0.00     0.023 A 
ATOM     79  C   UNL A   1      49.687  27.337  26.381  1.00  0.00     0.012 A 
ATOM     80  C   UNL A   1      48.731  27.663  24.173  1.00  0.00     0.148 A 
ATOM     81  C   UNL A   1      50.955  27.191  25.818  1.00  0.00     0.002 A 
ATOM     82  C   UNL A   1      49.987  27.461  23.613  1.00  0.00     0.091 A 
ATOM     83  F   UNL A   1      47.652  27.915  23.418  1.00  0.00    -0.205 F 
ATOM     84  C   UNL A   1      51.104  27.244  24.436  1.00  0.00     0.022 A 
BRANCH  82  85
ATOM     85  S   UNL A   1      50.255  27.390  21.840  1.00  0.00     0.127 S 
ATOM     86  O   UNL A   1      50.092  28.790  21.456  1.00  0.00    -0.237 OA
ATOM     87  O   UNL A   1      51.627  26.885  21.764  1.00  0.00    -0.237 OA
ATOM     88  O   UNL A   1      49.247  26.474  21.325  1.00  0.00    -0.744 OA
ENDBRANCH  82  85
ENDBRANCH  54  78
BRANCH  66  89
ATOM     89  C   UNL A   1      45.538  32.894  28.949  1.00  0.00     0.023 A 
ATOM     90  C   UNL A   1      46.238  33.105  30.153  1.00  0.00     0.012 A 
ATOM     91  C   UNL A   1      45.344  33.973  28.064  1.00  0.00     0.148 A 
ATOM     92  C   UNL A   1      46.700  34.377  30.491  1.00  0.00     0.002 A 
ATOM     93  C   UNL A   1      45.856  35.225  28.380  1.00  0.00     0.091 A 
ATOM     94  F   UNL A   1      44.661  33.757  26.930  1.00  0.00    -0.205 F 
ATOM     95  C   UNL A   1      46.520  35.433  29.600  1.00  0.00     0.022 A 
BRANCH  93  96
ATOM     96  S   UNL A   1      45.763  36.618  27.250  1.00  0.00     0.127 S 
ATOM     97  O   UNL A   1      46.483  37.652  27.991  1.00  0.00    -0.237 OA
ATOM     98  O   UNL A   1      46.467  36.108  26.072  1.00  0.00    -0.237 OA
ATOM     99  O   UNL A   1      44.343  36.873  27.042  1.00  0.00    -0.744 OA
ENDBRANCH  93  96
ENDBRANCH  66  89
ENDBRANCH  40  41
ENDBRANCH  32  35
ENDBRANCH  30  31
ENDBRANCH  29  30
ENDBRANCH  28  29
ENDBRANCH   1  28
TORSDOF 21
ENDMDL
