MODEL 1
REMARK VINA RESULT:     -11.0      0.000      0.000
REMARK SMILES O=C(NCCCCCCNC(=O)[C@@H](CCC(F)(F)F)c1ccc(Cl)cc1)c1ccc(-c2c3nc(c(-c4cccc(S(=O)(=O)[O-])c4F)c4ccc([nH]4)c(-c4cccc(S(=O)(=O)[O-])c4F)c4nc(c(-c5cccc(S(=O)(=O)[O-])c5F)c5ccc2[nH]5)C=C4)C=C3)cc1
REMARK SMILES IDX 6 1 5 2 4 3 3 4 1 5 2 6 27 8 28 9 89 10 29 11 88 12 30 13
REMARK SMILES IDX 31 14 32 15 82 16 33 17 87 18 81 19 83 20 34 21 86 22 80 23
REMARK SMILES IDX 79 24 35 26 67 27 47 28 66 29 48 30 51 31 65 32 84 33 49 34
REMARK SMILES IDX 50 35 64 37 85 38 52 39 36 40 37 41 45 42 38 43 40 44 46 45
REMARK SMILES IDX 39 46 41 47 42 48 43 49 44 50 68 51 69 52 77 53 70 54 72 55
REMARK SMILES IDX 78 56 71 57 73 58 74 59 75 60 76 61 53 62 54 63 62 64 55 65
REMARK SMILES IDX 57 66 63 67 56 68 58 69 59 70 60 71 61 72 7 73 8 74 9 75
REMARK SMILES IDX 10 76 11 77 12 79 13 80 14 81 15 82 16 83 17 84 18 85 19 86
REMARK SMILES IDX 20 87 21 88 26 89 22 90 25 91 23 92 24 93
REMARK H PARENT 3 7 83 25 51 36 10 78
REMARK Flexibility Score: inf
ROOT
ATOM      1  C   UNL A   1      31.918  27.229  26.402  1.00  0.00     0.002 C 
ENDROOT
BRANCH   1   2
ATOM      2  C   UNL A   1      31.644  28.724  26.576  1.00  0.00     0.021 C 
BRANCH   2   3
ATOM      3  C   UNL A   1      32.699  29.641  25.966  1.00  0.00     0.116 C 
BRANCH   3   4
ATOM      4  N   UNL A   1      32.454  31.043  26.271  1.00  0.00    -0.352 N 
ATOM      5  O   UNL A   1      32.630  32.976  27.415  1.00  0.00    -0.269 OA
ATOM      6  C   UNL A   1      33.121  31.886  27.125  1.00  0.00     0.251 C 
ATOM      7  H   UNL A   1      31.695  31.448  25.793  1.00  0.00     0.163 HD
BRANCH   6   8
ATOM      8  C   UNL A   1      34.414  31.468  27.707  1.00  0.00     0.039 A 
ATOM      9  C   UNL A   1      34.622  30.138  28.075  1.00  0.00     0.014 A 
ATOM     10  C   UNL A   1      35.425  32.414  27.897  1.00  0.00     0.014 A 
ATOM     11  C   UNL A   1      35.756  29.793  28.800  1.00  0.00     0.010 A 
ATOM     12  C   UNL A   1      36.614  32.038  28.531  1.00  0.00     0.010 A 
ATOM     13  C   UNL A   1      36.770  30.736  29.032  1.00  0.00    -0.014 A 
BRANCH  13  14
ATOM     14  C   UNL A   1      37.990  30.316  29.769  1.00  0.00     0.031 A 
ATOM     15  C   UNL A   1      38.241  30.759  31.186  1.00  0.00     0.074 A 
ATOM     16  C   UNL A   1      38.869  29.499  29.153  1.00  0.00     0.049 A 
ATOM     17  N   UNL A   1      39.224  30.433  31.987  1.00  0.00    -0.248 NA
ATOM     18  C   UNL A   1      37.274  31.694  31.783  1.00  0.00     0.031 C 
ATOM     19  C   UNL A   1      38.755  29.033  27.768  1.00  0.00     0.029 A 
ATOM     20  N   UNL A   1      40.020  28.909  29.605  1.00  0.00    -0.354 N 
ATOM     21  C   UNL A   1      39.025  31.154  33.157  1.00  0.00     0.074 A 
ATOM     22  C   UNL A   1      37.827  31.944  32.962  1.00  0.00     0.031 C 
ATOM     23  C   UNL A   1      39.769  28.200  27.497  1.00  0.00     0.029 A 
ATOM     24  C   UNL A   1      40.638  28.119  28.665  1.00  0.00     0.049 A 
ATOM     25  H   UNL A   1      40.371  29.040  30.516  1.00  0.00     0.167 HD
ATOM     26  C   UNL A   1      39.763  31.152  34.293  1.00  0.00     0.034 A 
ATOM     27  C   UNL A   1      41.785  27.416  28.728  1.00  0.00     0.034 A 
ATOM     28  C   UNL A   1      40.934  30.338  34.493  1.00  0.00     0.049 A 
ATOM     29  C   UNL A   1      42.566  27.413  30.009  1.00  0.00     0.074 A 
ATOM     30  C   UNL A   1      41.709  30.211  35.634  1.00  0.00     0.029 A 
ATOM     31  N   UNL A   1      41.509  29.524  33.529  1.00  0.00    -0.354 N 
ATOM     32  N   UNL A   1      42.289  28.003  31.145  1.00  0.00    -0.248 NA
ATOM     33  C   UNL A   1      43.803  26.622  30.026  1.00  0.00     0.031 C 
ATOM     34  C   UNL A   1      42.774  29.351  35.347  1.00  0.00     0.029 A 
ATOM     35  C   UNL A   1      42.635  28.903  34.043  1.00  0.00     0.049 A 
ATOM     36  H   UNL A   1      41.166  29.405  32.615  1.00  0.00     0.167 HD
ATOM     37  C   UNL A   1      43.293  27.622  32.027  1.00  0.00     0.074 A 
ATOM     38  C   UNL A   1      44.174  26.733  31.295  1.00  0.00     0.031 C 
ATOM     39  C   UNL A   1      43.475  27.982  33.321  1.00  0.00     0.034 A 
BRANCH  26  40
ATOM     40  C   UNL A   1      39.322  32.047  35.426  1.00  0.00     0.023 A 
ATOM     41  C   UNL A   1      38.452  31.552  36.419  1.00  0.00     0.012 A 
ATOM     42  C   UNL A   1      39.823  33.359  35.541  1.00  0.00     0.148 A 
ATOM     43  C   UNL A   1      38.059  32.359  37.487  1.00  0.00     0.002 A 
ATOM     44  C   UNL A   1      39.465  34.141  36.634  1.00  0.00     0.091 A 
ATOM     45  F   UNL A   1      40.634  33.820  34.579  1.00  0.00    -0.205 F 
ATOM     46  C   UNL A   1      38.573  33.648  37.600  1.00  0.00     0.022 A 
BRANCH  44  47
ATOM     47  S   UNL A   1      40.141  35.783  36.914  1.00  0.00     0.127 S 
ATOM     48  O   UNL A   1      39.699  36.492  35.714  1.00  0.00    -0.237 OA
ATOM     49  O   UNL A   1      39.464  36.188  38.145  1.00  0.00    -0.237 OA
ATOM     50  O   UNL A   1      41.581  35.609  37.041  1.00  0.00    -0.744 OA
ENDBRANCH  44  47
ENDBRANCH  26  40
BRANCH  27  51
ATOM     51  C   UNL A   1      42.232  26.618  27.551  1.00  0.00     0.023 A 
ATOM     52  C   UNL A   1      42.991  27.237  26.540  1.00  0.00     0.012 A 
ATOM     53  C   UNL A   1      41.930  25.246  27.444  1.00  0.00     0.148 A 
ATOM     54  C   UNL A   1      43.413  26.512  25.425  1.00  0.00     0.002 A 
ATOM     55  C   UNL A   1      42.406  24.517  26.362  1.00  0.00     0.091 A 
ATOM     56  F   UNL A   1      41.199  24.679  28.413  1.00  0.00    -0.205 F 
ATOM     57  C   UNL A   1      43.130  25.151  25.341  1.00  0.00     0.022 A 
BRANCH  55  58
ATOM     58  S   UNL A   1      42.206  22.737  26.239  1.00  0.00     0.127 S 
ATOM     59  O   UNL A   1      40.755  22.593  26.329  1.00  0.00    -0.237 OA
ATOM     60  O   UNL A   1      42.773  22.461  24.919  1.00  0.00    -0.237 OA
ATOM     61  O   UNL A   1      42.966  22.177  27.347  1.00  0.00    -0.744 OA
ENDBRANCH  55  58
ENDBRANCH  27  51
BRANCH  39  62
ATOM     62  C   UNL A   1      44.640  27.368  34.054  1.00  0.00     0.023 A 
ATOM     63  C   UNL A   1      45.916  27.964  33.988  1.00  0.00     0.012 A 
ATOM     64  C   UNL A   1      44.453  26.220  34.850  1.00  0.00     0.148 A 
ATOM     65  C   UNL A   1      46.996  27.400  34.667  1.00  0.00     0.002 A 
ATOM     66  C   UNL A   1      45.521  25.698  35.569  1.00  0.00     0.091 A 
ATOM     67  F   UNL A   1      43.237  25.655  34.883  1.00  0.00    -0.205 F 
ATOM     68  C   UNL A   1      46.796  26.276  35.465  1.00  0.00     0.022 A 
BRANCH  66  69
ATOM     69  S   UNL A   1      45.331  24.316  36.699  1.00  0.00     0.127 S 
ATOM     70  O   UNL A   1      44.188  24.745  37.505  1.00  0.00    -0.237 OA
ATOM     71  O   UNL A   1      45.051  23.206  35.789  1.00  0.00    -0.237 OA
ATOM     72  O   UNL A   1      46.595  24.205  37.414  1.00  0.00    -0.744 OA
ENDBRANCH  66  69
ENDBRANCH  39  62
ENDBRANCH  13  14
ENDBRANCH   6   8
ENDBRANCH   3   4
ENDBRANCH   2   3
ENDBRANCH   1   2
BRANCH   1  73
ATOM     73  C   UNL A   1      30.762  26.418  25.811  1.00  0.00     0.002 C 
BRANCH  73  74
ATOM     74  C   UNL A   1      30.585  25.022  26.408  1.00  0.00     0.021 C 
BRANCH  74  75
ATOM     75  C   UNL A   1      30.785  23.875  25.414  1.00  0.00     0.116 C 
BRANCH  75  76
ATOM     76  N   UNL A   1      31.683  22.879  25.955  1.00  0.00    -0.356 N 
ATOM     77  C   UNL A   1      33.040  22.829  25.979  1.00  0.00     0.227 C 
ATOM     78  H   UNL A   1      31.236  22.109  26.375  1.00  0.00     0.163 HD
ATOM     79  O   UNL A   1      33.543  21.856  26.556  1.00  0.00    -0.274 OA
BRANCH  77  80
ATOM     80  C   UNL A   1      33.949  23.901  25.338  1.00  0.00     0.109 C 
BRANCH  80  81
ATOM     81  C   UNL A   1      35.432  23.824  25.797  1.00  0.00     0.027 C 
BRANCH  81  82
ATOM     82  C   UNL A   1      36.618  23.651  24.838  1.00  0.00     0.116 C 
BRANCH  82  83
ATOM     83  C   UNL A   1      36.797  22.345  24.087  1.00  0.00     0.389 C 
ATOM     84  F   UNL A   1      35.775  21.499  24.326  1.00  0.00    -0.171 F 
ATOM     85  F   UNL A   1      36.828  22.586  22.757  1.00  0.00    -0.171 F 
ATOM     86  F   UNL A   1      37.946  21.717  24.391  1.00  0.00    -0.171 F 
ENDBRANCH  82  83
ENDBRANCH  81  82
ENDBRANCH  80  81
BRANCH  80  87
ATOM     87  C   UNL A   1      33.606  24.286  23.902  1.00  0.00    -0.035 A 
ATOM     88  C   UNL A   1      33.607  25.637  23.508  1.00  0.00     0.006 A 
ATOM     89  C   UNL A   1      33.403  23.325  22.901  1.00  0.00     0.006 A 
ATOM     90  C   UNL A   1      33.305  26.009  22.194  1.00  0.00     0.021 A 
ATOM     91  C   UNL A   1      33.061  23.692  21.596  1.00  0.00     0.021 A 
ATOM     92  C   UNL A   1      33.002  25.034  21.250  1.00  0.00     0.041 A 
ATOM     93  Cl  UNL A   1      32.577  25.489  19.648  1.00  0.00    -0.084 Cl
ENDBRANCH  80  87
ENDBRANCH  77  80
ENDBRANCH  75  76
ENDBRANCH  74  75
ENDBRANCH  73  74
ENDBRANCH   1  73
TORSDOF 20
ENDMDL
MODEL 2
REMARK VINA RESULT:     -10.9      5.001      9.989
REMARK SMILES O=C(NCCCCCCNC(=O)[C@@H](CCC(F)(F)F)c1ccc(Cl)cc1)c1ccc(-c2c3nc(c(-c4cccc(S(=O)(=O)[O-])c4F)c4ccc([nH]4)c(-c4cccc(S(=O)(=O)[O-])c4F)c4nc(c(-c5cccc(S(=O)(=O)[O-])c5F)c5ccc2[nH]5)C=C4)C=C3)cc1
REMARK SMILES IDX 6 1 5 2 4 3 3 4 1 5 2 6 27 8 28 9 89 10 29 11 88 12 30 13
REMARK SMILES IDX 31 14 32 15 82 16 33 17 87 18 81 19 83 20 34 21 86 22 80 23
REMARK SMILES IDX 79 24 35 26 67 27 47 28 66 29 48 30 51 31 65 32 84 33 49 34
REMARK SMILES IDX 50 35 64 37 85 38 52 39 36 40 37 41 45 42 38 43 40 44 46 45
REMARK SMILES IDX 39 46 41 47 42 48 43 49 44 50 68 51 69 52 77 53 70 54 72 55
REMARK SMILES IDX 78 56 71 57 73 58 74 59 75 60 76 61 53 62 54 63 62 64 55 65
REMARK SMILES IDX 57 66 63 67 56 68 58 69 59 70 60 71 61 72 7 73 8 74 9 75
REMARK SMILES IDX 10 76 11 77 12 79 13 80 14 81 15 82 16 83 17 84 18 85 19 86
REMARK SMILES IDX 20 87 21 88 26 89 22 90 25 91 23 92 24 93
REMARK H PARENT 3 7 83 25 51 36 10 78
REMARK Flexibility Score: inf
ROOT
ATOM      1  C   UNL A   1      34.206  21.607  24.365  1.00  0.00     0.002 C 
ENDROOT
BRANCH   1   2
ATOM      2  C   UNL A   1      35.376  22.576  24.544  1.00  0.00     0.021 C 
BRANCH   2   3
ATOM      3  C   UNL A   1      36.146  22.412  25.850  1.00  0.00     0.116 C 
BRANCH   3   4
ATOM      4  N   UNL A   1      37.144  21.355  25.771  1.00  0.00    -0.352 N 
ATOM      5  O   UNL A   1      39.206  20.460  25.616  1.00  0.00    -0.269 OA
ATOM      6  C   UNL A   1      38.506  21.418  25.939  1.00  0.00     0.251 C 
ATOM      7  H   UNL A   1      36.789  20.460  25.568  1.00  0.00     0.163 HD
BRANCH   6   8
ATOM      8  C   UNL A   1      39.121  22.646  26.485  1.00  0.00     0.039 A 
ATOM      9  C   UNL A   1      38.660  23.901  26.085  1.00  0.00     0.014 A 
ATOM     10  C   UNL A   1      40.176  22.543  27.396  1.00  0.00     0.014 A 
ATOM     11  C   UNL A   1      39.368  25.040  26.444  1.00  0.00     0.010 A 
ATOM     12  C   UNL A   1      40.818  23.704  27.842  1.00  0.00     0.010 A 
ATOM     13  C   UNL A   1      40.452  24.959  27.332  1.00  0.00    -0.014 A 
BRANCH  13  14
ATOM     14  C   UNL A   1      41.153  26.207  27.731  1.00  0.00     0.031 A 
ATOM     15  C   UNL A   1      42.557  26.498  27.270  1.00  0.00     0.074 A 
ATOM     16  C   UNL A   1      40.497  27.100  28.499  1.00  0.00     0.049 A 
ATOM     17  N   UNL A   1      43.285  27.566  27.481  1.00  0.00    -0.248 NA
ATOM     18  C   UNL A   1      43.238  25.459  26.481  1.00  0.00     0.031 C 
ATOM     19  C   UNL A   1      39.148  26.914  29.041  1.00  0.00     0.029 A 
ATOM     20  N   UNL A   1      40.865  28.341  28.952  1.00  0.00    -0.354 N 
ATOM     21  C   UNL A   1      44.520  27.312  26.896  1.00  0.00     0.074 A 
ATOM     22  C   UNL A   1      44.447  25.983  26.327  1.00  0.00     0.031 C 
ATOM     23  C   UNL A   1      38.786  28.013  29.716  1.00  0.00     0.029 A 
ATOM     24  C   UNL A   1      39.897  28.958  29.708  1.00  0.00     0.049 A 
ATOM     25  H   UNL A   1      41.738  28.750  28.754  1.00  0.00     0.167 HD
ATOM     26  C   UNL A   1      45.610  28.114  26.830  1.00  0.00     0.034 A 
ATOM     27  C   UNL A   1      39.903  30.147  30.340  1.00  0.00     0.034 A 
ATOM     28  C   UNL A   1      45.664  29.448  27.369  1.00  0.00     0.049 A 
ATOM     29  C   UNL A   1      41.116  31.023  30.226  1.00  0.00     0.074 A 
ATOM     30  C   UNL A   1      46.698  30.366  27.290  1.00  0.00     0.029 A 
ATOM     31  N   UNL A   1      44.651  30.051  28.098  1.00  0.00    -0.354 N 
ATOM     32  N   UNL A   1      42.225  30.814  29.561  1.00  0.00    -0.248 NA
ATOM     33  C   UNL A   1      41.066  32.314  30.925  1.00  0.00     0.031 C 
ATOM     34  C   UNL A   1      46.324  31.509  28.005  1.00  0.00     0.029 A 
ATOM     35  C   UNL A   1      45.039  31.323  28.488  1.00  0.00     0.049 A 
ATOM     36  H   UNL A   1      43.784  29.637  28.308  1.00  0.00     0.167 HD
ATOM     37  C   UNL A   1      42.990  31.963  29.725  1.00  0.00     0.074 A 
ATOM     38  C   UNL A   1      42.205  32.872  30.537  1.00  0.00     0.031 C 
ATOM     39  C   UNL A   1      44.231  32.237  29.254  1.00  0.00     0.034 A 
BRANCH  26  40
ATOM     40  C   UNL A   1      46.839  27.582  26.135  1.00  0.00     0.023 A 
ATOM     41  C   UNL A   1      47.057  27.865  24.771  1.00  0.00     0.012 A 
ATOM     42  C   UNL A   1      47.812  26.855  26.851  1.00  0.00     0.148 A 
ATOM     43  C   UNL A   1      48.204  27.405  24.123  1.00  0.00     0.002 A 
ATOM     44  C   UNL A   1      48.974  26.440  26.210  1.00  0.00     0.091 A 
ATOM     45  F   UNL A   1      47.581  26.578  28.141  1.00  0.00    -0.205 F 
ATOM     46  C   UNL A   1      49.166  26.702  24.844  1.00  0.00     0.022 A 
BRANCH  44  47
ATOM     47  S   UNL A   1      50.310  25.604  27.073  1.00  0.00     0.127 S 
ATOM     48  O   UNL A   1      49.651  24.378  27.521  1.00  0.00    -0.237 OA
ATOM     49  O   UNL A   1      51.293  25.412  26.007  1.00  0.00    -0.237 OA
ATOM     50  O   UNL A   1      50.733  26.508  28.133  1.00  0.00    -0.744 OA
ENDBRANCH  44  47
ENDBRANCH  26  40
BRANCH  27  51
ATOM     51  C   UNL A   1      38.698  30.594  31.094  1.00  0.00     0.023 A 
ATOM     52  C   UNL A   1      38.614  30.348  32.478  1.00  0.00     0.012 A 
ATOM     53  C   UNL A   1      37.650  31.283  30.453  1.00  0.00     0.148 A 
ATOM     54  C   UNL A   1      37.492  30.749  33.204  1.00  0.00     0.002 A 
ATOM     55  C   UNL A   1      36.565  31.733  31.192  1.00  0.00     0.091 A 
ATOM     56  F   UNL A   1      37.746  31.499  29.134  1.00  0.00    -0.205 F 
ATOM     57  C   UNL A   1      36.473  31.450  32.564  1.00  0.00     0.022 A 
BRANCH  55  58
ATOM     58  S   UNL A   1      35.275  32.759  30.480  1.00  0.00     0.127 S 
ATOM     59  O   UNL A   1      34.325  32.856  31.587  1.00  0.00    -0.237 OA
ATOM     60  O   UNL A   1      36.002  33.993  30.181  1.00  0.00    -0.237 OA
ATOM     61  O   UNL A   1      34.803  32.041  29.305  1.00  0.00    -0.744 OA
ENDBRANCH  55  58
ENDBRANCH  27  51
BRANCH  39  62
ATOM     62  C   UNL A   1      44.800  33.600  29.552  1.00  0.00     0.023 A 
ATOM     63  C   UNL A   1      45.560  33.813  30.720  1.00  0.00     0.012 A 
ATOM     64  C   UNL A   1      44.619  34.661  28.642  1.00  0.00     0.148 A 
ATOM     65  C   UNL A   1      46.091  35.072  30.999  1.00  0.00     0.002 A 
ATOM     66  C   UNL A   1      45.199  35.897  28.899  1.00  0.00     0.091 A 
ATOM     67  F   UNL A   1      43.874  34.445  27.547  1.00  0.00    -0.205 F 
ATOM     68  C   UNL A   1      45.920  36.109  30.084  1.00  0.00     0.022 A 
BRANCH  66  69
ATOM     69  S   UNL A   1      45.115  37.256  27.729  1.00  0.00     0.127 S 
ATOM     70  O   UNL A   1      45.861  38.300  28.429  1.00  0.00    -0.237 OA
ATOM     71  O   UNL A   1      45.797  36.701  26.559  1.00  0.00    -0.237 OA
ATOM     72  O   UNL A   1      43.698  37.526  27.528  1.00  0.00    -0.744 OA
ENDBRANCH  66  69
ENDBRANCH  39  62
ENDBRANCH  13  14
ENDBRANCH   6   8
ENDBRANCH   3   4
ENDBRANCH   2   3
ENDBRANCH   1   2
BRANCH   1  73
ATOM     73  C   UNL A   1      33.265  21.490  25.567  1.00  0.00     0.002 C 
BRANCH  73  74
ATOM     74  C   UNL A   1      32.074  22.448  25.546  1.00  0.00     0.021 C 
BRANCH  74  75
ATOM     75  C   UNL A   1      32.036  23.439  26.712  1.00  0.00     0.116 C 
BRANCH  75  76
ATOM     76  N   UNL A   1      30.695  23.941  26.915  1.00  0.00    -0.356 N 
ATOM     77  C   UNL A   1      30.047  24.992  26.349  1.00  0.00     0.227 C 
ATOM     78  H   UNL A   1      30.163  23.437  27.574  1.00  0.00     0.163 HD
ATOM     79  O   UNL A   1      28.870  25.160  26.692  1.00  0.00    -0.274 OA
BRANCH  77  80
ATOM     80  C   UNL A   1      30.698  25.952  25.328  1.00  0.00     0.109 C 
BRANCH  80  81
ATOM     81  C   UNL A   1      29.701  26.536  24.289  1.00  0.00     0.027 C 
BRANCH  81  82
ATOM     82  C   UNL A   1      30.129  27.249  22.999  1.00  0.00     0.116 C 
BRANCH  82  83
ATOM     83  C   UNL A   1      30.675  28.663  23.062  1.00  0.00     0.389 C 
ATOM     84  F   UNL A   1      32.022  28.669  23.002  1.00  0.00    -0.171 F 
ATOM     85  F   UNL A   1      30.214  29.375  22.009  1.00  0.00    -0.171 F 
ATOM     86  F   UNL A   1      30.297  29.324  24.169  1.00  0.00    -0.171 F 
ENDBRANCH  82  83
ENDBRANCH  81  82
ENDBRANCH  80  81
BRANCH  80  87
ATOM     87  C   UNL A   1      31.843  26.807  25.863  1.00  0.00    -0.035 A 
ATOM     88  C   UNL A   1      31.624  27.707  26.922  1.00  0.00     0.006 A 
ATOM     89  C   UNL A   1      33.164  26.645  25.420  1.00  0.00     0.006 A 
ATOM     90  C   UNL A   1      32.663  28.493  27.433  1.00  0.00     0.021 A 
ATOM     91  C   UNL A   1      34.198  27.455  25.899  1.00  0.00     0.021 A 
ATOM     92  C   UNL A   1      33.941  28.385  26.897  1.00  0.00     0.041 A 
ATOM     93  Cl  UNL A   1      35.209  29.386  27.483  1.00  0.00    -0.084 Cl
ENDBRANCH  80  87
ENDBRANCH  77  80
ENDBRANCH  75  76
ENDBRANCH  74  75
ENDBRANCH  73  74
ENDBRANCH   1  73
TORSDOF 20
ENDMDL
MODEL 3
REMARK VINA RESULT:     -10.9      4.821      9.848
REMARK SMILES O=C(NCCCCCCNC(=O)[C@@H](CCC(F)(F)F)c1ccc(Cl)cc1)c1ccc(-c2c3nc(c(-c4cccc(S(=O)(=O)[O-])c4F)c4ccc([nH]4)c(-c4cccc(S(=O)(=O)[O-])c4F)c4nc(c(-c5cccc(S(=O)(=O)[O-])c5F)c5ccc2[nH]5)C=C4)C=C3)cc1
REMARK SMILES IDX 6 1 5 2 4 3 3 4 1 5 2 6 27 8 28 9 89 10 29 11 88 12 30 13
REMARK SMILES IDX 31 14 32 15 82 16 33 17 87 18 81 19 83 20 34 21 86 22 80 23
REMARK SMILES IDX 79 24 35 26 67 27 47 28 66 29 48 30 51 31 65 32 84 33 49 34
REMARK SMILES IDX 50 35 64 37 85 38 52 39 36 40 37 41 45 42 38 43 40 44 46 45
REMARK SMILES IDX 39 46 41 47 42 48 43 49 44 50 68 51 69 52 77 53 70 54 72 55
REMARK SMILES IDX 78 56 71 57 73 58 74 59 75 60 76 61 53 62 54 63 62 64 55 65
REMARK SMILES IDX 57 66 63 67 56 68 58 69 59 70 60 71 61 72 7 73 8 74 9 75
REMARK SMILES IDX 10 76 11 77 12 79 13 80 14 81 15 82 16 83 17 84 18 85 19 86
REMARK SMILES IDX 20 87 21 88 26 89 22 90 25 91 23 92 24 93
REMARK H PARENT 3 7 83 25 51 36 10 78
REMARK Flexibility Score: inf
ROOT
ATOM      1  C   UNL A   1      34.258  20.800  25.232  1.00  0.00     0.002 C 
ENDROOT
BRANCH   1   2
ATOM      2  C   UNL A   1      35.239  21.806  24.626  1.00  0.00     0.021 C 
BRANCH   2   3
ATOM      3  C   UNL A   1      36.422  22.159  25.522  1.00  0.00     0.116 C 
BRANCH   3   4
ATOM      4  N   UNL A   1      37.393  21.078  25.604  1.00  0.00    -0.352 N 
ATOM      5  O   UNL A   1      39.434  20.130  25.707  1.00  0.00    -0.269 OA
ATOM      6  C   UNL A   1      38.733  21.120  25.903  1.00  0.00     0.251 C 
ATOM      7  H   UNL A   1      37.035  20.180  25.417  1.00  0.00     0.163 HD
BRANCH   6   8
ATOM      8  C   UNL A   1      39.325  22.365  26.438  1.00  0.00     0.039 A 
ATOM      9  C   UNL A   1      38.837  23.607  26.030  1.00  0.00     0.014 A 
ATOM     10  C   UNL A   1      40.385  22.291  27.345  1.00  0.00     0.014 A 
ATOM     11  C   UNL A   1      39.523  24.763  26.378  1.00  0.00     0.010 A 
ATOM     12  C   UNL A   1      41.006  23.467  27.781  1.00  0.00     0.010 A 
ATOM     13  C   UNL A   1      40.612  24.710  27.263  1.00  0.00    -0.014 A 
BRANCH  13  14
ATOM     14  C   UNL A   1      41.289  25.976  27.650  1.00  0.00     0.031 A 
ATOM     15  C   UNL A   1      42.698  26.277  27.209  1.00  0.00     0.074 A 
ATOM     16  C   UNL A   1      40.607  26.875  28.388  1.00  0.00     0.049 A 
ATOM     17  N   UNL A   1      43.408  27.358  27.412  1.00  0.00    -0.248 NA
ATOM     18  C   UNL A   1      43.407  25.232  26.454  1.00  0.00     0.031 C 
ATOM     19  C   UNL A   1      39.251  26.681  28.909  1.00  0.00     0.029 A 
ATOM     20  N   UNL A   1      40.950  28.129  28.823  1.00  0.00    -0.354 N 
ATOM     21  C   UNL A   1      44.656  27.109  26.855  1.00  0.00     0.074 A 
ATOM     22  C   UNL A   1      44.611  25.769  26.311  1.00  0.00     0.031 C 
ATOM     23  C   UNL A   1      38.862  27.788  29.555  1.00  0.00     0.029 A 
ATOM     24  C   UNL A   1      39.960  28.748  29.549  1.00  0.00     0.049 A 
ATOM     25  H   UNL A   1      41.822  28.546  28.633  1.00  0.00     0.167 HD
ATOM     26  C   UNL A   1      45.737  27.925  26.793  1.00  0.00     0.034 A 
ATOM     27  C   UNL A   1      39.939  29.949  30.157  1.00  0.00     0.034 A 
ATOM     28  C   UNL A   1      45.764  29.269  27.307  1.00  0.00     0.049 A 
ATOM     29  C   UNL A   1      41.142  30.839  30.048  1.00  0.00     0.074 A 
ATOM     30  C   UNL A   1      46.786  30.200  27.229  1.00  0.00     0.029 A 
ATOM     31  N   UNL A   1      44.729  29.873  28.005  1.00  0.00    -0.354 N 
ATOM     32  N   UNL A   1      42.266  30.632  29.407  1.00  0.00    -0.248 NA
ATOM     33  C   UNL A   1      41.063  32.142  30.720  1.00  0.00     0.031 C 
ATOM     34  C   UNL A   1      46.384  31.352  27.914  1.00  0.00     0.029 A 
ATOM     35  C   UNL A   1      45.093  31.157  28.377  1.00  0.00     0.049 A 
ATOM     36  H   UNL A   1      43.863  29.451  28.207  1.00  0.00     0.167 HD
ATOM     37  C   UNL A   1      43.012  31.794  29.563  1.00  0.00     0.074 A 
ATOM     38  C   UNL A   1      42.201  32.708  30.342  1.00  0.00     0.031 C 
ATOM     39  C   UNL A   1      44.259  32.075  29.109  1.00  0.00     0.034 A 
BRANCH  26  40
ATOM     40  C   UNL A   1      46.986  27.395  26.131  1.00  0.00     0.023 A 
ATOM     41  C   UNL A   1      47.218  27.644  24.763  1.00  0.00     0.012 A 
ATOM     42  C   UNL A   1      47.961  26.708  26.882  1.00  0.00     0.148 A 
ATOM     43  C   UNL A   1      48.383  27.186  24.145  1.00  0.00     0.002 A 
ATOM     44  C   UNL A   1      49.140  26.297  26.270  1.00  0.00     0.091 A 
ATOM     45  F   UNL A   1      47.716  26.465  28.177  1.00  0.00    -0.205 F 
ATOM     46  C   UNL A   1      49.347  26.522  24.900  1.00  0.00     0.022 A 
BRANCH  44  47
ATOM     47  S   UNL A   1      50.478  25.511  27.176  1.00  0.00     0.127 S 
ATOM     48  O   UNL A   1      49.823  24.307  27.685  1.00  0.00    -0.237 OA
ATOM     49  O   UNL A   1      51.463  25.269  26.122  1.00  0.00    -0.237 OA
ATOM     50  O   UNL A   1      50.896  26.470  28.189  1.00  0.00    -0.744 OA
ENDBRANCH  44  47
ENDBRANCH  26  40
BRANCH  27  51
ATOM     51  C   UNL A   1      38.715  30.394  30.880  1.00  0.00     0.023 A 
ATOM     52  C   UNL A   1      38.599  30.156  32.263  1.00  0.00     0.012 A 
ATOM     53  C   UNL A   1      37.679  31.074  30.210  1.00  0.00     0.148 A 
ATOM     54  C   UNL A   1      37.458  30.555  32.959  1.00  0.00     0.002 A 
ATOM     55  C   UNL A   1      36.574  31.523  30.921  1.00  0.00     0.091 A 
ATOM     56  F   UNL A   1      37.805  31.283  28.892  1.00  0.00    -0.205 F 
ATOM     57  C   UNL A   1      36.451  31.247  32.292  1.00  0.00     0.022 A 
BRANCH  55  58
ATOM     58  S   UNL A   1      35.296  32.539  30.173  1.00  0.00     0.127 S 
ATOM     59  O   UNL A   1      34.834  31.682  29.083  1.00  0.00    -0.237 OA
ATOM     60  O   UNL A   1      34.351  32.696  31.278  1.00  0.00    -0.237 OA
ATOM     61  O   UNL A   1      35.958  33.771  29.770  1.00  0.00    -0.744 OA
ENDBRANCH  55  58
ENDBRANCH  27  51
BRANCH  39  62
ATOM     62  C   UNL A   1      44.804  33.452  29.391  1.00  0.00     0.023 A 
ATOM     63  C   UNL A   1      45.525  33.702  30.576  1.00  0.00     0.012 A 
ATOM     64  C   UNL A   1      44.640  34.487  28.450  1.00  0.00     0.148 A 
ATOM     65  C   UNL A   1      46.034  34.973  30.839  1.00  0.00     0.002 A 
ATOM     66  C   UNL A   1      45.199  35.735  28.693  1.00  0.00     0.091 A 
ATOM     67  F   UNL A   1      43.933  34.236  27.338  1.00  0.00    -0.205 F 
ATOM     68  C   UNL A   1      45.881  35.985  29.895  1.00  0.00     0.022 A 
BRANCH  66  69
ATOM     69  S   UNL A   1      45.138  37.064  27.488  1.00  0.00     0.127 S 
ATOM     70  O   UNL A   1      43.701  37.182  27.244  1.00  0.00    -0.237 OA
ATOM     71  O   UNL A   1      45.724  38.182  28.227  1.00  0.00    -0.237 OA
ATOM     72  O   UNL A   1      45.931  36.613  26.352  1.00  0.00    -0.744 OA
ENDBRANCH  66  69
ENDBRANCH  39  62
ENDBRANCH  13  14
ENDBRANCH   6   8
ENDBRANCH   3   4
ENDBRANCH   2   3
ENDBRANCH   1   2
BRANCH   1  73
ATOM     73  C   UNL A   1      33.659  21.203  26.581  1.00  0.00     0.002 C 
BRANCH  73  74
ATOM     74  C   UNL A   1      32.366  22.013  26.494  1.00  0.00     0.021 C 
BRANCH  74  75
ATOM     75  C   UNL A   1      32.568  23.531  26.472  1.00  0.00     0.116 C 
BRANCH  75  76
ATOM     76  N   UNL A   1      31.344  24.216  26.821  1.00  0.00    -0.356 N 
ATOM     77  C   UNL A   1      30.515  24.989  26.072  1.00  0.00     0.227 C 
ATOM     78  H   UNL A   1      31.063  24.104  27.759  1.00  0.00     0.163 HD
ATOM     79  O   UNL A   1      29.502  25.416  26.638  1.00  0.00    -0.274 OA
BRANCH  77  80
ATOM     80  C   UNL A   1      30.780  25.342  24.591  1.00  0.00     0.109 C 
BRANCH  80  81
ATOM     81  C   UNL A   1      30.595  24.145  23.616  1.00  0.00     0.027 C 
BRANCH  81  82
ATOM     82  C   UNL A   1      31.754  23.307  23.060  1.00  0.00     0.116 C 
BRANCH  82  83
ATOM     83  C   UNL A   1      32.872  23.982  22.287  1.00  0.00     0.389 C 
ATOM     84  F   UNL A   1      32.425  25.075  21.636  1.00  0.00    -0.171 F 
ATOM     85  F   UNL A   1      33.839  24.383  23.145  1.00  0.00    -0.171 F 
ATOM     86  F   UNL A   1      33.461  23.168  21.395  1.00  0.00    -0.171 F 
ENDBRANCH  82  83
ENDBRANCH  81  82
ENDBRANCH  80  81
BRANCH  80  87
ATOM     87  C   UNL A   1      30.379  26.751  24.166  1.00  0.00    -0.035 A 
ATOM     88  C   UNL A   1      31.277  27.823  24.319  1.00  0.00     0.006 A 
ATOM     89  C   UNL A   1      29.173  27.014  23.499  1.00  0.00     0.006 A 
ATOM     90  C   UNL A   1      30.932  29.121  23.926  1.00  0.00     0.021 A 
ATOM     91  C   UNL A   1      28.806  28.314  23.141  1.00  0.00     0.021 A 
ATOM     92  C   UNL A   1      29.683  29.366  23.366  1.00  0.00     0.041 A 
ATOM     93  Cl  UNL A   1      29.233  30.967  22.932  1.00  0.00    -0.084 Cl
ENDBRANCH  80  87
ENDBRANCH  77  80
ENDBRANCH  75  76
ENDBRANCH  74  75
ENDBRANCH  73  74
ENDBRANCH   1  73
TORSDOF 20
ENDMDL
