MODEL 1
REMARK VINA RESULT:     -13.2      0.000      0.000
REMARK SMILES COc1ccc(-c2cc(CC3(C(=O)NCCCCCCNC(=O)c4ccc(-c5c6nc(c(-c7cccc(S(=O)(=O)[O-])c7F)c7ccc([nH]7)c(-c7cccc(S(=O)(=O)[O-])c7F)c7nc(c(-c8cccc(S(=O)(=O)[O-])c8F)c8ccc5[nH]8)C=C7)C=C6)cc4)CCN(C(=O)C4CCCC4)CC3)on2)cc1
REMARK SMILES IDX 17 1 16 2 15 3 14 4 12 5 13 6 11 8 87 9 98 10 88 11 97 12
REMARK SMILES IDX 89 13 90 14 91 15 10 16 9 17 7 18 8 19 100 20 99 21 6 22
REMARK SMILES IDX 3 23 4 24 102 25 5 26 101 27 2 28 1 29 92 30 93 31 96 32
REMARK SMILES IDX 94 33 95 34 18 35 19 36 20 37 21 38 22 39 23 41 24 42 25 43
REMARK SMILES IDX 86 44 26 45 85 46 27 47 28 48 29 49 79 50 30 51 84 52 78 53
REMARK SMILES IDX 80 54 31 55 83 56 77 57 76 58 32 60 64 61 44 62 63 63 45 64
REMARK SMILES IDX 48 65 62 66 81 67 46 68 47 69 61 71 82 72 49 73 33 74 34 75
REMARK SMILES IDX 42 76 35 77 37 78 43 79 36 80 38 81 39 82 40 83 41 84 65 85
REMARK SMILES IDX 66 86 74 87 67 88 69 89 75 90 68 91 70 92 71 93 72 94 73 95
REMARK SMILES IDX 50 96 51 97 59 98 52 99 54 100 60 101 53 102 55 103 56 104
REMARK SMILES IDX 57 105 58 106
REMARK H PARENT 14 7 21 40 80 59 48 70
REMARK Flexibility Score: inf
ROOT
ATOM      1  C   UNL A   1      37.246  22.219  24.671  1.00  0.00     0.002 C 
ENDROOT
BRANCH   1   2
ATOM      2  C   UNL A   1      36.897  22.675  23.250  1.00  0.00     0.021 C 
BRANCH   2   3
ATOM      3  C   UNL A   1      35.516  23.311  23.127  1.00  0.00     0.116 C 
BRANCH   3   4
ATOM      4  N   UNL A   1      35.335  24.374  24.108  1.00  0.00    -0.356 N 
ATOM      5  C   UNL A   1      34.347  24.615  25.016  1.00  0.00     0.226 C 
ATOM      6  O   UNL A   1      34.481  25.622  25.719  1.00  0.00    -0.274 OA
ATOM      7  H   UNL A   1      36.059  25.041  24.116  1.00  0.00     0.163 HD
BRANCH   5   8
ATOM      8  C   UNL A   1      33.135  23.663  25.184  1.00  0.00     0.060 C 
ATOM      9  C   UNL A   1      32.685  23.187  23.779  1.00  0.00     0.039 C 
ATOM     10  C   UNL A   1      33.582  22.528  26.139  1.00  0.00     0.039 C 
ATOM     11  C   UNL A   1      32.080  21.790  23.703  1.00  0.00     0.120 C 
ATOM     12  C   UNL A   1      32.881  21.194  25.951  1.00  0.00     0.120 C 
ATOM     13  N   UNL A   1      32.727  20.805  24.561  1.00  0.00    -0.342 N 
ATOM     14  C   UNL A   1      32.722  19.485  24.108  1.00  0.00     0.225 C 
ATOM     15  O   UNL A   1      32.217  19.194  23.018  1.00  0.00    -0.275 OA
BRANCH   8  16
ATOM     16  C   UNL A   1      31.993  24.511  25.847  1.00  0.00     0.095 C 
BRANCH  16  17
ATOM     17  C   UNL A   1      31.162  25.282  24.888  1.00  0.00     0.138 A 
ATOM     18  C   UNL A   1      29.978  26.714  23.708  1.00  0.00     0.114 A 
ATOM     19  C   UNL A   1      31.179  26.580  24.446  1.00  0.00     0.077 A 
ATOM     20  N   UNL A   1      29.351  25.536  23.599  1.00  0.00    -0.080 NA
ATOM     21  O   UNL A   1      30.111  24.634  24.322  1.00  0.00    -0.361 OA
BRANCH  18  22
ATOM     22  C   UNL A   1      29.440  27.930  23.133  1.00  0.00     0.004 A 
ATOM     23  C   UNL A   1      28.451  30.326  22.072  1.00  0.00     0.118 A 
ATOM     24  C   UNL A   1      27.595  29.447  22.741  1.00  0.00     0.047 A 
ATOM     25  C   UNL A   1      29.806  30.011  21.952  1.00  0.00     0.047 A 
ATOM     26  C   UNL A   1      28.082  28.244  23.262  1.00  0.00     0.014 A 
ATOM     27  C   UNL A   1      30.299  28.817  22.482  1.00  0.00     0.014 A 
BRANCH  23  28
ATOM     28  O   UNL A   1      27.872  31.477  21.613  1.00  0.00    -0.497 OA
ATOM     29  C   UNL A   1      28.518  32.684  22.006  1.00  0.00     0.278 C 
ENDBRANCH  23  28
ENDBRANCH  18  22
ENDBRANCH  16  17
ENDBRANCH   8  16
BRANCH  14  30
ATOM     30  C   UNL A   1      33.351  18.362  24.930  1.00  0.00     0.078 C 
ATOM     31  C   UNL A   1      32.408  17.201  25.226  1.00  0.00     0.013 C 
ATOM     32  C   UNL A   1      34.632  17.762  24.354  1.00  0.00     0.013 C 
ATOM     33  C   UNL A   1      33.321  16.013  25.480  1.00  0.00     0.001 C 
ATOM     34  C   UNL A   1      34.618  16.283  24.726  1.00  0.00     0.001 C 
ENDBRANCH  14  30
ENDBRANCH   5   8
ENDBRANCH   3   4
ENDBRANCH   2   3
ENDBRANCH   1   2
BRANCH   1  35
ATOM     35  C   UNL A   1      36.851  20.776  25.005  1.00  0.00     0.002 C 
BRANCH  35  36
ATOM     36  C   UNL A   1      38.006  19.772  25.021  1.00  0.00     0.021 C 
BRANCH  36  37
ATOM     37  C   UNL A   1      39.269  20.263  25.722  1.00  0.00     0.116 C 
BRANCH  37  38
ATOM     38  N   UNL A   1      40.248  19.201  25.895  1.00  0.00    -0.352 N 
ATOM     39  C   UNL A   1      41.599  19.294  26.113  1.00  0.00     0.251 C 
ATOM     40  H   UNL A   1      39.889  18.285  25.849  1.00  0.00     0.163 HD
ATOM     41  O   UNL A   1      42.301  18.286  26.047  1.00  0.00    -0.269 OA
BRANCH  39  42
ATOM     42  C   UNL A   1      42.211  20.606  26.407  1.00  0.00     0.039 A 
ATOM     43  C   UNL A   1      42.678  21.387  25.348  1.00  0.00     0.014 A 
ATOM     44  C   UNL A   1      42.323  21.067  27.722  1.00  0.00     0.014 A 
ATOM     45  C   UNL A   1      43.207  22.655  25.604  1.00  0.00     0.010 A 
ATOM     46  C   UNL A   1      42.777  22.359  27.968  1.00  0.00     0.010 A 
ATOM     47  C   UNL A   1      43.231  23.165  26.913  1.00  0.00    -0.014 A 
BRANCH  47  48
ATOM     48  C   UNL A   1      43.714  24.542  27.193  1.00  0.00     0.031 A 
ATOM     49  C   UNL A   1      42.759  25.599  27.682  1.00  0.00     0.074 A 
ATOM     50  C   UNL A   1      44.997  24.861  26.932  1.00  0.00     0.049 A 
ATOM     51  N   UNL A   1      42.988  26.862  27.932  1.00  0.00    -0.248 NA
ATOM     52  C   UNL A   1      41.361  25.190  27.892  1.00  0.00     0.031 C 
ATOM     53  C   UNL A   1      46.000  23.948  26.382  1.00  0.00     0.029 A 
ATOM     54  N   UNL A   1      45.670  26.051  27.067  1.00  0.00    -0.354 N 
ATOM     55  C   UNL A   1      41.762  27.405  28.298  1.00  0.00     0.074 A 
ATOM     56  C   UNL A   1      40.785  26.344  28.199  1.00  0.00     0.031 C 
ATOM     57  C   UNL A   1      47.159  24.608  26.229  1.00  0.00     0.029 A 
ATOM     58  C   UNL A   1      46.975  25.997  26.636  1.00  0.00     0.049 A 
ATOM     59  H   UNL A   1      45.258  26.864  27.437  1.00  0.00     0.167 HD
ATOM     60  C   UNL A   1      41.478  28.666  28.706  1.00  0.00     0.034 A 
ATOM     61  C   UNL A   1      47.914  26.961  26.561  1.00  0.00     0.034 A 
ATOM     62  C   UNL A   1      42.457  29.711  28.829  1.00  0.00     0.049 A 
ATOM     63  C   UNL A   1      47.581  28.346  27.044  1.00  0.00     0.074 A 
ATOM     64  C   UNL A   1      42.286  30.997  29.309  1.00  0.00     0.029 A 
ATOM     65  N   UNL A   1      43.787  29.599  28.456  1.00  0.00    -0.354 N 
ATOM     66  N   UNL A   1      46.453  28.800  27.533  1.00  0.00    -0.248 NA
ATOM     67  C   UNL A   1      48.660  29.343  27.000  1.00  0.00     0.031 C 
ATOM     68  C   UNL A   1      43.505  31.674  29.195  1.00  0.00     0.029 A 
ATOM     69  C   UNL A   1      44.447  30.795  28.683  1.00  0.00     0.049 A 
ATOM     70  H   UNL A   1      44.203  28.787  28.085  1.00  0.00     0.167 HD
ATOM     71  C   UNL A   1      46.695  30.122  27.887  1.00  0.00     0.074 A 
ATOM     72  C   UNL A   1      48.084  30.389  27.576  1.00  0.00     0.031 C 
ATOM     73  C   UNL A   1      45.841  31.037  28.413  1.00  0.00     0.034 A 
BRANCH  60  74
ATOM     74  C   UNL A   1      40.053  28.971  29.092  1.00  0.00     0.023 A 
ATOM     75  C   UNL A   1      39.087  29.186  28.085  1.00  0.00     0.012 A 
ATOM     76  C   UNL A   1      39.655  28.996  30.443  1.00  0.00     0.148 A 
ATOM     77  C   UNL A   1      37.762  29.460  28.417  1.00  0.00     0.002 A 
ATOM     78  C   UNL A   1      38.322  29.221  30.764  1.00  0.00     0.091 A 
ATOM     79  F   UNL A   1      40.588  28.808  31.388  1.00  0.00    -0.205 F 
ATOM     80  C   UNL A   1      37.378  29.468  29.755  1.00  0.00     0.022 A 
BRANCH  78  81
ATOM     81  S   UNL A   1      37.708  29.167  32.451  1.00  0.00     0.127 S 
ATOM     82  O   UNL A   1      38.629  30.078  33.130  1.00  0.00    -0.237 OA
ATOM     83  O   UNL A   1      36.346  29.680  32.299  1.00  0.00    -0.237 OA
ATOM     84  O   UNL A   1      37.790  27.774  32.866  1.00  0.00    -0.744 OA
ENDBRANCH  78  81
ENDBRANCH  60  74
BRANCH  61  85
ATOM     85  C   UNL A   1      49.276  26.632  26.053  1.00  0.00     0.023 A 
ATOM     86  C   UNL A   1      50.133  25.827  26.829  1.00  0.00     0.012 A 
ATOM     87  C   UNL A   1      49.718  27.089  24.796  1.00  0.00     0.148 A 
ATOM     88  C   UNL A   1      51.415  25.511  26.379  1.00  0.00     0.002 A 
ATOM     89  C   UNL A   1      50.973  26.723  24.327  1.00  0.00     0.091 A 
ATOM     90  F   UNL A   1      48.891  27.861  24.076  1.00  0.00    -0.205 F 
ATOM     91  C   UNL A   1      51.831  25.950  25.124  1.00  0.00     0.022 A 
BRANCH  89  92
ATOM     92  S   UNL A   1      51.539  27.126  22.670  1.00  0.00     0.127 S 
ATOM     93  O   UNL A   1      50.407  26.697  21.853  1.00  0.00    -0.237 OA
ATOM     94  O   UNL A   1      51.722  28.575  22.759  1.00  0.00    -0.237 OA
ATOM     95  O   UNL A   1      52.775  26.377  22.481  1.00  0.00    -0.744 OA
ENDBRANCH  89  92
ENDBRANCH  61  85
BRANCH  73  96
ATOM     96  C   UNL A   1      46.388  32.405  28.729  1.00  0.00     0.023 A 
ATOM     97  C   UNL A   1      46.893  32.683  30.015  1.00  0.00     0.012 A 
ATOM     98  C   UNL A   1      46.467  33.392  27.728  1.00  0.00     0.148 A 
ATOM     99  C   UNL A   1      47.434  33.934  30.308  1.00  0.00     0.002 A 
ATOM    100  C   UNL A   1      47.055  34.618  28.011  1.00  0.00     0.091 A 
ATOM    101  F   UNL A   1      45.965  33.114  26.515  1.00  0.00    -0.205 F 
ATOM    102  C   UNL A   1      47.527  34.897  29.305  1.00  0.00     0.022 A 
BRANCH 100 103
ATOM    103  S   UNL A   1      47.307  35.881  26.758  1.00  0.00     0.127 S 
ATOM    104  O   UNL A   1      45.985  36.502  26.693  1.00  0.00    -0.237 OA
ATOM    105  O   UNL A   1      48.344  36.716  27.366  1.00  0.00    -0.237 OA
ATOM    106  O   UNL A   1      47.726  35.177  25.554  1.00  0.00    -0.744 OA
ENDBRANCH 100 103
ENDBRANCH  73  96
ENDBRANCH  47  48
ENDBRANCH  39  42
ENDBRANCH  37  38
ENDBRANCH  36  37
ENDBRANCH  35  36
ENDBRANCH   1  35
TORSDOF 21
ENDMDL
MODEL 2
REMARK VINA RESULT:     -13.0      2.187      9.249
REMARK SMILES COc1ccc(-c2cc(CC3(C(=O)NCCCCCCNC(=O)c4ccc(-c5c6nc(c(-c7cccc(S(=O)(=O)[O-])c7F)c7ccc([nH]7)c(-c7cccc(S(=O)(=O)[O-])c7F)c7nc(c(-c8cccc(S(=O)(=O)[O-])c8F)c8ccc5[nH]8)C=C7)C=C6)cc4)CCN(C(=O)C4CCCC4)CC3)on2)cc1
REMARK SMILES IDX 17 1 16 2 15 3 14 4 12 5 13 6 11 8 87 9 98 10 88 11 97 12
REMARK SMILES IDX 89 13 90 14 91 15 10 16 9 17 7 18 8 19 100 20 99 21 6 22
REMARK SMILES IDX 3 23 4 24 102 25 5 26 101 27 2 28 1 29 92 30 93 31 96 32
REMARK SMILES IDX 94 33 95 34 18 35 19 36 20 37 21 38 22 39 23 41 24 42 25 43
REMARK SMILES IDX 86 44 26 45 85 46 27 47 28 48 29 49 79 50 30 51 84 52 78 53
REMARK SMILES IDX 80 54 31 55 83 56 77 57 76 58 32 60 64 61 44 62 63 63 45 64
REMARK SMILES IDX 48 65 62 66 81 67 46 68 47 69 61 71 82 72 49 73 33 74 34 75
REMARK SMILES IDX 42 76 35 77 37 78 43 79 36 80 38 81 39 82 40 83 41 84 65 85
REMARK SMILES IDX 66 86 74 87 67 88 69 89 75 90 68 91 70 92 71 93 72 94 73 95
REMARK SMILES IDX 50 96 51 97 59 98 52 99 54 100 60 101 53 102 55 103 56 104
REMARK SMILES IDX 57 105 58 106
REMARK H PARENT 14 7 21 40 80 59 48 70
REMARK Flexibility Score: inf
ROOT
ATOM      1  C   UNL A   1      35.689  23.778  25.755  1.00  0.00     0.002 C 
ENDROOT
BRANCH   1   2
ATOM      2  C   UNL A   1      35.193  24.367  24.430  1.00  0.00     0.021 C 
BRANCH   2   3
ATOM      3  C   UNL A   1      34.324  25.610  24.594  1.00  0.00     0.116 C 
BRANCH   3   4
ATOM      4  N   UNL A   1      33.291  25.403  25.601  1.00  0.00    -0.356 N 
ATOM      5  C   UNL A   1      31.930  25.429  25.526  1.00  0.00     0.226 C 
ATOM      6  O   UNL A   1      31.317  25.212  26.576  1.00  0.00    -0.274 OA
ATOM      7  H   UNL A   1      33.640  25.209  26.501  1.00  0.00     0.163 HD
BRANCH   5   8
ATOM      8  C   UNL A   1      31.185  25.683  24.190  1.00  0.00     0.060 C 
ATOM      9  C   UNL A   1      29.660  25.593  24.452  1.00  0.00     0.039 C 
ATOM     10  C   UNL A   1      31.671  27.054  23.656  1.00  0.00     0.039 C 
ATOM     11  C   UNL A   1      28.774  26.474  23.578  1.00  0.00     0.120 C 
ATOM     12  C   UNL A   1      30.681  27.812  22.789  1.00  0.00     0.120 C 
ATOM     13  N   UNL A   1      29.322  27.796  23.301  1.00  0.00    -0.342 N 
ATOM     14  C   UNL A   1      28.400  28.827  23.123  1.00  0.00     0.225 C 
ATOM     15  O   UNL A   1      27.187  28.616  23.230  1.00  0.00    -0.275 OA
BRANCH   8  16
ATOM     16  C   UNL A   1      31.623  24.536  23.212  1.00  0.00     0.095 C 
BRANCH  16  17
ATOM     17  C   UNL A   1      31.796  23.210  23.856  1.00  0.00     0.138 A 
ATOM     18  C   UNL A   1      32.084  21.111  24.456  1.00  0.00     0.114 A 
ATOM     19  C   UNL A   1      32.564  22.108  23.573  1.00  0.00     0.077 A 
ATOM     20  N   UNL A   1      31.184  21.620  25.307  1.00  0.00    -0.080 NA
ATOM     21  O   UNL A   1      31.023  22.944  24.941  1.00  0.00    -0.361 OA
BRANCH  18  22
ATOM     22  C   UNL A   1      32.465  19.714  24.481  1.00  0.00     0.004 A 
ATOM     23  C   UNL A   1      33.128  16.993  24.497  1.00  0.00     0.118 A 
ATOM     24  C   UNL A   1      33.072  17.710  25.695  1.00  0.00     0.047 A 
ATOM     25  C   UNL A   1      32.834  17.637  23.294  1.00  0.00     0.047 A 
ATOM     26  C   UNL A   1      32.753  19.071  25.691  1.00  0.00     0.014 A 
ATOM     27  C   UNL A   1      32.502  18.994  23.286  1.00  0.00     0.014 A 
BRANCH  23  28
ATOM     28  O   UNL A   1      33.438  15.666  24.618  1.00  0.00    -0.497 OA
ATOM     29  C   UNL A   1      32.599  14.920  25.494  1.00  0.00     0.278 C 
ENDBRANCH  23  28
ENDBRANCH  18  22
ENDBRANCH  16  17
ENDBRANCH   8  16
BRANCH  14  30
ATOM     30  C   UNL A   1      28.854  30.251  22.807  1.00  0.00     0.078 C 
ATOM     31  C   UNL A   1      28.482  30.730  21.408  1.00  0.00     0.013 C 
ATOM     32  C   UNL A   1      28.385  31.325  23.788  1.00  0.00     0.013 C 
ATOM     33  C   UNL A   1      28.462  32.246  21.508  1.00  0.00     0.001 C 
ATOM     34  C   UNL A   1      28.162  32.589  22.963  1.00  0.00     0.001 C 
ENDBRANCH  14  30
ENDBRANCH   5   8
ENDBRANCH   3   4
ENDBRANCH   2   3
ENDBRANCH   1   2
BRANCH   1  35
ATOM     35  C   UNL A   1      35.308  22.312  25.996  1.00  0.00     0.002 C 
BRANCH  35  36
ATOM     36  C   UNL A   1      35.881  21.316  24.985  1.00  0.00     0.021 C 
BRANCH  36  37
ATOM     37  C   UNL A   1      37.356  21.517  24.656  1.00  0.00     0.116 C 
BRANCH  37  38
ATOM     38  N   UNL A   1      38.192  20.468  25.220  1.00  0.00    -0.352 N 
ATOM     39  C   UNL A   1      39.372  20.576  25.911  1.00  0.00     0.251 C 
ATOM     40  H   UNL A   1      37.863  19.549  25.086  1.00  0.00     0.163 HD
ATOM     41  O   UNL A   1      40.037  19.569  26.149  1.00  0.00    -0.269 OA
BRANCH  39  42
ATOM     42  C   UNL A   1      39.850  21.903  26.352  1.00  0.00     0.039 A 
ATOM     43  C   UNL A   1      41.010  21.981  27.128  1.00  0.00     0.014 A 
ATOM     44  C   UNL A   1      39.160  23.067  26.002  1.00  0.00     0.014 A 
ATOM     45  C   UNL A   1      41.507  23.231  27.504  1.00  0.00     0.010 A 
ATOM     46  C   UNL A   1      39.699  24.312  26.311  1.00  0.00     0.010 A 
ATOM     47  C   UNL A   1      40.875  24.408  27.071  1.00  0.00    -0.014 A 
BRANCH  47  48
ATOM     48  C   UNL A   1      41.436  25.746  27.393  1.00  0.00     0.031 A 
ATOM     49  C   UNL A   1      42.854  26.087  27.022  1.00  0.00     0.074 A 
ATOM     50  C   UNL A   1      40.692  26.627  28.092  1.00  0.00     0.049 A 
ATOM     51  N   UNL A   1      43.528  27.181  27.264  1.00  0.00    -0.248 NA
ATOM     52  C   UNL A   1      43.624  25.054  26.309  1.00  0.00     0.031 C 
ATOM     53  C   UNL A   1      39.332  26.386  28.578  1.00  0.00     0.029 A 
ATOM     54  N   UNL A   1      40.985  27.892  28.539  1.00  0.00    -0.354 N 
ATOM     55  C   UNL A   1      44.805  26.959  26.763  1.00  0.00     0.074 A 
ATOM     56  C   UNL A   1      44.824  25.612  26.239  1.00  0.00     0.031 C 
ATOM     57  C   UNL A   1      38.908  27.467  29.253  1.00  0.00     0.029 A 
ATOM     58  C   UNL A   1      39.975  28.463  29.278  1.00  0.00     0.049 A 
ATOM     59  H   UNL A   1      41.837  28.346  28.349  1.00  0.00     0.167 HD
ATOM     60  C   UNL A   1      45.861  27.808  26.718  1.00  0.00     0.034 A 
ATOM     61  C   UNL A   1      39.918  29.647  29.918  1.00  0.00     0.034 A 
ATOM     62  C   UNL A   1      45.830  29.157  27.215  1.00  0.00     0.049 A 
ATOM     63  C   UNL A   1      41.093  30.582  29.830  1.00  0.00     0.074 A 
ATOM     64  C   UNL A   1      46.818  30.122  27.145  1.00  0.00     0.029 A 
ATOM     65  N   UNL A   1      44.762  29.728  27.890  1.00  0.00    -0.354 N 
ATOM     66  N   UNL A   1      42.239  30.413  29.217  1.00  0.00    -0.248 NA
ATOM     67  C   UNL A   1      40.955  31.888  30.492  1.00  0.00     0.031 C 
ATOM     68  C   UNL A   1      46.361  31.267  27.806  1.00  0.00     0.029 A 
ATOM     69  C   UNL A   1      45.071  31.029  28.252  1.00  0.00     0.049 A 
ATOM     70  H   UNL A   1      43.909  29.276  28.083  1.00  0.00     0.167 HD
ATOM     71  C   UNL A   1      42.943  31.599  29.387  1.00  0.00     0.074 A 
ATOM     72  C   UNL A   1      42.085  32.487  30.144  1.00  0.00     0.031 C 
ATOM     73  C   UNL A   1      44.192  31.920  28.965  1.00  0.00     0.034 A 
BRANCH  60  74
ATOM     74  C   UNL A   1      47.128  27.315  26.066  1.00  0.00     0.023 A 
ATOM     75  C   UNL A   1      47.353  27.569  24.697  1.00  0.00     0.012 A 
ATOM     76  C   UNL A   1      48.117  26.648  26.814  1.00  0.00     0.148 A 
ATOM     77  C   UNL A   1      48.521  27.131  24.074  1.00  0.00     0.002 A 
ATOM     78  C   UNL A   1      49.300  26.258  26.198  1.00  0.00     0.091 A 
ATOM     79  F   UNL A   1      47.880  26.398  28.110  1.00  0.00    -0.205 F 
ATOM     80  C   UNL A   1      49.498  26.486  24.827  1.00  0.00     0.022 A 
BRANCH  78  81
ATOM     81  S   UNL A   1      50.657  25.495  27.096  1.00  0.00     0.127 S 
ATOM     82  O   UNL A   1      51.644  25.308  26.033  1.00  0.00    -0.237 OA
ATOM     83  O   UNL A   1      51.001  26.530  28.070  1.00  0.00    -0.237 OA
ATOM     84  O   UNL A   1      50.121  24.271  27.672  1.00  0.00    -0.744 OA
ENDBRANCH  78  81
ENDBRANCH  60  74
BRANCH  61  85
ATOM     85  C   UNL A   1      38.682  30.035  30.654  1.00  0.00     0.023 A 
ATOM     86  C   UNL A   1      38.507  29.623  31.988  1.00  0.00     0.012 A 
ATOM     87  C   UNL A   1      37.691  30.833  30.047  1.00  0.00     0.148 A 
ATOM     88  C   UNL A   1      37.355  29.967  32.695  1.00  0.00     0.002 A 
ATOM     89  C   UNL A   1      36.574  31.222  30.774  1.00  0.00     0.091 A 
ATOM     90  F   UNL A   1      37.872  31.209  28.773  1.00  0.00    -0.205 F 
ATOM     91  C   UNL A   1      36.393  30.775  32.093  1.00  0.00     0.022 A 
BRANCH  89  92
ATOM     92  S   UNL A   1      35.353  32.371  30.128  1.00  0.00     0.127 S 
ATOM     93  O   UNL A   1      34.868  31.660  28.947  1.00  0.00    -0.237 OA
ATOM     94  O   UNL A   1      34.400  32.451  31.234  1.00  0.00    -0.237 OA
ATOM     95  O   UNL A   1      36.074  33.610  29.866  1.00  0.00    -0.744 OA
ENDBRANCH  89  92
ENDBRANCH  61  85
BRANCH  73  96
ATOM     96  C   UNL A   1      44.699  33.306  29.270  1.00  0.00     0.023 A 
ATOM     97  C   UNL A   1      45.453  33.542  30.437  1.00  0.00     0.012 A 
ATOM     98  C   UNL A   1      44.488  34.361  28.360  1.00  0.00     0.148 A 
ATOM     99  C   UNL A   1      45.956  34.813  30.711  1.00  0.00     0.002 A 
ATOM    100  C   UNL A   1      45.037  35.611  28.612  1.00  0.00     0.091 A 
ATOM    101  F   UNL A   1      43.753  34.121  27.264  1.00  0.00    -0.205 F 
ATOM    102  C   UNL A   1      45.761  35.843  29.794  1.00  0.00     0.022 A 
BRANCH 100 103
ATOM    103  S   UNL A   1      44.921  36.970  27.444  1.00  0.00     0.127 S 
ATOM    104  O   UNL A   1      45.756  36.489  26.344  1.00  0.00    -0.237 OA
ATOM    105  O   UNL A   1      43.487  37.004  27.152  1.00  0.00    -0.237 OA
ATOM    106  O   UNL A   1      45.424  38.146  28.141  1.00  0.00    -0.744 OA
ENDBRANCH 100 103
ENDBRANCH  73  96
ENDBRANCH  47  48
ENDBRANCH  39  42
ENDBRANCH  37  38
ENDBRANCH  36  37
ENDBRANCH  35  36
ENDBRANCH   1  35
TORSDOF 21
ENDMDL
MODEL 3
REMARK VINA RESULT:     -12.8      5.436     12.120
REMARK SMILES COc1ccc(-c2cc(CC3(C(=O)NCCCCCCNC(=O)c4ccc(-c5c6nc(c(-c7cccc(S(=O)(=O)[O-])c7F)c7ccc([nH]7)c(-c7cccc(S(=O)(=O)[O-])c7F)c7nc(c(-c8cccc(S(=O)(=O)[O-])c8F)c8ccc5[nH]8)C=C7)C=C6)cc4)CCN(C(=O)C4CCCC4)CC3)on2)cc1
REMARK SMILES IDX 17 1 16 2 15 3 14 4 12 5 13 6 11 8 87 9 98 10 88 11 97 12
REMARK SMILES IDX 89 13 90 14 91 15 10 16 9 17 7 18 8 19 100 20 99 21 6 22
REMARK SMILES IDX 3 23 4 24 102 25 5 26 101 27 2 28 1 29 92 30 93 31 96 32
REMARK SMILES IDX 94 33 95 34 18 35 19 36 20 37 21 38 22 39 23 41 24 42 25 43
REMARK SMILES IDX 86 44 26 45 85 46 27 47 28 48 29 49 79 50 30 51 84 52 78 53
REMARK SMILES IDX 80 54 31 55 83 56 77 57 76 58 32 60 64 61 44 62 63 63 45 64
REMARK SMILES IDX 48 65 62 66 81 67 46 68 47 69 61 71 82 72 49 73 33 74 34 75
REMARK SMILES IDX 42 76 35 77 37 78 43 79 36 80 38 81 39 82 40 83 41 84 65 85
REMARK SMILES IDX 66 86 74 87 67 88 69 89 75 90 68 91 70 92 71 93 72 94 73 95
REMARK SMILES IDX 50 96 51 97 59 98 52 99 54 100 60 101 53 102 55 103 56 104
REMARK SMILES IDX 57 105 58 106
REMARK H PARENT 14 7 21 40 80 59 48 70
REMARK Flexibility Score: inf
ROOT
ATOM      1  C   UNL A   1      32.718  30.019  27.108  1.00  0.00     0.002 C 
ENDROOT
BRANCH   1   2
ATOM      2  C   UNL A   1      33.882  29.607  26.200  1.00  0.00     0.021 C 
BRANCH   2   3
ATOM      3  C   UNL A   1      33.589  28.383  25.338  1.00  0.00     0.116 C 
BRANCH   3   4
ATOM      4  N   UNL A   1      32.856  27.372  26.089  1.00  0.00    -0.356 N 
ATOM      5  C   UNL A   1      31.758  26.625  25.775  1.00  0.00     0.226 C 
ATOM      6  O   UNL A   1      31.365  25.838  26.642  1.00  0.00    -0.274 OA
ATOM      7  H   UNL A   1      33.219  27.195  26.986  1.00  0.00     0.163 HD
BRANCH   5   8
ATOM      8  C   UNL A   1      31.058  26.731  24.397  1.00  0.00     0.060 C 
ATOM      9  C   UNL A   1      29.606  26.207  24.541  1.00  0.00     0.039 C 
ATOM     10  C   UNL A   1      31.172  28.208  23.944  1.00  0.00     0.039 C 
ATOM     11  C   UNL A   1      28.566  26.851  23.631  1.00  0.00     0.120 C 
ATOM     12  C   UNL A   1      30.066  28.704  23.030  1.00  0.00     0.120 C 
ATOM     13  N   UNL A   1      28.737  28.285  23.437  1.00  0.00    -0.342 N 
ATOM     14  C   UNL A   1      27.575  29.028  23.224  1.00  0.00     0.225 C 
ATOM     15  O   UNL A   1      26.466  28.482  23.233  1.00  0.00    -0.275 OA
BRANCH   8  16
ATOM     16  C   UNL A   1      31.861  25.802  23.418  1.00  0.00     0.095 C 
BRANCH  16  17
ATOM     17  C   UNL A   1      32.762  24.831  24.090  1.00  0.00     0.138 A 
ATOM     18  C   UNL A   1      34.350  23.494  24.823  1.00  0.00     0.114 A 
ATOM     19  C   UNL A   1      34.108  24.808  24.352  1.00  0.00     0.077 A 
ATOM     20  N   UNL A   1      33.202  22.819  24.966  1.00  0.00    -0.080 NA
ATOM     21  O   UNL A   1      32.205  23.672  24.526  1.00  0.00    -0.361 OA
BRANCH  18  22
ATOM     22  C   UNL A   1      35.637  22.899  25.118  1.00  0.00     0.004 A 
ATOM     23  C   UNL A   1      38.161  21.803  25.640  1.00  0.00     0.118 A 
ATOM     24  C   UNL A   1      37.172  21.029  25.027  1.00  0.00     0.047 A 
ATOM     25  C   UNL A   1      37.889  23.130  25.974  1.00  0.00     0.047 A 
ATOM     26  C   UNL A   1      35.906  21.568  24.775  1.00  0.00     0.014 A 
ATOM     27  C   UNL A   1      36.631  23.678  25.712  1.00  0.00     0.014 A 
BRANCH  23  28
ATOM     28  O   UNL A   1      39.364  21.180  25.827  1.00  0.00    -0.497 OA
ATOM     29  C   UNL A   1      40.410  22.008  26.325  1.00  0.00     0.278 C 
ENDBRANCH  23  28
ENDBRANCH  18  22
ENDBRANCH  16  17
ENDBRANCH   8  16
BRANCH  14  30
ATOM     30  C   UNL A   1      27.631  30.536  22.988  1.00  0.00     0.078 C 
ATOM     31  C   UNL A   1      28.572  31.281  23.928  1.00  0.00     0.013 C 
ATOM     32  C   UNL A   1      27.985  30.968  21.566  1.00  0.00     0.013 C 
ATOM     33  C   UNL A   1      28.936  32.555  23.186  1.00  0.00     0.001 C 
ATOM     34  C   UNL A   1      28.789  32.258  21.697  1.00  0.00     0.001 C 
ENDBRANCH  14  30
ENDBRANCH   5   8
ENDBRANCH   3   4
ENDBRANCH   2   3
ENDBRANCH   1   2
BRANCH   1  35
ATOM     35  C   UNL A   1      31.562  30.732  26.397  1.00  0.00     0.002 C 
BRANCH  35  36
ATOM     36  C   UNL A   1      31.423  32.223  26.712  1.00  0.00     0.021 C 
BRANCH  36  37
ATOM     37  C   UNL A   1      32.738  32.939  27.002  1.00  0.00     0.116 C 
BRANCH  37  38
ATOM     38  N   UNL A   1      32.532  34.214  27.671  1.00  0.00    -0.352 N 
ATOM     39  C   UNL A   1      33.137  34.712  28.797  1.00  0.00     0.251 C 
ATOM     40  H   UNL A   1      31.862  34.805  27.255  1.00  0.00     0.163 HD
ATOM     41  O   UNL A   1      32.701  35.733  29.328  1.00  0.00    -0.269 OA
BRANCH  39  42
ATOM     42  C   UNL A   1      34.298  34.010  29.382  1.00  0.00     0.039 A 
ATOM     43  C   UNL A   1      35.585  34.459  29.073  1.00  0.00     0.014 A 
ATOM     44  C   UNL A   1      34.122  32.914  30.231  1.00  0.00     0.014 A 
ATOM     45  C   UNL A   1      36.692  33.843  29.663  1.00  0.00     0.010 A 
ATOM     46  C   UNL A   1      35.220  32.353  30.876  1.00  0.00     0.010 A 
ATOM     47  C   UNL A   1      36.518  32.806  30.595  1.00  0.00    -0.014 A 
BRANCH  47  48
ATOM     48  C   UNL A   1      37.679  32.195  31.292  1.00  0.00     0.031 A 
ATOM     49  C   UNL A   1      38.440  31.063  30.655  1.00  0.00     0.074 A 
ATOM     50  C   UNL A   1      37.998  32.606  32.535  1.00  0.00     0.049 A 
ATOM     51  N   UNL A   1      39.445  30.376  31.133  1.00  0.00    -0.248 NA
ATOM     52  C   UNL A   1      37.999  30.631  29.319  1.00  0.00     0.031 C 
ATOM     53  C   UNL A   1      37.288  33.640  33.292  1.00  0.00     0.029 A 
ATOM     54  N   UNL A   1      38.984  32.186  33.393  1.00  0.00    -0.354 N 
ATOM     55  C   UNL A   1      39.736  29.413  30.174  1.00  0.00     0.074 A 
ATOM     56  C   UNL A   1      38.776  29.579  29.105  1.00  0.00     0.031 C 
ATOM     57  C   UNL A   1      37.863  33.774  34.498  1.00  0.00     0.029 A 
ATOM     58  C   UNL A   1      38.957  32.816  34.616  1.00  0.00     0.049 A 
ATOM     59  H   UNL A   1      39.648  31.499  33.156  1.00  0.00     0.167 HD
ATOM     60  C   UNL A   1      40.728  28.490  30.169  1.00  0.00     0.034 A 
ATOM     61  C   UNL A   1      39.716  32.633  35.714  1.00  0.00     0.034 A 
ATOM     62  C   UNL A   1      41.698  28.346  31.221  1.00  0.00     0.049 A 
ATOM     63  C   UNL A   1      40.828  31.620  35.674  1.00  0.00     0.074 A 
ATOM     64  C   UNL A   1      42.789  27.497  31.275  1.00  0.00     0.029 A 
ATOM     65  N   UNL A   1      41.686  29.055  32.412  1.00  0.00    -0.354 N 
ATOM     66  N   UNL A   1      41.184  30.825  34.695  1.00  0.00    -0.248 NA
ATOM     67  C   UNL A   1      41.666  31.505  36.876  1.00  0.00     0.031 C 
ATOM     68  C   UNL A   1      43.418  27.669  32.512  1.00  0.00     0.029 A 
ATOM     69  C   UNL A   1      42.742  28.656  33.213  1.00  0.00     0.049 A 
ATOM     70  H   UNL A   1      41.023  29.742  32.653  1.00  0.00     0.167 HD
ATOM     71  C   UNL A   1      42.307  30.142  35.148  1.00  0.00     0.074 A 
ATOM     72  C   UNL A   1      42.584  30.634  36.482  1.00  0.00     0.031 C 
ATOM     73  C   UNL A   1      43.036  29.185  34.521  1.00  0.00     0.034 A 
BRANCH  60  74
ATOM     74  C   UNL A   1      40.842  27.591  28.964  1.00  0.00     0.023 A 
ATOM     75  C   UNL A   1      39.967  26.493  28.827  1.00  0.00     0.012 A 
ATOM     76  C   UNL A   1      41.775  27.859  27.944  1.00  0.00     0.148 A 
ATOM     77  C   UNL A   1      40.046  25.653  27.717  1.00  0.00     0.002 A 
ATOM     78  C   UNL A   1      41.815  27.046  26.817  1.00  0.00     0.091 A 
ATOM     79  F   UNL A   1      42.612  28.895  28.097  1.00  0.00    -0.205 F 
ATOM     80  C   UNL A   1      40.963  25.936  26.708  1.00  0.00     0.022 A 
BRANCH  78  81
ATOM     81  S   UNL A   1      42.900  27.373  25.422  1.00  0.00     0.127 S 
ATOM     82  O   UNL A   1      44.105  27.857  26.094  1.00  0.00    -0.237 OA
ATOM     83  O   UNL A   1      43.031  26.047  24.817  1.00  0.00    -0.237 OA
ATOM     84  O   UNL A   1      42.210  28.352  24.596  1.00  0.00    -0.744 OA
ENDBRANCH  78  81
ENDBRANCH  60  74
BRANCH  61  85
ATOM     85  C   UNL A   1      39.480  33.467  36.927  1.00  0.00     0.023 A 
ATOM     86  C   UNL A   1      39.844  34.827  36.918  1.00  0.00     0.012 A 
ATOM     87  C   UNL A   1      38.873  32.926  38.077  1.00  0.00     0.148 A 
ATOM     88  C   UNL A   1      39.640  35.626  38.043  1.00  0.00     0.002 A 
ATOM     89  C   UNL A   1      38.618  33.740  39.174  1.00  0.00     0.091 A 
ATOM     90  F   UNL A   1      38.540  31.628  38.069  1.00  0.00    -0.205 F 
ATOM     91  C   UNL A   1      39.018  35.086  39.167  1.00  0.00     0.022 A 
BRANCH  89  92
ATOM     92  S   UNL A   1      37.700  33.168  40.608  1.00  0.00     0.127 S 
ATOM     93  O   UNL A   1      38.248  31.828  40.800  1.00  0.00    -0.237 OA
ATOM     94  O   UNL A   1      38.092  34.145  41.624  1.00  0.00    -0.237 OA
ATOM     95  O   UNL A   1      36.295  33.228  40.229  1.00  0.00    -0.744 OA
ENDBRANCH  89  92
ENDBRANCH  61  85
BRANCH  73  96
ATOM     96  C   UNL A   1      44.235  28.630  35.246  1.00  0.00     0.023 A 
ATOM     97  C   UNL A   1      45.509  29.195  35.039  1.00  0.00     0.012 A 
ATOM     98  C   UNL A   1      44.084  27.594  36.188  1.00  0.00     0.148 A 
ATOM     99  C   UNL A   1      46.619  28.713  35.731  1.00  0.00     0.002 A 
ATOM    100  C   UNL A   1      45.184  27.155  36.914  1.00  0.00     0.091 A 
ATOM    101  F   UNL A   1      42.867  27.058  36.359  1.00  0.00    -0.205 F 
ATOM    102  C   UNL A   1      46.456  27.703  36.677  1.00  0.00     0.022 A 
BRANCH 100 103
ATOM    103  S   UNL A   1      45.052  25.929  38.220  1.00  0.00     0.127 S 
ATOM    104  O   UNL A   1      46.436  25.839  38.684  1.00  0.00    -0.237 OA
ATOM    105  O   UNL A   1      44.135  26.576  39.159  1.00  0.00    -0.237 OA
ATOM    106  O   UNL A   1      44.526  24.725  37.592  1.00  0.00    -0.744 OA
ENDBRANCH 100 103
ENDBRANCH  73  96
ENDBRANCH  47  48
ENDBRANCH  39  42
ENDBRANCH  37  38
ENDBRANCH  36  37
ENDBRANCH  35  36
ENDBRANCH   1  35
TORSDOF 21
ENDMDL
