MODEL 1
REMARK VINA RESULT:     -11.8      0.000      0.000
REMARK SMILES CC(C)CSc1cc2c(cc1Cl)C=C(C(=O)NCCCCCCNC(=O)c1ccc(-c3c4nc(c(-c5cccc(S(=O)(=O)[O-])c5F)c5ccc([nH]5)c(-c5cccc(S(=O)(=O)[O-])c5F)c5nc(c(-c6cccc(S(=O)(=O)[O-])c6F)c6ccc3[nH]6)C=C5)C=C4)cc1)[C@H](C(F)(F)F)O2
REMARK SMILES IDX 20 1 19 2 18 3 17 4 15 5 16 6 14 8 6 9 7 10 11 11 8 12 10 13
REMARK SMILES IDX 12 14 9 15 95 16 13 17 90 18 5 19 4 20 2 21 1 22 3 23 91 24
REMARK SMILES IDX 92 25 93 26 94 27 21 28 22 29 23 30 24 31 25 32 26 34 27 35
REMARK SMILES IDX 28 36 89 37 29 38 88 39 30 40 31 41 32 42 82 43 33 44 87 45
REMARK SMILES IDX 81 46 83 47 34 48 86 49 80 50 79 51 35 53 67 54 47 55 66 56
REMARK SMILES IDX 48 57 51 58 65 59 84 60 49 61 50 62 64 64 85 65 52 66 36 67
REMARK SMILES IDX 37 68 45 69 38 70 40 71 46 72 39 73 41 74 42 75 43 76 44 77
REMARK SMILES IDX 68 78 69 79 77 80 70 81 72 82 78 83 71 84 73 85 74 86 75 87
REMARK SMILES IDX 76 88 53 89 54 90 62 91 55 92 57 93 63 94 56 95 58 96 59 97
REMARK SMILES IDX 60 98 61 99
REMARK H PARENT 17 7 24 33 83 52 51 63
REMARK Flexibility Score: inf
ROOT
ATOM      1  C   UNL A   1      37.267  21.763  24.580  1.00  0.00     0.002 C 
ENDROOT
BRANCH   1   2
ATOM      2  C   UNL A   1      35.996  21.004  24.965  1.00  0.00     0.021 C 
BRANCH   2   3
ATOM      3  C   UNL A   1      34.934  21.863  25.647  1.00  0.00     0.116 C 
BRANCH   3   4
ATOM      4  N   UNL A   1      33.620  21.242  25.601  1.00  0.00    -0.352 N 
ATOM      5  C   UNL A   1      32.351  21.601  25.290  1.00  0.00     0.251 C 
ATOM      6  O   UNL A   1      31.508  20.703  25.391  1.00  0.00    -0.270 OA
ATOM      7  H   UNL A   1      33.663  20.296  25.872  1.00  0.00     0.163 HD
BRANCH   5   8
ATOM      8  C   UNL A   1      31.920  22.960  24.841  1.00  0.00     0.067 C 
ATOM      9  C   UNL A   1      30.790  27.864  24.501  1.00  0.00     0.030 A 
ATOM     10  C   UNL A   1      30.483  26.729  23.751  1.00  0.00     0.063 A 
ATOM     11  C   UNL A   1      31.407  27.675  25.755  1.00  0.00     0.055 A 
ATOM     12  C   UNL A   1      30.910  25.470  24.161  1.00  0.00     0.129 A 
ATOM     13  C   UNL A   1      31.769  26.390  26.197  1.00  0.00     0.033 A 
ATOM     14  Cl  UNL A   1      31.769  28.990  26.824  1.00  0.00    -0.083 Cl
ATOM     15  C   UNL A   1      31.549  25.282  25.381  1.00  0.00     0.019 A 
ATOM     16  O   UNL A   1      30.663  24.449  23.292  1.00  0.00    -0.475 OA
ATOM     17  C   UNL A   1      31.935  23.932  25.774  1.00  0.00     0.025 C 
ATOM     18  C   UNL A   1      31.521  23.287  23.431  1.00  0.00     0.314 C 
BRANCH   9  19
ATOM     19  S   UNL A   1      30.429  29.501  23.858  1.00  0.00    -0.124 SA
BRANCH  19  20
ATOM     20  C   UNL A   1      29.371  29.202  22.381  1.00  0.00     0.078 C 
BRANCH  20  21
ATOM     21  C   UNL A   1      28.128  30.103  22.231  1.00  0.00    -0.007 C 
ATOM     22  C   UNL A   1      27.724  30.852  23.501  1.00  0.00     0.008 C 
ATOM     23  C   UNL A   1      28.395  31.135  21.127  1.00  0.00     0.008 C 
ENDBRANCH  20  21
ENDBRANCH  19  20
ENDBRANCH   9  19
BRANCH  18  24
ATOM     24  C   UNL A   1      32.735  23.398  22.487  1.00  0.00     0.429 C 
ATOM     25  F   UNL A   1      32.596  24.389  21.576  1.00  0.00    -0.167 F 
ATOM     26  F   UNL A   1      33.887  23.643  23.154  1.00  0.00    -0.167 F 
ATOM     27  F   UNL A   1      32.921  22.242  21.807  1.00  0.00    -0.167 F 
ENDBRANCH  18  24
ENDBRANCH   5   8
ENDBRANCH   3   4
ENDBRANCH   2   3
ENDBRANCH   1   2
BRANCH   1  28
ATOM     28  C   UNL A   1      38.135  22.233  25.754  1.00  0.00     0.002 C 
BRANCH  28  29
ATOM     29  C   UNL A   1      39.128  21.204  26.294  1.00  0.00     0.021 C 
BRANCH  29  30
ATOM     30  C   UNL A   1      39.377  20.012  25.378  1.00  0.00     0.116 C 
BRANCH  30  31
ATOM     31  N   UNL A   1      40.360  19.089  25.925  1.00  0.00    -0.352 N 
ATOM     32  C   UNL A   1      41.636  19.338  26.371  1.00  0.00     0.251 C 
ATOM     33  H   UNL A   1      40.069  18.151  25.983  1.00  0.00     0.163 HD
ATOM     34  O   UNL A   1      42.389  18.401  26.621  1.00  0.00    -0.269 OA
BRANCH  32  35
ATOM     35  C   UNL A   1      42.101  20.734  26.520  1.00  0.00     0.039 A 
ATOM     36  C   UNL A   1      42.275  21.287  27.789  1.00  0.00     0.014 A 
ATOM     37  C   UNL A   1      42.350  21.503  25.380  1.00  0.00     0.014 A 
ATOM     38  C   UNL A   1      42.522  22.649  27.918  1.00  0.00     0.010 A 
ATOM     39  C   UNL A   1      42.698  22.852  25.515  1.00  0.00     0.010 A 
ATOM     40  C   UNL A   1      42.739  23.449  26.783  1.00  0.00    -0.014 A 
BRANCH  40  41
ATOM     41  C   UNL A   1      43.032  24.895  26.973  1.00  0.00     0.031 A 
ATOM     42  C   UNL A   1      42.046  25.814  27.644  1.00  0.00     0.074 A 
ATOM     43  C   UNL A   1      44.237  25.365  26.593  1.00  0.00     0.049 A 
ATOM     44  N   UNL A   1      42.201  27.068  27.983  1.00  0.00    -0.248 NA
ATOM     45  C   UNL A   1      40.718  25.269  27.974  1.00  0.00     0.031 C 
ATOM     46  C   UNL A   1      45.261  24.582  25.896  1.00  0.00     0.029 A 
ATOM     47  N   UNL A   1      44.819  26.597  26.758  1.00  0.00    -0.354 N 
ATOM     48  C   UNL A   1      40.989  27.471  28.530  1.00  0.00     0.074 A 
ATOM     49  C   UNL A   1      40.100  26.332  28.473  1.00  0.00     0.031 C 
ATOM     50  C   UNL A   1      46.365  25.328  25.753  1.00  0.00     0.029 A 
ATOM     51  C   UNL A   1      46.113  26.658  26.298  1.00  0.00     0.049 A 
ATOM     52  H   UNL A   1      44.355  27.362  27.168  1.00  0.00     0.167 HD
ATOM     53  C   UNL A   1      40.657  28.673  29.055  1.00  0.00     0.034 A 
ATOM     54  C   UNL A   1      47.007  27.667  26.312  1.00  0.00     0.034 A 
ATOM     55  C   UNL A   1      41.559  29.786  29.165  1.00  0.00     0.049 A 
ATOM     56  C   UNL A   1      46.620  28.981  26.923  1.00  0.00     0.074 A 
ATOM     57  C   UNL A   1      41.326  31.019  29.747  1.00  0.00     0.029 A 
ATOM     58  N   UNL A   1      42.857  29.805  28.685  1.00  0.00    -0.354 N 
ATOM     59  N   UNL A   1      45.505  29.302  27.531  1.00  0.00    -0.248 NA
ATOM     60  C   UNL A   1      47.609  30.066  26.863  1.00  0.00     0.031 C 
ATOM     61  C   UNL A   1      42.483  31.790  29.610  1.00  0.00     0.029 A 
ATOM     62  C   UNL A   1      43.437  31.032  28.950  1.00  0.00     0.049 A 
ATOM     63  H   UNL A   1      43.302  29.057  28.224  1.00  0.00     0.167 HD
ATOM     64  C   UNL A   1      45.659  30.622  27.933  1.00  0.00     0.074 A 
ATOM     65  C   UNL A   1      46.983  31.037  27.518  1.00  0.00     0.031 C 
ATOM     66  C   UNL A   1      44.771  31.418  28.573  1.00  0.00     0.034 A 
BRANCH  53  67
ATOM     67  C   UNL A   1      39.273  28.851  29.618  1.00  0.00     0.023 A 
ATOM     68  C   UNL A   1      39.023  28.478  30.952  1.00  0.00     0.012 A 
ATOM     69  C   UNL A   1      38.270  29.505  28.877  1.00  0.00     0.148 A 
ATOM     70  C   UNL A   1      37.789  28.746  31.543  1.00  0.00     0.002 A 
ATOM     71  C   UNL A   1      37.052  29.795  29.482  1.00  0.00     0.091 A 
ATOM     72  F   UNL A   1      38.531  29.844  27.607  1.00  0.00    -0.205 F 
ATOM     73  C   UNL A   1      36.809  29.414  30.812  1.00  0.00     0.022 A 
BRANCH  71  74
ATOM     74  S   UNL A   1      35.742  30.702  28.651  1.00  0.00     0.127 S 
ATOM     75  O   UNL A   1      35.165  31.464  29.760  1.00  0.00    -0.237 OA
ATOM     76  O   UNL A   1      36.489  31.504  27.684  1.00  0.00    -0.237 OA
ATOM     77  O   UNL A   1      34.862  29.698  28.068  1.00  0.00    -0.744 OA
ENDBRANCH  71  74
ENDBRANCH  53  67
BRANCH  54  78
ATOM     78  C   UNL A   1      48.372  27.430  25.773  1.00  0.00     0.023 A 
ATOM     79  C   UNL A   1      49.358  26.872  26.608  1.00  0.00     0.012 A 
ATOM     80  C   UNL A   1      48.665  27.659  24.414  1.00  0.00     0.148 A 
ATOM     81  C   UNL A   1      50.615  26.546  26.098  1.00  0.00     0.002 A 
ATOM     82  C   UNL A   1      49.903  27.291  23.903  1.00  0.00     0.091 A 
ATOM     83  F   UNL A   1      47.707  28.194  23.643  1.00  0.00    -0.205 F 
ATOM     84  C   UNL A   1      50.883  26.743  24.745  1.00  0.00     0.022 A 
BRANCH  82  85
ATOM     85  S   UNL A   1      50.298  27.396  22.154  1.00  0.00     0.127 S 
ATOM     86  O   UNL A   1      51.649  26.841  22.121  1.00  0.00    -0.237 OA
ATOM     87  O   UNL A   1      49.266  26.544  21.564  1.00  0.00    -0.237 OA
ATOM     88  O   UNL A   1      50.190  28.806  21.807  1.00  0.00    -0.744 OA
ENDBRANCH  82  85
ENDBRANCH  54  78
BRANCH  66  89
ATOM     89  C   UNL A   1      45.172  32.833  28.883  1.00  0.00     0.023 A 
ATOM     90  C   UNL A   1      45.888  33.097  30.066  1.00  0.00     0.012 A 
ATOM     91  C   UNL A   1      45.001  33.850  27.926  1.00  0.00     0.148 A 
ATOM     92  C   UNL A   1      46.439  34.357  30.288  1.00  0.00     0.002 A 
ATOM     93  C   UNL A   1      45.580  35.094  28.139  1.00  0.00     0.091 A 
ATOM     94  F   UNL A   1      44.316  33.566  26.809  1.00  0.00    -0.205 F 
ATOM     95  C   UNL A   1      46.298  35.350  29.321  1.00  0.00     0.022 A 
BRANCH  93  96
ATOM     96  S   UNL A   1      45.525  36.413  26.921  1.00  0.00     0.127 S 
ATOM     97  O   UNL A   1      46.176  35.786  25.771  1.00  0.00    -0.237 OA
ATOM     98  O   UNL A   1      44.087  36.628  26.768  1.00  0.00    -0.237 OA
ATOM     99  O   UNL A   1      46.255  37.532  27.501  1.00  0.00    -0.744 OA
ENDBRANCH  93  96
ENDBRANCH  66  89
ENDBRANCH  40  41
ENDBRANCH  32  35
ENDBRANCH  30  31
ENDBRANCH  29  30
ENDBRANCH  28  29
ENDBRANCH   1  28
TORSDOF 20
ENDMDL
MODEL 2
REMARK VINA RESULT:     -11.6      1.639      1.962
REMARK SMILES CC(C)CSc1cc2c(cc1Cl)C=C(C(=O)NCCCCCCNC(=O)c1ccc(-c3c4nc(c(-c5cccc(S(=O)(=O)[O-])c5F)c5ccc([nH]5)c(-c5cccc(S(=O)(=O)[O-])c5F)c5nc(c(-c6cccc(S(=O)(=O)[O-])c6F)c6ccc3[nH]6)C=C5)C=C4)cc1)[C@H](C(F)(F)F)O2
REMARK SMILES IDX 20 1 19 2 18 3 17 4 15 5 16 6 14 8 6 9 7 10 11 11 8 12 10 13
REMARK SMILES IDX 12 14 9 15 95 16 13 17 90 18 5 19 4 20 2 21 1 22 3 23 91 24
REMARK SMILES IDX 92 25 93 26 94 27 21 28 22 29 23 30 24 31 25 32 26 34 27 35
REMARK SMILES IDX 28 36 89 37 29 38 88 39 30 40 31 41 32 42 82 43 33 44 87 45
REMARK SMILES IDX 81 46 83 47 34 48 86 49 80 50 79 51 35 53 67 54 47 55 66 56
REMARK SMILES IDX 48 57 51 58 65 59 84 60 49 61 50 62 64 64 85 65 52 66 36 67
REMARK SMILES IDX 37 68 45 69 38 70 40 71 46 72 39 73 41 74 42 75 43 76 44 77
REMARK SMILES IDX 68 78 69 79 77 80 70 81 72 82 78 83 71 84 73 85 74 86 75 87
REMARK SMILES IDX 76 88 53 89 54 90 62 91 55 92 57 93 63 94 56 95 58 96 59 97
REMARK SMILES IDX 60 98 61 99
REMARK H PARENT 17 7 24 33 83 52 51 63
REMARK Flexibility Score: inf
ROOT
ATOM      1  C   UNL A   1      35.590  20.339  24.992  1.00  0.00     0.002 C 
ENDROOT
BRANCH   1   2
ATOM      2  C   UNL A   1      35.933  21.790  24.651  1.00  0.00     0.021 C 
BRANCH   2   3
ATOM      3  C   UNL A   1      36.135  22.690  25.866  1.00  0.00     0.116 C 
BRANCH   3   4
ATOM      4  N   UNL A   1      35.113  22.476  26.879  1.00  0.00    -0.352 N 
ATOM      5  C   UNL A   1      33.858  22.910  27.145  1.00  0.00     0.251 C 
ATOM      6  O   UNL A   1      33.338  22.433  28.160  1.00  0.00    -0.270 OA
ATOM      7  H   UNL A   1      35.419  21.836  27.562  1.00  0.00     0.163 HD
BRANCH   5   8
ATOM      8  C   UNL A   1      33.085  23.887  26.320  1.00  0.00     0.067 C 
ATOM      9  C   UNL A   1      31.565  27.812  23.538  1.00  0.00     0.030 A 
ATOM     10  C   UNL A   1      30.920  26.790  24.236  1.00  0.00     0.063 A 
ATOM     11  C   UNL A   1      32.953  27.969  23.741  1.00  0.00     0.055 A 
ATOM     12  C   UNL A   1      31.648  25.869  24.981  1.00  0.00     0.129 A 
ATOM     13  C   UNL A   1      33.671  27.077  24.556  1.00  0.00     0.033 A 
ATOM     14  Cl  UNL A   1      33.863  29.245  23.002  1.00  0.00    -0.083 Cl
ATOM     15  C   UNL A   1      33.021  26.000  25.157  1.00  0.00     0.019 A 
ATOM     16  O   UNL A   1      30.930  24.843  25.519  1.00  0.00    -0.475 OA
ATOM     17  C   UNL A   1      33.722  25.026  25.985  1.00  0.00     0.025 C 
ATOM     18  C   UNL A   1      31.686  23.644  25.828  1.00  0.00     0.314 C 
BRANCH   9  19
ATOM     19  S   UNL A   1      30.647  28.859  22.406  1.00  0.00    -0.124 SA
BRANCH  19  20
ATOM     20  C   UNL A   1      29.857  30.130  23.479  1.00  0.00     0.078 C 
BRANCH  20  21
ATOM     21  C   UNL A   1      28.319  30.084  23.583  1.00  0.00    -0.007 C 
ATOM     22  C   UNL A   1      27.634  31.450  23.536  1.00  0.00     0.008 C 
ATOM     23  C   UNL A   1      27.770  29.230  22.433  1.00  0.00     0.008 C 
ENDBRANCH  20  21
ENDBRANCH  19  20
ENDBRANCH   9  19
BRANCH  18  24
ATOM     24  C   UNL A   1      31.642  22.658  24.644  1.00  0.00     0.429 C 
ATOM     25  F   UNL A   1      30.642  22.934  23.776  1.00  0.00    -0.167 F 
ATOM     26  F   UNL A   1      32.790  22.661  23.926  1.00  0.00    -0.167 F 
ATOM     27  F   UNL A   1      31.464  21.389  25.082  1.00  0.00    -0.167 F 
ENDBRANCH  18  24
ENDBRANCH   5   8
ENDBRANCH   3   4
ENDBRANCH   2   3
ENDBRANCH   1   2
BRANCH   1  28
ATOM     28  C   UNL A   1      36.756  19.348  24.901  1.00  0.00     0.002 C 
BRANCH  28  29
ATOM     29  C   UNL A   1      38.141  19.973  24.728  1.00  0.00     0.021 C 
BRANCH  29  30
ATOM     30  C   UNL A   1      38.940  20.124  26.017  1.00  0.00     0.116 C 
BRANCH  30  31
ATOM     31  N   UNL A   1      40.027  19.162  26.111  1.00  0.00    -0.352 N 
ATOM     32  C   UNL A   1      41.383  19.381  26.172  1.00  0.00     0.251 C 
ATOM     33  H   UNL A   1      39.752  18.217  26.134  1.00  0.00     0.163 HD
ATOM     34  O   UNL A   1      42.159  18.437  26.054  1.00  0.00    -0.269 OA
BRANCH  32  35
ATOM     35  C   UNL A   1      41.895  20.756  26.351  1.00  0.00     0.039 A 
ATOM     36  C   UNL A   1      42.084  21.277  27.632  1.00  0.00     0.014 A 
ATOM     37  C   UNL A   1      42.175  21.539  25.228  1.00  0.00     0.014 A 
ATOM     38  C   UNL A   1      42.378  22.626  27.790  1.00  0.00     0.010 A 
ATOM     39  C   UNL A   1      42.570  22.873  25.392  1.00  0.00     0.010 A 
ATOM     40  C   UNL A   1      42.627  23.442  26.673  1.00  0.00    -0.014 A 
BRANCH  40  41
ATOM     41  C   UNL A   1      42.970  24.872  26.893  1.00  0.00     0.031 A 
ATOM     42  C   UNL A   1      42.022  25.806  27.596  1.00  0.00     0.074 A 
ATOM     43  C   UNL A   1      44.186  25.311  26.511  1.00  0.00     0.049 A 
ATOM     44  N   UNL A   1      42.221  27.047  27.963  1.00  0.00    -0.248 NA
ATOM     45  C   UNL A   1      40.680  25.298  27.927  1.00  0.00     0.031 C 
ATOM     46  C   UNL A   1      45.177  24.512  25.786  1.00  0.00     0.029 A 
ATOM     47  N   UNL A   1      44.810  26.519  26.700  1.00  0.00    -0.354 N 
ATOM     48  C   UNL A   1      41.029  27.476  28.532  1.00  0.00     0.074 A 
ATOM     49  C   UNL A   1      40.102  26.369  28.457  1.00  0.00     0.031 C 
ATOM     50  C   UNL A   1      46.304  25.224  25.648  1.00  0.00     0.029 A 
ATOM     51  C   UNL A   1      46.102  26.548  26.227  1.00  0.00     0.049 A 
ATOM     52  H   UNL A   1      44.376  27.289  27.132  1.00  0.00     0.167 HD
ATOM     53  C   UNL A   1      40.742  28.675  29.088  1.00  0.00     0.034 A 
ATOM     54  C   UNL A   1      47.028  27.526  26.256  1.00  0.00     0.034 A 
ATOM     55  C   UNL A   1      41.682  29.755  29.214  1.00  0.00     0.049 A 
ATOM     56  C   UNL A   1      46.691  28.837  26.901  1.00  0.00     0.074 A 
ATOM     57  C   UNL A   1      41.496  30.981  29.828  1.00  0.00     0.029 A 
ATOM     58  N   UNL A   1      42.975  29.743  28.722  1.00  0.00    -0.354 N 
ATOM     59  N   UNL A   1      45.593  29.181  27.529  1.00  0.00    -0.248 NA
ATOM     60  C   UNL A   1      47.715  29.890  26.857  1.00  0.00     0.031 C 
ATOM     61  C   UNL A   1      42.676  31.716  29.698  1.00  0.00     0.029 A 
ATOM     62  C   UNL A   1      43.598  30.943  29.010  1.00  0.00     0.049 A 
ATOM     63  H   UNL A   1      43.390  28.992  28.239  1.00  0.00     0.167 HD
ATOM     64  C   UNL A   1      45.794  30.485  27.960  1.00  0.00     0.074 A 
ATOM     65  C   UNL A   1      47.128  30.865  27.541  1.00  0.00     0.031 C 
ATOM     66  C   UNL A   1      44.940  31.294  28.628  1.00  0.00     0.034 A 
BRANCH  53  67
ATOM     67  C   UNL A   1      39.371  28.886  29.669  1.00  0.00     0.023 A 
ATOM     68  C   UNL A   1      39.116  28.475  30.992  1.00  0.00     0.012 A 
ATOM     69  C   UNL A   1      38.387  29.603  28.962  1.00  0.00     0.148 A 
ATOM     70  C   UNL A   1      37.899  28.769  31.603  1.00  0.00     0.002 A 
ATOM     71  C   UNL A   1      37.186  29.917  29.587  1.00  0.00     0.091 A 
ATOM     72  F   UNL A   1      38.651  29.977  27.702  1.00  0.00    -0.205 F 
ATOM     73  C   UNL A   1      36.939  29.499  30.905  1.00  0.00     0.022 A 
BRANCH  71  74
ATOM     74  S   UNL A   1      35.904  30.902  28.801  1.00  0.00     0.127 S 
ATOM     75  O   UNL A   1      35.160  29.880  28.065  1.00  0.00    -0.237 OA
ATOM     76  O   UNL A   1      35.197  31.460  29.953  1.00  0.00    -0.237 OA
ATOM     77  O   UNL A   1      36.597  31.879  27.972  1.00  0.00    -0.744 OA
ENDBRANCH  71  74
ENDBRANCH  53  67
BRANCH  54  78
ATOM     78  C   UNL A   1      48.379  27.257  25.697  1.00  0.00     0.023 A 
ATOM     79  C   UNL A   1      48.668  27.637  24.373  1.00  0.00     0.012 A 
ATOM     80  C   UNL A   1      49.404  26.723  26.502  1.00  0.00     0.148 A 
ATOM     81  C   UNL A   1      49.956  27.488  23.859  1.00  0.00     0.002 A 
ATOM     82  C   UNL A   1      50.694  26.619  26.000  1.00  0.00     0.091 A 
ATOM     83  F   UNL A   1      49.100  26.368  27.759  1.00  0.00    -0.205 F 
ATOM     84  C   UNL A   1      50.971  26.993  24.675  1.00  0.00     0.022 A 
BRANCH  82  85
ATOM     85  S   UNL A   1      52.089  26.104  27.008  1.00  0.00     0.127 S 
ATOM     86  O   UNL A   1      51.498  26.085  28.344  1.00  0.00    -0.237 OA
ATOM     87  O   UNL A   1      52.391  24.787  26.448  1.00  0.00    -0.237 OA
ATOM     88  O   UNL A   1      53.124  27.106  26.794  1.00  0.00    -0.744 OA
ENDBRANCH  82  85
ENDBRANCH  54  78
BRANCH  66  89
ATOM     89  C   UNL A   1      45.391  32.687  28.967  1.00  0.00     0.023 A 
ATOM     90  C   UNL A   1      46.180  32.890  30.115  1.00  0.00     0.012 A 
ATOM     91  C   UNL A   1      45.188  33.744  28.060  1.00  0.00     0.148 A 
ATOM     92  C   UNL A   1      46.771  34.129  30.352  1.00  0.00     0.002 A 
ATOM     93  C   UNL A   1      45.808  34.966  28.286  1.00  0.00     0.091 A 
ATOM     94  F   UNL A   1      44.434  33.518  26.975  1.00  0.00    -0.205 F 
ATOM     95  C   UNL A   1      46.598  35.162  29.432  1.00  0.00     0.022 A 
BRANCH  93  96
ATOM     96  S   UNL A   1      45.713  36.332  27.123  1.00  0.00     0.127 S 
ATOM     97  O   UNL A   1      46.483  35.817  25.991  1.00  0.00    -0.237 OA
ATOM     98  O   UNL A   1      44.273  36.435  26.888  1.00  0.00    -0.237 OA
ATOM     99  O   UNL A   1      46.308  37.479  27.796  1.00  0.00    -0.744 OA
ENDBRANCH  93  96
ENDBRANCH  66  89
ENDBRANCH  40  41
ENDBRANCH  32  35
ENDBRANCH  30  31
ENDBRANCH  29  30
ENDBRANCH  28  29
ENDBRANCH   1  28
TORSDOF 20
ENDMDL
MODEL 3
REMARK VINA RESULT:     -11.3      6.672     10.350
REMARK SMILES CC(C)CSc1cc2c(cc1Cl)C=C(C(=O)NCCCCCCNC(=O)c1ccc(-c3c4nc(c(-c5cccc(S(=O)(=O)[O-])c5F)c5ccc([nH]5)c(-c5cccc(S(=O)(=O)[O-])c5F)c5nc(c(-c6cccc(S(=O)(=O)[O-])c6F)c6ccc3[nH]6)C=C5)C=C4)cc1)[C@H](C(F)(F)F)O2
REMARK SMILES IDX 20 1 19 2 18 3 17 4 15 5 16 6 14 8 6 9 7 10 11 11 8 12 10 13
REMARK SMILES IDX 12 14 9 15 95 16 13 17 90 18 5 19 4 20 2 21 1 22 3 23 91 24
REMARK SMILES IDX 92 25 93 26 94 27 21 28 22 29 23 30 24 31 25 32 26 34 27 35
REMARK SMILES IDX 28 36 89 37 29 38 88 39 30 40 31 41 32 42 82 43 33 44 87 45
REMARK SMILES IDX 81 46 83 47 34 48 86 49 80 50 79 51 35 53 67 54 47 55 66 56
REMARK SMILES IDX 48 57 51 58 65 59 84 60 49 61 50 62 64 64 85 65 52 66 36 67
REMARK SMILES IDX 37 68 45 69 38 70 40 71 46 72 39 73 41 74 42 75 43 76 44 77
REMARK SMILES IDX 68 78 69 79 77 80 70 81 72 82 78 83 71 84 73 85 74 86 75 87
REMARK SMILES IDX 76 88 53 89 54 90 62 91 55 92 57 93 63 94 56 95 58 96 59 97
REMARK SMILES IDX 60 98 61 99
REMARK H PARENT 17 7 24 33 83 52 51 63
REMARK Flexibility Score: inf
ROOT
ATOM      1  C   UNL A   1      34.495  30.705  27.345  1.00  0.00     0.002 C 
ENDROOT
BRANCH   1   2
ATOM      2  C   UNL A   1      33.599  29.600  26.783  1.00  0.00     0.021 C 
BRANCH   2   3
ATOM      3  C   UNL A   1      34.336  28.555  25.950  1.00  0.00     0.116 C 
BRANCH   3   4
ATOM      4  N   UNL A   1      33.929  28.586  24.554  1.00  0.00    -0.352 N 
ATOM      5  C   UNL A   1      33.394  27.736  23.646  1.00  0.00     0.251 C 
ATOM      6  O   UNL A   1      33.200  28.215  22.523  1.00  0.00    -0.270 OA
ATOM      7  H   UNL A   1      34.088  29.473  24.157  1.00  0.00     0.163 HD
BRANCH   5   8
ATOM      8  C   UNL A   1      33.029  26.310  23.903  1.00  0.00     0.067 C 
ATOM      9  C   UNL A   1      33.034  21.318  24.635  1.00  0.00     0.030 A 
ATOM     10  C   UNL A   1      32.056  22.270  24.347  1.00  0.00     0.063 A 
ATOM     11  C   UNL A   1      34.385  21.719  24.549  1.00  0.00     0.055 A 
ATOM     12  C   UNL A   1      32.400  23.602  24.134  1.00  0.00     0.129 A 
ATOM     13  C   UNL A   1      34.727  23.051  24.260  1.00  0.00     0.033 A 
ATOM     14  Cl  UNL A   1      35.700  20.619  24.801  1.00  0.00    -0.083 Cl
ATOM     15  C   UNL A   1      33.729  24.008  24.082  1.00  0.00     0.019 A 
ATOM     16  O   UNL A   1      31.357  24.466  23.985  1.00  0.00    -0.475 OA
ATOM     17  C   UNL A   1      34.027  25.409  23.813  1.00  0.00     0.025 C 
ATOM     18  C   UNL A   1      31.649  25.856  24.284  1.00  0.00     0.314 C 
BRANCH   9  19
ATOM     19  S   UNL A   1      32.567  19.656  25.123  1.00  0.00    -0.124 SA
BRANCH  19  20
ATOM     20  C   UNL A   1      32.589  18.684  23.560  1.00  0.00     0.078 C 
BRANCH  20  21
ATOM     21  C   UNL A   1      32.991  17.199  23.677  1.00  0.00    -0.007 C 
ATOM     22  C   UNL A   1      34.480  16.922  23.466  1.00  0.00     0.008 C 
ATOM     23  C   UNL A   1      32.598  16.689  25.069  1.00  0.00     0.008 C 
ENDBRANCH  20  21
ENDBRANCH  19  20
ENDBRANCH   9  19
BRANCH  18  24
ATOM     24  C   UNL A   1      31.311  26.173  25.754  1.00  0.00     0.429 C 
ATOM     25  F   UNL A   1      31.006  27.477  25.948  1.00  0.00    -0.167 F 
ATOM     26  F   UNL A   1      30.257  25.456  26.209  1.00  0.00    -0.167 F 
ATOM     27  F   UNL A   1      32.357  25.875  26.561  1.00  0.00    -0.167 F 
ENDBRANCH  18  24
ENDBRANCH   5   8
ENDBRANCH   3   4
ENDBRANCH   2   3
ENDBRANCH   1   2
BRANCH   1  28
ATOM     28  C   UNL A   1      33.795  31.722  28.254  1.00  0.00     0.002 C 
BRANCH  28  29
ATOM     29  C   UNL A   1      32.746  32.603  27.574  1.00  0.00     0.021 C 
BRANCH  29  30
ATOM     30  C   UNL A   1      33.199  34.028  27.280  1.00  0.00     0.116 C 
BRANCH  30  31
ATOM     31  N   UNL A   1      32.757  34.969  28.297  1.00  0.00    -0.352 N 
ATOM     32  C   UNL A   1      33.200  35.131  29.588  1.00  0.00     0.251 C 
ATOM     33  H   UNL A   1      32.035  35.579  28.020  1.00  0.00     0.163 HD
ATOM     34  O   UNL A   1      32.575  35.850  30.363  1.00  0.00    -0.269 OA
BRANCH  32  35
ATOM     35  C   UNL A   1      34.411  34.414  30.042  1.00  0.00     0.039 A 
ATOM     36  C   UNL A   1      34.352  33.553  31.139  1.00  0.00     0.014 A 
ATOM     37  C   UNL A   1      35.622  34.615  29.374  1.00  0.00     0.014 A 
ATOM     38  C   UNL A   1      35.526  33.039  31.674  1.00  0.00     0.010 A 
ATOM     39  C   UNL A   1      36.790  34.013  29.857  1.00  0.00     0.010 A 
ATOM     40  C   UNL A   1      36.761  33.260  31.039  1.00  0.00    -0.014 A 
BRANCH  40  41
ATOM     41  C   UNL A   1      37.987  32.661  31.632  1.00  0.00     0.031 A 
ATOM     42  C   UNL A   1      38.502  33.099  32.977  1.00  0.00     0.074 A 
ATOM     43  C   UNL A   1      38.602  31.660  30.970  1.00  0.00     0.049 A 
ATOM     44  N   UNL A   1      39.488  32.596  33.676  1.00  0.00    -0.248 NA
ATOM     45  C   UNL A   1      37.840  34.244  33.624  1.00  0.00     0.031 C 
ATOM     46  C   UNL A   1      38.221  31.175  29.641  1.00  0.00     0.029 A 
ATOM     47  N   UNL A   1      39.652  30.852  31.328  1.00  0.00    -0.354 N 
ATOM     48  C   UNL A   1      39.587  33.378  34.819  1.00  0.00     0.074 A 
ATOM     49  C   UNL A   1      38.567  34.399  34.723  1.00  0.00     0.031 C 
ATOM     50  C   UNL A   1      38.979  30.116  29.324  1.00  0.00     0.029 A 
ATOM     51  C   UNL A   1      39.935  29.877  30.401  1.00  0.00     0.049 A 
ATOM     52  H   UNL A   1      40.153  30.959  32.168  1.00  0.00     0.167 HD
ATOM     53  C   UNL A   1      40.435  33.243  35.865  1.00  0.00     0.034 A 
ATOM     54  C   UNL A   1      40.856  28.894  30.409  1.00  0.00     0.034 A 
ATOM     55  C   UNL A   1      41.409  32.193  35.987  1.00  0.00     0.049 A 
ATOM     56  C   UNL A   1      41.766  28.751  31.592  1.00  0.00     0.074 A 
ATOM     57  C   UNL A   1      42.262  31.939  37.046  1.00  0.00     0.029 A 
ATOM     58  N   UNL A   1      41.663  31.230  35.025  1.00  0.00    -0.354 N 
ATOM     59  N   UNL A   1      41.767  29.436  32.709  1.00  0.00    -0.248 NA
ATOM     60  C   UNL A   1      42.790  27.700  31.528  1.00  0.00     0.031 C 
ATOM     61  C   UNL A   1      43.040  30.826  36.720  1.00  0.00     0.029 A 
ATOM     62  C   UNL A   1      42.665  30.384  35.462  1.00  0.00     0.049 A 
ATOM     63  H   UNL A   1      41.199  31.158  34.159  1.00  0.00     0.167 HD
ATOM     64  C   UNL A   1      42.785  28.897  33.484  1.00  0.00     0.074 A 
ATOM     65  C   UNL A   1      43.367  27.813  32.719  1.00  0.00     0.031 C 
ATOM     66  C   UNL A   1      43.205  29.281  34.712  1.00  0.00     0.034 A 
BRANCH  53  67
ATOM     67  C   UNL A   1      40.322  34.212  37.009  1.00  0.00     0.023 A 
ATOM     68  C   UNL A   1      40.762  35.538  36.832  1.00  0.00     0.012 A 
ATOM     69  C   UNL A   1      39.663  33.851  38.200  1.00  0.00     0.148 A 
ATOM     70  C   UNL A   1      40.555  36.491  37.826  1.00  0.00     0.002 A 
ATOM     71  C   UNL A   1      39.435  34.814  39.176  1.00  0.00     0.091 A 
ATOM     72  F   UNL A   1      39.259  32.581  38.347  1.00  0.00    -0.205 F 
ATOM     73  C   UNL A   1      39.882  36.133  38.992  1.00  0.00     0.022 A 
BRANCH  71  74
ATOM     74  S   UNL A   1      38.528  34.475  40.690  1.00  0.00     0.127 S 
ATOM     75  O   UNL A   1      37.429  33.647  40.193  1.00  0.00    -0.237 OA
ATOM     76  O   UNL A   1      39.521  33.756  41.488  1.00  0.00    -0.237 OA
ATOM     77  O   UNL A   1      38.132  35.771  41.223  1.00  0.00    -0.744 OA
ENDBRANCH  71  74
ENDBRANCH  53  67
BRANCH  54  78
ATOM     78  C   UNL A   1      40.906  27.942  29.267  1.00  0.00     0.023 A 
ATOM     79  C   UNL A   1      40.014  26.854  29.235  1.00  0.00     0.012 A 
ATOM     80  C   UNL A   1      41.760  28.169  28.170  1.00  0.00     0.148 A 
ATOM     81  C   UNL A   1      39.972  26.006  28.129  1.00  0.00     0.002 A 
ATOM     82  C   UNL A   1      41.682  27.348  27.053  1.00  0.00     0.091 A 
ATOM     83  F   UNL A   1      42.601  29.211  28.230  1.00  0.00    -0.205 F 
ATOM     84  C   UNL A   1      40.795  26.260  27.033  1.00  0.00     0.022 A 
BRANCH  82  85
ATOM     85  S   UNL A   1      42.615  27.665  25.551  1.00  0.00     0.127 S 
ATOM     86  O   UNL A   1      42.319  26.473  24.761  1.00  0.00    -0.237 OA
ATOM     87  O   UNL A   1      41.990  28.897  25.068  1.00  0.00    -0.237 OA
ATOM     88  O   UNL A   1      44.002  27.813  25.969  1.00  0.00    -0.744 OA
ENDBRANCH  82  85
ENDBRANCH  54  78
BRANCH  66  89
ATOM     89  C   UNL A   1      44.353  28.542  35.339  1.00  0.00     0.023 A 
ATOM     90  C   UNL A   1      45.668  28.954  35.054  1.00  0.00     0.012 A 
ATOM     91  C   UNL A   1      44.122  27.577  36.338  1.00  0.00     0.148 A 
ATOM     92  C   UNL A   1      46.742  28.419  35.763  1.00  0.00     0.002 A 
ATOM     93  C   UNL A   1      45.194  27.073  37.062  1.00  0.00     0.091 A 
ATOM     94  F   UNL A   1      42.857  27.208  36.587  1.00  0.00    -0.205 F 
ATOM     95  C   UNL A   1      46.505  27.491  36.775  1.00  0.00     0.022 A 
BRANCH  93  96
ATOM     96  S   UNL A   1      44.988  25.936  38.437  1.00  0.00     0.127 S 
ATOM     97  O   UNL A   1      46.285  26.035  39.105  1.00  0.00    -0.237 OA
ATOM     98  O   UNL A   1      43.875  26.540  39.169  1.00  0.00    -0.237 OA
ATOM     99  O   UNL A   1      44.701  24.635  37.848  1.00  0.00    -0.744 OA
ENDBRANCH  93  96
ENDBRANCH  66  89
ENDBRANCH  40  41
ENDBRANCH  32  35
ENDBRANCH  30  31
ENDBRANCH  29  30
ENDBRANCH  28  29
ENDBRANCH   1  28
TORSDOF 20
ENDMDL
