MODEL 1
REMARK VINA RESULT:     -11.1      0.000      0.000
REMARK SMILES Cc1cc(C)c(C(=O)NCCCCCCNC(=O)c2ccc(-c3c4nc(c(-c5cccc(S(=O)(=O)[O-])c5F)c5ccc([nH]5)c(-c5cccc(S(=O)(=O)[O-])c5F)c5nc(c(-c6cccc(S(=O)(=O)[O-])c6F)c6ccc3[nH]6)C=C5)C=C4)cc2)c(N[C@@H](CO)C(C)C)n1
REMARK SMILES IDX 12 1 11 2 10 3 9 4 7 5 8 6 6 8 1 9 2 10 3 11 90 12 4 13
REMARK SMILES IDX 82 14 5 15 83 16 84 18 85 19 86 20 87 22 88 23 89 24 13 25
REMARK SMILES IDX 14 26 15 27 16 28 17 29 18 31 19 32 20 33 81 34 21 35 80 36
REMARK SMILES IDX 22 37 23 38 24 39 74 40 25 41 79 42 73 43 75 44 26 45 78 46
REMARK SMILES IDX 72 47 71 48 27 50 59 51 39 52 58 53 40 54 43 55 57 56 76 57
REMARK SMILES IDX 41 58 42 59 56 61 77 62 44 63 28 64 29 65 37 66 30 67 32 68
REMARK SMILES IDX 38 69 31 70 33 71 34 72 35 73 36 74 60 75 61 76 69 77 62 78
REMARK SMILES IDX 64 79 70 80 63 81 65 82 66 83 67 84 68 85 45 86 46 87 54 88
REMARK SMILES IDX 47 89 49 90 55 91 48 92 50 93 51 94 52 95 53 96
REMARK H PARENT 9 7 83 17 86 21 16 30 75 49 43 60
REMARK Flexibility Score: inf
ROOT
ATOM      1  C   UNL A   1      33.536  23.173  23.012  1.00  0.00     0.002 C 
ENDROOT
BRANCH   1   2
ATOM      2  C   UNL A   1      33.352  24.243  21.927  1.00  0.00     0.021 C 
BRANCH   2   3
ATOM      3  C   UNL A   1      32.482  25.447  22.280  1.00  0.00     0.116 C 
BRANCH   3   4
ATOM      4  N   UNL A   1      31.353  25.167  23.142  1.00  0.00    -0.352 N 
ATOM      5  C   UNL A   1      30.870  25.835  24.250  1.00  0.00     0.255 C 
ATOM      6  O   UNL A   1      29.849  25.379  24.776  1.00  0.00    -0.269 OA
ATOM      7  H   UNL A   1      30.842  24.362  22.896  1.00  0.00     0.163 HD
BRANCH   5   8
ATOM      8  C   UNL A   1      31.556  27.009  24.884  1.00  0.00     0.085 A 
ATOM      9  C   UNL A   1      33.097  30.565  26.671  1.00  0.00     0.067 C 
ATOM     10  C   UNL A   1      32.596  29.307  26.031  1.00  0.00     0.040 A 
ATOM     11  C   UNL A   1      33.225  28.099  26.261  1.00  0.00     0.028 A 
ATOM     12  N   UNL A   1      31.538  29.412  25.207  1.00  0.00    -0.236 NA
ATOM     13  C   UNL A   1      32.749  26.937  25.632  1.00  0.00    -0.033 A 
ATOM     14  C   UNL A   1      31.026  28.298  24.624  1.00  0.00     0.139 A 
ATOM     15  C   UNL A   1      33.624  25.725  25.765  1.00  0.00     0.045 C 
BRANCH  14  16
ATOM     16  N   UNL A   1      29.960  28.504  23.759  1.00  0.00    -0.364 N 
ATOM     17  H   UNL A   1      29.436  27.731  23.449  1.00  0.00     0.162 HD
BRANCH  16  18
ATOM     18  C   UNL A   1      29.596  29.848  23.299  1.00  0.00     0.108 C 
BRANCH  18  19
ATOM     19  C   UNL A   1      29.925  29.964  21.790  1.00  0.00     0.181 C 
BRANCH  19  20
ATOM     20  O   UNL A   1      31.331  29.945  21.540  1.00  0.00    -0.394 OA
ATOM     21  H   UNL A   1      31.679  29.057  21.718  1.00  0.00     0.210 HD
ENDBRANCH  19  20
ENDBRANCH  18  19
BRANCH  18  22
ATOM     22  C   UNL A   1      28.104  30.116  23.629  1.00  0.00     0.007 C 
ATOM     23  C   UNL A   1      27.718  31.562  23.284  1.00  0.00     0.009 C 
ATOM     24  C   UNL A   1      27.174  29.167  22.860  1.00  0.00     0.009 C 
ENDBRANCH  18  22
ENDBRANCH  16  18
ENDBRANCH  14  16
ENDBRANCH   5   8
ENDBRANCH   3   4
ENDBRANCH   2   3
ENDBRANCH   1   2
BRANCH   1  25
ATOM     25  C   UNL A   1      34.958  22.891  23.507  1.00  0.00     0.002 C 
BRANCH  25  26
ATOM     26  C   UNL A   1      35.130  21.830  24.596  1.00  0.00     0.021 C 
BRANCH  26  27
ATOM     27  C   UNL A   1      36.223  22.079  25.630  1.00  0.00     0.116 C 
BRANCH  27  28
ATOM     28  N   UNL A   1      37.287  21.090  25.599  1.00  0.00    -0.352 N 
ATOM     29  C   UNL A   1      38.625  21.239  25.882  1.00  0.00     0.251 C 
ATOM     30  H   UNL A   1      37.012  20.183  25.337  1.00  0.00     0.163 HD
ATOM     31  O   UNL A   1      39.393  20.295  25.709  1.00  0.00    -0.269 OA
BRANCH  29  32
ATOM     32  C   UNL A   1      39.150  22.538  26.362  1.00  0.00     0.039 A 
ATOM     33  C   UNL A   1      40.213  22.540  27.271  1.00  0.00     0.014 A 
ATOM     34  C   UNL A   1      38.609  23.749  25.922  1.00  0.00     0.014 A 
ATOM     35  C   UNL A   1      40.777  23.751  27.682  1.00  0.00     0.010 A 
ATOM     36  C   UNL A   1      39.218  24.951  26.276  1.00  0.00     0.010 A 
ATOM     37  C   UNL A   1      40.309  24.967  27.158  1.00  0.00    -0.014 A 
BRANCH  37  38
ATOM     38  C   UNL A   1      40.959  26.260  27.503  1.00  0.00     0.031 A 
ATOM     39  C   UNL A   1      42.385  26.528  27.098  1.00  0.00     0.074 A 
ATOM     40  C   UNL A   1      40.298  27.156  28.265  1.00  0.00     0.049 A 
ATOM     41  N   UNL A   1      43.137  27.564  27.368  1.00  0.00    -0.248 NA
ATOM     42  C   UNL A   1      43.062  25.486  26.312  1.00  0.00     0.031 C 
ATOM     43  C   UNL A   1      38.942  26.981  28.789  1.00  0.00     0.029 A 
ATOM     44  N   UNL A   1      40.688  28.378  28.755  1.00  0.00    -0.354 N 
ATOM     45  C   UNL A   1      44.383  27.284  26.820  1.00  0.00     0.074 A 
ATOM     46  C   UNL A   1      44.295  25.966  26.229  1.00  0.00     0.031 C 
ATOM     47  C   UNL A   1      38.613  28.055  29.525  1.00  0.00     0.029 A 
ATOM     48  C   UNL A   1      39.742  28.979  29.553  1.00  0.00     0.049 A 
ATOM     49  H   UNL A   1      41.562  28.785  28.556  1.00  0.00     0.167 HD
ATOM     50  C   UNL A   1      45.491  28.061  26.784  1.00  0.00     0.034 A 
ATOM     51  C   UNL A   1      39.779  30.140  30.238  1.00  0.00     0.034 A 
ATOM     52  C   UNL A   1      45.562  29.389  27.333  1.00  0.00     0.049 A 
ATOM     53  C   UNL A   1      41.007  31.006  30.146  1.00  0.00     0.074 A 
ATOM     54  C   UNL A   1      46.609  30.291  27.268  1.00  0.00     0.029 A 
ATOM     55  N   UNL A   1      44.550  30.004  28.053  1.00  0.00    -0.354 N 
ATOM     56  N   UNL A   1      42.121  30.790  29.488  1.00  0.00    -0.248 NA
ATOM     57  C   UNL A   1      40.973  32.291  30.860  1.00  0.00     0.031 C 
ATOM     58  C   UNL A   1      46.239  31.442  27.970  1.00  0.00     0.029 A 
ATOM     59  C   UNL A   1      44.949  31.269  28.446  1.00  0.00     0.049 A 
ATOM     60  H   UNL A   1      43.675  29.599  28.255  1.00  0.00     0.167 HD
ATOM     61  C   UNL A   1      42.900  31.926  29.673  1.00  0.00     0.074 A 
ATOM     62  C   UNL A   1      42.126  32.835  30.493  1.00  0.00     0.031 C 
ATOM     63  C   UNL A   1      44.147  32.188  29.212  1.00  0.00     0.034 A 
BRANCH  50  64
ATOM     64  C   UNL A   1      46.709  27.516  26.083  1.00  0.00     0.023 A 
ATOM     65  C   UNL A   1      46.897  27.780  24.710  1.00  0.00     0.012 A 
ATOM     66  C   UNL A   1      47.694  26.800  26.789  1.00  0.00     0.148 A 
ATOM     67  C   UNL A   1      48.026  27.306  24.043  1.00  0.00     0.002 A 
ATOM     68  C   UNL A   1      48.840  26.371  26.127  1.00  0.00     0.091 A 
ATOM     69  F   UNL A   1      47.490  26.542  28.088  1.00  0.00    -0.205 F 
ATOM     70  C   UNL A   1      49.001  26.613  24.754  1.00  0.00     0.022 A 
BRANCH  68  71
ATOM     71  S   UNL A   1      50.192  25.541  26.971  1.00  0.00     0.127 S 
ATOM     72  O   UNL A   1      51.136  25.328  25.875  1.00  0.00    -0.237 OA
ATOM     73  O   UNL A   1      50.610  26.547  27.948  1.00  0.00    -0.237 OA
ATOM     74  O   UNL A   1      49.622  24.333  27.550  1.00  0.00    -0.744 OA
ENDBRANCH  68  71
ENDBRANCH  50  64
BRANCH  51  75
ATOM     75  C   UNL A   1      38.588  30.583  31.017  1.00  0.00     0.023 A 
ATOM     76  C   UNL A   1      38.510  30.284  32.391  1.00  0.00     0.012 A 
ATOM     77  C   UNL A   1      37.552  31.323  30.415  1.00  0.00     0.148 A 
ATOM     78  C   UNL A   1      37.407  30.684  33.145  1.00  0.00     0.002 A 
ATOM     79  C   UNL A   1      36.483  31.769  31.184  1.00  0.00     0.091 A 
ATOM     80  F   UNL A   1      37.640  31.589  29.104  1.00  0.00    -0.205 F 
ATOM     81  C   UNL A   1      36.399  31.435  32.545  1.00  0.00     0.022 A 
BRANCH  79  82
ATOM     82  S   UNL A   1      35.209  32.851  30.525  1.00  0.00     0.127 S 
ATOM     83  O   UNL A   1      34.722  32.081  29.384  1.00  0.00    -0.237 OA
ATOM     84  O   UNL A   1      34.279  32.940  31.651  1.00  0.00    -0.237 OA
ATOM     85  O   UNL A   1      35.882  34.102  30.205  1.00  0.00    -0.744 OA
ENDBRANCH  79  82
ENDBRANCH  51  75
BRANCH  63  86
ATOM     86  C   UNL A   1      44.751  33.530  29.538  1.00  0.00     0.023 A 
ATOM     87  C   UNL A   1      45.539  33.685  30.695  1.00  0.00     0.012 A 
ATOM     88  C   UNL A   1      44.607  34.612  28.646  1.00  0.00     0.148 A 
ATOM     89  C   UNL A   1      46.153  34.906  30.973  1.00  0.00     0.002 A 
ATOM     90  C   UNL A   1      45.262  35.809  28.906  1.00  0.00     0.091 A 
ATOM     91  F   UNL A   1      43.837  34.448  27.562  1.00  0.00    -0.205 F 
ATOM     92  C   UNL A   1      46.026  35.962  30.074  1.00  0.00     0.022 A 
BRANCH  90  93
ATOM     93  S   UNL A   1      45.236  37.190  27.756  1.00  0.00     0.127 S 
ATOM     94  O   UNL A   1      43.809  37.302  27.457  1.00  0.00    -0.237 OA
ATOM     95  O   UNL A   1      45.777  38.280  28.569  1.00  0.00    -0.237 OA
ATOM     96  O   UNL A   1      46.080  36.796  26.635  1.00  0.00    -0.744 OA
ENDBRANCH  90  93
ENDBRANCH  63  86
ENDBRANCH  37  38
ENDBRANCH  29  32
ENDBRANCH  27  28
ENDBRANCH  26  27
ENDBRANCH  25  26
ENDBRANCH   1  25
TORSDOF 21
ENDMDL
MODEL 2
REMARK VINA RESULT:     -10.0      2.482      8.085
REMARK SMILES Cc1cc(C)c(C(=O)NCCCCCCNC(=O)c2ccc(-c3c4nc(c(-c5cccc(S(=O)(=O)[O-])c5F)c5ccc([nH]5)c(-c5cccc(S(=O)(=O)[O-])c5F)c5nc(c(-c6cccc(S(=O)(=O)[O-])c6F)c6ccc3[nH]6)C=C5)C=C4)cc2)c(N[C@@H](CO)C(C)C)n1
REMARK SMILES IDX 12 1 11 2 10 3 9 4 7 5 8 6 6 8 1 9 2 10 3 11 90 12 4 13
REMARK SMILES IDX 82 14 5 15 83 16 84 18 85 19 86 20 87 22 88 23 89 24 13 25
REMARK SMILES IDX 14 26 15 27 16 28 17 29 18 31 19 32 20 33 81 34 21 35 80 36
REMARK SMILES IDX 22 37 23 38 24 39 74 40 25 41 79 42 73 43 75 44 26 45 78 46
REMARK SMILES IDX 72 47 71 48 27 50 59 51 39 52 58 53 40 54 43 55 57 56 76 57
REMARK SMILES IDX 41 58 42 59 56 61 77 62 44 63 28 64 29 65 37 66 30 67 32 68
REMARK SMILES IDX 38 69 31 70 33 71 34 72 35 73 36 74 60 75 61 76 69 77 62 78
REMARK SMILES IDX 64 79 70 80 63 81 65 82 66 83 67 84 68 85 45 86 46 87 54 88
REMARK SMILES IDX 47 89 49 90 55 91 48 92 50 93 51 94 52 95 53 96
REMARK H PARENT 9 7 83 17 86 21 16 30 75 49 43 60
REMARK Flexibility Score: inf
ROOT
ATOM      1  C   UNL A   1      35.656  19.689  24.993  1.00  0.00     0.002 C 
ENDROOT
BRANCH   1   2
ATOM      2  C   UNL A   1      34.309  20.421  24.923  1.00  0.00     0.021 C 
BRANCH   2   3
ATOM      3  C   UNL A   1      34.249  21.687  24.072  1.00  0.00     0.116 C 
BRANCH   3   4
ATOM      4  N   UNL A   1      35.004  22.814  24.581  1.00  0.00    -0.352 N 
ATOM      5  C   UNL A   1      34.616  23.889  25.355  1.00  0.00     0.255 C 
ATOM      6  O   UNL A   1      35.498  24.695  25.674  1.00  0.00    -0.269 OA
ATOM      7  H   UNL A   1      35.957  22.812  24.332  1.00  0.00     0.163 HD
BRANCH   5   8
ATOM      8  C   UNL A   1      33.196  24.170  25.745  1.00  0.00     0.085 A 
ATOM      9  C   UNL A   1      29.109  25.182  26.445  1.00  0.00     0.067 C 
ATOM     10  C   UNL A   1      30.549  24.825  26.242  1.00  0.00     0.040 A 
ATOM     11  C   UNL A   1      31.107  23.744  26.897  1.00  0.00     0.028 A 
ATOM     12  N   UNL A   1      31.273  25.613  25.426  1.00  0.00    -0.236 NA
ATOM     13  C   UNL A   1      32.465  23.442  26.707  1.00  0.00    -0.033 A 
ATOM     14  C   UNL A   1      32.575  25.315  25.185  1.00  0.00     0.139 A 
ATOM     15  C   UNL A   1      33.030  22.398  27.625  1.00  0.00     0.045 C 
BRANCH  14  16
ATOM     16  N   UNL A   1      33.255  26.203  24.363  1.00  0.00    -0.364 N 
ATOM     17  H   UNL A   1      34.031  25.884  23.848  1.00  0.00     0.162 HD
BRANCH  16  18
ATOM     18  C   UNL A   1      32.842  27.605  24.242  1.00  0.00     0.108 C 
BRANCH  18  19
ATOM     19  C   UNL A   1      33.892  28.496  24.951  1.00  0.00     0.181 C 
BRANCH  19  20
ATOM     20  O   UNL A   1      33.356  29.762  25.338  1.00  0.00    -0.394 OA
ATOM     21  H   UNL A   1      34.059  30.429  25.325  1.00  0.00     0.210 HD
ENDBRANCH  19  20
ENDBRANCH  18  19
BRANCH  18  22
ATOM     22  C   UNL A   1      32.645  27.954  22.744  1.00  0.00     0.007 C 
ATOM     23  C   UNL A   1      33.996  28.213  22.061  1.00  0.00     0.009 C 
ATOM     24  C   UNL A   1      31.925  26.829  21.989  1.00  0.00     0.009 C 
ENDBRANCH  18  22
ENDBRANCH  16  18
ENDBRANCH  14  16
ENDBRANCH   5   8
ENDBRANCH   3   4
ENDBRANCH   2   3
ENDBRANCH   1   2
BRANCH   1  25
ATOM     25  C   UNL A   1      36.917  20.468  24.609  1.00  0.00     0.002 C 
BRANCH  25  26
ATOM     26  C   UNL A   1      38.256  19.734  24.696  1.00  0.00     0.021 C 
BRANCH  26  27
ATOM     27  C   UNL A   1      39.005  19.829  26.021  1.00  0.00     0.116 C 
BRANCH  27  28
ATOM     28  N   UNL A   1      40.245  19.072  26.043  1.00  0.00    -0.352 N 
ATOM     29  C   UNL A   1      41.531  19.509  26.261  1.00  0.00     0.251 C 
ATOM     30  H   UNL A   1      40.152  18.107  25.877  1.00  0.00     0.163 HD
ATOM     31  O   UNL A   1      42.469  18.723  26.149  1.00  0.00    -0.269 OA
BRANCH  29  32
ATOM     32  C   UNL A   1      41.794  20.927  26.598  1.00  0.00     0.039 A 
ATOM     33  C   UNL A   1      42.276  21.238  27.874  1.00  0.00     0.014 A 
ATOM     34  C   UNL A   1      41.574  21.948  25.670  1.00  0.00     0.014 A 
ATOM     35  C   UNL A   1      42.604  22.559  28.193  1.00  0.00     0.010 A 
ATOM     36  C   UNL A   1      41.969  23.252  25.965  1.00  0.00     0.010 A 
ATOM     37  C   UNL A   1      42.489  23.572  27.228  1.00  0.00    -0.014 A 
BRANCH  37  38
ATOM     38  C   UNL A   1      42.927  24.966  27.513  1.00  0.00     0.031 A 
ATOM     39  C   UNL A   1      41.969  25.956  28.120  1.00  0.00     0.074 A 
ATOM     40  C   UNL A   1      44.159  25.367  27.138  1.00  0.00     0.049 A 
ATOM     41  N   UNL A   1      42.150  27.227  28.375  1.00  0.00    -0.248 NA
ATOM     42  C   UNL A   1      40.625  25.463  28.459  1.00  0.00     0.031 C 
ATOM     43  C   UNL A   1      45.154  24.527  26.468  1.00  0.00     0.029 A 
ATOM     44  N   UNL A   1      44.774  26.591  27.238  1.00  0.00    -0.354 N 
ATOM     45  C   UNL A   1      40.936  27.693  28.868  1.00  0.00     0.074 A 
ATOM     46  C   UNL A   1      40.017  26.575  28.846  1.00  0.00     0.031 C 
ATOM     47  C   UNL A   1      46.252  25.258  26.220  1.00  0.00     0.029 A 
ATOM     48  C   UNL A   1      46.031  26.624  26.681  1.00  0.00     0.049 A 
ATOM     49  H   UNL A   1      44.353  27.372  27.667  1.00  0.00     0.167 HD
ATOM     50  C   UNL A   1      40.620  28.928  29.324  1.00  0.00     0.034 A 
ATOM     51  C   UNL A   1      46.907  27.641  26.549  1.00  0.00     0.034 A 
ATOM     52  C   UNL A   1      41.549  30.025  29.387  1.00  0.00     0.049 A 
ATOM     53  C   UNL A   1      46.549  28.994  27.103  1.00  0.00     0.074 A 
ATOM     54  C   UNL A   1      41.353  31.288  29.916  1.00  0.00     0.029 A 
ATOM     55  N   UNL A   1      42.847  29.993  28.900  1.00  0.00    -0.354 N 
ATOM     56  N   UNL A   1      45.449  29.371  27.709  1.00  0.00    -0.248 NA
ATOM     57  C   UNL A   1      47.564  30.051  26.990  1.00  0.00     0.031 C 
ATOM     58  C   UNL A   1      42.524  32.029  29.727  1.00  0.00     0.029 A 
ATOM     59  C   UNL A   1      43.460  31.216  29.107  1.00  0.00     0.049 A 
ATOM     60  H   UNL A   1      43.269  29.215  28.470  1.00  0.00     0.167 HD
ATOM     61  C   UNL A   1      45.655  30.694  28.086  1.00  0.00     0.074 A 
ATOM     62  C   UNL A   1      46.991  31.048  27.652  1.00  0.00     0.031 C 
ATOM     63  C   UNL A   1      44.810  31.539  28.725  1.00  0.00     0.034 A 
BRANCH  50  64
ATOM     64  C   UNL A   1      39.223  29.150  29.842  1.00  0.00     0.023 A 
ATOM     65  C   UNL A   1      38.914  28.813  31.177  1.00  0.00     0.012 A 
ATOM     66  C   UNL A   1      38.235  29.745  29.034  1.00  0.00     0.148 A 
ATOM     67  C   UNL A   1      37.634  29.030  31.686  1.00  0.00     0.002 A 
ATOM     68  C   UNL A   1      36.974  30.001  29.564  1.00  0.00     0.091 A 
ATOM     69  F   UNL A   1      38.540  30.040  27.763  1.00  0.00    -0.205 F 
ATOM     70  C   UNL A   1      36.670  29.633  30.884  1.00  0.00     0.022 A 
BRANCH  68  71
ATOM     71  S   UNL A   1      35.688  30.846  28.638  1.00  0.00     0.127 S 
ATOM     72  O   UNL A   1      36.477  31.689  27.741  1.00  0.00    -0.237 OA
ATOM     73  O   UNL A   1      35.000  29.734  27.980  1.00  0.00    -0.237 OA
ATOM     74  O   UNL A   1      34.886  31.558  29.622  1.00  0.00    -0.744 OA
ENDBRANCH  68  71
ENDBRANCH  50  64
BRANCH  51  75
ATOM     75  C   UNL A   1      48.237  27.400  25.921  1.00  0.00     0.023 A 
ATOM     76  C   UNL A   1      49.317  26.987  26.725  1.00  0.00     0.012 A 
ATOM     77  C   UNL A   1      48.431  27.546  24.534  1.00  0.00     0.148 A 
ATOM     78  C   UNL A   1      50.574  26.755  26.166  1.00  0.00     0.002 A 
ATOM     79  C   UNL A   1      49.670  27.258  23.974  1.00  0.00     0.091 A 
ATOM     80  F   UNL A   1      47.393  27.949  23.787  1.00  0.00    -0.205 F 
ATOM     81  C   UNL A   1      50.748  26.880  24.790  1.00  0.00     0.022 A 
BRANCH  79  82
ATOM     82  S   UNL A   1      49.949  27.264  22.199  1.00  0.00     0.127 S 
ATOM     83  O   UNL A   1      48.907  26.356  21.728  1.00  0.00    -0.237 OA
ATOM     84  O   UNL A   1      49.736  28.673  21.866  1.00  0.00    -0.237 OA
ATOM     85  O   UNL A   1      51.319  26.807  22.014  1.00  0.00    -0.744 OA
ENDBRANCH  79  82
ENDBRANCH  51  75
BRANCH  63  86
ATOM     86  C   UNL A   1      45.309  32.925  29.044  1.00  0.00     0.023 A 
ATOM     87  C   UNL A   1      45.854  33.202  30.313  1.00  0.00     0.012 A 
ATOM     88  C   UNL A   1      45.318  33.926  28.052  1.00  0.00     0.148 A 
ATOM     89  C   UNL A   1      46.375  34.464  30.598  1.00  0.00     0.002 A 
ATOM     90  C   UNL A   1      45.884  35.164  28.329  1.00  0.00     0.091 A 
ATOM     91  F   UNL A   1      44.777  33.647  26.858  1.00  0.00    -0.205 F 
ATOM     92  C   UNL A   1      46.402  35.439  29.604  1.00  0.00     0.022 A 
BRANCH  90  93
ATOM     93  S   UNL A   1      46.052  36.447  27.081  1.00  0.00     0.127 S 
ATOM     94  O   UNL A   1      44.825  37.217  27.280  1.00  0.00    -0.237 OA
ATOM     95  O   UNL A   1      47.276  37.129  27.502  1.00  0.00    -0.237 OA
ATOM     96  O   UNL A   1      46.155  35.754  25.803  1.00  0.00    -0.744 OA
ENDBRANCH  90  93
ENDBRANCH  63  86
ENDBRANCH  37  38
ENDBRANCH  29  32
ENDBRANCH  27  28
ENDBRANCH  26  27
ENDBRANCH  25  26
ENDBRANCH   1  25
TORSDOF 21
ENDMDL
MODEL 3
REMARK VINA RESULT:      -9.9      4.587      9.753
REMARK SMILES Cc1cc(C)c(C(=O)NCCCCCCNC(=O)c2ccc(-c3c4nc(c(-c5cccc(S(=O)(=O)[O-])c5F)c5ccc([nH]5)c(-c5cccc(S(=O)(=O)[O-])c5F)c5nc(c(-c6cccc(S(=O)(=O)[O-])c6F)c6ccc3[nH]6)C=C5)C=C4)cc2)c(N[C@@H](CO)C(C)C)n1
REMARK SMILES IDX 12 1 11 2 10 3 9 4 7 5 8 6 6 8 1 9 2 10 3 11 90 12 4 13
REMARK SMILES IDX 82 14 5 15 83 16 84 18 85 19 86 20 87 22 88 23 89 24 13 25
REMARK SMILES IDX 14 26 15 27 16 28 17 29 18 31 19 32 20 33 81 34 21 35 80 36
REMARK SMILES IDX 22 37 23 38 24 39 74 40 25 41 79 42 73 43 75 44 26 45 78 46
REMARK SMILES IDX 72 47 71 48 27 50 59 51 39 52 58 53 40 54 43 55 57 56 76 57
REMARK SMILES IDX 41 58 42 59 56 61 77 62 44 63 28 64 29 65 37 66 30 67 32 68
REMARK SMILES IDX 38 69 31 70 33 71 34 72 35 73 36 74 60 75 61 76 69 77 62 78
REMARK SMILES IDX 64 79 70 80 63 81 65 82 66 83 67 84 68 85 45 86 46 87 54 88
REMARK SMILES IDX 47 89 49 90 55 91 48 92 50 93 51 94 52 95 53 96
REMARK H PARENT 9 7 83 17 86 21 16 30 75 49 43 60
REMARK Flexibility Score: inf
ROOT
ATOM      1  C   UNL A   1      33.306  27.913  25.062  1.00  0.00     0.002 C 
ENDROOT
BRANCH   1   2
ATOM      2  C   UNL A   1      33.185  26.857  26.169  1.00  0.00     0.021 C 
BRANCH   2   3
ATOM      3  C   UNL A   1      31.824  26.190  26.347  1.00  0.00     0.116 C 
BRANCH   3   4
ATOM      4  N   UNL A   1      31.041  26.042  25.138  1.00  0.00    -0.352 N 
ATOM      5  C   UNL A   1      30.672  24.916  24.428  1.00  0.00     0.255 C 
ATOM      6  O   UNL A   1      29.959  25.092  23.434  1.00  0.00    -0.269 OA
ATOM      7  H   UNL A   1      30.716  26.890  24.756  1.00  0.00     0.163 HD
BRANCH   5   8
ATOM      8  C   UNL A   1      31.155  23.532  24.745  1.00  0.00     0.085 A 
ATOM      9  C   UNL A   1      32.893  19.685  25.375  1.00  0.00     0.067 C 
ATOM     10  C   UNL A   1      32.244  21.018  25.163  1.00  0.00     0.040 A 
ATOM     11  C   UNL A   1      31.383  21.542  26.108  1.00  0.00     0.028 A 
ATOM     12  N   UNL A   1      32.512  21.661  24.013  1.00  0.00    -0.236 NA
ATOM     13  C   UNL A   1      30.770  22.784  25.878  1.00  0.00    -0.033 A 
ATOM     14  C   UNL A   1      31.974  22.886  23.785  1.00  0.00     0.139 A 
ATOM     15  C   UNL A   1      29.689  23.162  26.846  1.00  0.00     0.045 C 
BRANCH  14  16
ATOM     16  N   UNL A   1      32.273  23.458  22.556  1.00  0.00    -0.364 N 
ATOM     17  H   UNL A   1      31.583  23.475  21.853  1.00  0.00     0.162 HD
BRANCH  16  18
ATOM     18  C   UNL A   1      33.591  24.039  22.281  1.00  0.00     0.108 C 
BRANCH  18  19
ATOM     19  C   UNL A   1      33.445  25.577  22.176  1.00  0.00     0.181 C 
BRANCH  19  20
ATOM     20  O   UNL A   1      33.172  26.005  20.841  1.00  0.00    -0.394 OA
ATOM     21  H   UNL A   1      33.948  26.463  20.484  1.00  0.00     0.210 HD
ENDBRANCH  19  20
ENDBRANCH  18  19
BRANCH  18  22
ATOM     22  C   UNL A   1      34.588  23.586  23.379  1.00  0.00     0.007 C 
ATOM     23  C   UNL A   1      35.900  23.087  22.755  1.00  0.00     0.009 C 
ATOM     24  C   UNL A   1      34.915  24.725  24.355  1.00  0.00     0.009 C 
ENDBRANCH  18  22
ENDBRANCH  16  18
ENDBRANCH  14  16
ENDBRANCH   5   8
ENDBRANCH   3   4
ENDBRANCH   2   3
ENDBRANCH   1   2
BRANCH   1  25
ATOM     25  C   UNL A   1      32.518  29.217  25.225  1.00  0.00     0.002 C 
BRANCH  25  26
ATOM     26  C   UNL A   1      32.555  29.899  26.594  1.00  0.00     0.021 C 
BRANCH  26  27
ATOM     27  C   UNL A   1      33.917  30.378  27.084  1.00  0.00     0.116 C 
BRANCH  27  28
ATOM     28  N   UNL A   1      33.852  31.583  27.894  1.00  0.00    -0.352 N 
ATOM     29  C   UNL A   1      34.701  32.015  28.886  1.00  0.00     0.251 C 
ATOM     30  H   UNL A   1      33.089  32.176  27.706  1.00  0.00     0.163 HD
ATOM     31  O   UNL A   1      34.426  33.028  29.526  1.00  0.00    -0.269 OA
BRANCH  29  32
ATOM     32  C   UNL A   1      35.927  31.250  29.208  1.00  0.00     0.039 A 
ATOM     33  C   UNL A   1      37.152  31.696  28.699  1.00  0.00     0.014 A 
ATOM     34  C   UNL A   1      35.882  30.106  30.008  1.00  0.00     0.014 A 
ATOM     35  C   UNL A   1      38.334  31.037  29.050  1.00  0.00     0.010 A 
ATOM     36  C   UNL A   1      37.067  29.495  30.415  1.00  0.00     0.010 A 
ATOM     37  C   UNL A   1      38.306  29.953  29.942  1.00  0.00    -0.014 A 
BRANCH  37  38
ATOM     38  C   UNL A   1      39.559  29.301  30.407  1.00  0.00     0.031 A 
ATOM     39  C   UNL A   1      40.274  29.810  31.631  1.00  0.00     0.074 A 
ATOM     40  C   UNL A   1      40.107  28.310  29.674  1.00  0.00     0.049 A 
ATOM     41  N   UNL A   1      41.410  29.414  32.146  1.00  0.00    -0.248 NA
ATOM     42  C   UNL A   1      39.646  30.927  32.355  1.00  0.00     0.031 C 
ATOM     43  C   UNL A   1      39.556  27.780  28.425  1.00  0.00     0.029 A 
ATOM     44  N   UNL A   1      41.264  27.593  29.856  1.00  0.00    -0.354 N 
ATOM     45  C   UNL A   1      41.651  30.254  33.228  1.00  0.00     0.074 A 
ATOM     46  C   UNL A   1      40.559  31.202  33.275  1.00  0.00     0.031 C 
ATOM     47  C   UNL A   1      40.372  26.823  27.956  1.00  0.00     0.029 A 
ATOM     48  C   UNL A   1      41.519  26.692  28.848  1.00  0.00     0.049 A 
ATOM     49  H   UNL A   1      41.856  27.714  30.633  1.00  0.00     0.167 HD
ATOM     50  C   UNL A   1      42.671  30.223  34.118  1.00  0.00     0.034 A 
ATOM     51  C   UNL A   1      42.561  25.858  28.657  1.00  0.00     0.034 A 
ATOM     52  C   UNL A   1      43.732  29.252  34.094  1.00  0.00     0.049 A 
ATOM     53  C   UNL A   1      43.661  25.813  29.685  1.00  0.00     0.074 A 
ATOM     54  C   UNL A   1      44.761  29.081  35.003  1.00  0.00     0.029 A 
ATOM     55  N   UNL A   1      43.905  28.291  33.110  1.00  0.00    -0.354 N 
ATOM     56  N   UNL A   1      43.788  26.511  30.788  1.00  0.00    -0.248 NA
ATOM     57  C   UNL A   1      44.742  24.842  29.462  1.00  0.00     0.031 C 
ATOM     58  C   UNL A   1      45.571  28.033  34.555  1.00  0.00     0.029 A 
ATOM     59  C   UNL A   1      45.028  27.531  33.383  1.00  0.00     0.049 A 
ATOM     60  H   UNL A   1      43.316  28.169  32.331  1.00  0.00     0.167 HD
ATOM     61  C   UNL A   1      44.936  26.035  31.410  1.00  0.00     0.074 A 
ATOM     62  C   UNL A   1      45.461  24.980  30.569  1.00  0.00     0.031 C 
ATOM     63  C   UNL A   1      45.508  26.444  32.569  1.00  0.00     0.034 A 
BRANCH  50  64
ATOM     64  C   UNL A   1      42.665  31.242  35.228  1.00  0.00     0.023 A 
ATOM     65  C   UNL A   1      42.082  30.914  36.470  1.00  0.00     0.012 A 
ATOM     66  C   UNL A   1      43.286  32.496  35.067  1.00  0.00     0.148 A 
ATOM     67  C   UNL A   1      42.084  31.831  37.520  1.00  0.00     0.002 A 
ATOM     68  C   UNL A   1      43.325  33.387  36.135  1.00  0.00     0.091 A 
ATOM     69  F   UNL A   1      43.818  32.798  33.874  1.00  0.00    -0.205 F 
ATOM     70  C   UNL A   1      42.714  33.060  37.356  1.00  0.00     0.022 A 
BRANCH  68  71
ATOM     71  S   UNL A   1      44.182  34.963  36.049  1.00  0.00     0.127 S 
ATOM     72  O   UNL A   1      43.388  35.676  35.049  1.00  0.00    -0.237 OA
ATOM     73  O   UNL A   1      44.036  35.468  37.415  1.00  0.00    -0.237 OA
ATOM     74  O   UNL A   1      45.550  34.656  35.659  1.00  0.00    -0.744 OA
ENDBRANCH  68  71
ENDBRANCH  50  64
BRANCH  51  75
ATOM     75  C   UNL A   1      42.580  24.949  27.477  1.00  0.00     0.023 A 
ATOM     76  C   UNL A   1      43.147  25.396  26.268  1.00  0.00     0.012 A 
ATOM     77  C   UNL A   1      42.071  23.638  27.553  1.00  0.00     0.148 A 
ATOM     78  C   UNL A   1      43.178  24.568  25.146  1.00  0.00     0.002 A 
ATOM     79  C   UNL A   1      42.157  22.798  26.448  1.00  0.00     0.091 A 
ATOM     80  F   UNL A   1      41.527  23.234  28.709  1.00  0.00    -0.205 F 
ATOM     81  C   UNL A   1      42.693  23.266  25.238  1.00  0.00     0.022 A 
BRANCH  79  82
ATOM     82  S   UNL A   1      41.678  21.067  26.517  1.00  0.00     0.127 S 
ATOM     83  O   UNL A   1      42.395  20.512  25.371  1.00  0.00    -0.237 OA
ATOM     84  O   UNL A   1      42.197  20.663  27.824  1.00  0.00    -0.237 OA
ATOM     85  O   UNL A   1      40.225  21.057  26.420  1.00  0.00    -0.744 OA
ENDBRANCH  79  82
ENDBRANCH  51  75
BRANCH  63  86
ATOM     86  C   UNL A   1      46.747  25.723  33.035  1.00  0.00     0.023 A 
ATOM     87  C   UNL A   1      48.019  26.191  32.654  1.00  0.00     0.012 A 
ATOM     88  C   UNL A   1      46.646  24.634  33.924  1.00  0.00     0.148 A 
ATOM     89  C   UNL A   1      49.173  25.569  33.129  1.00  0.00     0.002 A 
ATOM     90  C   UNL A   1      47.801  24.051  34.432  1.00  0.00     0.091 A 
ATOM     91  F   UNL A   1      45.426  24.192  34.259  1.00  0.00    -0.205 F 
ATOM     92  C   UNL A   1      49.064  24.509  34.027  1.00  0.00     0.022 A 
BRANCH  90  93
ATOM     93  S   UNL A   1      47.758  22.748  35.668  1.00  0.00     0.127 S 
ATOM     94  O   UNL A   1      47.150  21.648  34.920  1.00  0.00    -0.237 OA
ATOM     95  O   UNL A   1      49.177  22.566  35.975  1.00  0.00    -0.237 OA
ATOM     96  O   UNL A   1      46.962  23.267  36.773  1.00  0.00    -0.744 OA
ENDBRANCH  90  93
ENDBRANCH  63  86
ENDBRANCH  37  38
ENDBRANCH  29  32
ENDBRANCH  27  28
ENDBRANCH  26  27
ENDBRANCH  25  26
ENDBRANCH   1  25
TORSDOF 21
ENDMDL
