MODEL 1
REMARK VINA RESULT:     -11.6      0.000      0.000
REMARK SMILES O=C(C[C@H]1C[N@@H+](Cc2ccncc2)CCO1)NCCCCCCNC(=O)c1ccc(-c2c3nc(c(-c4cccc(S(=O)(=O)[O-])c4F)c4ccc([nH]4)c(-c4cccc(S(=O)(=O)[O-])c4F)c4nc(c(-c5cccc(S(=O)(=O)[O-])c5F)c5ccc2[nH]5)C=C4)C=C3)cc1
REMARK SMILES IDX 20 1 19 2 18 3 17 4 1 5 2 6 3 8 4 9 5 10 16 11 6 12 15 13
REMARK SMILES IDX 14 14 7 16 8 17 9 18 13 19 10 20 12 21 11 22 21 23 22 24
REMARK SMILES IDX 23 25 24 26 25 27 26 29 27 30 28 31 89 32 29 33 88 34 30 35
REMARK SMILES IDX 31 36 32 37 82 38 33 39 87 40 81 41 83 42 34 43 86 44 80 45
REMARK SMILES IDX 79 46 35 48 67 49 47 50 66 51 48 52 51 53 65 54 84 55 49 56
REMARK SMILES IDX 50 57 64 59 85 60 52 61 36 62 37 63 45 64 38 65 40 66 46 67
REMARK SMILES IDX 39 68 41 69 42 70 43 71 44 72 68 73 69 74 77 75 70 76 72 77
REMARK SMILES IDX 78 78 71 79 73 80 74 81 75 82 76 83 53 84 54 85 62 86 55 87
REMARK SMILES IDX 57 88 63 89 56 90 58 91 59 92 60 93 61 94
REMARK H PARENT 17 7 6 15 24 28 83 47 51 58
REMARK Flexibility Score: inf
ROOT
ATOM      1  C   UNL A   1      32.454  26.815  26.024  1.00  0.00     0.002 C 
ENDROOT
BRANCH   1   2
ATOM      2  C   UNL A   1      31.049  26.826  25.408  1.00  0.00     0.021 C 
BRANCH   2   3
ATOM      3  C   UNL A   1      30.105  25.753  25.949  1.00  0.00     0.116 C 
BRANCH   3   4
ATOM      4  N   UNL A   1      30.548  24.434  25.561  1.00  0.00    -0.356 N 
ATOM      5  O   UNL A   1      29.793  23.340  27.437  1.00  0.00    -0.275 OA
ATOM      6  C   UNL A   1      30.455  23.356  26.419  1.00  0.00     0.222 C 
ATOM      7  H   UNL A   1      30.924  24.301  24.661  1.00  0.00     0.163 HD
BRANCH   6   8
ATOM      8  C   UNL A   1      31.394  22.247  26.020  1.00  0.00     0.138 C 
BRANCH   8   9
ATOM      9  C   UNL A   1      32.815  22.363  26.552  1.00  0.00     0.182 C 
ATOM     10  C   UNL A   1      33.592  21.023  26.426  1.00  0.00     0.295 C 
ATOM     11  O   UNL A   1      33.555  23.418  25.911  1.00  0.00    -0.366 OA
ATOM     12  N   UNL A   1      34.041  20.669  25.079  1.00  0.00    -0.327 N 
ATOM     13  C   UNL A   1      33.871  23.132  24.543  1.00  0.00     0.222 C 
ATOM     14  C   UNL A   1      34.627  21.804  24.373  1.00  0.00     0.291 C 
ATOM     15  H   UNL A   1      34.822  20.034  25.242  1.00  0.00     0.348 HD
BRANCH  12  16
ATOM     16  C   UNL A   1      33.309  19.662  24.316  1.00  0.00     0.299 C 
BRANCH  16  17
ATOM     17  C   UNL A   1      33.495  18.205  24.670  1.00  0.00     0.009 A 
ATOM     18  C   UNL A   1      34.691  17.533  24.405  1.00  0.00     0.029 A 
ATOM     19  C   UNL A   1      32.468  17.481  25.293  1.00  0.00     0.029 A 
ATOM     20  C   UNL A   1      34.782  16.179  24.692  1.00  0.00     0.111 A 
ATOM     21  C   UNL A   1      32.650  16.127  25.538  1.00  0.00     0.111 A 
ATOM     22  N   UNL A   1      33.785  15.462  25.248  1.00  0.00    -0.265 NA
ENDBRANCH  16  17
ENDBRANCH  12  16
ENDBRANCH   8   9
ENDBRANCH   6   8
ENDBRANCH   3   4
ENDBRANCH   2   3
ENDBRANCH   1   2
BRANCH   1  23
ATOM     23  C   UNL A   1      33.468  27.736  25.339  1.00  0.00     0.002 C 
BRANCH  23  24
ATOM     24  C   UNL A   1      33.148  29.228  25.439  1.00  0.00     0.021 C 
BRANCH  24  25
ATOM     25  C   UNL A   1      32.781  29.704  26.839  1.00  0.00     0.116 C 
BRANCH  25  26
ATOM     26  N   UNL A   1      32.762  31.154  26.941  1.00  0.00    -0.352 N 
ATOM     27  C   UNL A   1      33.660  31.975  27.578  1.00  0.00     0.251 C 
ATOM     28  H   UNL A   1      32.008  31.605  26.497  1.00  0.00     0.163 HD
ATOM     29  O   UNL A   1      33.421  33.171  27.717  1.00  0.00    -0.269 OA
BRANCH  27  30
ATOM     30  C   UNL A   1      34.908  31.393  28.115  1.00  0.00     0.039 A 
ATOM     31  C   UNL A   1      36.059  32.182  28.171  1.00  0.00     0.014 A 
ATOM     32  C   UNL A   1      34.924  30.079  28.592  1.00  0.00     0.014 A 
ATOM     33  C   UNL A   1      37.218  31.670  28.761  1.00  0.00     0.010 A 
ATOM     34  C   UNL A   1      36.057  29.596  29.236  1.00  0.00     0.010 A 
ATOM     35  C   UNL A   1      37.217  30.383  29.323  1.00  0.00    -0.014 A 
BRANCH  35  36
ATOM     36  C   UNL A   1      38.413  29.826  30.004  1.00  0.00     0.031 A 
ATOM     37  C   UNL A   1      38.796  30.331  31.370  1.00  0.00     0.074 A 
ATOM     38  C   UNL A   1      39.214  28.960  29.352  1.00  0.00     0.049 A 
ATOM     39  N   UNL A   1      39.863  30.067  32.076  1.00  0.00    -0.248 NA
ATOM     40  C   UNL A   1      37.874  31.285  32.012  1.00  0.00     0.031 C 
ATOM     41  C   UNL A   1      38.991  28.453  27.995  1.00  0.00     0.029 A 
ATOM     42  N   UNL A   1      40.402  28.383  29.729  1.00  0.00    -0.354 N 
ATOM     43  C   UNL A   1      39.770  30.859  33.214  1.00  0.00     0.074 A 
ATOM     44  C   UNL A   1      38.549  31.625  33.101  1.00  0.00     0.031 C 
ATOM     45  C   UNL A   1      40.012  27.650  27.652  1.00  0.00     0.029 A 
ATOM     46  C   UNL A   1      40.975  27.605  28.747  1.00  0.00     0.049 A 
ATOM     47  H   UNL A   1      40.806  28.512  30.617  1.00  0.00     0.167 HD
ATOM     48  C   UNL A   1      40.613  30.924  34.271  1.00  0.00     0.034 A 
ATOM     49  C   UNL A   1      42.149  26.944  28.729  1.00  0.00     0.034 A 
ATOM     50  C   UNL A   1      41.784  30.103  34.417  1.00  0.00     0.049 A 
ATOM     51  C   UNL A   1      43.031  26.984  29.950  1.00  0.00     0.074 A 
ATOM     52  C   UNL A   1      42.635  30.010  35.504  1.00  0.00     0.029 A 
ATOM     53  N   UNL A   1      42.266  29.235  33.452  1.00  0.00    -0.354 N 
ATOM     54  N   UNL A   1      42.835  27.603  31.089  1.00  0.00    -0.248 NA
ATOM     55  C   UNL A   1      44.278  26.207  29.899  1.00  0.00     0.031 C 
ATOM     56  C   UNL A   1      43.643  29.093  35.190  1.00  0.00     0.029 A 
ATOM     57  C   UNL A   1      43.408  28.605  33.915  1.00  0.00     0.049 A 
ATOM     58  H   UNL A   1      41.858  29.089  32.568  1.00  0.00     0.167 HD
ATOM     59  C   UNL A   1      43.907  27.253  31.902  1.00  0.00     0.074 A 
ATOM     60  C   UNL A   1      44.742  26.356  31.132  1.00  0.00     0.031 C 
ATOM     61  C   UNL A   1      44.183  27.651  33.167  1.00  0.00     0.034 A 
BRANCH  48  62
ATOM     62  C   UNL A   1      40.275  31.868  35.393  1.00  0.00     0.023 A 
ATOM     63  C   UNL A   1      40.930  33.113  35.472  1.00  0.00     0.012 A 
ATOM     64  C   UNL A   1      39.245  31.567  36.305  1.00  0.00     0.148 A 
ATOM     65  C   UNL A   1      40.581  34.037  36.455  1.00  0.00     0.002 A 
ATOM     66  C   UNL A   1      38.874  32.509  37.257  1.00  0.00     0.091 A 
ATOM     67  F   UNL A   1      38.648  30.369  36.223  1.00  0.00    -0.205 F 
ATOM     68  C   UNL A   1      39.545  33.741  37.338  1.00  0.00     0.022 A 
BRANCH  66  69
ATOM     69  S   UNL A   1      37.504  32.258  38.391  1.00  0.00     0.127 S 
ATOM     70  O   UNL A   1      38.027  32.852  39.622  1.00  0.00    -0.237 OA
ATOM     71  O   UNL A   1      36.433  33.022  37.753  1.00  0.00    -0.237 OA
ATOM     72  O   UNL A   1      37.280  30.820  38.442  1.00  0.00    -0.744 OA
ENDBRANCH  66  69
ENDBRANCH  48  62
BRANCH  49  73
ATOM     73  C   UNL A   1      42.537  26.128  27.543  1.00  0.00     0.023 A 
ATOM     74  C   UNL A   1      43.293  26.727  26.515  1.00  0.00     0.012 A 
ATOM     75  C   UNL A   1      42.168  24.775  27.422  1.00  0.00     0.148 A 
ATOM     76  C   UNL A   1      43.636  26.007  25.371  1.00  0.00     0.002 A 
ATOM     77  C   UNL A   1      42.559  24.048  26.303  1.00  0.00     0.091 A 
ATOM     78  F   UNL A   1      41.433  24.225  28.399  1.00  0.00    -0.205 F 
ATOM     79  C   UNL A   1      43.278  24.667  25.268  1.00  0.00     0.022 A 
BRANCH  77  80
ATOM     80  S   UNL A   1      42.245  22.286  26.159  1.00  0.00     0.127 S 
ATOM     81  O   UNL A   1      40.788  22.247  26.080  1.00  0.00    -0.237 OA
ATOM     82  O   UNL A   1      42.939  21.947  24.916  1.00  0.00    -0.237 OA
ATOM     83  O   UNL A   1      42.840  21.696  27.351  1.00  0.00    -0.744 OA
ENDBRANCH  77  80
ENDBRANCH  49  73
BRANCH  61  84
ATOM     84  C   UNL A   1      45.406  27.085  33.835  1.00  0.00     0.023 A 
ATOM     85  C   UNL A   1      46.617  27.802  33.801  1.00  0.00     0.012 A 
ATOM     86  C   UNL A   1      45.326  25.891  34.581  1.00  0.00     0.148 A 
ATOM     87  C   UNL A   1      47.738  27.329  34.483  1.00  0.00     0.002 A 
ATOM     88  C   UNL A   1      46.433  25.452  35.296  1.00  0.00     0.091 A 
ATOM     89  F   UNL A   1      44.168  25.214  34.583  1.00  0.00    -0.205 F 
ATOM     90  C   UNL A   1      47.642  26.164  35.240  1.00  0.00     0.022 A 
BRANCH  88  91
ATOM     91  S   UNL A   1      46.370  24.016  36.376  1.00  0.00     0.127 S 
ATOM     92  O   UNL A   1      45.324  24.402  37.322  1.00  0.00    -0.237 OA
ATOM     93  O   UNL A   1      45.992  22.948  35.451  1.00  0.00    -0.237 OA
ATOM     94  O   UNL A   1      47.705  23.880  36.939  1.00  0.00    -0.744 OA
ENDBRANCH  88  91
ENDBRANCH  61  84
ENDBRANCH  35  36
ENDBRANCH  27  30
ENDBRANCH  25  26
ENDBRANCH  24  25
ENDBRANCH  23  24
ENDBRANCH   1  23
TORSDOF 19
ENDMDL
MODEL 2
REMARK VINA RESULT:     -11.6      1.704      2.242
REMARK SMILES O=C(C[C@H]1C[N@@H+](Cc2ccncc2)CCO1)NCCCCCCNC(=O)c1ccc(-c2c3nc(c(-c4cccc(S(=O)(=O)[O-])c4F)c4ccc([nH]4)c(-c4cccc(S(=O)(=O)[O-])c4F)c4nc(c(-c5cccc(S(=O)(=O)[O-])c5F)c5ccc2[nH]5)C=C4)C=C3)cc1
REMARK SMILES IDX 20 1 19 2 18 3 17 4 1 5 2 6 3 8 4 9 5 10 16 11 6 12 15 13
REMARK SMILES IDX 14 14 7 16 8 17 9 18 13 19 10 20 12 21 11 22 21 23 22 24
REMARK SMILES IDX 23 25 24 26 25 27 26 29 27 30 28 31 89 32 29 33 88 34 30 35
REMARK SMILES IDX 31 36 32 37 82 38 33 39 87 40 81 41 83 42 34 43 86 44 80 45
REMARK SMILES IDX 79 46 35 48 67 49 47 50 66 51 48 52 51 53 65 54 84 55 49 56
REMARK SMILES IDX 50 57 64 59 85 60 52 61 36 62 37 63 45 64 38 65 40 66 46 67
REMARK SMILES IDX 39 68 41 69 42 70 43 71 44 72 68 73 69 74 77 75 70 76 72 77
REMARK SMILES IDX 78 78 71 79 73 80 74 81 75 82 76 83 53 84 54 85 62 86 55 87
REMARK SMILES IDX 57 88 63 89 56 90 58 91 59 92 60 93 61 94
REMARK H PARENT 17 7 6 15 24 28 83 47 51 58
REMARK Flexibility Score: inf
ROOT
ATOM      1  C   UNL A   1      32.299  26.558  25.860  1.00  0.00     0.002 C 
ENDROOT
BRANCH   1   2
ATOM      2  C   UNL A   1      30.805  26.751  25.566  1.00  0.00     0.021 C 
BRANCH   2   3
ATOM      3  C   UNL A   1      29.916  25.579  25.980  1.00  0.00     0.116 C 
BRANCH   3   4
ATOM      4  N   UNL A   1      30.461  24.327  25.511  1.00  0.00    -0.356 N 
ATOM      5  O   UNL A   1      29.989  23.109  27.402  1.00  0.00    -0.275 OA
ATOM      6  C   UNL A   1      30.556  23.224  26.335  1.00  0.00     0.222 C 
ATOM      7  H   UNL A   1      30.771  24.259  24.578  1.00  0.00     0.163 HD
BRANCH   6   8
ATOM      8  C   UNL A   1      31.570  22.233  25.821  1.00  0.00     0.138 C 
BRANCH   8   9
ATOM      9  C   UNL A   1      32.915  22.236  26.536  1.00  0.00     0.182 C 
ATOM     10  C   UNL A   1      33.524  20.810  26.627  1.00  0.00     0.295 C 
ATOM     11  O   UNL A   1      33.859  23.132  25.922  1.00  0.00    -0.366 OA
ATOM     12  N   UNL A   1      34.094  20.278  25.388  1.00  0.00    -0.327 N 
ATOM     13  C   UNL A   1      34.309  22.681  24.638  1.00  0.00     0.222 C 
ATOM     14  C   UNL A   1      34.906  21.265  24.683  1.00  0.00     0.291 C 
ATOM     15  H   UNL A   1      34.761  19.576  25.710  1.00  0.00     0.348 HD
BRANCH  12  16
ATOM     16  C   UNL A   1      33.345  19.293  24.614  1.00  0.00     0.299 C 
BRANCH  16  17
ATOM     17  C   UNL A   1      33.555  17.826  24.907  1.00  0.00     0.009 A 
ATOM     18  C   UNL A   1      34.810  17.225  24.776  1.00  0.00     0.029 A 
ATOM     19  C   UNL A   1      32.491  17.020  25.337  1.00  0.00     0.029 A 
ATOM     20  C   UNL A   1      34.930  15.860  24.995  1.00  0.00     0.111 A 
ATOM     21  C   UNL A   1      32.707  15.662  25.527  1.00  0.00     0.111 A 
ATOM     22  N   UNL A   1      33.903  15.066  25.362  1.00  0.00    -0.265 NA
ENDBRANCH  16  17
ENDBRANCH  12  16
ENDBRANCH   8   9
ENDBRANCH   6   8
ENDBRANCH   3   4
ENDBRANCH   2   3
ENDBRANCH   1   2
BRANCH   1  23
ATOM     23  C   UNL A   1      33.247  27.230  24.863  1.00  0.00     0.002 C 
BRANCH  23  24
ATOM     24  C   UNL A   1      33.685  28.643  25.251  1.00  0.00     0.021 C 
BRANCH  24  25
ATOM     25  C   UNL A   1      33.639  28.933  26.745  1.00  0.00     0.116 C 
BRANCH  25  26
ATOM     26  N   UNL A   1      33.668  30.358  27.032  1.00  0.00    -0.352 N 
ATOM     27  C   UNL A   1      34.606  31.064  27.745  1.00  0.00     0.251 C 
ATOM     28  H   UNL A   1      32.919  30.884  26.670  1.00  0.00     0.163 HD
ATOM     29  O   UNL A   1      34.409  32.239  28.042  1.00  0.00    -0.269 OA
BRANCH  27  30
ATOM     30  C   UNL A   1      35.847  30.383  28.169  1.00  0.00     0.039 A 
ATOM     31  C   UNL A   1      36.977  30.455  27.353  1.00  0.00     0.014 A 
ATOM     32  C   UNL A   1      35.896  29.706  29.391  1.00  0.00     0.014 A 
ATOM     33  C   UNL A   1      38.180  29.892  27.789  1.00  0.00     0.010 A 
ATOM     34  C   UNL A   1      37.108  29.205  29.851  1.00  0.00     0.010 A 
ATOM     35  C   UNL A   1      38.262  29.287  29.054  1.00  0.00    -0.014 A 
BRANCH  35  36
ATOM     36  C   UNL A   1      39.534  28.726  29.572  1.00  0.00     0.031 A 
ATOM     37  C   UNL A   1      40.253  29.422  30.698  1.00  0.00     0.074 A 
ATOM     38  C   UNL A   1      40.100  27.667  28.958  1.00  0.00     0.049 A 
ATOM     39  N   UNL A   1      41.428  29.167  31.207  1.00  0.00    -0.248 NA
ATOM     40  C   UNL A   1      39.574  30.579  31.309  1.00  0.00     0.031 C 
ATOM     41  C   UNL A   1      39.539  26.953  27.809  1.00  0.00     0.029 A 
ATOM     42  N   UNL A   1      41.295  27.032  29.191  1.00  0.00    -0.354 N 
ATOM     43  C   UNL A   1      41.654  30.157  32.155  1.00  0.00     0.074 A 
ATOM     44  C   UNL A   1      40.500  31.029  32.143  1.00  0.00     0.031 C 
ATOM     45  C   UNL A   1      40.393  25.986  27.432  1.00  0.00     0.029 A 
ATOM     46  C   UNL A   1      41.572  26.027  28.291  1.00  0.00     0.049 A 
ATOM     47  H   UNL A   1      41.897  27.272  29.931  1.00  0.00     0.167 HD
ATOM     48  C   UNL A   1      42.716  30.313  32.980  1.00  0.00     0.034 A 
ATOM     49  C   UNL A   1      42.659  25.240  28.166  1.00  0.00     0.034 A 
ATOM     50  C   UNL A   1      43.824  29.400  33.045  1.00  0.00     0.049 A 
ATOM     51  C   UNL A   1      43.794  25.397  29.145  1.00  0.00     0.074 A 
ATOM     52  C   UNL A   1      44.889  29.406  33.929  1.00  0.00     0.029 A 
ATOM     53  N   UNL A   1      44.010  28.320  32.197  1.00  0.00    -0.354 N 
ATOM     54  N   UNL A   1      43.907  26.231  30.150  1.00  0.00    -0.248 NA
ATOM     55  C   UNL A   1      44.935  24.481  28.996  1.00  0.00     0.031 C 
ATOM     56  C   UNL A   1      45.728  28.335  33.606  1.00  0.00     0.029 A 
ATOM     57  C   UNL A   1      45.175  27.655  32.533  1.00  0.00     0.049 A 
ATOM     58  H   UNL A   1      43.403  28.065  31.466  1.00  0.00     0.167 HD
ATOM     59  C   UNL A   1      45.104  25.910  30.778  1.00  0.00     0.074 A 
ATOM     60  C   UNL A   1      45.675  24.796  30.051  1.00  0.00     0.031 C 
ATOM     61  C   UNL A   1      45.688  26.496  31.851  1.00  0.00     0.034 A 
BRANCH  48  62
ATOM     62  C   UNL A   1      42.712  31.478  33.931  1.00  0.00     0.023 A 
ATOM     63  C   UNL A   1      43.227  32.720  33.510  1.00  0.00     0.012 A 
ATOM     64  C   UNL A   1      42.111  31.372  35.201  1.00  0.00     0.148 A 
ATOM     65  C   UNL A   1      43.164  33.834  34.344  1.00  0.00     0.002 A 
ATOM     66  C   UNL A   1      42.016  32.497  36.012  1.00  0.00     0.091 A 
ATOM     67  F   UNL A   1      41.645  30.176  35.590  1.00  0.00    -0.205 F 
ATOM     68  C   UNL A   1      42.548  33.726  35.588  1.00  0.00     0.022 A 
BRANCH  66  69
ATOM     69  S   UNL A   1      41.174  32.483  37.599  1.00  0.00     0.127 S 
ATOM     70  O   UNL A   1      39.867  31.937  37.235  1.00  0.00    -0.237 OA
ATOM     71  O   UNL A   1      42.015  31.580  38.384  1.00  0.00    -0.237 OA
ATOM     72  O   UNL A   1      41.164  33.863  38.063  1.00  0.00    -0.744 OA
ENDBRANCH  66  69
ENDBRANCH  48  62
BRANCH  49  73
ATOM     73  C   UNL A   1      42.707  24.182  27.116  1.00  0.00     0.023 A 
ATOM     74  C   UNL A   1      43.482  24.399  25.959  1.00  0.00     0.012 A 
ATOM     75  C   UNL A   1      41.998  22.974  27.249  1.00  0.00     0.148 A 
ATOM     76  C   UNL A   1      43.515  23.450  24.936  1.00  0.00     0.002 A 
ATOM     77  C   UNL A   1      42.079  22.010  26.250  1.00  0.00     0.091 A 
ATOM     78  F   UNL A   1      41.251  22.791  28.348  1.00  0.00    -0.205 F 
ATOM     79  C   UNL A   1      42.822  22.253  25.085  1.00  0.00     0.022 A 
BRANCH  77  80
ATOM     80  S   UNL A   1      41.317  20.393  26.428  1.00  0.00     0.127 S 
ATOM     81  O   UNL A   1      42.098  19.589  25.494  1.00  0.00    -0.237 OA
ATOM     82  O   UNL A   1      41.548  20.095  27.842  1.00  0.00    -0.237 OA
ATOM     83  O   UNL A   1      39.915  20.595  26.086  1.00  0.00    -0.744 OA
ENDBRANCH  77  80
ENDBRANCH  49  73
BRANCH  61  84
ATOM     84  C   UNL A   1      46.983  25.920  32.353  1.00  0.00     0.023 A 
ATOM     85  C   UNL A   1      48.206  26.407  31.852  1.00  0.00     0.012 A 
ATOM     86  C   UNL A   1      46.989  24.969  33.393  1.00  0.00     0.148 A 
ATOM     87  C   UNL A   1      49.416  25.940  32.365  1.00  0.00     0.002 A 
ATOM     88  C   UNL A   1      48.196  24.544  33.931  1.00  0.00     0.091 A 
ATOM     89  F   UNL A   1      45.812  24.505  33.842  1.00  0.00    -0.205 F 
ATOM     90  C   UNL A   1      49.411  25.021  33.412  1.00  0.00     0.022 A 
BRANCH  88  91
ATOM     91  S   UNL A   1      48.282  23.439  35.346  1.00  0.00     0.127 S 
ATOM     92  O   UNL A   1      49.726  23.294  35.524  1.00  0.00    -0.237 OA
ATOM     93  O   UNL A   1      47.614  24.217  36.389  1.00  0.00    -0.237 OA
ATOM     94  O   UNL A   1      47.575  22.229  34.952  1.00  0.00    -0.744 OA
ENDBRANCH  88  91
ENDBRANCH  61  84
ENDBRANCH  35  36
ENDBRANCH  27  30
ENDBRANCH  25  26
ENDBRANCH  24  25
ENDBRANCH  23  24
ENDBRANCH   1  23
TORSDOF 19
ENDMDL
MODEL 3
REMARK VINA RESULT:     -11.6      1.596      7.783
REMARK SMILES O=C(C[C@H]1C[N@@H+](Cc2ccncc2)CCO1)NCCCCCCNC(=O)c1ccc(-c2c3nc(c(-c4cccc(S(=O)(=O)[O-])c4F)c4ccc([nH]4)c(-c4cccc(S(=O)(=O)[O-])c4F)c4nc(c(-c5cccc(S(=O)(=O)[O-])c5F)c5ccc2[nH]5)C=C4)C=C3)cc1
REMARK SMILES IDX 20 1 19 2 18 3 17 4 1 5 2 6 3 8 4 9 5 10 16 11 6 12 15 13
REMARK SMILES IDX 14 14 7 16 8 17 9 18 13 19 10 20 12 21 11 22 21 23 22 24
REMARK SMILES IDX 23 25 24 26 25 27 26 29 27 30 28 31 89 32 29 33 88 34 30 35
REMARK SMILES IDX 31 36 32 37 82 38 33 39 87 40 81 41 83 42 34 43 86 44 80 45
REMARK SMILES IDX 79 46 35 48 67 49 47 50 66 51 48 52 51 53 65 54 84 55 49 56
REMARK SMILES IDX 50 57 64 59 85 60 52 61 36 62 37 63 45 64 38 65 40 66 46 67
REMARK SMILES IDX 39 68 41 69 42 70 43 71 44 72 68 73 69 74 77 75 70 76 72 77
REMARK SMILES IDX 78 78 71 79 73 80 74 81 75 82 76 83 53 84 54 85 62 86 55 87
REMARK SMILES IDX 57 88 63 89 56 90 58 91 59 92 60 93 61 94
REMARK H PARENT 17 7 6 15 24 28 83 47 51 58
REMARK Flexibility Score: inf
ROOT
ATOM      1  C   UNL A   1      33.090  29.201  26.383  1.00  0.00     0.002 C 
ENDROOT
BRANCH   1   2
ATOM      2  C   UNL A   1      32.999  27.700  26.689  1.00  0.00     0.021 C 
BRANCH   2   3
ATOM      3  C   UNL A   1      31.814  26.986  26.039  1.00  0.00     0.116 C 
BRANCH   3   4
ATOM      4  N   UNL A   1      32.210  25.699  25.518  1.00  0.00    -0.356 N 
ATOM      5  O   UNL A   1      31.368  24.443  27.249  1.00  0.00    -0.275 OA
ATOM      6  C   UNL A   1      32.053  24.540  26.251  1.00  0.00     0.222 C 
ATOM      7  H   UNL A   1      32.601  25.647  24.615  1.00  0.00     0.163 HD
BRANCH   6   8
ATOM      8  C   UNL A   1      32.954  23.440  25.751  1.00  0.00     0.138 C 
BRANCH   8   9
ATOM      9  C   UNL A   1      33.957  22.899  26.761  1.00  0.00     0.182 C 
ATOM     10  C   UNL A   1      33.838  21.358  26.925  1.00  0.00     0.295 C 
ATOM     11  O   UNL A   1      35.312  23.252  26.430  1.00  0.00    -0.366 OA
ATOM     12  N   UNL A   1      34.387  20.555  25.831  1.00  0.00    -0.327 N 
ATOM     13  C   UNL A   1      35.803  22.571  25.268  1.00  0.00     0.222 C 
ATOM     14  C   UNL A   1      35.689  21.043  25.384  1.00  0.00     0.291 C 
ATOM     15  H   UNL A   1      34.583  19.654  26.267  1.00  0.00     0.348 HD
BRANCH  12  16
ATOM     16  C   UNL A   1      33.484  19.952  24.856  1.00  0.00     0.299 C 
BRANCH  16  17
ATOM     17  C   UNL A   1      33.426  18.445  24.755  1.00  0.00     0.009 A 
ATOM     18  C   UNL A   1      32.526  17.694  25.516  1.00  0.00     0.029 A 
ATOM     19  C   UNL A   1      34.271  17.752  23.877  1.00  0.00     0.029 A 
ATOM     20  C   UNL A   1      32.562  16.310  25.430  1.00  0.00     0.111 A 
ATOM     21  C   UNL A   1      34.238  16.364  23.865  1.00  0.00     0.111 A 
ATOM     22  N   UNL A   1      33.403  15.630  24.625  1.00  0.00    -0.265 NA
ENDBRANCH  16  17
ENDBRANCH  12  16
ENDBRANCH   8   9
ENDBRANCH   6   8
ENDBRANCH   3   4
ENDBRANCH   2   3
ENDBRANCH   1   2
BRANCH   1  23
ATOM     23  C   UNL A   1      31.786  29.844  25.905  1.00  0.00     0.002 C 
BRANCH  23  24
ATOM     24  C   UNL A   1      31.504  31.230  26.487  1.00  0.00     0.021 C 
BRANCH  24  25
ATOM     25  C   UNL A   1      32.741  31.976  26.972  1.00  0.00     0.116 C 
BRANCH  25  26
ATOM     26  N   UNL A   1      32.468  33.378  27.244  1.00  0.00    -0.352 N 
ATOM     27  C   UNL A   1      33.056  34.194  28.181  1.00  0.00     0.251 C 
ATOM     28  H   UNL A   1      31.774  33.796  26.686  1.00  0.00     0.163 HD
ATOM     29  O   UNL A   1      32.604  35.313  28.402  1.00  0.00    -0.269 OA
BRANCH  27  30
ATOM     30  C   UNL A   1      34.225  33.695  28.934  1.00  0.00     0.039 A 
ATOM     31  C   UNL A   1      34.028  32.793  29.982  1.00  0.00     0.014 A 
ATOM     32  C   UNL A   1      35.516  34.095  28.576  1.00  0.00     0.014 A 
ATOM     33  C   UNL A   1      35.133  32.246  30.639  1.00  0.00     0.010 A 
ATOM     34  C   UNL A   1      36.614  33.500  29.187  1.00  0.00     0.010 A 
ATOM     35  C   UNL A   1      36.435  32.574  30.227  1.00  0.00    -0.014 A 
BRANCH  35  36
ATOM     36  C   UNL A   1      37.633  31.972  30.866  1.00  0.00     0.031 A 
ATOM     37  C   UNL A   1      38.433  30.936  30.123  1.00  0.00     0.074 A 
ATOM     38  C   UNL A   1      37.929  32.268  32.148  1.00  0.00     0.049 A 
ATOM     39  N   UNL A   1      39.430  30.205  30.546  1.00  0.00    -0.248 NA
ATOM     40  C   UNL A   1      38.039  30.660  28.730  1.00  0.00     0.031 C 
ATOM     41  C   UNL A   1      37.185  33.200  32.998  1.00  0.00     0.029 A 
ATOM     42  N   UNL A   1      38.915  31.784  32.972  1.00  0.00    -0.354 N 
ATOM     43  C   UNL A   1      39.745  29.349  29.498  1.00  0.00     0.074 A 
ATOM     44  C   UNL A   1      38.826  29.639  28.421  1.00  0.00     0.031 C 
ATOM     45  C   UNL A   1      37.733  33.210  34.225  1.00  0.00     0.029 A 
ATOM     46  C   UNL A   1      38.848  32.270  34.259  1.00  0.00     0.049 A 
ATOM     47  H   UNL A   1      39.604  31.148  32.672  1.00  0.00     0.167 HD
ATOM     48  C   UNL A   1      40.729  28.423  29.430  1.00  0.00     0.034 A 
ATOM     49  C   UNL A   1      39.594  31.979  35.343  1.00  0.00     0.034 A 
ATOM     50  C   UNL A   1      41.691  28.192  30.472  1.00  0.00     0.049 A 
ATOM     51  C   UNL A   1      40.724  30.991  35.212  1.00  0.00     0.074 A 
ATOM     52  C   UNL A   1      42.796  27.360  30.451  1.00  0.00     0.029 A 
ATOM     53  N   UNL A   1      41.665  28.794  31.719  1.00  0.00    -0.354 N 
ATOM     54  N   UNL A   1      41.115  30.321  34.155  1.00  0.00    -0.248 NA
ATOM     55  C   UNL A   1      41.537  30.745  36.412  1.00  0.00     0.031 C 
ATOM     56  C   UNL A   1      43.432  27.448  31.692  1.00  0.00     0.029 A 
ATOM     57  C   UNL A   1      42.732  28.348  32.479  1.00  0.00     0.049 A 
ATOM     58  H   UNL A   1      40.988  29.443  32.020  1.00  0.00     0.167 HD
ATOM     59  C   UNL A   1      42.244  29.614  34.551  1.00  0.00     0.074 A 
ATOM     60  C   UNL A   1      42.485  29.946  35.939  1.00  0.00     0.031 C 
ATOM     61  C   UNL A   1      43.005  28.752  33.832  1.00  0.00     0.034 A 
BRANCH  48  62
ATOM     62  C   UNL A   1      40.865  27.623  28.162  1.00  0.00     0.023 A 
ATOM     63  C   UNL A   1      41.511  28.195  27.048  1.00  0.00     0.012 A 
ATOM     64  C   UNL A   1      40.446  26.280  28.107  1.00  0.00     0.148 A 
ATOM     65  C   UNL A   1      41.719  27.449  25.889  1.00  0.00     0.002 A 
ATOM     66  C   UNL A   1      40.693  25.530  26.963  1.00  0.00     0.091 A 
ATOM     67  F   UNL A   1      39.817  25.762  29.172  1.00  0.00    -0.205 F 
ATOM     68  C   UNL A   1      41.322  26.115  25.851  1.00  0.00     0.022 A 
BRANCH  66  69
ATOM     69  S   UNL A   1      40.291  23.783  26.840  1.00  0.00     0.127 S 
ATOM     70  O   UNL A   1      38.869  23.831  26.498  1.00  0.00    -0.237 OA
ATOM     71  O   UNL A   1      41.164  23.343  25.753  1.00  0.00    -0.237 OA
ATOM     72  O   UNL A   1      40.598  23.205  28.141  1.00  0.00    -0.744 OA
ENDBRANCH  66  69
ENDBRANCH  48  62
BRANCH  49  73
ATOM     73  C   UNL A   1      39.346  32.677  36.637  1.00  0.00     0.023 A 
ATOM     74  C   UNL A   1      40.052  33.863  36.924  1.00  0.00     0.012 A 
ATOM     75  C   UNL A   1      38.428  32.182  37.582  1.00  0.00     0.148 A 
ATOM     76  C   UNL A   1      39.879  34.519  38.143  1.00  0.00     0.002 A 
ATOM     77  C   UNL A   1      38.220  32.870  38.773  1.00  0.00     0.091 A 
ATOM     78  F   UNL A   1      37.778  31.043  37.303  1.00  0.00    -0.205 F 
ATOM     79  C   UNL A   1      38.958  34.029  39.063  1.00  0.00     0.022 A 
BRANCH  77  80
ATOM     80  S   UNL A   1      36.959  32.371  39.950  1.00  0.00     0.127 S 
ATOM     81  O   UNL A   1      37.455  31.069  40.386  1.00  0.00    -0.237 OA
ATOM     82  O   UNL A   1      37.038  33.429  40.958  1.00  0.00    -0.237 OA
ATOM     83  O   UNL A   1      35.714  32.364  39.192  1.00  0.00    -0.744 OA
ENDBRANCH  77  80
ENDBRANCH  49  73
BRANCH  61  84
ATOM     84  C   UNL A   1      44.206  28.144  34.503  1.00  0.00     0.023 A 
ATOM     85  C   UNL A   1      45.426  28.848  34.525  1.00  0.00     0.012 A 
ATOM     86  C   UNL A   1      44.096  26.923  35.199  1.00  0.00     0.148 A 
ATOM     87  C   UNL A   1      46.525  28.334  35.211  1.00  0.00     0.002 A 
ATOM     88  C   UNL A   1      45.182  26.442  35.919  1.00  0.00     0.091 A 
ATOM     89  F   UNL A   1      42.930  26.261  35.149  1.00  0.00    -0.205 F 
ATOM     90  C   UNL A   1      46.400  27.141  35.919  1.00  0.00     0.022 A 
BRANCH  88  91
ATOM     91  S   UNL A   1      45.079  24.966  36.939  1.00  0.00     0.127 S 
ATOM     92  O   UNL A   1      44.637  23.964  35.970  1.00  0.00    -0.237 OA
ATOM     93  O   UNL A   1      46.459  24.806  37.395  1.00  0.00    -0.237 OA
ATOM     94  O   UNL A   1      44.127  25.276  37.997  1.00  0.00    -0.744 OA
ENDBRANCH  88  91
ENDBRANCH  61  84
ENDBRANCH  35  36
ENDBRANCH  27  30
ENDBRANCH  25  26
ENDBRANCH  24  25
ENDBRANCH  23  24
ENDBRANCH   1  23
TORSDOF 19
ENDMDL
