MODEL 1
REMARK VINA RESULT:     -10.7      0.000      0.000
REMARK SMILES COCc1c(C(=O)NCCCCCCNC(=O)c2ccc(-c3c4nc(c(-c5cccc(S(=O)(=O)[O-])c5F)c5ccc([nH]5)c(-c5cccc(S(=O)(=O)[O-])c5F)c5nc(c(-c6cccc(S(=O)(=O)[O-])c6F)c6ccc3[nH]6)C=C5)C=C4)cc2)nnn1-c1ccc(S(C)(=O)=O)cc1
REMARK SMILES IDX 12 1 11 2 10 3 9 4 8 5 6 6 7 7 5 9 4 10 83 11 81 12 82 13
REMARK SMILES IDX 3 14 2 15 1 16 84 17 85 18 93 19 86 20 92 21 87 22 88 23
REMARK SMILES IDX 89 24 90 25 91 26 13 27 14 28 15 29 16 30 17 32 18 33 19 34
REMARK SMILES IDX 80 35 20 36 79 37 21 38 22 39 23 40 73 41 24 42 78 43 72 44
REMARK SMILES IDX 74 45 25 46 77 47 71 48 70 49 26 51 58 52 38 53 57 54 39 55
REMARK SMILES IDX 42 56 56 57 75 58 40 59 41 60 55 62 76 63 43 64 27 65 28 66
REMARK SMILES IDX 36 67 29 68 31 69 37 70 30 71 32 72 33 73 34 74 35 75 59 76
REMARK SMILES IDX 60 77 68 78 61 79 63 80 69 81 62 82 64 83 65 84 66 85 67 86
REMARK SMILES IDX 44 87 45 88 53 89 46 90 48 91 54 92 47 93 49 94 50 95 51 96
REMARK SMILES IDX 52 97
REMARK H PARENT 8 8 15 31 74 50 42 61
REMARK Flexibility Score: inf
ROOT
ATOM      1  C   UNL A   1      32.908  30.258  27.023  1.00  0.00     0.002 C 
ENDROOT
BRANCH   1   2
ATOM      2  C   UNL A   1      31.980  29.050  26.846  1.00  0.00     0.002 C 
BRANCH   2   3
ATOM      3  C   UNL A   1      31.293  28.934  25.484  1.00  0.00     0.021 C 
BRANCH   3   4
ATOM      4  C   UNL A   1      31.022  30.265  24.770  1.00  0.00     0.116 C 
BRANCH   4   5
ATOM      5  N   UNL A   1      30.450  30.044  23.459  1.00  0.00    -0.351 N 
ATOM      6  C   UNL A   1      30.187  28.929  22.703  1.00  0.00     0.273 C 
ATOM      7  O   UNL A   1      29.589  29.172  21.647  1.00  0.00    -0.267 OA
ATOM      8  H   UNL A   1      30.192  30.881  23.008  1.00  0.00     0.163 HD
BRANCH   6   9
ATOM      9  C   UNL A   1      30.482  27.539  23.079  1.00  0.00     0.176 A 
ATOM     10  C   UNL A   1      31.572  26.683  22.947  1.00  0.00     0.103 A 
ATOM     11  N   UNL A   1      31.138  25.496  23.504  1.00  0.00    -0.214 N 
ATOM     12  N   UNL A   1      29.434  26.791  23.607  1.00  0.00    -0.124 NA
ATOM     13  N   UNL A   1      29.838  25.550  23.821  1.00  0.00    -0.061 NA
BRANCH  10  14
ATOM     14  C   UNL A   1      32.904  26.722  22.295  1.00  0.00     0.218 C 
BRANCH  14  15
ATOM     15  O   UNL A   1      33.823  27.343  23.170  1.00  0.00    -0.378 OA
ATOM     16  C   UNL A   1      33.997  28.741  22.965  1.00  0.00     0.195 C 
ENDBRANCH  14  15
ENDBRANCH  10  14
BRANCH  11  17
ATOM     17  C   UNL A   1      31.924  24.382  23.849  1.00  0.00     0.067 A 
ATOM     18  C   UNL A   1      32.655  24.392  25.042  1.00  0.00     0.030 A 
ATOM     19  C   UNL A   1      31.831  23.231  23.058  1.00  0.00     0.030 A 
ATOM     20  C   UNL A   1      33.268  23.211  25.469  1.00  0.00     0.022 A 
ATOM     21  C   UNL A   1      32.477  22.068  23.466  1.00  0.00     0.022 A 
ATOM     22  C   UNL A   1      33.180  22.059  24.676  1.00  0.00     0.067 A 
BRANCH  22  23
ATOM     23  S   UNL A   1      33.909  20.535  25.231  1.00  0.00     0.175 S 
ATOM     24  C   UNL A   1      35.655  20.805  25.125  1.00  0.00     0.163 C 
ATOM     25  O   UNL A   1      33.564  20.389  26.635  1.00  0.00    -0.224 OA
ATOM     26  O   UNL A   1      33.583  19.515  24.260  1.00  0.00    -0.224 OA
ENDBRANCH  22  23
ENDBRANCH  11  17
ENDBRANCH   6   9
ENDBRANCH   4   5
ENDBRANCH   3   4
ENDBRANCH   2   3
ENDBRANCH   1   2
BRANCH   1  27
ATOM     27  C   UNL A   1      34.391  30.025  26.706  1.00  0.00     0.021 C 
BRANCH  27  28
ATOM     28  C   UNL A   1      35.172  29.349  27.829  1.00  0.00     0.116 C 
BRANCH  28  29
ATOM     29  N   UNL A   1      35.295  30.209  28.998  1.00  0.00    -0.352 N 
ATOM     30  C   UNL A   1      36.274  30.206  29.964  1.00  0.00     0.251 C 
ATOM     31  H   UNL A   1      34.584  30.882  29.112  1.00  0.00     0.163 HD
ATOM     32  O   UNL A   1      36.055  30.718  31.058  1.00  0.00    -0.269 OA
BRANCH  30  33
ATOM     33  C   UNL A   1      37.580  29.581  29.686  1.00  0.00     0.039 A 
ATOM     34  C   UNL A   1      38.405  30.118  28.694  1.00  0.00     0.014 A 
ATOM     35  C   UNL A   1      37.974  28.442  30.393  1.00  0.00     0.014 A 
ATOM     36  C   UNL A   1      39.651  29.544  28.468  1.00  0.00     0.010 A 
ATOM     37  C   UNL A   1      39.246  27.933  30.239  1.00  0.00     0.010 A 
ATOM     38  C   UNL A   1      40.081  28.466  29.263  1.00  0.00    -0.014 A 
BRANCH  38  39
ATOM     39  C   UNL A   1      41.485  28.060  29.210  1.00  0.00     0.031 A 
ATOM     40  C   UNL A   1      41.719  26.984  28.214  1.00  0.00     0.074 A 
ATOM     41  C   UNL A   1      42.504  28.687  29.839  1.00  0.00     0.049 A 
ATOM     42  N   UNL A   1      41.904  25.728  28.457  1.00  0.00    -0.248 NA
ATOM     43  C   UNL A   1      41.511  27.285  26.787  1.00  0.00     0.031 C 
ATOM     44  C   UNL A   1      42.428  29.941  30.596  1.00  0.00     0.029 A 
ATOM     45  N   UNL A   1      43.846  28.417  29.838  1.00  0.00    -0.354 N 
ATOM     46  C   UNL A   1      42.180  25.164  27.214  1.00  0.00     0.074 A 
ATOM     47  C   UNL A   1      41.650  26.075  26.238  1.00  0.00     0.031 C 
ATOM     48  C   UNL A   1      43.671  30.448  30.758  1.00  0.00     0.029 A 
ATOM     49  C   UNL A   1      44.637  29.479  30.275  1.00  0.00     0.049 A 
ATOM     50  H   UNL A   1      44.220  27.551  29.554  1.00  0.00     0.167 HD
ATOM     51  C   UNL A   1      43.172  24.236  27.108  1.00  0.00     0.034 A 
ATOM     52  C   UNL A   1      45.990  29.574  30.236  1.00  0.00     0.034 A 
ATOM     53  C   UNL A   1      43.551  23.752  28.413  1.00  0.00     0.049 A 
ATOM     54  C   UNL A   1      46.526  28.199  30.205  1.00  0.00     0.074 A 
ATOM     55  C   UNL A   1      43.013  22.968  29.407  1.00  0.00     0.029 A 
ATOM     56  N   UNL A   1      44.562  24.486  28.970  1.00  0.00    -0.354 N 
ATOM     57  N   UNL A   1      46.436  27.381  31.217  1.00  0.00    -0.248 NA
ATOM     58  C   UNL A   1      46.914  27.595  28.936  1.00  0.00     0.031 C 
ATOM     59  C   UNL A   1      43.670  23.352  30.616  1.00  0.00     0.029 A 
ATOM     60  C   UNL A   1      44.624  24.324  30.322  1.00  0.00     0.049 A 
ATOM     61  H   UNL A   1      45.172  25.064  28.455  1.00  0.00     0.167 HD
ATOM     62  C   UNL A   1      46.267  26.150  30.614  1.00  0.00     0.074 A 
ATOM     63  C   UNL A   1      46.781  26.307  29.260  1.00  0.00     0.031 C 
ATOM     64  C   UNL A   1      45.393  25.243  31.132  1.00  0.00     0.034 A 
BRANCH  51  65
ATOM     65  C   UNL A   1      44.190  24.166  25.975  1.00  0.00     0.023 A 
ATOM     66  C   UNL A   1      44.407  22.893  25.396  1.00  0.00     0.012 A 
ATOM     67  C   UNL A   1      45.151  25.161  25.681  1.00  0.00     0.148 A 
ATOM     68  C   UNL A   1      45.543  22.612  24.625  1.00  0.00     0.002 A 
ATOM     69  C   UNL A   1      46.241  24.898  24.857  1.00  0.00     0.091 A 
ATOM     70  F   UNL A   1      45.113  26.339  26.302  1.00  0.00    -0.205 F 
ATOM     71  C   UNL A   1      46.459  23.617  24.351  1.00  0.00     0.022 A 
BRANCH  69  72
ATOM     72  S   UNL A   1      47.445  26.172  24.457  1.00  0.00     0.127 S 
ATOM     73  O   UNL A   1      48.124  26.339  25.740  1.00  0.00    -0.237 OA
ATOM     74  O   UNL A   1      48.231  25.514  23.415  1.00  0.00    -0.237 OA
ATOM     75  O   UNL A   1      46.667  27.314  23.993  1.00  0.00    -0.744 OA
ENDBRANCH  69  72
ENDBRANCH  51  65
BRANCH  52  76
ATOM     76  C   UNL A   1      46.896  30.741  30.134  1.00  0.00     0.023 A 
ATOM     77  C   UNL A   1      48.019  30.825  30.984  1.00  0.00     0.012 A 
ATOM     78  C   UNL A   1      46.841  31.596  29.014  1.00  0.00     0.148 A 
ATOM     79  C   UNL A   1      49.086  31.683  30.690  1.00  0.00     0.002 A 
ATOM     80  C   UNL A   1      47.905  32.446  28.723  1.00  0.00     0.091 A 
ATOM     81  F   UNL A   1      45.789  31.508  28.189  1.00  0.00    -0.205 F 
ATOM     82  C   UNL A   1      49.036  32.479  29.550  1.00  0.00     0.022 A 
BRANCH  80  83
ATOM     83  S   UNL A   1      47.938  33.478  27.251  1.00  0.00     0.127 S 
ATOM     84  O   UNL A   1      47.679  32.503  26.192  1.00  0.00    -0.237 OA
ATOM     85  O   UNL A   1      46.842  34.409  27.505  1.00  0.00    -0.237 OA
ATOM     86  O   UNL A   1      49.269  34.073  27.206  1.00  0.00    -0.744 OA
ENDBRANCH  80  83
ENDBRANCH  52  76
BRANCH  64  87
ATOM     87  C   UNL A   1      45.098  25.316  32.598  1.00  0.00     0.023 A 
ATOM     88  C   UNL A   1      45.913  24.732  33.586  1.00  0.00     0.012 A 
ATOM     89  C   UNL A   1      43.978  26.068  32.989  1.00  0.00     0.148 A 
ATOM     90  C   UNL A   1      45.599  24.878  34.940  1.00  0.00     0.002 A 
ATOM     91  C   UNL A   1      43.696  26.251  34.334  1.00  0.00     0.091 A 
ATOM     92  F   UNL A   1      43.207  26.600  32.030  1.00  0.00    -0.205 F 
ATOM     93  C   UNL A   1      44.497  25.648  35.314  1.00  0.00     0.022 A 
BRANCH  91  94
ATOM     94  S   UNL A   1      42.355  27.317  34.862  1.00  0.00     0.127 S 
ATOM     95  O   UNL A   1      43.019  28.187  35.830  1.00  0.00    -0.237 OA
ATOM     96  O   UNL A   1      41.964  27.972  33.614  1.00  0.00    -0.237 OA
ATOM     97  O   UNL A   1      41.334  26.430  35.410  1.00  0.00    -0.744 OA
ENDBRANCH  91  94
ENDBRANCH  64  87
ENDBRANCH  38  39
ENDBRANCH  30  33
ENDBRANCH  28  29
ENDBRANCH  27  28
ENDBRANCH   1  27
TORSDOF 20
ENDMDL
MODEL 2
REMARK VINA RESULT:     -10.4      2.280      6.851
REMARK SMILES COCc1c(C(=O)NCCCCCCNC(=O)c2ccc(-c3c4nc(c(-c5cccc(S(=O)(=O)[O-])c5F)c5ccc([nH]5)c(-c5cccc(S(=O)(=O)[O-])c5F)c5nc(c(-c6cccc(S(=O)(=O)[O-])c6F)c6ccc3[nH]6)C=C5)C=C4)cc2)nnn1-c1ccc(S(C)(=O)=O)cc1
REMARK SMILES IDX 12 1 11 2 10 3 9 4 8 5 6 6 7 7 5 9 4 10 83 11 81 12 82 13
REMARK SMILES IDX 3 14 2 15 1 16 84 17 85 18 93 19 86 20 92 21 87 22 88 23
REMARK SMILES IDX 89 24 90 25 91 26 13 27 14 28 15 29 16 30 17 32 18 33 19 34
REMARK SMILES IDX 80 35 20 36 79 37 21 38 22 39 23 40 73 41 24 42 78 43 72 44
REMARK SMILES IDX 74 45 25 46 77 47 71 48 70 49 26 51 58 52 38 53 57 54 39 55
REMARK SMILES IDX 42 56 56 57 75 58 40 59 41 60 55 62 76 63 43 64 27 65 28 66
REMARK SMILES IDX 36 67 29 68 31 69 37 70 30 71 32 72 33 73 34 74 35 75 59 76
REMARK SMILES IDX 60 77 68 78 61 79 63 80 69 81 62 82 64 83 65 84 66 85 67 86
REMARK SMILES IDX 44 87 45 88 53 89 46 90 48 91 54 92 47 93 49 94 50 95 51 96
REMARK SMILES IDX 52 97
REMARK H PARENT 8 8 15 31 74 50 42 61
REMARK Flexibility Score: inf
ROOT
ATOM      1  C   UNL A   1      33.210  31.149  27.088  1.00  0.00     0.002 C 
ENDROOT
BRANCH   1   2
ATOM      2  C   UNL A   1      31.872  30.414  26.942  1.00  0.00     0.002 C 
BRANCH   2   3
ATOM      3  C   UNL A   1      31.120  30.658  25.632  1.00  0.00     0.021 C 
BRANCH   3   4
ATOM      4  C   UNL A   1      31.686  29.932  24.404  1.00  0.00     0.116 C 
BRANCH   4   5
ATOM      5  N   UNL A   1      30.693  29.833  23.356  1.00  0.00    -0.351 N 
ATOM      6  C   UNL A   1      29.966  28.800  22.819  1.00  0.00     0.273 C 
ATOM      7  O   UNL A   1      29.133  29.161  21.978  1.00  0.00    -0.267 OA
ATOM      8  H   UNL A   1      30.495  30.699  22.933  1.00  0.00     0.163 HD
BRANCH   6   9
ATOM      9  C   UNL A   1      30.055  27.385  23.208  1.00  0.00     0.176 A 
ATOM     10  C   UNL A   1      31.047  26.409  23.194  1.00  0.00     0.103 A 
ATOM     11  N   UNL A   1      30.417  25.280  23.680  1.00  0.00    -0.214 N 
ATOM     12  N   UNL A   1      28.873  26.763  23.598  1.00  0.00    -0.124 NA
ATOM     13  N   UNL A   1      29.104  25.484  23.842  1.00  0.00    -0.061 NA
BRANCH  10  14
ATOM     14  C   UNL A   1      32.442  26.294  22.704  1.00  0.00     0.218 C 
BRANCH  14  15
ATOM     15  O   UNL A   1      33.317  26.803  23.690  1.00  0.00    -0.378 OA
ATOM     16  C   UNL A   1      34.101  25.824  24.361  1.00  0.00     0.195 C 
ENDBRANCH  14  15
ENDBRANCH  10  14
BRANCH  11  17
ATOM     17  C   UNL A   1      31.024  24.083  24.100  1.00  0.00     0.067 A 
ATOM     18  C   UNL A   1      31.615  23.237  23.157  1.00  0.00     0.030 A 
ATOM     19  C   UNL A   1      31.150  23.848  25.475  1.00  0.00     0.030 A 
ATOM     20  C   UNL A   1      32.385  22.160  23.604  1.00  0.00     0.022 A 
ATOM     21  C   UNL A   1      31.882  22.751  25.915  1.00  0.00     0.022 A 
ATOM     22  C   UNL A   1      32.509  21.920  24.979  1.00  0.00     0.067 A 
BRANCH  22  23
ATOM     23  S   UNL A   1      33.527  20.585  25.565  1.00  0.00     0.175 S 
ATOM     24  C   UNL A   1      32.574  19.125  25.265  1.00  0.00     0.163 C 
ATOM     25  O   UNL A   1      34.698  20.538  24.705  1.00  0.00    -0.224 OA
ATOM     26  O   UNL A   1      33.644  20.722  26.999  1.00  0.00    -0.224 OA
ENDBRANCH  22  23
ENDBRANCH  11  17
ENDBRANCH   6   9
ENDBRANCH   4   5
ENDBRANCH   3   4
ENDBRANCH   2   3
ENDBRANCH   1   2
BRANCH   1  27
ATOM     27  C   UNL A   1      34.459  30.264  27.208  1.00  0.00     0.021 C 
BRANCH  27  28
ATOM     28  C   UNL A   1      34.929  30.038  28.641  1.00  0.00     0.116 C 
BRANCH  28  29
ATOM     29  N   UNL A   1      35.200  31.294  29.328  1.00  0.00    -0.352 N 
ATOM     30  C   UNL A   1      36.258  31.610  30.149  1.00  0.00     0.251 C 
ATOM     31  H   UNL A   1      34.540  32.012  29.186  1.00  0.00     0.163 HD
ATOM     32  O   UNL A   1      36.163  32.550  30.933  1.00  0.00    -0.269 OA
BRANCH  30  33
ATOM     33  C   UNL A   1      37.498  30.815  30.089  1.00  0.00     0.039 A 
ATOM     34  C   UNL A   1      38.735  31.462  30.140  1.00  0.00     0.014 A 
ATOM     35  C   UNL A   1      37.431  29.426  29.954  1.00  0.00     0.014 A 
ATOM     36  C   UNL A   1      39.897  30.698  30.123  1.00  0.00     0.010 A 
ATOM     37  C   UNL A   1      38.577  28.663  30.035  1.00  0.00     0.010 A 
ATOM     38  C   UNL A   1      39.814  29.294  30.099  1.00  0.00    -0.014 A 
BRANCH  38  39
ATOM     39  C   UNL A   1      41.017  28.506  30.366  1.00  0.00     0.031 A 
ATOM     40  C   UNL A   1      41.409  28.552  31.798  1.00  0.00     0.074 A 
ATOM     41  C   UNL A   1      41.619  27.677  29.485  1.00  0.00     0.049 A 
ATOM     42  N   UNL A   1      42.373  29.239  32.317  1.00  0.00    -0.248 NA
ATOM     43  C   UNL A   1      40.509  27.948  32.796  1.00  0.00     0.031 C 
ATOM     44  C   UNL A   1      41.137  27.320  28.147  1.00  0.00     0.029 A 
ATOM     45  N   UNL A   1      42.719  26.875  29.632  1.00  0.00    -0.354 N 
ATOM     46  C   UNL A   1      42.394  28.860  33.657  1.00  0.00     0.074 A 
ATOM     47  C   UNL A   1      41.094  28.319  33.939  1.00  0.00     0.031 C 
ATOM     48  C   UNL A   1      41.778  26.211  27.716  1.00  0.00     0.029 A 
ATOM     49  C   UNL A   1      42.829  25.882  28.660  1.00  0.00     0.049 A 
ATOM     50  H   UNL A   1      43.374  26.990  30.359  1.00  0.00     0.167 HD
ATOM     51  C   UNL A   1      43.592  28.642  34.270  1.00  0.00     0.034 A 
ATOM     52  C   UNL A   1      43.708  24.849  28.630  1.00  0.00     0.034 A 
ATOM     53  C   UNL A   1      44.670  29.180  33.476  1.00  0.00     0.049 A 
ATOM     54  C   UNL A   1      44.878  25.242  29.440  1.00  0.00     0.074 A 
ATOM     55  C   UNL A   1      45.153  30.416  33.113  1.00  0.00     0.029 A 
ATOM     56  N   UNL A   1      45.174  28.266  32.592  1.00  0.00    -0.354 N 
ATOM     57  N   UNL A   1      45.702  26.186  29.080  1.00  0.00    -0.248 NA
ATOM     58  C   UNL A   1      44.990  24.797  30.823  1.00  0.00     0.031 C 
ATOM     59  C   UNL A   1      45.879  30.219  31.898  1.00  0.00     0.029 A 
ATOM     60  C   UNL A   1      45.860  28.864  31.576  1.00  0.00     0.049 A 
ATOM     61  H   UNL A   1      45.056  27.292  32.679  1.00  0.00     0.167 HD
ATOM     62  C   UNL A   1      46.061  26.766  30.280  1.00  0.00     0.074 A 
ATOM     63  C   UNL A   1      45.783  25.761  31.296  1.00  0.00     0.031 C 
ATOM     64  C   UNL A   1      46.189  28.119  30.381  1.00  0.00     0.034 A 
BRANCH  51  65
ATOM     65  C   UNL A   1      43.889  27.498  35.232  1.00  0.00     0.023 A 
ATOM     66  C   UNL A   1      44.508  27.845  36.457  1.00  0.00     0.012 A 
ATOM     67  C   UNL A   1      43.909  26.127  34.886  1.00  0.00     0.148 A 
ATOM     68  C   UNL A   1      45.159  26.894  37.255  1.00  0.00     0.002 A 
ATOM     69  C   UNL A   1      44.495  25.176  35.715  1.00  0.00     0.091 A 
ATOM     70  F   UNL A   1      43.490  25.729  33.685  1.00  0.00    -0.205 F 
ATOM     71  C   UNL A   1      45.149  25.557  36.886  1.00  0.00     0.022 A 
BRANCH  69  72
ATOM     72  S   UNL A   1      44.490  23.428  35.289  1.00  0.00     0.127 S 
ATOM     73  O   UNL A   1      45.393  23.410  34.142  1.00  0.00    -0.237 OA
ATOM     74  O   UNL A   1      45.022  22.829  36.513  1.00  0.00    -0.237 OA
ATOM     75  O   UNL A   1      43.098  23.096  35.014  1.00  0.00    -0.744 OA
ENDBRANCH  69  72
ENDBRANCH  51  65
BRANCH  52  76
ATOM     76  C   UNL A   1      43.619  23.494  28.038  1.00  0.00     0.023 A 
ATOM     77  C   UNL A   1      42.572  22.632  28.431  1.00  0.00     0.012 A 
ATOM     78  C   UNL A   1      44.354  23.167  26.880  1.00  0.00     0.148 A 
ATOM     79  C   UNL A   1      42.224  21.518  27.658  1.00  0.00     0.002 A 
ATOM     80  C   UNL A   1      44.003  22.060  26.112  1.00  0.00     0.091 A 
ATOM     81  F   UNL A   1      45.334  23.991  26.487  1.00  0.00    -0.205 F 
ATOM     82  C   UNL A   1      42.928  21.243  26.489  1.00  0.00     0.022 A 
BRANCH  80  83
ATOM     83  S   UNL A   1      44.835  21.656  24.569  1.00  0.00     0.127 S 
ATOM     84  O   UNL A   1      46.242  21.836  24.928  1.00  0.00    -0.237 OA
ATOM     85  O   UNL A   1      44.431  20.269  24.357  1.00  0.00    -0.237 OA
ATOM     86  O   UNL A   1      44.340  22.611  23.584  1.00  0.00    -0.744 OA
ENDBRANCH  80  83
ENDBRANCH  52  76
BRANCH  64  87
ATOM     87  C   UNL A   1      46.531  28.882  29.139  1.00  0.00     0.023 A 
ATOM     88  C   UNL A   1      47.766  28.770  28.472  1.00  0.00     0.012 A 
ATOM     89  C   UNL A   1      45.529  29.699  28.593  1.00  0.00     0.148 A 
ATOM     90  C   UNL A   1      48.000  29.481  27.292  1.00  0.00     0.002 A 
ATOM     91  C   UNL A   1      45.747  30.366  27.398  1.00  0.00     0.091 A 
ATOM     92  F   UNL A   1      44.367  29.805  29.255  1.00  0.00    -0.205 F 
ATOM     93  C   UNL A   1      46.986  30.269  26.748  1.00  0.00     0.022 A 
BRANCH  91  94
ATOM     94  S   UNL A   1      44.440  31.305  26.608  1.00  0.00     0.127 S 
ATOM     95  O   UNL A   1      43.458  30.267  26.303  1.00  0.00    -0.237 OA
ATOM     96  O   UNL A   1      44.040  32.236  27.664  1.00  0.00    -0.237 OA
ATOM     97  O   UNL A   1      45.055  31.949  25.453  1.00  0.00    -0.744 OA
ENDBRANCH  91  94
ENDBRANCH  64  87
ENDBRANCH  38  39
ENDBRANCH  30  33
ENDBRANCH  28  29
ENDBRANCH  27  28
ENDBRANCH   1  27
TORSDOF 20
ENDMDL
MODEL 3
REMARK VINA RESULT:     -10.2      4.739     11.186
REMARK SMILES COCc1c(C(=O)NCCCCCCNC(=O)c2ccc(-c3c4nc(c(-c5cccc(S(=O)(=O)[O-])c5F)c5ccc([nH]5)c(-c5cccc(S(=O)(=O)[O-])c5F)c5nc(c(-c6cccc(S(=O)(=O)[O-])c6F)c6ccc3[nH]6)C=C5)C=C4)cc2)nnn1-c1ccc(S(C)(=O)=O)cc1
REMARK SMILES IDX 12 1 11 2 10 3 9 4 8 5 6 6 7 7 5 9 4 10 83 11 81 12 82 13
REMARK SMILES IDX 3 14 2 15 1 16 84 17 85 18 93 19 86 20 92 21 87 22 88 23
REMARK SMILES IDX 89 24 90 25 91 26 13 27 14 28 15 29 16 30 17 32 18 33 19 34
REMARK SMILES IDX 80 35 20 36 79 37 21 38 22 39 23 40 73 41 24 42 78 43 72 44
REMARK SMILES IDX 74 45 25 46 77 47 71 48 70 49 26 51 58 52 38 53 57 54 39 55
REMARK SMILES IDX 42 56 56 57 75 58 40 59 41 60 55 62 76 63 43 64 27 65 28 66
REMARK SMILES IDX 36 67 29 68 31 69 37 70 30 71 32 72 33 73 34 74 35 75 59 76
REMARK SMILES IDX 60 77 68 78 61 79 63 80 69 81 62 82 64 83 65 84 66 85 67 86
REMARK SMILES IDX 44 87 45 88 53 89 46 90 48 91 54 92 47 93 49 94 50 95 51 96
REMARK SMILES IDX 52 97
REMARK H PARENT 8 8 15 31 74 50 42 61
REMARK Flexibility Score: inf
ROOT
ATOM      1  C   UNL A   1      35.957  34.547  32.329  1.00  0.00     0.002 C 
ENDROOT
BRANCH   1   2
ATOM      2  C   UNL A   1      37.303  33.812  32.334  1.00  0.00     0.002 C 
BRANCH   2   3
ATOM      3  C   UNL A   1      38.463  34.548  31.661  1.00  0.00     0.021 C 
BRANCH   3   4
ATOM      4  C   UNL A   1      39.755  33.735  31.505  1.00  0.00     0.116 C 
BRANCH   4   5
ATOM      5  N   UNL A   1      40.895  34.467  32.013  1.00  0.00    -0.351 N 
ATOM      6  C   UNL A   1      41.489  34.581  33.246  1.00  0.00     0.273 C 
ATOM      7  O   UNL A   1      42.529  35.252  33.237  1.00  0.00    -0.267 OA
ATOM      8  H   UNL A   1      41.345  35.003  31.321  1.00  0.00     0.163 HD
BRANCH   6   9
ATOM      9  C   UNL A   1      41.040  33.934  34.486  1.00  0.00     0.176 A 
ATOM     10  C   UNL A   1      40.033  34.162  35.419  1.00  0.00     0.103 A 
ATOM     11  N   UNL A   1      40.215  33.170  36.363  1.00  0.00    -0.214 N 
ATOM     12  N   UNL A   1      41.823  32.892  34.975  1.00  0.00    -0.124 NA
ATOM     13  N   UNL A   1      41.331  32.469  36.127  1.00  0.00    -0.061 NA
BRANCH  10  14
ATOM     14  C   UNL A   1      39.002  35.200  35.665  1.00  0.00     0.218 C 
BRANCH  14  15
ATOM     15  O   UNL A   1      39.645  36.436  35.902  1.00  0.00    -0.378 OA
ATOM     16  C   UNL A   1      40.274  36.552  37.174  1.00  0.00     0.195 C 
ENDBRANCH  14  15
ENDBRANCH  10  14
BRANCH  11  17
ATOM     17  C   UNL A   1      39.323  32.794  37.384  1.00  0.00     0.067 A 
ATOM     18  C   UNL A   1      39.381  33.436  38.625  1.00  0.00     0.030 A 
ATOM     19  C   UNL A   1      38.301  31.888  37.074  1.00  0.00     0.030 A 
ATOM     20  C   UNL A   1      38.367  33.197  39.557  1.00  0.00     0.022 A 
ATOM     21  C   UNL A   1      37.317  31.621  38.021  1.00  0.00     0.022 A 
ATOM     22  C   UNL A   1      37.346  32.287  39.251  1.00  0.00     0.067 A 
BRANCH  22  23
ATOM     23  S   UNL A   1      36.020  32.011  40.405  1.00  0.00     0.175 S 
ATOM     24  C   UNL A   1      36.015  33.447  41.438  1.00  0.00     0.163 C 
ATOM     25  O   UNL A   1      34.786  32.009  39.637  1.00  0.00    -0.224 OA
ATOM     26  O   UNL A   1      36.395  30.893  41.241  1.00  0.00    -0.224 OA
ENDBRANCH  22  23
ENDBRANCH  11  17
ENDBRANCH   6   9
ENDBRANCH   4   5
ENDBRANCH   3   4
ENDBRANCH   2   3
ENDBRANCH   1   2
BRANCH   1  27
ATOM     27  C   UNL A   1      34.926  34.067  31.298  1.00  0.00     0.021 C 
BRANCH  27  28
ATOM     28  C   UNL A   1      34.929  32.560  31.065  1.00  0.00     0.116 C 
BRANCH  28  29
ATOM     29  N   UNL A   1      34.315  32.207  29.792  1.00  0.00    -0.352 N 
ATOM     30  C   UNL A   1      34.912  31.678  28.672  1.00  0.00     0.251 C 
ATOM     31  H   UNL A   1      33.345  32.367  29.725  1.00  0.00     0.163 HD
ATOM     32  O   UNL A   1      34.359  31.779  27.580  1.00  0.00    -0.269 OA
BRANCH  30  33
ATOM     33  C   UNL A   1      36.215  30.998  28.784  1.00  0.00     0.039 A 
ATOM     34  C   UNL A   1      37.386  31.756  28.854  1.00  0.00     0.014 A 
ATOM     35  C   UNL A   1      36.276  29.602  28.792  1.00  0.00     0.014 A 
ATOM     36  C   UNL A   1      38.605  31.104  29.000  1.00  0.00     0.010 A 
ATOM     37  C   UNL A   1      37.471  28.958  29.035  1.00  0.00     0.010 A 
ATOM     38  C   UNL A   1      38.642  29.703  29.119  1.00  0.00    -0.014 A 
BRANCH  38  39
ATOM     39  C   UNL A   1      39.881  29.059  29.552  1.00  0.00     0.031 A 
ATOM     40  C   UNL A   1      40.134  29.252  31.004  1.00  0.00     0.074 A 
ATOM     41  C   UNL A   1      40.634  28.226  28.799  1.00  0.00     0.049 A 
ATOM     42  N   UNL A   1      40.981  30.067  31.542  1.00  0.00    -0.248 NA
ATOM     43  C   UNL A   1      39.205  28.642  31.970  1.00  0.00     0.031 C 
ATOM     44  C   UNL A   1      40.311  27.722  27.460  1.00  0.00     0.029 A 
ATOM     45  N   UNL A   1      41.784  27.550  29.106  1.00  0.00    -0.354 N 
ATOM     46  C   UNL A   1      40.913  29.796  32.906  1.00  0.00     0.074 A 
ATOM     47  C   UNL A   1      39.647  29.155  33.122  1.00  0.00     0.031 C 
ATOM     48  C   UNL A   1      41.086  26.651  27.181  1.00  0.00     0.029 A 
ATOM     49  C   UNL A   1      42.071  26.500  28.235  1.00  0.00     0.049 A 
ATOM     50  H   UNL A   1      42.356  27.783  29.873  1.00  0.00     0.167 HD
ATOM     51  C   UNL A   1      42.064  29.744  33.633  1.00  0.00     0.034 A 
ATOM     52  C   UNL A   1      43.039  25.558  28.366  1.00  0.00     0.034 A 
ATOM     53  C   UNL A   1      43.158  30.321  32.890  1.00  0.00     0.049 A 
ATOM     54  C   UNL A   1      44.089  26.124  29.235  1.00  0.00     0.074 A 
ATOM     55  C   UNL A   1      43.559  31.567  32.465  1.00  0.00     0.029 A 
ATOM     56  N   UNL A   1      43.822  29.395  32.133  1.00  0.00    -0.354 N 
ATOM     57  N   UNL A   1      44.855  27.113  28.867  1.00  0.00    -0.248 NA
ATOM     58  C   UNL A   1      44.114  25.799  30.656  1.00  0.00     0.031 C 
ATOM     59  C   UNL A   1      44.408  31.349  31.337  1.00  0.00     0.029 A 
ATOM     60  C   UNL A   1      44.541  29.978  31.131  1.00  0.00     0.049 A 
ATOM     61  H   UNL A   1      43.785  28.424  32.292  1.00  0.00     0.167 HD
ATOM     62  C   UNL A   1      45.049  27.816  30.039  1.00  0.00     0.074 A 
ATOM     63  C   UNL A   1      44.770  26.869  31.110  1.00  0.00     0.031 C 
ATOM     64  C   UNL A   1      45.044  29.179  30.035  1.00  0.00     0.034 A 
BRANCH  51  65
ATOM     65  C   UNL A   1      42.374  28.711  34.711  1.00  0.00     0.023 A 
ATOM     66  C   UNL A   1      42.894  29.205  35.932  1.00  0.00     0.012 A 
ATOM     67  C   UNL A   1      42.501  27.319  34.493  1.00  0.00     0.148 A 
ATOM     68  C   UNL A   1      43.554  28.375  36.848  1.00  0.00     0.002 A 
ATOM     69  C   UNL A   1      43.094  26.487  35.436  1.00  0.00     0.091 A 
ATOM     70  F   UNL A   1      42.182  26.790  33.312  1.00  0.00    -0.205 F 
ATOM     71  C   UNL A   1      43.650  27.013  36.602  1.00  0.00     0.022 A 
BRANCH  69  72
ATOM     72  S   UNL A   1      43.226  24.713  35.173  1.00  0.00     0.127 S 
ATOM     73  O   UNL A   1      41.820  24.317  35.176  1.00  0.00    -0.237 OA
ATOM     74  O   UNL A   1      43.888  24.660  33.870  1.00  0.00    -0.237 OA
ATOM     75  O   UNL A   1      44.033  24.212  36.278  1.00  0.00    -0.744 OA
ENDBRANCH  69  72
ENDBRANCH  51  65
BRANCH  52  76
ATOM     76  C   UNL A   1      43.127  24.159  27.887  1.00  0.00     0.023 A 
ATOM     77  C   UNL A   1      42.106  23.244  28.222  1.00  0.00     0.012 A 
ATOM     78  C   UNL A   1      44.026  23.808  26.859  1.00  0.00     0.148 A 
ATOM     79  C   UNL A   1      41.943  22.049  27.511  1.00  0.00     0.002 A 
ATOM     80  C   UNL A   1      43.860  22.621  26.151  1.00  0.00     0.091 A 
ATOM     81  F   UNL A   1      44.985  24.680  26.518  1.00  0.00    -0.205 F 
ATOM     82  C   UNL A   1      42.809  21.747  26.464  1.00  0.00     0.022 A 
BRANCH  80  83
ATOM     83  S   UNL A   1      44.909  22.173  24.761  1.00  0.00     0.127 S 
ATOM     84  O   UNL A   1      44.749  23.328  23.878  1.00  0.00    -0.237 OA
ATOM     85  O   UNL A   1      46.222  22.063  25.391  1.00  0.00    -0.237 OA
ATOM     86  O   UNL A   1      44.362  20.930  24.228  1.00  0.00    -0.744 OA
ENDBRANCH  80  83
ENDBRANCH  52  76
BRANCH  64  87
ATOM     87  C   UNL A   1      45.429  29.874  28.767  1.00  0.00     0.023 A 
ATOM     88  C   UNL A   1      44.507  30.231  27.764  1.00  0.00     0.012 A 
ATOM     89  C   UNL A   1      46.777  30.238  28.619  1.00  0.00     0.148 A 
ATOM     90  C   UNL A   1      44.932  30.918  26.624  1.00  0.00     0.002 A 
ATOM     91  C   UNL A   1      47.187  30.960  27.510  1.00  0.00     0.091 A 
ATOM     92  F   UNL A   1      47.640  29.871  29.579  1.00  0.00    -0.205 F 
ATOM     93  C   UNL A   1      46.270  31.294  26.503  1.00  0.00     0.022 A 
BRANCH  91  94
ATOM     94  S   UNL A   1      48.872  31.555  27.362  1.00  0.00     0.127 S 
ATOM     95  O   UNL A   1      49.054  32.275  28.621  1.00  0.00    -0.237 OA
ATOM     96  O   UNL A   1      49.634  30.311  27.250  1.00  0.00    -0.237 OA
ATOM     97  O   UNL A   1      48.900  32.376  26.157  1.00  0.00    -0.744 OA
ENDBRANCH  91  94
ENDBRANCH  64  87
ENDBRANCH  38  39
ENDBRANCH  30  33
ENDBRANCH  28  29
ENDBRANCH  27  28
ENDBRANCH   1  27
TORSDOF 20
ENDMDL
