MODEL 1
REMARK VINA RESULT:      -9.6      0.000      0.000
REMARK SMILES Cc1cc(C)cc(Oc2nc3ccccn3c(=O)c2/C=C2\SC(=S)N(CCC(=O)NCCCCCCNC(=O)c3ccc(-c4c5nc(c(-c6cccc(S(=O)(=O)[O-])c6F)c6ccc([nH]6)c(-c6cccc(S(=O)(=O)[O-])c6F)c6nc(c(-c7cccc(S(=O)(=O)[O-])c7F)c7ccc4[nH]7)C=C6)C=C5)cc3)C2=O)c1
REMARK SMILES IDX 32 1 31 2 30 3 28 4 29 5 27 7 26 8 25 9 20 10 21 11 22 12
REMARK SMILES IDX 103 13 23 14 104 15 24 16 19 17 9 18 10 19 11 20 17 21 12 22
REMARK SMILES IDX 16 23 18 24 13 25 15 26 14 27 8 28 7 29 1 30 2 31 3 32
REMARK SMILES IDX 105 33 4 34 5 35 6 36 33 37 34 38 35 39 36 40 37 41 38 42
REMARK SMILES IDX 39 44 40 45 41 46 102 47 42 48 101 49 43 50 44 51 45 52
REMARK SMILES IDX 95 53 46 54 100 55 94 56 96 57 47 58 99 59 93 60 92 61 48 63
REMARK SMILES IDX 80 64 60 65 79 66 61 67 64 68 78 69 97 70 62 71 63 72 77 74
REMARK SMILES IDX 98 75 65 76 49 77 50 78 58 79 51 80 53 81 59 82 52 83 54 84
REMARK SMILES IDX 55 85 56 86 57 87 81 88 82 89 90 90 83 91 85 92 91 93 84 94
REMARK SMILES IDX 86 95 87 96 88 97 89 98 66 99 67 100 75 101 68 102 70 103
REMARK SMILES IDX 76 104 69 105 71 106 72 107 73 108 74 109
REMARK H PARENT 30 6 37 43 96 62 64 73
REMARK Flexibility Score: inf
ROOT
ATOM      1  C   UNL A   1      50.909  20.598  37.395  1.00  0.00     0.021 C 
ENDROOT
BRANCH   1   2
ATOM      2  C   UNL A   1      50.047  19.555  36.699  1.00  0.00     0.116 C 
BRANCH   2   3
ATOM      3  N   UNL A   1      50.167  19.669  35.262  1.00  0.00    -0.356 N 
ATOM      4  C   UNL A   1      49.276  20.144  34.345  1.00  0.00     0.221 C 
ATOM      5  O   UNL A   1      49.485  19.894  33.156  1.00  0.00    -0.275 OA
ATOM      6  H   UNL A   1      51.022  19.355  34.888  1.00  0.00     0.163 HD
BRANCH   4   7
ATOM      7  C   UNL A   1      48.097  21.015  34.751  1.00  0.00     0.122 C 
BRANCH   7   8
ATOM      8  C   UNL A   1      46.808  20.240  35.073  1.00  0.00     0.137 C 
BRANCH   8   9
ATOM      9  N   UNL A   1      46.497  20.235  36.511  1.00  0.00    -0.292 N 
ATOM     10  C   UNL A   1      46.126  18.052  39.277  1.00  0.00     0.041 C 
ATOM     11  C   UNL A   1      46.069  19.168  38.538  1.00  0.00     0.081 C 
ATOM     12  S   UNL A   1      46.393  20.771  39.036  1.00  0.00    -0.054 SA
ATOM     13  C   UNL A   1      45.844  19.156  37.070  1.00  0.00     0.266 C 
ATOM     14  C   UNL A   1      46.758  21.273  37.386  1.00  0.00     0.148 C 
ATOM     15  O   UNL A   1      45.187  18.313  36.477  1.00  0.00    -0.268 OA
ATOM     16  S   UNL A   1      47.364  22.785  37.036  1.00  0.00    -0.052 S 
BRANCH  10  17
ATOM     17  C   UNL A   1      46.303  17.991  40.723  1.00  0.00     0.104 A 
ATOM     18  C   UNL A   1      47.481  17.833  41.409  1.00  0.00     0.234 A 
ATOM     19  N   UNL A   1      47.599  17.543  42.740  1.00  0.00    -0.194 NA
ATOM     20  C   UNL A   1      46.643  16.795  43.146  1.00  0.00     0.143 A 
ATOM     21  C   UNL A   1      44.961  17.747  41.396  1.00  0.00     0.269 A 
ATOM     22  C   UNL A   1      46.968  15.256  44.273  1.00  0.00     0.048 A 
ATOM     23  N   UNL A   1      45.091  16.878  42.438  1.00  0.00    -0.267 N 
ATOM     24  O   UNL A   1      43.899  18.036  40.849  1.00  0.00    -0.268 OA
ATOM     25  C   UNL A   1      45.548  14.067  44.446  1.00  0.00     0.005 A 
ATOM     26  C   UNL A   1      43.804  15.759  42.716  1.00  0.00     0.096 A 
ATOM     27  C   UNL A   1      43.935  14.501  43.551  1.00  0.00     0.019 A 
BRANCH  18  28
ATOM     28  O   UNL A   1      48.680  17.461  40.791  1.00  0.00    -0.438 OA
BRANCH  28  29
ATOM     29  C   UNL A   1      49.773  18.272  40.687  1.00  0.00     0.130 A 
ATOM     30  C   UNL A   1      53.320  17.875  41.631  1.00  0.00     0.044 C 
ATOM     31  C   UNL A   1      52.073  18.558  41.184  1.00  0.00    -0.047 A 
ATOM     32  C   UNL A   1      51.894  19.945  41.276  1.00  0.00     0.007 A 
ATOM     33  C   UNL A   1      51.035  17.743  40.761  1.00  0.00     0.050 A 
ATOM     34  C   UNL A   1      50.647  20.525  41.007  1.00  0.00    -0.047 A 
ATOM     35  C   UNL A   1      50.485  22.017  41.107  1.00  0.00     0.044 C 
ATOM     36  C   UNL A   1      49.574  19.668  40.732  1.00  0.00     0.050 A 
ENDBRANCH  28  29
ENDBRANCH  18  28
ENDBRANCH  10  17
ENDBRANCH   8   9
ENDBRANCH   7   8
ENDBRANCH   4   7
ENDBRANCH   2   3
ENDBRANCH   1   2
BRANCH   1  37
ATOM     37  C   UNL A   1      51.194  21.979  36.784  1.00  0.00     0.002 C 
BRANCH  37  38
ATOM     38  C   UNL A   1      52.396  22.767  37.341  1.00  0.00     0.002 C 
BRANCH  38  39
ATOM     39  C   UNL A   1      53.711  22.620  36.569  1.00  0.00     0.021 C 
BRANCH  39  40
ATOM     40  C   UNL A   1      54.024  21.447  35.639  1.00  0.00     0.116 C 
BRANCH  40  41
ATOM     41  N   UNL A   1      54.703  21.847  34.417  1.00  0.00    -0.352 N 
ATOM     42  C   UNL A   1      54.412  22.679  33.359  1.00  0.00     0.251 C 
ATOM     43  H   UNL A   1      55.586  21.419  34.324  1.00  0.00     0.163 HD
ATOM     44  O   UNL A   1      55.206  22.674  32.415  1.00  0.00    -0.269 OA
BRANCH  42  45
ATOM     45  C   UNL A   1      53.223  23.553  33.210  1.00  0.00     0.039 A 
ATOM     46  C   UNL A   1      51.627  22.738  33.152  1.00  0.00     0.014 A 
ATOM     47  C   UNL A   1      53.224  25.358  33.190  1.00  0.00     0.014 A 
ATOM     48  C   UNL A   1      50.051  23.609  33.114  1.00  0.00     0.010 A 
ATOM     49  C   UNL A   1      51.449  26.361  33.175  1.00  0.00     0.010 A 
ATOM     50  C   UNL A   1      49.914  25.391  33.134  1.00  0.00    -0.014 A 
BRANCH  50  51
ATOM     51  C   UNL A   1      48.600  26.029  33.096  1.00  0.00     0.031 A 
ATOM     52  C   UNL A   1      47.958  26.277  31.775  1.00  0.00     0.074 A 
ATOM     53  C   UNL A   1      47.998  26.312  34.262  1.00  0.00     0.049 A 
ATOM     54  N   UNL A   1      46.763  26.713  31.498  1.00  0.00    -0.248 NA
ATOM     55  C   UNL A   1      48.772  25.992  30.588  1.00  0.00     0.031 C 
ATOM     56  C   UNL A   1      48.593  26.146  35.590  1.00  0.00     0.029 A 
ATOM     57  N   UNL A   1      46.745  26.794  34.516  1.00  0.00    -0.354 N 
ATOM     58  C   UNL A   1      46.692  26.744  30.109  1.00  0.00     0.074 A 
ATOM     59  C   UNL A   1      47.981  26.362  29.597  1.00  0.00     0.031 C 
ATOM     60  C   UNL A   1      47.690  26.490  36.523  1.00  0.00     0.029 A 
ATOM     61  C   UNL A   1      46.471  26.930  35.856  1.00  0.00     0.049 A 
ATOM     62  H   UNL A   1      46.101  27.023  33.808  1.00  0.00     0.167 HD
ATOM     63  C   UNL A   1      45.622  27.015  29.332  1.00  0.00     0.034 A 
ATOM     64  C   UNL A   1      45.349  27.367  36.455  1.00  0.00     0.034 A 
ATOM     65  C   UNL A   1      44.355  27.390  29.881  1.00  0.00     0.049 A 
ATOM     66  C   UNL A   1      44.188  27.719  35.566  1.00  0.00     0.074 A 
ATOM     67  C   UNL A   1      43.180  27.694  29.224  1.00  0.00     0.029 A 
ATOM     68  N   UNL A   1      44.112  27.529  31.241  1.00  0.00    -0.354 N 
ATOM     69  N   UNL A   1      44.101  27.657  34.257  1.00  0.00    -0.248 NA
ATOM     70  C   UNL A   1      42.960  28.161  36.232  1.00  0.00     0.031 C 
ATOM     71  C   UNL A   1      42.244  28.077  30.188  1.00  0.00     0.029 A 
ATOM     72  C   UNL A   1      42.811  27.934  31.447  1.00  0.00     0.049 A 
ATOM     73  H   UNL A   1      44.773  27.364  31.952  1.00  0.00     0.167 HD
ATOM     74  C   UNL A   1      42.796  28.010  33.944  1.00  0.00     0.074 A 
ATOM     75  C   UNL A   1      42.126  28.254  35.208  1.00  0.00     0.031 C 
ATOM     76  C   UNL A   1      42.197  28.135  32.733  1.00  0.00     0.034 A 
BRANCH  63  77
ATOM     77  C   UNL A   1      45.796  26.914  27.841  1.00  0.00     0.023 A 
ATOM     78  C   UNL A   1      45.999  28.077  27.067  1.00  0.00     0.012 A 
ATOM     79  C   UNL A   1      45.761  25.660  27.206  1.00  0.00     0.148 A 
ATOM     80  C   UNL A   1      46.123  27.994  25.679  1.00  0.00     0.002 A 
ATOM     81  C   UNL A   1      45.939  25.580  25.832  1.00  0.00     0.091 A 
ATOM     82  F   UNL A   1      45.539  24.572  27.956  1.00  0.00    -0.205 F 
ATOM     83  C   UNL A   1      46.105  26.746  25.065  1.00  0.00     0.022 A 
BRANCH  81  84
ATOM     84  S   UNL A   1      45.994  24.016  24.954  1.00  0.00     0.127 S 
ATOM     85  O   UNL A   1      44.602  23.868  24.527  1.00  0.00    -0.237 OA
ATOM     86  O   UNL A   1      46.936  24.311  23.875  1.00  0.00    -0.237 OA
ATOM     87  O   UNL A   1      46.450  23.026  25.918  1.00  0.00    -0.744 OA
ENDBRANCH  81  84
ENDBRANCH  63  77
BRANCH  64  88
ATOM     88  C   UNL A   1      45.263  27.476  37.939  1.00  0.00     0.023 A 
ATOM     89  C   UNL A   1      44.843  26.376  38.713  1.00  0.00     0.012 A 
ATOM     90  C   UNL A   1      45.580  28.685  38.588  1.00  0.00     0.148 A 
ATOM     91  C   UNL A   1      44.684  26.497  40.094  1.00  0.00     0.002 A 
ATOM     92  C   UNL A   1      45.474  28.782  39.970  1.00  0.00     0.091 A 
ATOM     93  F   UNL A   1      45.979  29.722  37.837  1.00  0.00    -0.205 F 
ATOM     94  C   UNL A   1      45.003  27.697  40.724  1.00  0.00     0.022 A 
BRANCH  92  95
ATOM     95  S   UNL A   1      45.964  30.257  40.869  1.00  0.00     0.127 S 
ATOM     96  O   UNL A   1      47.347  30.426  40.429  1.00  0.00    -0.237 OA
ATOM     97  O   UNL A   1      45.025  31.251  40.348  1.00  0.00    -0.237 OA
ATOM     98  O   UNL A   1      45.786  29.939  42.279  1.00  0.00    -0.744 OA
ENDBRANCH  92  95
ENDBRANCH  64  88
BRANCH  76  99
ATOM     99  C   UNL A   1      40.737  28.487  32.738  1.00  0.00     0.023 A 
ATOM    100  C   UNL A   1      39.758  27.482  32.620  1.00  0.00     0.012 A 
ATOM    101  C   UNL A   1      40.346  29.829  32.898  1.00  0.00     0.148 A 
ATOM    102  C   UNL A   1      38.409  27.819  32.590  1.00  0.00     0.002 A 
ATOM    103  C   UNL A   1      38.999  30.148  32.943  1.00  0.00     0.091 A 
ATOM    104  F   UNL A   1      41.300  30.767  33.004  1.00  0.00    -0.205 F 
ATOM    105  C   UNL A   1      38.029  29.150  32.761  1.00  0.00     0.022 A 
BRANCH 103 106
ATOM    106  S   UNL A   1      38.424  31.812  33.278  1.00  0.00     0.127 S 
ATOM    107  O   UNL A   1      38.559  32.442  31.966  1.00  0.00    -0.237 OA
ATOM    108  O   UNL A   1      37.045  31.577  33.705  1.00  0.00    -0.237 OA
ATOM    109  O   UNL A   1      39.297  32.343  34.316  1.00  0.00    -0.744 OA
ENDBRANCH 103 106
ENDBRANCH  76  99
ENDBRANCH  50  51
ENDBRANCH  42  45
ENDBRANCH  40  41
ENDBRANCH  39  40
ENDBRANCH  38  39
ENDBRANCH  37  38
ENDBRANCH   1  37
TORSDOF 21
ENDMDL
MODEL 2
REMARK VINA RESULT:      -9.4      9.697     16.045
REMARK SMILES Cc1cc(C)cc(Oc2nc3ccccn3c(=O)c2/C=C2\SC(=S)N(CCC(=O)NCCCCCCNC(=O)c3ccc(-c4c5nc(c(-c6cccc(S(=O)(=O)[O-])c6F)c6ccc([nH]6)c(-c6cccc(S(=O)(=O)[O-])c6F)c6nc(c(-c7cccc(S(=O)(=O)[O-])c7F)c7ccc4[nH]7)C=C6)C=C5)cc3)C2=O)c1
REMARK SMILES IDX 32 1 31 2 30 3 28 4 29 5 27 7 26 8 25 9 20 10 21 11 22 12
REMARK SMILES IDX 103 13 23 14 104 15 24 16 19 17 9 18 10 19 11 20 17 21 12 22
REMARK SMILES IDX 16 23 18 24 13 25 15 26 14 27 8 28 7 29 1 30 2 31 3 32
REMARK SMILES IDX 105 33 4 34 5 35 6 36 33 37 34 38 35 39 36 40 37 41 38 42
REMARK SMILES IDX 39 44 40 45 41 46 102 47 42 48 101 49 43 50 44 51 45 52
REMARK SMILES IDX 95 53 46 54 100 55 94 56 96 57 47 58 99 59 93 60 92 61 48 63
REMARK SMILES IDX 80 64 60 65 79 66 61 67 64 68 78 69 97 70 62 71 63 72 77 74
REMARK SMILES IDX 98 75 65 76 49 77 50 78 58 79 51 80 53 81 59 82 52 83 54 84
REMARK SMILES IDX 55 85 56 86 57 87 81 88 82 89 90 90 83 91 85 92 91 93 84 94
REMARK SMILES IDX 86 95 87 96 88 97 89 98 66 99 67 100 75 101 68 102 70 103
REMARK SMILES IDX 76 104 69 105 71 106 72 107 73 108 74 109
REMARK H PARENT 30 6 37 43 96 62 64 73
REMARK Flexibility Score: inf
ROOT
ATOM      1  C   UNL A   1      30.744  31.187  25.329  1.00  0.00     0.021 C 
ENDROOT
BRANCH   1   2
ATOM      2  C   UNL A   1      31.734  30.235  24.674  1.00  0.00     0.116 C 
BRANCH   2   3
ATOM      3  N   UNL A   1      31.051  29.319  23.785  1.00  0.00    -0.356 N 
ATOM      4  C   UNL A   1      31.546  28.548  22.776  1.00  0.00     0.221 C 
ATOM      5  O   UNL A   1      30.743  28.056  21.980  1.00  0.00    -0.275 OA
ATOM      6  H   UNL A   1      30.080  29.241  23.932  1.00  0.00     0.163 HD
BRANCH   4   7
ATOM      7  C   UNL A   1      33.030  28.237  22.660  1.00  0.00     0.122 C 
BRANCH   7   8
ATOM      8  C   UNL A   1      33.624  27.481  23.861  1.00  0.00     0.137 C 
BRANCH   8   9
ATOM      9  N   UNL A   1      32.903  26.232  24.153  1.00  0.00    -0.292 N 
ATOM     10  C   UNL A   1      33.194  22.712  23.873  1.00  0.00     0.041 C 
ATOM     11  C   UNL A   1      32.645  23.918  24.074  1.00  0.00     0.081 C 
ATOM     12  S   UNL A   1      31.513  24.366  25.274  1.00  0.00    -0.054 SA
ATOM     13  C   UNL A   1      33.071  25.134  23.335  1.00  0.00     0.266 C 
ATOM     14  C   UNL A   1      31.993  26.058  25.179  1.00  0.00     0.148 C 
ATOM     15  O   UNL A   1      33.500  25.134  22.191  1.00  0.00    -0.268 OA
ATOM     16  S   UNL A   1      31.412  27.203  26.242  1.00  0.00    -0.052 S 
BRANCH  10  17
ATOM     17  C   UNL A   1      32.801  21.472  24.531  1.00  0.00     0.104 A 
ATOM     18  C   UNL A   1      33.199  21.025  25.766  1.00  0.00     0.234 A 
ATOM     19  N   UNL A   1      33.009  19.763  26.259  1.00  0.00    -0.194 NA
ATOM     20  C   UNL A   1      33.061  18.882  25.332  1.00  0.00     0.143 A 
ATOM     21  C   UNL A   1      32.172  20.529  23.517  1.00  0.00     0.269 A 
ATOM     22  C   UNL A   1      34.065  17.242  25.548  1.00  0.00     0.048 A 
ATOM     23  N   UNL A   1      32.569  19.243  23.738  1.00  0.00    -0.267 N 
ATOM     24  O   UNL A   1      31.666  20.940  22.475  1.00  0.00    -0.268 OA
ATOM     25  C   UNL A   1      34.361  16.266  23.992  1.00  0.00     0.005 A 
ATOM     26  C   UNL A   1      32.828  18.234  22.359  1.00  0.00     0.096 A 
ATOM     27  C   UNL A   1      33.620  16.944  22.385  1.00  0.00     0.019 A 
BRANCH  18  28
ATOM     28  O   UNL A   1      34.253  21.601  26.483  1.00  0.00    -0.438 OA
BRANCH  28  29
ATOM     29  C   UNL A   1      35.500  21.819  25.972  1.00  0.00     0.130 A 
ATOM     30  C   UNL A   1      38.266  19.575  25.003  1.00  0.00     0.044 C 
ATOM     31  C   UNL A   1      37.561  20.850  25.319  1.00  0.00    -0.047 A 
ATOM     32  C   UNL A   1      38.241  22.023  25.677  1.00  0.00     0.007 A 
ATOM     33  C   UNL A   1      36.177  20.805  25.349  1.00  0.00     0.050 A 
ATOM     34  C   UNL A   1      37.538  23.146  26.133  1.00  0.00    -0.047 A 
ATOM     35  C   UNL A   1      38.292  24.394  26.503  1.00  0.00     0.044 C 
ATOM     36  C   UNL A   1      36.153  23.025  26.301  1.00  0.00     0.050 A 
ENDBRANCH  28  29
ENDBRANCH  18  28
ENDBRANCH  10  17
ENDBRANCH   8   9
ENDBRANCH   7   8
ENDBRANCH   4   7
ENDBRANCH   2   3
ENDBRANCH   1   2
BRANCH   1  37
ATOM     37  C   UNL A   1      31.025  31.881  26.671  1.00  0.00     0.002 C 
BRANCH  37  38
ATOM     38  C   UNL A   1      31.828  33.196  26.635  1.00  0.00     0.002 C 
BRANCH  38  39
ATOM     39  C   UNL A   1      32.863  33.381  27.750  1.00  0.00     0.021 C 
BRANCH  39  40
ATOM     40  C   UNL A   1      34.017  32.411  28.007  1.00  0.00     0.116 C 
BRANCH  40  41
ATOM     41  N   UNL A   1      33.656  31.018  27.796  1.00  0.00    -0.352 N 
ATOM     42  C   UNL A   1      34.316  29.810  27.860  1.00  0.00     0.251 C 
ATOM     43  H   UNL A   1      32.709  30.912  27.546  1.00  0.00     0.163 HD
ATOM     44  O   UNL A   1      33.691  28.815  27.485  1.00  0.00    -0.269 OA
BRANCH  42  45
ATOM     45  C   UNL A   1      35.716  29.579  28.294  1.00  0.00     0.039 A 
ATOM     46  C   UNL A   1      36.960  29.532  27.004  1.00  0.00     0.014 A 
ATOM     47  C   UNL A   1      36.295  29.449  29.998  1.00  0.00     0.014 A 
ATOM     48  C   UNL A   1      38.730  29.403  27.314  1.00  0.00     0.010 A 
ATOM     49  C   UNL A   1      38.296  29.329  30.370  1.00  0.00     0.010 A 
ATOM     50  C   UNL A   1      39.434  29.310  28.954  1.00  0.00    -0.014 A 
BRANCH  50  51
ATOM     51  C   UNL A   1      40.881  29.202  29.130  1.00  0.00     0.031 A 
ATOM     52  C   UNL A   1      41.544  27.898  28.847  1.00  0.00     0.074 A 
ATOM     53  C   UNL A   1      41.562  30.303  29.483  1.00  0.00     0.049 A 
ATOM     54  N   UNL A   1      42.811  27.596  28.816  1.00  0.00    -0.248 NA
ATOM     55  C   UNL A   1      40.660  26.765  28.553  1.00  0.00     0.031 C 
ATOM     56  C   UNL A   1      40.969  31.597  29.828  1.00  0.00     0.029 A 
ATOM     57  N   UNL A   1      42.907  30.510  29.603  1.00  0.00    -0.354 N 
ATOM     58  C   UNL A   1      42.862  26.245  28.493  1.00  0.00     0.074 A 
ATOM     59  C   UNL A   1      41.509  25.762  28.416  1.00  0.00     0.031 C 
ATOM     60  C   UNL A   1      41.951  32.475  30.090  1.00  0.00     0.029 A 
ATOM     61  C   UNL A   1      43.233  31.796  29.962  1.00  0.00     0.049 A 
ATOM     62  H   UNL A   1      43.577  29.807  29.447  1.00  0.00     0.167 HD
ATOM     63  C   UNL A   1      43.949  25.489  28.229  1.00  0.00     0.034 A 
ATOM     64  C   UNL A   1      44.447  32.341  30.163  1.00  0.00     0.034 A 
ATOM     65  C   UNL A   1      45.279  26.009  28.316  1.00  0.00     0.049 A 
ATOM     66  C   UNL A   1      45.643  31.463  29.920  1.00  0.00     0.074 A 
ATOM     67  C   UNL A   1      46.478  25.367  28.080  1.00  0.00     0.029 A 
ATOM     68  N   UNL A   1      45.578  27.311  28.694  1.00  0.00    -0.354 N 
ATOM     69  N   UNL A   1      45.683  30.211  29.524  1.00  0.00    -0.248 NA
ATOM     70  C   UNL A   1      46.960  32.078  30.108  1.00  0.00     0.031 C 
ATOM     71  C   UNL A   1      47.505  26.269  28.374  1.00  0.00     0.029 A 
ATOM     72  C   UNL A   1      46.944  27.492  28.715  1.00  0.00     0.049 A 
ATOM     73  H   UNL A   1      44.912  28.002  28.913  1.00  0.00     0.167 HD
ATOM     74  C   UNL A   1      47.027  29.900  29.375  1.00  0.00     0.074 A 
ATOM     75  C   UNL A   1      47.763  31.110  29.693  1.00  0.00     0.031 C 
ATOM     76  C   UNL A   1      47.614  28.730  29.017  1.00  0.00     0.034 A 
BRANCH  63  77
ATOM     77  C   UNL A   1      43.725  24.055  27.835  1.00  0.00     0.023 A 
ATOM     78  C   UNL A   1      43.072  23.167  28.718  1.00  0.00     0.012 A 
ATOM     79  C   UNL A   1      44.162  23.586  26.584  1.00  0.00     0.148 A 
ATOM     80  C   UNL A   1      42.895  21.825  28.375  1.00  0.00     0.002 A 
ATOM     81  C   UNL A   1      43.935  22.263  26.228  1.00  0.00     0.091 A 
ATOM     82  F   UNL A   1      44.804  24.437  25.774  1.00  0.00    -0.205 F 
ATOM     83  C   UNL A   1      43.315  21.378  27.127  1.00  0.00     0.022 A 
BRANCH  81  84
ATOM     84  S   UNL A   1      44.381  21.606  24.619  1.00  0.00     0.127 S 
ATOM     85  O   UNL A   1      43.737  20.293  24.647  1.00  0.00    -0.237 OA
ATOM     86  O   UNL A   1      43.758  22.573  23.716  1.00  0.00    -0.237 OA
ATOM     87  O   UNL A   1      45.836  21.577  24.582  1.00  0.00    -0.744 OA
ENDBRANCH  81  84
ENDBRANCH  63  77
BRANCH  64  88
ATOM     88  C   UNL A   1      44.589  33.762  30.589  1.00  0.00     0.023 A 
ATOM     89  C   UNL A   1      44.682  34.092  31.955  1.00  0.00     0.012 A 
ATOM     90  C   UNL A   1      44.611  34.797  29.634  1.00  0.00     0.148 A 
ATOM     91  C   UNL A   1      44.735  35.426  32.364  1.00  0.00     0.002 A 
ATOM     92  C   UNL A   1      44.719  36.120  30.044  1.00  0.00     0.091 A 
ATOM     93  F   UNL A   1      44.521  34.467  28.338  1.00  0.00    -0.205 F 
ATOM     94  C   UNL A   1      44.758  36.440  31.409  1.00  0.00     0.022 A 
BRANCH  92  95
ATOM     95  S   UNL A   1      44.861  37.478  28.878  1.00  0.00     0.127 S 
ATOM     96  O   UNL A   1      44.738  38.638  29.756  1.00  0.00    -0.237 OA
ATOM     97  O   UNL A   1      46.200  37.261  28.328  1.00  0.00    -0.237 OA
ATOM     98  O   UNL A   1      43.779  37.294  27.921  1.00  0.00    -0.744 OA
ENDBRANCH  92  95
ENDBRANCH  64  88
BRANCH  76  99
ATOM     99  C   UNL A   1      49.110  28.737  28.895  1.00  0.00     0.023 A 
ATOM    100  C   UNL A   1      49.922  28.482  30.016  1.00  0.00     0.012 A 
ATOM    101  C   UNL A   1      49.703  28.968  27.639  1.00  0.00     0.148 A 
ATOM    102  C   UNL A   1      51.308  28.527  29.902  1.00  0.00     0.002 A 
ATOM    103  C   UNL A   1      51.082  28.936  27.519  1.00  0.00     0.091 A 
ATOM    104  F   UNL A   1      48.906  29.213  26.588  1.00  0.00    -0.205 F 
ATOM    105  C   UNL A   1      51.887  28.743  28.653  1.00  0.00     0.022 A 
BRANCH 103 106
ATOM    106  S   UNL A   1      51.906  29.086  25.933  1.00  0.00     0.127 S 
ATOM    107  O   UNL A   1      51.439  27.884  25.244  1.00  0.00    -0.237 OA
ATOM    108  O   UNL A   1      51.353  30.339  25.421  1.00  0.00    -0.237 OA
ATOM    109  O   UNL A   1      53.334  29.125  26.219  1.00  0.00    -0.744 OA
ENDBRANCH 103 106
ENDBRANCH  76  99
ENDBRANCH  50  51
ENDBRANCH  42  45
ENDBRANCH  40  41
ENDBRANCH  39  40
ENDBRANCH  38  39
ENDBRANCH  37  38
ENDBRANCH   1  37
TORSDOF 21
ENDMDL
MODEL 3
REMARK VINA RESULT:      -9.3      9.626     13.569
REMARK SMILES Cc1cc(C)cc(Oc2nc3ccccn3c(=O)c2/C=C2\SC(=S)N(CCC(=O)NCCCCCCNC(=O)c3ccc(-c4c5nc(c(-c6cccc(S(=O)(=O)[O-])c6F)c6ccc([nH]6)c(-c6cccc(S(=O)(=O)[O-])c6F)c6nc(c(-c7cccc(S(=O)(=O)[O-])c7F)c7ccc4[nH]7)C=C6)C=C5)cc3)C2=O)c1
REMARK SMILES IDX 32 1 31 2 30 3 28 4 29 5 27 7 26 8 25 9 20 10 21 11 22 12
REMARK SMILES IDX 103 13 23 14 104 15 24 16 19 17 9 18 10 19 11 20 17 21 12 22
REMARK SMILES IDX 16 23 18 24 13 25 15 26 14 27 8 28 7 29 1 30 2 31 3 32
REMARK SMILES IDX 105 33 4 34 5 35 6 36 33 37 34 38 35 39 36 40 37 41 38 42
REMARK SMILES IDX 39 44 40 45 41 46 102 47 42 48 101 49 43 50 44 51 45 52
REMARK SMILES IDX 95 53 46 54 100 55 94 56 96 57 47 58 99 59 93 60 92 61 48 63
REMARK SMILES IDX 80 64 60 65 79 66 61 67 64 68 78 69 97 70 62 71 63 72 77 74
REMARK SMILES IDX 98 75 65 76 49 77 50 78 58 79 51 80 53 81 59 82 52 83 54 84
REMARK SMILES IDX 55 85 56 86 57 87 81 88 82 89 90 90 83 91 85 92 91 93 84 94
REMARK SMILES IDX 86 95 87 96 88 97 89 98 66 99 67 100 75 101 68 102 70 103
REMARK SMILES IDX 76 104 69 105 71 106 72 107 73 108 74 109
REMARK H PARENT 30 6 37 43 96 62 64 73
REMARK Flexibility Score: inf
ROOT
ATOM      1  C   UNL A   1      45.229  31.466  28.207  1.00  0.00     0.021 C 
ENDROOT
BRANCH   1   2
ATOM      2  C   UNL A   1      45.105  29.998  27.828  1.00  0.00     0.116 C 
BRANCH   2   3
ATOM      3  N   UNL A   1      45.344  29.814  26.413  1.00  0.00    -0.356 N 
ATOM      4  C   UNL A   1      46.375  29.191  25.774  1.00  0.00     0.221 C 
ATOM      5  O   UNL A   1      46.510  29.392  24.565  1.00  0.00    -0.275 OA
ATOM      6  H   UNL A   1      44.657  30.196  25.820  1.00  0.00     0.163 HD
BRANCH   4   7
ATOM      7  C   UNL A   1      47.298  28.222  26.498  1.00  0.00     0.122 C 
BRANCH   7   8
ATOM      8  C   UNL A   1      46.743  27.678  27.826  1.00  0.00     0.137 C 
BRANCH   8   9
ATOM      9  N   UNL A   1      46.164  26.332  27.685  1.00  0.00    -0.292 N 
ATOM     10  C   UNL A   1      43.641  24.548  25.953  1.00  0.00     0.041 C 
ATOM     11  C   UNL A   1      44.596  24.825  26.851  1.00  0.00     0.081 C 
ATOM     12  S   UNL A   1      45.825  23.785  27.427  1.00  0.00    -0.054 SA
ATOM     13  C   UNL A   1      44.823  26.188  27.396  1.00  0.00     0.266 C 
ATOM     14  C   UNL A   1      46.849  25.147  27.875  1.00  0.00     0.148 C 
ATOM     15  O   UNL A   1      43.948  27.026  27.551  1.00  0.00    -0.268 OA
ATOM     16  S   UNL A   1      48.416  24.938  28.403  1.00  0.00    -0.052 S 
BRANCH  10  17
ATOM     17  C   UNL A   1      43.335  23.232  25.406  1.00  0.00     0.104 A 
ATOM     18  C   UNL A   1      42.440  22.315  25.900  1.00  0.00     0.234 A 
ATOM     19  N   UNL A   1      42.341  21.007  25.514  1.00  0.00    -0.194 NA
ATOM     20  C   UNL A   1      43.483  20.520  25.200  1.00  0.00     0.143 A 
ATOM     21  C   UNL A   1      44.411  22.825  24.411  1.00  0.00     0.269 A 
ATOM     22  C   UNL A   1      44.047  18.777  25.821  1.00  0.00     0.048 A 
ATOM     23  N   UNL A   1      44.711  21.501  24.534  1.00  0.00    -0.267 N 
ATOM     24  O   UNL A   1      45.113  23.656  23.839  1.00  0.00    -0.268 OA
ATOM     25  C   UNL A   1      45.854  18.391  25.609  1.00  0.00     0.005 A 
ATOM     26  C   UNL A   1      46.357  21.027  24.309  1.00  0.00     0.096 A 
ATOM     27  C   UNL A   1      46.934  19.706  24.775  1.00  0.00     0.019 A 
BRANCH  18  28
ATOM     28  O   UNL A   1      41.856  22.425  27.166  1.00  0.00    -0.438 OA
BRANCH  28  29
ATOM     29  C   UNL A   1      40.743  23.168  27.436  1.00  0.00     0.130 A 
ATOM     30  C   UNL A   1      37.561  23.702  25.643  1.00  0.00     0.044 C 
ATOM     31  C   UNL A   1      38.631  23.911  26.659  1.00  0.00    -0.047 A 
ATOM     32  C   UNL A   1      38.778  25.111  27.370  1.00  0.00     0.007 A 
ATOM     33  C   UNL A   1      39.560  22.893  26.802  1.00  0.00     0.050 A 
ATOM     34  C   UNL A   1      39.896  25.327  28.185  1.00  0.00    -0.047 A 
ATOM     35  C   UNL A   1      40.025  26.620  28.942  1.00  0.00     0.044 C 
ATOM     36  C   UNL A   1      40.897  24.347  28.194  1.00  0.00     0.050 A 
ENDBRANCH  28  29
ENDBRANCH  18  28
ENDBRANCH  10  17
ENDBRANCH   8   9
ENDBRANCH   7   8
ENDBRANCH   4   7
ENDBRANCH   2   3
ENDBRANCH   1   2
BRANCH   1  37
ATOM     37  C   UNL A   1      44.469  32.580  27.469  1.00  0.00     0.002 C 
BRANCH  37  38
ATOM     38  C   UNL A   1      45.001  33.005  26.086  1.00  0.00     0.002 C 
BRANCH  38  39
ATOM     39  C   UNL A   1      44.242  34.143  25.396  1.00  0.00     0.021 C 
BRANCH  39  40
ATOM     40  C   UNL A   1      44.239  35.589  25.897  1.00  0.00     0.116 C 
BRANCH  40  41
ATOM     41  N   UNL A   1      45.559  36.069  26.273  1.00  0.00    -0.352 N 
ATOM     42  C   UNL A   1      46.199  36.356  27.459  1.00  0.00     0.251 C 
ATOM     43  H   UNL A   1      46.136  36.228  25.490  1.00  0.00     0.163 HD
ATOM     44  O   UNL A   1      47.315  36.874  27.376  1.00  0.00    -0.269 OA
BRANCH  42  45
ATOM     45  C   UNL A   1      45.675  36.147  28.831  1.00  0.00     0.039 A 
ATOM     46  C   UNL A   1      44.457  37.327  29.416  1.00  0.00     0.014 A 
ATOM     47  C   UNL A   1      46.065  34.762  29.921  1.00  0.00     0.014 A 
ATOM     48  C   UNL A   1      43.590  37.185  30.988  1.00  0.00     0.010 A 
ATOM     49  C   UNL A   1      45.074  34.571  31.692  1.00  0.00     0.010 A 
ATOM     50  C   UNL A   1      43.854  35.842  32.137  1.00  0.00    -0.014 A 
BRANCH  50  51
ATOM     51  C   UNL A   1      43.117  35.795  33.398  1.00  0.00     0.031 A 
ATOM     52  C   UNL A   1      41.804  35.092  33.438  1.00  0.00     0.074 A 
ATOM     53  C   UNL A   1      43.685  36.337  34.485  1.00  0.00     0.049 A 
ATOM     54  N   UNL A   1      41.035  34.819  34.453  1.00  0.00    -0.248 NA
ATOM     55  C   UNL A   1      41.274  34.623  32.153  1.00  0.00     0.031 C 
ATOM     56  C   UNL A   1      44.944  37.087  34.505  1.00  0.00     0.029 A 
ATOM     57  N   UNL A   1      43.279  36.334  35.790  1.00  0.00    -0.354 N 
ATOM     58  C   UNL A   1      39.943  34.144  33.920  1.00  0.00     0.074 A 
ATOM     59  C   UNL A   1      40.102  34.116  32.490  1.00  0.00     0.031 C 
ATOM     60  C   UNL A   1      45.223  37.445  35.770  1.00  0.00     0.029 A 
ATOM     61  C   UNL A   1      44.150  36.977  36.637  1.00  0.00     0.049 A 
ATOM     62  H   UNL A   1      42.444  35.912  36.094  1.00  0.00     0.167 HD
ATOM     63  C   UNL A   1      38.924  33.551  34.577  1.00  0.00     0.034 A 
ATOM     64  C   UNL A   1      44.066  37.158  37.968  1.00  0.00     0.034 A 
ATOM     65  C   UNL A   1      38.803  33.601  36.002  1.00  0.00     0.049 A 
ATOM     66  C   UNL A   1      42.891  36.538  38.672  1.00  0.00     0.074 A 
ATOM     67  C   UNL A   1      37.829  33.051  36.810  1.00  0.00     0.029 A 
ATOM     68  N   UNL A   1      39.694  34.270  36.831  1.00  0.00    -0.354 N 
ATOM     69  N   UNL A   1      41.910  35.821  38.170  1.00  0.00    -0.248 NA
ATOM     70  C   UNL A   1      42.828  36.712  40.126  1.00  0.00     0.031 C 
ATOM     71  C   UNL A   1      38.101  33.439  38.125  1.00  0.00     0.029 A 
ATOM     72  C   UNL A   1      39.286  34.163  38.143  1.00  0.00     0.049 A 
ATOM     73  H   UNL A   1      40.498  34.749  36.526  1.00  0.00     0.167 HD
ATOM     74  C   UNL A   1      41.137  35.423  39.251  1.00  0.00     0.074 A 
ATOM     75  C   UNL A   1      41.787  35.955  40.435  1.00  0.00     0.031 C 
ATOM     76  C   UNL A   1      39.992  34.695  39.279  1.00  0.00     0.034 A 
BRANCH  63  77
ATOM     77  C   UNL A   1      37.893  32.822  33.759  1.00  0.00     0.023 A 
ATOM     78  C   UNL A   1      36.675  33.451  33.422  1.00  0.00     0.012 A 
ATOM     79  C   UNL A   1      38.135  31.508  33.321  1.00  0.00     0.148 A 
ATOM     80  C   UNL A   1      35.698  32.768  32.697  1.00  0.00     0.002 A 
ATOM     81  C   UNL A   1      37.181  30.853  32.554  1.00  0.00     0.091 A 
ATOM     82  F   UNL A   1      39.285  30.920  33.676  1.00  0.00    -0.205 F 
ATOM     83  C   UNL A   1      35.957  31.475  32.254  1.00  0.00     0.022 A 
BRANCH  81  84
ATOM     84  S   UNL A   1      37.444  29.210  31.883  1.00  0.00     0.127 S 
ATOM     85  O   UNL A   1      36.335  29.098  30.935  1.00  0.00    -0.237 OA
ATOM     86  O   UNL A   1      38.763  29.346  31.266  1.00  0.00    -0.237 OA
ATOM     87  O   UNL A   1      37.382  28.295  33.013  1.00  0.00    -0.744 OA
ENDBRANCH  81  84
ENDBRANCH  63  77
BRANCH  64  88
ATOM     88  C   UNL A   1      45.109  37.924  38.706  1.00  0.00     0.023 A 
ATOM     89  C   UNL A   1      46.221  37.264  39.264  1.00  0.00     0.012 A 
ATOM     90  C   UNL A   1      44.988  39.317  38.875  1.00  0.00     0.148 A 
ATOM     91  C   UNL A   1      47.158  37.965  40.024  1.00  0.00     0.002 A 
ATOM     92  C   UNL A   1      45.953  40.019  39.585  1.00  0.00     0.091 A 
ATOM     93  F   UNL A   1      43.924  39.931  38.337  1.00  0.00    -0.205 F 
ATOM     94  C   UNL A   1      47.028  39.342  40.181  1.00  0.00     0.022 A 
BRANCH  92  95
ATOM     95  S   UNL A   1      45.917  41.807  39.746  1.00  0.00     0.127 S 
ATOM     96  O   UNL A   1      44.661  42.016  40.460  1.00  0.00    -0.237 OA
ATOM     97  O   UNL A   1      47.125  42.061  40.534  1.00  0.00    -0.237 OA
ATOM     98  O   UNL A   1      45.964  42.328  38.387  1.00  0.00    -0.744 OA
ENDBRANCH  92  95
ENDBRANCH  64  88
BRANCH  76  99
ATOM     99  C   UNL A   1      39.423  34.387  40.634  1.00  0.00     0.023 A 
ATOM    100  C   UNL A   1      38.530  35.280  41.255  1.00  0.00     0.012 A 
ATOM    101  C   UNL A   1      39.761  33.178  41.271  1.00  0.00     0.148 A 
ATOM    102  C   UNL A   1      38.035  35.005  42.526  1.00  0.00     0.002 A 
ATOM    103  C   UNL A   1      39.206  32.877  42.504  1.00  0.00     0.091 A 
ATOM    104  F   UNL A   1      40.619  32.348  40.659  1.00  0.00    -0.205 F 
ATOM    105  C   UNL A   1      38.365  33.800  43.145  1.00  0.00     0.022 A 
BRANCH 103 106
ATOM    106  S   UNL A   1      39.481  31.303  43.315  1.00  0.00     0.127 S 
ATOM    107  O   UNL A   1      39.154  30.360  42.248  1.00  0.00    -0.237 OA
ATOM    108  O   UNL A   1      40.903  31.378  43.652  1.00  0.00    -0.237 OA
ATOM    109  O   UNL A   1      38.587  31.276  44.465  1.00  0.00    -0.744 OA
ENDBRANCH 103 106
ENDBRANCH  76  99
ENDBRANCH  50  51
ENDBRANCH  42  45
ENDBRANCH  40  41
ENDBRANCH  39  40
ENDBRANCH  38  39
ENDBRANCH  37  38
ENDBRANCH   1  37
TORSDOF 21
ENDMDL
