MODEL 1
REMARK VINA RESULT:     -10.9      0.000      0.000
REMARK SMILES Cc1cscc1-c1nnnn1CCC(=O)NCCCCCCNC(=O)c1ccc(-c2c3nc(c(-c4cccc(S(=O)(=O)[O-])c4F)c4ccc([nH]4)c(-c4cccc(S(=O)(=O)[O-])c4F)c4nc(c(-c5cccc(S(=O)(=O)[O-])c5F)c5ccc2[nH]5)C=C4)C=C3)cc1
REMARK SMILES IDX 19 1 18 2 17 3 16 4 14 5 15 6 13 8 12 9 11 10 7 11 8 12 9 13
REMARK SMILES IDX 10 14 6 15 1 16 2 17 3 18 4 19 5 20 20 21 21 22 22 23 23 24
REMARK SMILES IDX 24 25 25 27 26 28 27 29 88 30 28 31 87 32 29 33 30 34 31 35
REMARK SMILES IDX 81 36 32 37 86 38 80 39 82 40 33 41 85 42 79 43 78 44 34 46
REMARK SMILES IDX 66 47 46 48 65 49 47 50 50 51 64 52 83 53 48 54 49 55 63 57
REMARK SMILES IDX 84 58 51 59 35 60 36 61 44 62 37 63 39 64 45 65 38 66 40 67
REMARK SMILES IDX 41 68 42 69 43 70 67 71 68 72 76 73 69 74 71 75 77 76 70 77
REMARK SMILES IDX 72 78 73 79 74 80 75 81 52 82 53 83 61 84 54 85 56 86 62 87
REMARK SMILES IDX 55 88 57 89 58 90 59 91 60 92
REMARK H PARENT 16 7 23 26 82 45 50 56
REMARK Flexibility Score: inf
ROOT
ATOM      1  C   UNL A   1      30.627  29.810  24.219  1.00  0.00     0.002 C 
ENDROOT
BRANCH   1   2
ATOM      2  C   UNL A   1      31.053  28.518  23.541  1.00  0.00     0.021 C 
BRANCH   2   3
ATOM      3  C   UNL A   1      32.423  28.516  22.874  1.00  0.00     0.116 C 
BRANCH   3   4
ATOM      4  N   UNL A   1      32.468  27.551  21.794  1.00  0.00    -0.356 N 
ATOM      5  C   UNL A   1      33.166  26.386  21.706  1.00  0.00     0.221 C 
ATOM      6  O   UNL A   1      33.157  25.774  20.636  1.00  0.00    -0.275 OA
ATOM      7  H   UNL A   1      31.913  27.769  21.009  1.00  0.00     0.163 HD
BRANCH   5   8
ATOM      8  C   UNL A   1      33.865  25.809  22.921  1.00  0.00     0.124 C 
BRANCH   8   9
ATOM      9  C   UNL A   1      33.811  24.283  23.011  1.00  0.00     0.158 C 
BRANCH   9  10
ATOM     10  N   UNL A   1      34.064  23.746  24.328  1.00  0.00    -0.225 N 
ATOM     11  C   UNL A   1      33.658  24.203  25.554  1.00  0.00     0.183 A 
ATOM     12  N   UNL A   1      34.431  23.652  26.465  1.00  0.00    -0.108 NA
ATOM     13  N   UNL A   1      35.090  22.641  25.810  1.00  0.00    -0.023 NA
ATOM     14  N   UNL A   1      34.893  22.715  24.499  1.00  0.00    -0.045 NA
BRANCH  11  15
ATOM     15  C   UNL A   1      32.380  24.879  25.872  1.00  0.00     0.034 A 
ATOM     16  C   UNL A   1      33.515  27.172  26.300  1.00  0.00     0.046 C 
ATOM     17  C   UNL A   1      32.322  26.263  26.246  1.00  0.00    -0.029 A 
ATOM     18  C   UNL A   1      31.011  26.669  26.396  1.00  0.00     0.069 A 
ATOM     19  S   UNL A   1      29.889  25.420  26.058  1.00  0.00    -0.151 S 
ATOM     20  C   UNL A   1      31.142  24.330  25.638  1.00  0.00     0.077 A 
ENDBRANCH  11  15
ENDBRANCH   9  10
ENDBRANCH   8   9
ENDBRANCH   5   8
ENDBRANCH   3   4
ENDBRANCH   2   3
ENDBRANCH   1   2
BRANCH   1  21
ATOM     21  C   UNL A   1      31.451  30.192  25.451  1.00  0.00     0.002 C 
BRANCH  21  22
ATOM     22  C   UNL A   1      31.167  31.572  26.065  1.00  0.00     0.021 C 
BRANCH  22  23
ATOM     23  C   UNL A   1      32.245  32.044  27.028  1.00  0.00     0.116 C 
BRANCH  23  24
ATOM     24  N   UNL A   1      32.129  33.473  27.331  1.00  0.00    -0.352 N 
ATOM     25  C   UNL A   1      32.862  34.224  28.221  1.00  0.00     0.251 C 
ATOM     26  H   UNL A   1      31.434  33.962  26.831  1.00  0.00     0.163 HD
ATOM     27  O   UNL A   1      32.449  35.323  28.605  1.00  0.00    -0.269 OA
BRANCH  25  28
ATOM     28  C   UNL A   1      34.156  33.711  28.695  1.00  0.00     0.039 A 
ATOM     29  C   UNL A   1      34.299  33.092  29.941  1.00  0.00     0.014 A 
ATOM     30  C   UNL A   1      35.253  33.879  27.855  1.00  0.00     0.014 A 
ATOM     31  C   UNL A   1      35.553  32.616  30.309  1.00  0.00     0.010 A 
ATOM     32  C   UNL A   1      36.422  33.232  28.121  1.00  0.00     0.010 A 
ATOM     33  C   UNL A   1      36.605  32.699  29.387  1.00  0.00    -0.014 A 
BRANCH  33  34
ATOM     34  C   UNL A   1      37.922  32.159  29.661  1.00  0.00     0.031 A 
ATOM     35  C   UNL A   1      38.094  30.766  29.185  1.00  0.00     0.074 A 
ATOM     36  C   UNL A   1      38.937  32.965  30.043  1.00  0.00     0.049 A 
ATOM     37  N   UNL A   1      38.228  29.707  29.910  1.00  0.00    -0.248 NA
ATOM     38  C   UNL A   1      37.897  30.481  27.752  1.00  0.00     0.031 C 
ATOM     39  C   UNL A   1      38.922  34.429  30.190  1.00  0.00     0.029 A 
ATOM     40  N   UNL A   1      40.254  32.673  30.194  1.00  0.00    -0.354 N 
ATOM     41  C   UNL A   1      38.417  28.665  29.007  1.00  0.00     0.074 A 
ATOM     42  C   UNL A   1      37.933  29.146  27.742  1.00  0.00     0.031 C 
ATOM     43  C   UNL A   1      40.186  34.899  30.108  1.00  0.00     0.029 A 
ATOM     44  C   UNL A   1      41.099  33.773  30.047  1.00  0.00     0.049 A 
ATOM     45  H   UNL A   1      40.584  31.766  30.389  1.00  0.00     0.167 HD
ATOM     46  C   UNL A   1      39.238  27.621  29.310  1.00  0.00     0.034 A 
ATOM     47  C   UNL A   1      42.433  33.738  29.790  1.00  0.00     0.034 A 
ATOM     48  C   UNL A   1      39.584  27.631  30.714  1.00  0.00     0.049 A 
ATOM     49  C   UNL A   1      42.905  32.383  30.175  1.00  0.00     0.074 A 
ATOM     50  C   UNL A   1      38.863  27.646  31.893  1.00  0.00     0.029 A 
ATOM     51  N   UNL A   1      40.846  28.078  31.038  1.00  0.00    -0.354 N 
ATOM     52  N   UNL A   1      42.885  31.940  31.403  1.00  0.00    -0.248 NA
ATOM     53  C   UNL A   1      42.921  31.359  29.140  1.00  0.00     0.031 C 
ATOM     54  C   UNL A   1      39.559  28.567  32.730  1.00  0.00     0.029 A 
ATOM     55  C   UNL A   1      40.714  28.977  32.061  1.00  0.00     0.049 A 
ATOM     56  H   UNL A   1      41.688  27.800  30.610  1.00  0.00     0.167 HD
ATOM     57  C   UNL A   1      42.392  30.646  31.287  1.00  0.00     0.074 A 
ATOM     58  C   UNL A   1      42.530  30.308  29.869  1.00  0.00     0.031 C 
ATOM     59  C   UNL A   1      41.616  30.089  32.268  1.00  0.00     0.034 A 
BRANCH  46  60
ATOM     60  C   UNL A   1      40.067  26.834  28.316  1.00  0.00     0.023 A 
ATOM     61  C   UNL A   1      40.079  25.429  28.479  1.00  0.00     0.012 A 
ATOM     62  C   UNL A   1      41.031  27.382  27.439  1.00  0.00     0.148 A 
ATOM     63  C   UNL A   1      41.049  24.626  27.873  1.00  0.00     0.002 A 
ATOM     64  C   UNL A   1      41.946  26.570  26.777  1.00  0.00     0.091 A 
ATOM     65  F   UNL A   1      41.171  28.703  27.326  1.00  0.00    -0.205 F 
ATOM     66  C   UNL A   1      41.984  25.196  27.019  1.00  0.00     0.022 A 
BRANCH  64  67
ATOM     67  S   UNL A   1      43.152  27.245  25.626  1.00  0.00     0.127 S 
ATOM     68  O   UNL A   1      44.005  28.023  26.519  1.00  0.00    -0.237 OA
ATOM     69  O   UNL A   1      43.762  26.029  25.088  1.00  0.00    -0.237 OA
ATOM     70  O   UNL A   1      42.383  28.008  24.651  1.00  0.00    -0.744 OA
ENDBRANCH  64  67
ENDBRANCH  46  60
BRANCH  47  71
ATOM     71  C   UNL A   1      43.253  34.659  28.953  1.00  0.00     0.023 A 
ATOM     72  C   UNL A   1      43.316  34.468  27.557  1.00  0.00     0.012 A 
ATOM     73  C   UNL A   1      43.756  35.876  29.469  1.00  0.00     0.148 A 
ATOM     74  C   UNL A   1      43.827  35.461  26.708  1.00  0.00     0.002 A 
ATOM     75  C   UNL A   1      44.277  36.855  28.623  1.00  0.00     0.091 A 
ATOM     76  F   UNL A   1      43.641  36.124  30.779  1.00  0.00    -0.205 F 
ATOM     77  C   UNL A   1      44.301  36.656  27.240  1.00  0.00     0.022 A 
BRANCH  75  78
ATOM     78  S   UNL A   1      44.896  38.425  29.247  1.00  0.00     0.127 S 
ATOM     79  O   UNL A   1      43.729  38.962  29.949  1.00  0.00    -0.237 OA
ATOM     80  O   UNL A   1      45.987  38.004  30.123  1.00  0.00    -0.237 OA
ATOM     81  O   UNL A   1      45.285  39.191  28.072  1.00  0.00    -0.744 OA
ENDBRANCH  75  78
ENDBRANCH  47  71
BRANCH  59  82
ATOM     82  C   UNL A   1      41.485  30.807  33.589  1.00  0.00     0.023 A 
ATOM     83  C   UNL A   1      42.466  30.735  34.601  1.00  0.00     0.012 A 
ATOM     84  C   UNL A   1      40.444  31.740  33.724  1.00  0.00     0.148 A 
ATOM     85  C   UNL A   1      42.399  31.561  35.727  1.00  0.00     0.002 A 
ATOM     86  C   UNL A   1      40.406  32.592  34.820  1.00  0.00     0.091 A 
ATOM     87  F   UNL A   1      39.520  31.802  32.753  1.00  0.00    -0.205 F 
ATOM     88  C   UNL A   1      41.376  32.501  35.829  1.00  0.00     0.022 A 
BRANCH  86  89
ATOM     89  S   UNL A   1      39.189  33.904  34.935  1.00  0.00     0.127 S 
ATOM     90  O   UNL A   1      37.941  33.152  35.044  1.00  0.00    -0.237 OA
ATOM     91  O   UNL A   1      39.591  34.603  36.157  1.00  0.00    -0.237 OA
ATOM     92  O   UNL A   1      39.340  34.698  33.722  1.00  0.00    -0.744 OA
ENDBRANCH  86  89
ENDBRANCH  59  82
ENDBRANCH  33  34
ENDBRANCH  25  28
ENDBRANCH  23  24
ENDBRANCH  22  23
ENDBRANCH  21  22
ENDBRANCH   1  21
TORSDOF 19
ENDMDL
MODEL 2
REMARK VINA RESULT:     -10.7      5.847     12.247
REMARK SMILES Cc1cscc1-c1nnnn1CCC(=O)NCCCCCCNC(=O)c1ccc(-c2c3nc(c(-c4cccc(S(=O)(=O)[O-])c4F)c4ccc([nH]4)c(-c4cccc(S(=O)(=O)[O-])c4F)c4nc(c(-c5cccc(S(=O)(=O)[O-])c5F)c5ccc2[nH]5)C=C4)C=C3)cc1
REMARK SMILES IDX 19 1 18 2 17 3 16 4 14 5 15 6 13 8 12 9 11 10 7 11 8 12 9 13
REMARK SMILES IDX 10 14 6 15 1 16 2 17 3 18 4 19 5 20 20 21 21 22 22 23 23 24
REMARK SMILES IDX 24 25 25 27 26 28 27 29 88 30 28 31 87 32 29 33 30 34 31 35
REMARK SMILES IDX 81 36 32 37 86 38 80 39 82 40 33 41 85 42 79 43 78 44 34 46
REMARK SMILES IDX 66 47 46 48 65 49 47 50 50 51 64 52 83 53 48 54 49 55 63 57
REMARK SMILES IDX 84 58 51 59 35 60 36 61 44 62 37 63 39 64 45 65 38 66 40 67
REMARK SMILES IDX 41 68 42 69 43 70 67 71 68 72 76 73 69 74 71 75 77 76 70 77
REMARK SMILES IDX 72 78 73 79 74 80 75 81 52 82 53 83 61 84 54 85 56 86 62 87
REMARK SMILES IDX 55 88 57 89 58 90 59 91 60 92
REMARK H PARENT 16 7 23 26 82 45 50 56
REMARK Flexibility Score: inf
ROOT
ATOM      1  C   UNL A   1      46.426  22.659  24.340  1.00  0.00     0.002 C 
ENDROOT
BRANCH   1   2
ATOM      2  C   UNL A   1      46.288  23.620  25.510  1.00  0.00     0.021 C 
BRANCH   2   3
ATOM      3  C   UNL A   1      46.878  25.012  25.324  1.00  0.00     0.116 C 
BRANCH   3   4
ATOM      4  N   UNL A   1      47.986  25.228  26.234  1.00  0.00    -0.356 N 
ATOM      5  C   UNL A   1      49.282  25.535  25.958  1.00  0.00     0.221 C 
ATOM      6  O   UNL A   1      50.093  25.550  26.886  1.00  0.00    -0.275 OA
ATOM      7  H   UNL A   1      47.769  25.138  27.191  1.00  0.00     0.163 HD
BRANCH   5   8
ATOM      8  C   UNL A   1      49.701  25.938  24.558  1.00  0.00     0.124 C 
BRANCH   8   9
ATOM      9  C   UNL A   1      49.556  27.431  24.264  1.00  0.00     0.158 C 
BRANCH   9  10
ATOM     10  N   UNL A   1      48.515  27.763  23.320  1.00  0.00    -0.225 N 
ATOM     11  C   UNL A   1      48.603  28.053  21.983  1.00  0.00     0.183 A 
ATOM     12  N   UNL A   1      47.494  28.668  21.631  1.00  0.00    -0.108 NA
ATOM     13  N   UNL A   1      46.628  28.470  22.678  1.00  0.00    -0.023 NA
ATOM     14  N   UNL A   1      47.256  27.946  23.723  1.00  0.00    -0.045 NA
BRANCH  11  15
ATOM     15  C   UNL A   1      49.560  27.480  21.010  1.00  0.00     0.034 A 
ATOM     16  C   UNL A   1      51.111  29.559  21.068  1.00  0.00     0.046 C 
ATOM     17  C   UNL A   1      50.719  28.199  20.566  1.00  0.00    -0.029 A 
ATOM     18  C   UNL A   1      51.491  27.409  19.738  1.00  0.00     0.069 A 
ATOM     19  S   UNL A   1      50.848  25.835  19.539  1.00  0.00    -0.151 S 
ATOM     20  C   UNL A   1      49.556  26.164  20.615  1.00  0.00     0.077 A 
ENDBRANCH  11  15
ENDBRANCH   9  10
ENDBRANCH   8   9
ENDBRANCH   5   8
ENDBRANCH   3   4
ENDBRANCH   2   3
ENDBRANCH   1   2
BRANCH   1  21
ATOM     21  C   UNL A   1      45.270  21.668  24.182  1.00  0.00     0.002 C 
BRANCH  21  22
ATOM     22  C   UNL A   1      45.596  20.188  24.437  1.00  0.00     0.021 C 
BRANCH  22  23
ATOM     23  C   UNL A   1      44.836  19.591  25.610  1.00  0.00     0.116 C 
BRANCH  23  24
ATOM     24  N   UNL A   1      43.475  19.191  25.242  1.00  0.00    -0.352 N 
ATOM     25  C   UNL A   1      42.280  19.641  25.756  1.00  0.00     0.251 C 
ATOM     26  H   UNL A   1      43.406  18.511  24.533  1.00  0.00     0.163 HD
ATOM     27  O   UNL A   1      41.241  18.995  25.585  1.00  0.00    -0.269 OA
BRANCH  25  28
ATOM     28  C   UNL A   1      42.250  20.913  26.491  1.00  0.00     0.039 A 
ATOM     29  C   UNL A   1      41.971  20.973  27.861  1.00  0.00     0.014 A 
ATOM     30  C   UNL A   1      42.498  22.074  25.765  1.00  0.00     0.014 A 
ATOM     31  C   UNL A   1      41.980  22.214  28.489  1.00  0.00     0.010 A 
ATOM     32  C   UNL A   1      42.714  23.252  26.415  1.00  0.00     0.010 A 
ATOM     33  C   UNL A   1      42.350  23.344  27.748  1.00  0.00    -0.014 A 
BRANCH  33  34
ATOM     34  C   UNL A   1      42.460  24.661  28.345  1.00  0.00     0.031 A 
ATOM     35  C   UNL A   1      41.251  25.496  28.146  1.00  0.00     0.074 A 
ATOM     36  C   UNL A   1      43.448  24.945  29.223  1.00  0.00     0.049 A 
ATOM     37  N   UNL A   1      41.151  26.555  27.416  1.00  0.00    -0.248 NA
ATOM     38  C   UNL A   1      39.959  24.998  28.649  1.00  0.00     0.031 C 
ATOM     39  C   UNL A   1      44.482  24.038  29.743  1.00  0.00     0.029 A 
ATOM     40  N   UNL A   1      43.622  26.052  29.989  1.00  0.00    -0.354 N 
ATOM     41  C   UNL A   1      39.847  27.007  27.604  1.00  0.00     0.074 A 
ATOM     42  C   UNL A   1      39.112  25.888  28.125  1.00  0.00     0.031 C 
ATOM     43  C   UNL A   1      44.955  24.523  30.912  1.00  0.00     0.029 A 
ATOM     44  C   UNL A   1      44.367  25.828  31.147  1.00  0.00     0.049 A 
ATOM     45  H   UNL A   1      43.255  26.934  29.750  1.00  0.00     0.167 HD
ATOM     46  C   UNL A   1      39.567  28.340  27.611  1.00  0.00     0.034 A 
ATOM     47  C   UNL A   1      44.401  26.619  32.250  1.00  0.00     0.034 A 
ATOM     48  C   UNL A   1      40.692  29.104  27.119  1.00  0.00     0.049 A 
ATOM     49  C   UNL A   1      43.920  27.960  31.828  1.00  0.00     0.074 A 
ATOM     50  C   UNL A   1      41.451  29.083  25.965  1.00  0.00     0.029 A 
ATOM     51  N   UNL A   1      41.454  29.760  28.060  1.00  0.00    -0.354 N 
ATOM     52  N   UNL A   1      44.557  28.713  30.972  1.00  0.00    -0.248 NA
ATOM     53  C   UNL A   1      42.497  28.236  31.967  1.00  0.00     0.031 C 
ATOM     54  C   UNL A   1      42.793  29.261  26.412  1.00  0.00     0.029 A 
ATOM     55  C   UNL A   1      42.767  29.485  27.790  1.00  0.00     0.049 A 
ATOM     56  H   UNL A   1      41.115  30.324  28.792  1.00  0.00     0.167 HD
ATOM     57  C   UNL A   1      43.558  29.190  30.132  1.00  0.00     0.074 A 
ATOM     58  C   UNL A   1      42.305  28.950  30.852  1.00  0.00     0.031 C 
ATOM     59  C   UNL A   1      43.796  29.428  28.806  1.00  0.00     0.034 A 
BRANCH  46  60
ATOM     60  C   UNL A   1      38.477  29.008  28.425  1.00  0.00     0.023 A 
ATOM     61  C   UNL A   1      37.641  29.915  27.733  1.00  0.00     0.012 A 
ATOM     62  C   UNL A   1      38.401  29.022  29.836  1.00  0.00     0.148 A 
ATOM     63  C   UNL A   1      36.842  30.842  28.409  1.00  0.00     0.002 A 
ATOM     64  C   UNL A   1      37.547  29.893  30.503  1.00  0.00     0.091 A 
ATOM     65  F   UNL A   1      39.244  28.291  30.567  1.00  0.00    -0.205 F 
ATOM     66  C   UNL A   1      36.792  30.830  29.796  1.00  0.00     0.022 A 
BRANCH  64  67
ATOM     67  S   UNL A   1      37.407  29.895  32.296  1.00  0.00     0.127 S 
ATOM     68  O   UNL A   1      38.730  30.367  32.693  1.00  0.00    -0.237 OA
ATOM     69  O   UNL A   1      36.318  30.849  32.508  1.00  0.00    -0.237 OA
ATOM     70  O   UNL A   1      37.080  28.525  32.668  1.00  0.00    -0.744 OA
ENDBRANCH  64  67
ENDBRANCH  46  60
BRANCH  47  71
ATOM     71  C   UNL A   1      44.510  26.229  33.685  1.00  0.00     0.023 A 
ATOM     72  C   UNL A   1      45.780  26.129  34.289  1.00  0.00     0.012 A 
ATOM     73  C   UNL A   1      43.379  26.214  34.534  1.00  0.00     0.148 A 
ATOM     74  C   UNL A   1      45.919  26.052  35.683  1.00  0.00     0.002 A 
ATOM     75  C   UNL A   1      43.521  26.123  35.918  1.00  0.00     0.091 A 
ATOM     76  F   UNL A   1      42.163  26.387  34.001  1.00  0.00    -0.205 F 
ATOM     77  C   UNL A   1      44.791  26.055  36.498  1.00  0.00     0.022 A 
BRANCH  75  78
ATOM     78  S   UNL A   1      42.103  26.133  37.027  1.00  0.00     0.127 S 
ATOM     79  O   UNL A   1      41.475  24.842  36.738  1.00  0.00    -0.237 OA
ATOM     80  O   UNL A   1      42.735  26.215  38.341  1.00  0.00    -0.237 OA
ATOM     81  O   UNL A   1      41.302  27.283  36.634  1.00  0.00    -0.744 OA
ENDBRANCH  75  78
ENDBRANCH  47  71
BRANCH  59  82
ATOM     82  C   UNL A   1      45.218  29.388  28.302  1.00  0.00     0.023 A 
ATOM     83  C   UNL A   1      45.824  28.212  27.810  1.00  0.00     0.012 A 
ATOM     84  C   UNL A   1      45.885  30.611  28.132  1.00  0.00     0.148 A 
ATOM     85  C   UNL A   1      47.070  28.255  27.178  1.00  0.00     0.002 A 
ATOM     86  C   UNL A   1      47.100  30.659  27.462  1.00  0.00     0.091 A 
ATOM     87  F   UNL A   1      45.298  31.723  28.600  1.00  0.00    -0.205 F 
ATOM     88  C   UNL A   1      47.702  29.482  26.991  1.00  0.00     0.022 A 
BRANCH  86  89
ATOM     89  S   UNL A   1      47.891  32.222  27.080  1.00  0.00     0.127 S 
ATOM     90  O   UNL A   1      48.017  32.830  28.403  1.00  0.00    -0.237 OA
ATOM     91  O   UNL A   1      49.157  31.799  26.478  1.00  0.00    -0.237 OA
ATOM     92  O   UNL A   1      46.997  32.908  26.156  1.00  0.00    -0.744 OA
ENDBRANCH  86  89
ENDBRANCH  59  82
ENDBRANCH  33  34
ENDBRANCH  25  28
ENDBRANCH  23  24
ENDBRANCH  22  23
ENDBRANCH  21  22
ENDBRANCH   1  21
TORSDOF 19
ENDMDL
MODEL 3
REMARK VINA RESULT:     -10.7      1.845      2.550
REMARK SMILES Cc1cscc1-c1nnnn1CCC(=O)NCCCCCCNC(=O)c1ccc(-c2c3nc(c(-c4cccc(S(=O)(=O)[O-])c4F)c4ccc([nH]4)c(-c4cccc(S(=O)(=O)[O-])c4F)c4nc(c(-c5cccc(S(=O)(=O)[O-])c5F)c5ccc2[nH]5)C=C4)C=C3)cc1
REMARK SMILES IDX 19 1 18 2 17 3 16 4 14 5 15 6 13 8 12 9 11 10 7 11 8 12 9 13
REMARK SMILES IDX 10 14 6 15 1 16 2 17 3 18 4 19 5 20 20 21 21 22 22 23 23 24
REMARK SMILES IDX 24 25 25 27 26 28 27 29 88 30 28 31 87 32 29 33 30 34 31 35
REMARK SMILES IDX 81 36 32 37 86 38 80 39 82 40 33 41 85 42 79 43 78 44 34 46
REMARK SMILES IDX 66 47 46 48 65 49 47 50 50 51 64 52 83 53 48 54 49 55 63 57
REMARK SMILES IDX 84 58 51 59 35 60 36 61 44 62 37 63 39 64 45 65 38 66 40 67
REMARK SMILES IDX 41 68 42 69 43 70 67 71 68 72 76 73 69 74 71 75 77 76 70 77
REMARK SMILES IDX 72 78 73 79 74 80 75 81 52 82 53 83 61 84 54 85 56 86 62 87
REMARK SMILES IDX 55 88 57 89 58 90 59 91 60 92
REMARK H PARENT 16 7 23 26 82 45 50 56
REMARK Flexibility Score: inf
ROOT
ATOM      1  C   UNL A   1      30.650  30.060  24.271  1.00  0.00     0.002 C 
ENDROOT
BRANCH   1   2
ATOM      2  C   UNL A   1      31.140  28.833  23.519  1.00  0.00     0.021 C 
BRANCH   2   3
ATOM      3  C   UNL A   1      32.527  28.923  22.895  1.00  0.00     0.116 C 
BRANCH   3   4
ATOM      4  N   UNL A   1      32.798  27.759  22.074  1.00  0.00    -0.356 N 
ATOM      5  C   UNL A   1      33.343  26.562  22.427  1.00  0.00     0.221 C 
ATOM      6  O   UNL A   1      33.602  25.750  21.538  1.00  0.00    -0.275 OA
ATOM      7  H   UNL A   1      32.553  27.846  21.124  1.00  0.00     0.163 HD
BRANCH   5   8
ATOM      8  C   UNL A   1      33.542  26.203  23.886  1.00  0.00     0.124 C 
BRANCH   8   9
ATOM      9  C   UNL A   1      34.223  24.852  24.113  1.00  0.00     0.158 C 
BRANCH   9  10
ATOM     10  N   UNL A   1      33.783  24.145  25.293  1.00  0.00    -0.225 N 
ATOM     11  C   UNL A   1      34.150  22.912  25.764  1.00  0.00     0.183 A 
ATOM     12  N   UNL A   1      33.230  22.516  26.617  1.00  0.00    -0.108 NA
ATOM     13  N   UNL A   1      32.482  23.637  26.881  1.00  0.00    -0.023 NA
ATOM     14  N   UNL A   1      32.796  24.625  26.052  1.00  0.00    -0.045 NA
BRANCH  11  15
ATOM     15  C   UNL A   1      35.485  22.281  25.657  1.00  0.00     0.034 A 
ATOM     16  C   UNL A   1      34.526  20.024  24.810  1.00  0.00     0.046 C 
ATOM     17  C   UNL A   1      35.653  20.920  25.234  1.00  0.00    -0.029 A 
ATOM     18  C   UNL A   1      36.994  20.609  25.128  1.00  0.00     0.069 A 
ATOM     19  S   UNL A   1      38.012  21.935  25.493  1.00  0.00    -0.151 S 
ATOM     20  C   UNL A   1      36.670  22.973  25.735  1.00  0.00     0.077 A 
ENDBRANCH  11  15
ENDBRANCH   9  10
ENDBRANCH   8   9
ENDBRANCH   5   8
ENDBRANCH   3   4
ENDBRANCH   2   3
ENDBRANCH   1   2
BRANCH   1  21
ATOM     21  C   UNL A   1      31.447  30.403  25.532  1.00  0.00     0.002 C 
BRANCH  21  22
ATOM     22  C   UNL A   1      31.176  31.779  26.162  1.00  0.00     0.021 C 
BRANCH  22  23
ATOM     23  C   UNL A   1      32.227  32.202  27.175  1.00  0.00     0.116 C 
BRANCH  23  24
ATOM     24  N   UNL A   1      32.177  33.640  27.457  1.00  0.00    -0.352 N 
ATOM     25  C   UNL A   1      32.950  34.370  28.330  1.00  0.00     0.251 C 
ATOM     26  H   UNL A   1      31.501  34.151  26.955  1.00  0.00     0.163 HD
ATOM     27  O   UNL A   1      32.589  35.493  28.699  1.00  0.00    -0.269 OA
BRANCH  25  28
ATOM     28  C   UNL A   1      34.224  33.808  28.801  1.00  0.00     0.039 A 
ATOM     29  C   UNL A   1      34.370  33.271  30.085  1.00  0.00     0.014 A 
ATOM     30  C   UNL A   1      35.300  33.843  27.920  1.00  0.00     0.014 A 
ATOM     31  C   UNL A   1      35.603  32.742  30.450  1.00  0.00     0.010 A 
ATOM     32  C   UNL A   1      36.434  33.140  28.198  1.00  0.00     0.010 A 
ATOM     33  C   UNL A   1      36.625  32.689  29.493  1.00  0.00    -0.014 A 
BRANCH  33  34
ATOM     34  C   UNL A   1      37.914  32.083  29.768  1.00  0.00     0.031 A 
ATOM     35  C   UNL A   1      38.038  30.705  29.236  1.00  0.00     0.074 A 
ATOM     36  C   UNL A   1      38.953  32.830  30.202  1.00  0.00     0.049 A 
ATOM     37  N   UNL A   1      38.115  29.613  29.919  1.00  0.00    -0.248 NA
ATOM     38  C   UNL A   1      37.858  30.489  27.790  1.00  0.00     0.031 C 
ATOM     39  C   UNL A   1      38.995  34.286  30.411  1.00  0.00     0.029 A 
ATOM     40  N   UNL A   1      40.255  32.478  30.364  1.00  0.00    -0.354 N 
ATOM     41  C   UNL A   1      38.279  28.602  28.976  1.00  0.00     0.074 A 
ATOM     42  C   UNL A   1      37.840  29.155  27.724  1.00  0.00     0.031 C 
ATOM     43  C   UNL A   1      40.279  34.706  30.371  1.00  0.00     0.029 A 
ATOM     44  C   UNL A   1      41.146  33.547  30.278  1.00  0.00     0.049 A 
ATOM     45  H   UNL A   1      40.543  31.550  30.526  1.00  0.00     0.167 HD
ATOM     46  C   UNL A   1      39.051  27.513  29.249  1.00  0.00     0.034 A 
ATOM     47  C   UNL A   1      42.482  33.467  30.044  1.00  0.00     0.034 A 
ATOM     48  C   UNL A   1      39.370  27.451  30.657  1.00  0.00     0.049 A 
ATOM     49  C   UNL A   1      42.891  32.079  30.379  1.00  0.00     0.074 A 
ATOM     50  C   UNL A   1      38.627  27.446  31.823  1.00  0.00     0.029 A 
ATOM     51  N   UNL A   1      40.642  27.831  31.023  1.00  0.00    -0.354 N 
ATOM     52  N   UNL A   1      42.829  31.586  31.587  1.00  0.00    -0.248 NA
ATOM     53  C   UNL A   1      42.886  31.099  29.303  1.00  0.00     0.031 C 
ATOM     54  C   UNL A   1      39.344  28.302  32.711  1.00  0.00     0.029 A 
ATOM     55  C   UNL A   1      40.527  28.692  32.080  1.00  0.00     0.049 A 
ATOM     56  H   UNL A   1      41.480  27.536  30.599  1.00  0.00     0.167 HD
ATOM     57  C   UNL A   1      42.286  30.320  31.408  1.00  0.00     0.074 A 
ATOM     58  C   UNL A   1      42.438  30.036  29.979  1.00  0.00     0.031 C 
ATOM     59  C   UNL A   1      41.470  29.756  32.350  1.00  0.00     0.034 A 
BRANCH  46  60
ATOM     60  C   UNL A   1      39.866  26.735  28.237  1.00  0.00     0.023 A 
ATOM     61  C   UNL A   1      39.803  25.325  28.328  1.00  0.00     0.012 A 
ATOM     62  C   UNL A   1      40.881  27.274  27.414  1.00  0.00     0.148 A 
ATOM     63  C   UNL A   1      40.748  24.503  27.707  1.00  0.00     0.002 A 
ATOM     64  C   UNL A   1      41.772  26.450  26.735  1.00  0.00     0.091 A 
ATOM     65  F   UNL A   1      41.091  28.590  27.373  1.00  0.00    -0.205 F 
ATOM     66  C   UNL A   1      41.733  25.065  26.907  1.00  0.00     0.022 A 
BRANCH  64  67
ATOM     67  S   UNL A   1      43.042  27.118  25.651  1.00  0.00     0.127 S 
ATOM     68  O   UNL A   1      43.604  25.901  25.073  1.00  0.00    -0.237 OA
ATOM     69  O   UNL A   1      42.249  27.934  24.731  1.00  0.00    -0.237 OA
ATOM     70  O   UNL A   1      43.932  27.887  26.512  1.00  0.00    -0.744 OA
ENDBRANCH  64  67
ENDBRANCH  46  60
BRANCH  47  71
ATOM     71  C   UNL A   1      43.355  34.387  29.261  1.00  0.00     0.023 A 
ATOM     72  C   UNL A   1      43.976  35.479  29.903  1.00  0.00     0.012 A 
ATOM     73  C   UNL A   1      43.799  34.056  27.960  1.00  0.00     0.148 A 
ATOM     74  C   UNL A   1      45.019  36.188  29.289  1.00  0.00     0.002 A 
ATOM     75  C   UNL A   1      44.826  34.772  27.346  1.00  0.00     0.091 A 
ATOM     76  F   UNL A   1      43.287  32.978  27.353  1.00  0.00    -0.205 F 
ATOM     77  C   UNL A   1      45.448  35.832  28.013  1.00  0.00     0.022 A 
BRANCH  75  78
ATOM     78  S   UNL A   1      45.433  34.356  25.705  1.00  0.00     0.127 S 
ATOM     79  O   UNL A   1      45.840  32.959  25.870  1.00  0.00    -0.237 OA
ATOM     80  O   UNL A   1      44.245  34.543  24.876  1.00  0.00    -0.237 OA
ATOM     81  O   UNL A   1      46.537  35.269  25.448  1.00  0.00    -0.744 OA
ENDBRANCH  75  78
ENDBRANCH  47  71
BRANCH  59  82
ATOM     82  C   UNL A   1      41.342  30.423  33.698  1.00  0.00     0.023 A 
ATOM     83  C   UNL A   1      42.305  30.277  34.719  1.00  0.00     0.012 A 
ATOM     84  C   UNL A   1      40.330  31.382  33.858  1.00  0.00     0.148 A 
ATOM     85  C   UNL A   1      42.248  31.058  35.878  1.00  0.00     0.002 A 
ATOM     86  C   UNL A   1      40.303  32.190  34.987  1.00  0.00     0.091 A 
ATOM     87  F   UNL A   1      39.422  31.514  32.878  1.00  0.00    -0.205 F 
ATOM     88  C   UNL A   1      41.254  32.027  36.005  1.00  0.00     0.022 A 
BRANCH  86  89
ATOM     89  S   UNL A   1      39.127  33.535  35.140  1.00  0.00     0.127 S 
ATOM     90  O   UNL A   1      39.493  34.114  36.430  1.00  0.00    -0.237 OA
ATOM     91  O   UNL A   1      39.446  34.370  33.981  1.00  0.00    -0.237 OA
ATOM     92  O   UNL A   1      37.806  32.920  35.081  1.00  0.00    -0.744 OA
ENDBRANCH  86  89
ENDBRANCH  59  82
ENDBRANCH  33  34
ENDBRANCH  25  28
ENDBRANCH  23  24
ENDBRANCH  22  23
ENDBRANCH  21  22
ENDBRANCH   1  21
TORSDOF 19
ENDMDL
