MODEL 1
REMARK VINA RESULT:     -10.8      0.000      0.000
REMARK SMILES CCCCCCNC(=O)Oc1cccc(-c2ccc([C@@H](C)C(=O)NCCCCCCNC(=O)c3ccc(-c4c5nc(c(-c6cccc(S(=O)(=O)[O-])c6F)c6ccc([nH]6)c(-c6cccc(S(=O)(=O)[O-])c6F)c6nc(c(-c7cccc(S(=O)(=O)[O-])c7F)c7ccc4[nH]7)C=C6)C=C5)cc3)cc2C)c1
REMARK SMILES IDX 22 1 23 2 24 3 20 5 21 6 19 7 16 8 17 9 98 10 18 11 97 12
REMARK SMILES IDX 99 13 15 14 11 15 12 16 100 17 13 18 14 19 10 20 8 21 7 22
REMARK SMILES IDX 9 24 6 25 5 26 4 27 3 28 2 29 1 30 25 31 26 32 27 33 28 34
REMARK SMILES IDX 29 35 30 36 31 37 32 38 33 40 34 41 35 42 96 43 36 44 95 45
REMARK SMILES IDX 37 46 38 47 39 48 89 49 40 50 94 51 88 52 90 53 41 54 93 55
REMARK SMILES IDX 87 56 86 57 42 59 74 60 54 61 73 62 55 63 58 64 72 65 91 66
REMARK SMILES IDX 56 67 57 68 71 70 92 71 59 72 43 73 44 74 52 75 45 76 47 77
REMARK SMILES IDX 53 78 46 79 48 80 49 81 50 82 51 83 75 84 76 85 84 86 77 87
REMARK SMILES IDX 79 88 85 89 78 90 80 91 81 92 82 93 83 94 60 95 61 96 69 97
REMARK SMILES IDX 62 98 64 99 70 100 63 101 65 102 66 103 67 104 68 105
REMARK H PARENT 24 4 7 23 31 39 90 58 58 69
REMARK Flexibility Score: inf
ROOT
ATOM      1  C   UNL A   1      32.960  25.614  22.328  1.00  0.00     0.227 C 
ATOM      2  O   UNL A   1      33.705  26.129  21.483  1.00  0.00    -0.274 OA
ATOM      3  N   UNL A   1      33.197  24.306  22.618  1.00  0.00    -0.356 N 
ATOM      4  H   UNL A   1      33.994  23.932  22.178  1.00  0.00     0.163 HD
ENDROOT
BRANCH   1   5
ATOM      5  C   UNL A   1      31.869  26.460  23.003  1.00  0.00     0.105 C 
ATOM      6  C   UNL A   1      30.842  27.046  22.036  1.00  0.00     0.023 C 
BRANCH   5   7
ATOM      7  C   UNL A   1      32.384  27.419  24.065  1.00  0.00    -0.036 A 
ATOM      8  C   UNL A   1      33.394  29.112  26.147  1.00  0.00    -0.015 A 
ATOM      9  C   UNL A   1      33.743  29.293  24.796  1.00  0.00     0.009 A 
ATOM     10  C   UNL A   1      32.457  28.096  26.437  1.00  0.00    -0.043 A 
ATOM     11  C   UNL A   1      33.209  28.502  23.777  1.00  0.00     0.005 A 
ATOM     12  C   UNL A   1      32.012  27.235  25.406  1.00  0.00     0.008 A 
ATOM     13  C   UNL A   1      31.836  27.883  27.794  1.00  0.00     0.045 C 
BRANCH   8  14
ATOM     14  C   UNL A   1      34.012  30.001  27.158  1.00  0.00    -0.014 A 
ATOM     15  C   UNL A   1      34.029  32.033  28.490  1.00  0.00     0.133 A 
ATOM     16  C   UNL A   1      35.237  31.676  29.083  1.00  0.00     0.047 A 
ATOM     17  C   UNL A   1      33.405  31.203  27.557  1.00  0.00     0.056 A 
ATOM     18  C   UNL A   1      35.830  30.468  28.737  1.00  0.00     0.004 A 
ATOM     19  C   UNL A   1      35.231  29.650  27.774  1.00  0.00     0.009 A 
BRANCH  15  20
ATOM     20  O   UNL A   1      33.572  33.339  28.741  1.00  0.00    -0.410 OA
BRANCH  20  21
ATOM     21  C   UNL A   1      34.363  34.431  28.425  1.00  0.00     0.412 C 
ATOM     22  N   UNL A   1      34.350  35.390  29.401  1.00  0.00    -0.321 N 
ATOM     23  H   UNL A   1      34.847  36.219  29.213  1.00  0.00     0.167 HD
ATOM     24  O   UNL A   1      35.022  34.578  27.405  1.00  0.00    -0.224 OA
BRANCH  22  25
ATOM     25  C   UNL A   1      33.681  35.310  30.684  1.00  0.00     0.119 C 
BRANCH  25  26
ATOM     26  C   UNL A   1      33.287  36.692  31.207  1.00  0.00     0.021 C 
BRANCH  26  27
ATOM     27  C   UNL A   1      34.017  37.130  32.483  1.00  0.00     0.002 C 
BRANCH  27  28
ATOM     28  C   UNL A   1      34.083  36.079  33.595  1.00  0.00    -0.000 C 
BRANCH  28  29
ATOM     29  C   UNL A   1      35.134  34.984  33.400  1.00  0.00    -0.003 C 
ATOM     30  C   UNL A   1      34.535  33.594  33.258  1.00  0.00     0.004 C 
ENDBRANCH  28  29
ENDBRANCH  27  28
ENDBRANCH  26  27
ENDBRANCH  25  26
ENDBRANCH  22  25
ENDBRANCH  20  21
ENDBRANCH  15  20
ENDBRANCH   8  14
ENDBRANCH   5   7
ENDBRANCH   1   5
BRANCH   3  31
ATOM     31  C   UNL A   1      32.487  23.364  23.460  1.00  0.00     0.116 C 
BRANCH  31  32
ATOM     32  C   UNL A   1      33.280  22.067  23.641  1.00  0.00     0.021 C 
BRANCH  32  33
ATOM     33  C   UNL A   1      33.328  21.571  25.089  1.00  0.00     0.002 C 
BRANCH  33  34
ATOM     34  C   UNL A   1      34.590  21.965  25.866  1.00  0.00     0.002 C 
BRANCH  34  35
ATOM     35  C   UNL A   1      35.689  22.638  25.034  1.00  0.00     0.021 C 
BRANCH  35  36
ATOM     36  C   UNL A   1      36.898  23.110  25.839  1.00  0.00     0.116 C 
BRANCH  36  37
ATOM     37  N   UNL A   1      37.779  22.003  26.184  1.00  0.00    -0.352 N 
ATOM     38  C   UNL A   1      39.116  22.014  26.493  1.00  0.00     0.251 C 
ATOM     39  H   UNL A   1      37.352  21.116  26.198  1.00  0.00     0.163 HD
ATOM     40  O   UNL A   1      39.748  20.961  26.510  1.00  0.00    -0.269 OA
BRANCH  38  41
ATOM     41  C   UNL A   1      39.796  23.289  26.802  1.00  0.00     0.039 A 
ATOM     42  C   UNL A   1      40.728  23.329  27.843  1.00  0.00     0.014 A 
ATOM     43  C   UNL A   1      39.494  24.451  26.086  1.00  0.00     0.014 A 
ATOM     44  C   UNL A   1      41.397  24.521  28.129  1.00  0.00     0.010 A 
ATOM     45  C   UNL A   1      40.211  25.621  26.328  1.00  0.00     0.010 A 
ATOM     46  C   UNL A   1      41.165  25.671  27.356  1.00  0.00    -0.014 A 
BRANCH  46  47
ATOM     47  C   UNL A   1      41.926  26.925  27.591  1.00  0.00     0.031 A 
ATOM     48  C   UNL A   1      43.362  27.037  27.152  1.00  0.00     0.074 A 
ATOM     49  C   UNL A   1      41.355  27.923  28.292  1.00  0.00     0.049 A 
ATOM     50  N   UNL A   1      44.201  28.025  27.331  1.00  0.00    -0.248 NA
ATOM     51  C   UNL A   1      43.940  25.882  26.446  1.00  0.00     0.031 C 
ATOM     52  C   UNL A   1      40.001  27.897  28.852  1.00  0.00     0.029 A 
ATOM     53  N   UNL A   1      41.852  29.140  28.689  1.00  0.00    -0.354 N 
ATOM     54  C   UNL A   1      45.413  27.595  26.803  1.00  0.00     0.074 A 
ATOM     55  C   UNL A   1      45.207  26.251  26.312  1.00  0.00     0.031 C 
ATOM     56  C   UNL A   1      39.781  29.035  29.527  1.00  0.00     0.029 A 
ATOM     57  C   UNL A   1      40.983  29.862  29.474  1.00  0.00     0.049 A 
ATOM     58  H   UNL A   1      42.746  29.465  28.436  1.00  0.00     0.167 HD
ATOM     59  C   UNL A   1      46.585  28.269  26.715  1.00  0.00     0.034 A 
ATOM     60  C   UNL A   1      41.139  31.047  30.096  1.00  0.00     0.034 A 
ATOM     61  C   UNL A   1      46.769  29.626  27.153  1.00  0.00     0.049 A 
ATOM     62  C   UNL A   1      42.432  31.799  29.924  1.00  0.00     0.074 A 
ATOM     63  C   UNL A   1      47.880  30.436  26.992  1.00  0.00     0.029 A 
ATOM     64  N   UNL A   1      45.829  30.369  27.848  1.00  0.00    -0.354 N 
ATOM     65  N   UNL A   1      43.503  31.453  29.252  1.00  0.00    -0.248 NA
ATOM     66  C   UNL A   1      42.525  33.120  30.562  1.00  0.00     0.031 C 
ATOM     67  C   UNL A   1      47.622  31.660  27.617  1.00  0.00     0.029 A 
ATOM     68  C   UNL A   1      46.340  31.623  28.140  1.00  0.00     0.049 A 
ATOM     69  H   UNL A   1      44.931  30.053  28.095  1.00  0.00     0.167 HD
ATOM     70  C   UNL A   1      44.383  32.525  29.360  1.00  0.00     0.074 A 
ATOM     71  C   UNL A   1      43.709  33.541  30.140  1.00  0.00     0.031 C 
ATOM     72  C   UNL A   1      45.642  32.647  28.872  1.00  0.00     0.034 A 
BRANCH  59  73
ATOM     73  C   UNL A   1      47.758  27.572  26.078  1.00  0.00     0.023 A 
ATOM     74  C   UNL A   1      48.030  27.772  24.709  1.00  0.00     0.012 A 
ATOM     75  C   UNL A   1      48.642  26.794  26.853  1.00  0.00     0.148 A 
ATOM     76  C   UNL A   1      49.150  27.189  24.117  1.00  0.00     0.002 A 
ATOM     77  C   UNL A   1      49.779  26.253  26.265  1.00  0.00     0.091 A 
ATOM     78  F   UNL A   1      48.354  26.600  28.148  1.00  0.00    -0.205 F 
ATOM     79  C   UNL A   1      50.029  26.441  24.896  1.00  0.00     0.022 A 
BRANCH  77  80
ATOM     80  S   UNL A   1      51.016  25.345  27.198  1.00  0.00     0.127 S 
ATOM     81  O   UNL A   1      50.209  24.286  27.805  1.00  0.00    -0.237 OA
ATOM     82  O   UNL A   1      51.923  24.890  26.145  1.00  0.00    -0.237 OA
ATOM     83  O   UNL A   1      51.596  26.298  28.133  1.00  0.00    -0.744 OA
ENDBRANCH  77  80
ENDBRANCH  59  73
BRANCH  60  84
ATOM     84  C   UNL A   1      40.024  31.620  30.902  1.00  0.00     0.023 A 
ATOM     85  C   UNL A   1      39.061  32.435  30.278  1.00  0.00     0.012 A 
ATOM     86  C   UNL A   1      39.901  31.344  32.279  1.00  0.00     0.148 A 
ATOM     87  C   UNL A   1      38.018  32.996  31.015  1.00  0.00     0.002 A 
ATOM     88  C   UNL A   1      38.828  31.859  32.994  1.00  0.00     0.091 A 
ATOM     89  F   UNL A   1      40.835  30.577  32.859  1.00  0.00    -0.205 F 
ATOM     90  C   UNL A   1      37.895  32.700  32.370  1.00  0.00     0.022 A 
BRANCH  88  91
ATOM     91  S   UNL A   1      38.519  31.413  34.708  1.00  0.00     0.127 S 
ATOM     92  O   UNL A   1      38.442  29.957  34.629  1.00  0.00    -0.237 OA
ATOM     93  O   UNL A   1      39.711  31.932  35.378  1.00  0.00    -0.237 OA
ATOM     94  O   UNL A   1      37.285  32.098  35.071  1.00  0.00    -0.744 OA
ENDBRANCH  88  91
ENDBRANCH  60  84
BRANCH  72  95
ATOM     95  C   UNL A   1      46.372  33.938  29.134  1.00  0.00     0.023 A 
ATOM     96  C   UNL A   1      47.224  34.047  30.250  1.00  0.00     0.012 A 
ATOM     97  C   UNL A   1      46.276  35.014  28.229  1.00  0.00     0.148 A 
ATOM     98  C   UNL A   1      47.944  35.217  30.480  1.00  0.00     0.002 A 
ATOM     99  C   UNL A   1      47.036  36.159  28.438  1.00  0.00     0.091 A 
ATOM    100  F   UNL A   1      45.446  34.898  27.183  1.00  0.00    -0.205 F 
ATOM    101  C   UNL A   1      47.860  36.267  29.568  1.00  0.00     0.022 A 
BRANCH  99 102
ATOM    102  S   UNL A   1      47.065  37.520  27.266  1.00  0.00     0.127 S 
ATOM    103  O   UNL A   1      48.019  38.433  27.894  1.00  0.00    -0.237 OA
ATOM    104  O   UNL A   1      47.553  36.871  26.048  1.00  0.00    -0.237 OA
ATOM    105  O   UNL A   1      45.695  38.008  27.182  1.00  0.00    -0.744 OA
ENDBRANCH  99 102
ENDBRANCH  72  95
ENDBRANCH  46  47
ENDBRANCH  38  41
ENDBRANCH  36  37
ENDBRANCH  35  36
ENDBRANCH  34  35
ENDBRANCH  33  34
ENDBRANCH  32  33
ENDBRANCH  31  32
ENDBRANCH   3  31
TORSDOF 25
ENDMDL
MODEL 2
REMARK VINA RESULT:     -10.5      3.779      7.992
REMARK SMILES CCCCCCNC(=O)Oc1cccc(-c2ccc([C@@H](C)C(=O)NCCCCCCNC(=O)c3ccc(-c4c5nc(c(-c6cccc(S(=O)(=O)[O-])c6F)c6ccc([nH]6)c(-c6cccc(S(=O)(=O)[O-])c6F)c6nc(c(-c7cccc(S(=O)(=O)[O-])c7F)c7ccc4[nH]7)C=C6)C=C5)cc3)cc2C)c1
REMARK SMILES IDX 22 1 23 2 24 3 20 5 21 6 19 7 16 8 17 9 98 10 18 11 97 12
REMARK SMILES IDX 99 13 15 14 11 15 12 16 100 17 13 18 14 19 10 20 8 21 7 22
REMARK SMILES IDX 9 24 6 25 5 26 4 27 3 28 2 29 1 30 25 31 26 32 27 33 28 34
REMARK SMILES IDX 29 35 30 36 31 37 32 38 33 40 34 41 35 42 96 43 36 44 95 45
REMARK SMILES IDX 37 46 38 47 39 48 89 49 40 50 94 51 88 52 90 53 41 54 93 55
REMARK SMILES IDX 87 56 86 57 42 59 74 60 54 61 73 62 55 63 58 64 72 65 91 66
REMARK SMILES IDX 56 67 57 68 71 70 92 71 59 72 43 73 44 74 52 75 45 76 47 77
REMARK SMILES IDX 53 78 46 79 48 80 49 81 50 82 51 83 75 84 76 85 84 86 77 87
REMARK SMILES IDX 79 88 85 89 78 90 80 91 81 92 82 93 83 94 60 95 61 96 69 97
REMARK SMILES IDX 62 98 64 99 70 100 63 101 65 102 66 103 67 104 68 105
REMARK H PARENT 24 4 7 23 31 39 90 58 58 69
REMARK Flexibility Score: inf
ROOT
ATOM      1  C   UNL A   1      34.427  35.275  29.069  1.00  0.00     0.227 C 
ATOM      2  O   UNL A   1      34.554  35.873  27.992  1.00  0.00    -0.274 OA
ATOM      3  N   UNL A   1      33.559  35.825  29.961  1.00  0.00    -0.356 N 
ATOM      4  H   UNL A   1      33.063  36.602  29.616  1.00  0.00     0.163 HD
ENDROOT
BRANCH   1   5
ATOM      5  C   UNL A   1      35.203  33.972  29.317  1.00  0.00     0.105 C 
ATOM      6  C   UNL A   1      36.722  34.126  29.255  1.00  0.00     0.023 C 
BRANCH   5   7
ATOM      7  C   UNL A   1      34.642  32.758  28.593  1.00  0.00    -0.036 A 
ATOM      8  C   UNL A   1      33.622  30.388  27.344  1.00  0.00    -0.015 A 
ATOM      9  C   UNL A   1      32.873  31.575  27.425  1.00  0.00     0.009 A 
ATOM     10  C   UNL A   1      34.943  30.427  27.843  1.00  0.00    -0.043 A 
ATOM     11  C   UNL A   1      33.390  32.745  27.986  1.00  0.00     0.005 A 
ATOM     12  C   UNL A   1      35.410  31.586  28.505  1.00  0.00     0.008 A 
ATOM     13  C   UNL A   1      35.941  29.310  27.675  1.00  0.00     0.045 C 
BRANCH   8  14
ATOM     14  C   UNL A   1      32.988  29.198  26.732  1.00  0.00    -0.014 A 
ATOM     15  C   UNL A   1      32.709  27.636  24.891  1.00  0.00     0.133 A 
ATOM     16  C   UNL A   1      31.739  26.926  25.594  1.00  0.00     0.047 A 
ATOM     17  C   UNL A   1      33.348  28.743  25.453  1.00  0.00     0.056 A 
ATOM     18  C   UNL A   1      31.403  27.331  26.880  1.00  0.00     0.004 A 
ATOM     19  C   UNL A   1      32.009  28.463  27.433  1.00  0.00     0.009 A 
BRANCH  15  20
ATOM     20  O   UNL A   1      32.876  27.292  23.538  1.00  0.00    -0.410 OA
BRANCH  20  21
ATOM     21  C   UNL A   1      33.209  28.261  22.606  1.00  0.00     0.412 C 
ATOM     22  N   UNL A   1      32.110  28.866  22.060  1.00  0.00    -0.321 N 
ATOM     23  H   UNL A   1      32.276  29.525  21.347  1.00  0.00     0.167 HD
ATOM     24  O   UNL A   1      34.340  28.583  22.268  1.00  0.00    -0.224 OA
BRANCH  22  25
ATOM     25  C   UNL A   1      30.726  28.637  22.425  1.00  0.00     0.119 C 
BRANCH  25  26
ATOM     26  C   UNL A   1      29.873  29.892  22.233  1.00  0.00     0.021 C 
BRANCH  26  27
ATOM     27  C   UNL A   1      29.168  30.392  23.500  1.00  0.00     0.002 C 
BRANCH  27  28
ATOM     28  C   UNL A   1      27.909  31.231  23.264  1.00  0.00    -0.000 C 
BRANCH  28  29
ATOM     29  C   UNL A   1      28.124  32.532  22.486  1.00  0.00    -0.003 C 
ATOM     30  C   UNL A   1      29.152  33.452  23.126  1.00  0.00     0.004 C 
ENDBRANCH  28  29
ENDBRANCH  27  28
ENDBRANCH  26  27
ENDBRANCH  25  26
ENDBRANCH  22  25
ENDBRANCH  20  21
ENDBRANCH  15  20
ENDBRANCH   8  14
ENDBRANCH   5   7
ENDBRANCH   1   5
BRANCH   3  31
ATOM     31  C   UNL A   1      33.233  35.472  31.328  1.00  0.00     0.116 C 
BRANCH  31  32
ATOM     32  C   UNL A   1      34.304  35.963  32.304  1.00  0.00     0.021 C 
BRANCH  32  33
ATOM     33  C   UNL A   1      34.484  35.060  33.529  1.00  0.00     0.002 C 
BRANCH  33  34
ATOM     34  C   UNL A   1      35.817  34.304  33.584  1.00  0.00     0.002 C 
BRANCH  34  35
ATOM     35  C   UNL A   1      35.754  32.832  33.157  1.00  0.00     0.021 C 
BRANCH  35  36
ATOM     36  C   UNL A   1      36.863  31.954  33.734  1.00  0.00     0.116 C 
BRANCH  36  37
ATOM     37  N   UNL A   1      36.769  30.584  33.250  1.00  0.00    -0.352 N 
ATOM     38  C   UNL A   1      37.419  29.981  32.203  1.00  0.00     0.251 C 
ATOM     39  H   UNL A   1      36.147  30.005  33.747  1.00  0.00     0.163 HD
ATOM     40  O   UNL A   1      37.028  28.894  31.785  1.00  0.00    -0.269 OA
BRANCH  38  41
ATOM     41  C   UNL A   1      38.585  30.638  31.577  1.00  0.00     0.039 A 
ATOM     42  C   UNL A   1      39.688  30.969  32.370  1.00  0.00     0.014 A 
ATOM     43  C   UNL A   1      38.581  30.954  30.215  1.00  0.00     0.014 A 
ATOM     44  C   UNL A   1      40.807  31.567  31.786  1.00  0.00     0.010 A 
ATOM     45  C   UNL A   1      39.724  31.488  29.622  1.00  0.00     0.010 A 
ATOM     46  C   UNL A   1      40.846  31.806  30.403  1.00  0.00    -0.014 A 
BRANCH  46  47
ATOM     47  C   UNL A   1      42.059  32.364  29.750  1.00  0.00     0.031 A 
ATOM     48  C   UNL A   1      43.241  31.479  29.457  1.00  0.00     0.074 A 
ATOM     49  C   UNL A   1      42.134  33.689  29.517  1.00  0.00     0.049 A 
ATOM     50  N   UNL A   1      44.405  31.803  28.955  1.00  0.00    -0.248 NA
ATOM     51  C   UNL A   1      43.112  30.052  29.796  1.00  0.00     0.031 C 
ATOM     52  C   UNL A   1      41.090  34.665  29.842  1.00  0.00     0.029 A 
ATOM     53  N   UNL A   1      43.145  34.452  28.988  1.00  0.00    -0.354 N 
ATOM     54  C   UNL A   1      45.160  30.635  28.961  1.00  0.00     0.074 A 
ATOM     55  C   UNL A   1      44.329  29.598  29.532  1.00  0.00     0.031 C 
ATOM     56  C   UNL A   1      41.520  35.894  29.518  1.00  0.00     0.029 A 
ATOM     57  C   UNL A   1      42.876  35.801  28.988  1.00  0.00     0.049 A 
ATOM     58  H   UNL A   1      43.984  34.069  28.643  1.00  0.00     0.167 HD
ATOM     59  C   UNL A   1      46.422  30.440  28.510  1.00  0.00     0.034 A 
ATOM     60  C   UNL A   1      43.640  36.848  28.618  1.00  0.00     0.034 A 
ATOM     61  C   UNL A   1      47.224  31.462  27.891  1.00  0.00     0.049 A 
ATOM     62  C   UNL A   1      45.015  36.591  28.061  1.00  0.00     0.074 A 
ATOM     63  C   UNL A   1      48.463  31.333  27.289  1.00  0.00     0.029 A 
ATOM     64  N   UNL A   1      46.875  32.800  27.806  1.00  0.00    -0.354 N 
ATOM     65  N   UNL A   1      45.636  35.449  27.895  1.00  0.00    -0.248 NA
ATOM     66  C   UNL A   1      45.778  37.761  27.605  1.00  0.00     0.031 C 
ATOM     67  C   UNL A   1      48.877  32.600  26.866  1.00  0.00     0.029 A 
ATOM     68  C   UNL A   1      47.882  33.512  27.178  1.00  0.00     0.049 A 
ATOM     69  H   UNL A   1      46.034  33.186  28.141  1.00  0.00     0.167 HD
ATOM     70  C   UNL A   1      46.848  35.758  27.287  1.00  0.00     0.074 A 
ATOM     71  C   UNL A   1      46.861  37.193  27.091  1.00  0.00     0.031 C 
ATOM     72  C   UNL A   1      47.864  34.932  26.940  1.00  0.00     0.034 A 
BRANCH  59  73
ATOM     73  C   UNL A   1      47.010  29.059  28.620  1.00  0.00     0.023 A 
ATOM     74  C   UNL A   1      47.690  28.680  29.796  1.00  0.00     0.012 A 
ATOM     75  C   UNL A   1      46.809  28.107  27.600  1.00  0.00     0.148 A 
ATOM     76  C   UNL A   1      48.182  27.385  29.945  1.00  0.00     0.002 A 
ATOM     77  C   UNL A   1      47.264  26.805  27.774  1.00  0.00     0.091 A 
ATOM     78  F   UNL A   1      46.177  28.491  26.483  1.00  0.00    -0.205 F 
ATOM     79  C   UNL A   1      47.959  26.445  28.941  1.00  0.00     0.022 A 
BRANCH  77  80
ATOM     80  S   UNL A   1      46.956  25.500  26.579  1.00  0.00     0.127 S 
ATOM     81  O   UNL A   1      47.532  26.073  25.362  1.00  0.00    -0.237 OA
ATOM     82  O   UNL A   1      47.712  24.382  27.143  1.00  0.00    -0.237 OA
ATOM     83  O   UNL A   1      45.513  25.310  26.554  1.00  0.00    -0.744 OA
ENDBRANCH  77  80
ENDBRANCH  59  73
BRANCH  60  84
ATOM     84  C   UNL A   1      43.104  38.235  28.719  1.00  0.00     0.023 A 
ATOM     85  C   UNL A   1      42.267  38.734  27.702  1.00  0.00     0.012 A 
ATOM     86  C   UNL A   1      43.401  39.054  29.826  1.00  0.00     0.148 A 
ATOM     87  C   UNL A   1      41.767  40.035  27.766  1.00  0.00     0.002 A 
ATOM     88  C   UNL A   1      42.853  40.328  29.912  1.00  0.00     0.091 A 
ATOM     89  F   UNL A   1      44.211  38.568  30.778  1.00  0.00    -0.205 F 
ATOM     90  C   UNL A   1      42.052  40.828  28.875  1.00  0.00     0.022 A 
BRANCH  88  91
ATOM     91  S   UNL A   1      43.055  41.360  31.369  1.00  0.00     0.127 S 
ATOM     92  O   UNL A   1      44.474  41.700  31.301  1.00  0.00    -0.237 OA
ATOM     93  O   UNL A   1      42.140  42.467  31.088  1.00  0.00    -0.237 OA
ATOM     94  O   UNL A   1      42.653  40.526  32.494  1.00  0.00    -0.744 OA
ENDBRANCH  88  91
ENDBRANCH  60  84
BRANCH  72  95
ATOM     95  C   UNL A   1      49.071  35.544  26.279  1.00  0.00     0.023 A 
ATOM     96  C   UNL A   1      49.122  35.650  24.876  1.00  0.00     0.012 A 
ATOM     97  C   UNL A   1      50.116  36.086  27.053  1.00  0.00     0.148 A 
ATOM     98  C   UNL A   1      50.210  36.258  24.251  1.00  0.00     0.002 A 
ATOM     99  C   UNL A   1      51.173  36.735  26.426  1.00  0.00     0.091 A 
ATOM    100  F   UNL A   1      50.057  35.959  28.386  1.00  0.00    -0.205 F 
ATOM    101  C   UNL A   1      51.228  36.811  25.025  1.00  0.00     0.022 A 
BRANCH  99 102
ATOM    102  S   UNL A   1      52.477  37.561  27.345  1.00  0.00     0.127 S 
ATOM    103  O   UNL A   1      53.380  37.976  26.273  1.00  0.00    -0.237 OA
ATOM    104  O   UNL A   1      51.754  38.656  27.992  1.00  0.00    -0.237 OA
ATOM    105  O   UNL A   1      53.012  36.565  28.264  1.00  0.00    -0.744 OA
ENDBRANCH  99 102
ENDBRANCH  72  95
ENDBRANCH  46  47
ENDBRANCH  38  41
ENDBRANCH  36  37
ENDBRANCH  35  36
ENDBRANCH  34  35
ENDBRANCH  33  34
ENDBRANCH  32  33
ENDBRANCH  31  32
ENDBRANCH   3  31
TORSDOF 25
ENDMDL
MODEL 3
REMARK VINA RESULT:     -10.3      2.330      2.706
REMARK SMILES CCCCCCNC(=O)Oc1cccc(-c2ccc([C@@H](C)C(=O)NCCCCCCNC(=O)c3ccc(-c4c5nc(c(-c6cccc(S(=O)(=O)[O-])c6F)c6ccc([nH]6)c(-c6cccc(S(=O)(=O)[O-])c6F)c6nc(c(-c7cccc(S(=O)(=O)[O-])c7F)c7ccc4[nH]7)C=C6)C=C5)cc3)cc2C)c1
REMARK SMILES IDX 22 1 23 2 24 3 20 5 21 6 19 7 16 8 17 9 98 10 18 11 97 12
REMARK SMILES IDX 99 13 15 14 11 15 12 16 100 17 13 18 14 19 10 20 8 21 7 22
REMARK SMILES IDX 9 24 6 25 5 26 4 27 3 28 2 29 1 30 25 31 26 32 27 33 28 34
REMARK SMILES IDX 29 35 30 36 31 37 32 38 33 40 34 41 35 42 96 43 36 44 95 45
REMARK SMILES IDX 37 46 38 47 39 48 89 49 40 50 94 51 88 52 90 53 41 54 93 55
REMARK SMILES IDX 87 56 86 57 42 59 74 60 54 61 73 62 55 63 58 64 72 65 91 66
REMARK SMILES IDX 56 67 57 68 71 70 92 71 59 72 43 73 44 74 52 75 45 76 47 77
REMARK SMILES IDX 53 78 46 79 48 80 49 81 50 82 51 83 75 84 76 85 84 86 77 87
REMARK SMILES IDX 79 88 85 89 78 90 80 91 81 92 82 93 83 94 60 95 61 96 69 97
REMARK SMILES IDX 62 98 64 99 70 100 63 101 65 102 66 103 67 104 68 105
REMARK H PARENT 24 4 7 23 31 39 90 58 58 69
REMARK Flexibility Score: inf
ROOT
ATOM      1  C   UNL A   1      32.662  25.632  22.115  1.00  0.00     0.227 C 
ATOM      2  O   UNL A   1      33.300  26.193  21.214  1.00  0.00    -0.274 OA
ATOM      3  N   UNL A   1      32.906  24.304  22.286  1.00  0.00    -0.356 N 
ATOM      4  H   UNL A   1      33.630  23.951  21.720  1.00  0.00     0.163 HD
ENDROOT
BRANCH   1   5
ATOM      5  C   UNL A   1      31.688  26.445  22.982  1.00  0.00     0.105 C 
ATOM      6  C   UNL A   1      30.575  27.136  22.195  1.00  0.00     0.023 C 
BRANCH   5   7
ATOM      7  C   UNL A   1      32.356  27.298  24.049  1.00  0.00    -0.036 A 
ATOM      8  C   UNL A   1      33.609  28.792  26.151  1.00  0.00    -0.015 A 
ATOM      9  C   UNL A   1      34.139  28.737  24.849  1.00  0.00     0.009 A 
ATOM     10  C   UNL A   1      32.378  28.134  26.370  1.00  0.00    -0.043 A 
ATOM     11  C   UNL A   1      33.500  28.053  23.813  1.00  0.00     0.005 A 
ATOM     12  C   UNL A   1      31.803  27.356  25.338  1.00  0.00     0.008 A 
ATOM     13  C   UNL A   1      31.580  28.240  27.645  1.00  0.00     0.045 C 
BRANCH   8  14
ATOM     14  C   UNL A   1      34.358  29.542  27.184  1.00  0.00    -0.014 A 
ATOM     15  C   UNL A   1      34.728  31.529  28.535  1.00  0.00     0.133 A 
ATOM     16  C   UNL A   1      35.829  30.945  29.154  1.00  0.00     0.047 A 
ATOM     17  C   UNL A   1      33.981  30.836  27.579  1.00  0.00     0.056 A 
ATOM     18  C   UNL A   1      36.190  29.648  28.812  1.00  0.00     0.004 A 
ATOM     19  C   UNL A   1      35.472  28.963  27.828  1.00  0.00     0.009 A 
BRANCH  15  20
ATOM     20  O   UNL A   1      34.521  32.897  28.786  1.00  0.00    -0.410 OA
BRANCH  20  21
ATOM     21  C   UNL A   1      35.075  33.853  27.952  1.00  0.00     0.412 C 
ATOM     22  N   UNL A   1      34.337  35.005  27.909  1.00  0.00    -0.321 N 
ATOM     23  H   UNL A   1      34.646  35.705  27.289  1.00  0.00     0.167 HD
ATOM     24  O   UNL A   1      36.105  33.739  27.302  1.00  0.00    -0.224 OA
BRANCH  22  25
ATOM     25  C   UNL A   1      33.149  35.300  28.684  1.00  0.00     0.119 C 
BRANCH  25  26
ATOM     26  C   UNL A   1      33.044  36.788  29.020  1.00  0.00     0.021 C 
BRANCH  26  27
ATOM     27  C   UNL A   1      33.278  37.134  30.496  1.00  0.00     0.002 C 
BRANCH  27  28
ATOM     28  C   UNL A   1      32.723  36.123  31.503  1.00  0.00    -0.000 C 
BRANCH  28  29
ATOM     29  C   UNL A   1      32.630  36.620  32.948  1.00  0.00    -0.003 C 
ATOM     30  C   UNL A   1      33.955  36.561  33.690  1.00  0.00     0.004 C 
ENDBRANCH  28  29
ENDBRANCH  27  28
ENDBRANCH  26  27
ENDBRANCH  25  26
ENDBRANCH  22  25
ENDBRANCH  20  21
ENDBRANCH  15  20
ENDBRANCH   8  14
ENDBRANCH   5   7
ENDBRANCH   1   5
BRANCH   3  31
ATOM     31  C   UNL A   1      32.293  23.317  23.151  1.00  0.00     0.116 C 
BRANCH  31  32
ATOM     32  C   UNL A   1      33.110  22.024  23.193  1.00  0.00     0.021 C 
BRANCH  32  33
ATOM     33  C   UNL A   1      33.105  21.335  24.562  1.00  0.00     0.002 C 
BRANCH  33  34
ATOM     34  C   UNL A   1      34.143  21.868  25.557  1.00  0.00     0.002 C 
BRANCH  34  35
ATOM     35  C   UNL A   1      35.326  22.618  24.934  1.00  0.00     0.021 C 
BRANCH  35  36
ATOM     36  C   UNL A   1      36.478  22.902  25.895  1.00  0.00     0.116 C 
BRANCH  36  37
ATOM     37  N   UNL A   1      37.404  21.781  25.969  1.00  0.00    -0.352 N 
ATOM     38  C   UNL A   1      38.761  21.780  26.174  1.00  0.00     0.251 C 
ATOM     39  H   UNL A   1      36.997  20.892  25.856  1.00  0.00     0.163 HD
ATOM     40  O   UNL A   1      39.412  20.762  25.955  1.00  0.00    -0.269 OA
BRANCH  38  41
ATOM     41  C   UNL A   1      39.440  23.002  26.655  1.00  0.00     0.039 A 
ATOM     42  C   UNL A   1      40.453  22.887  27.611  1.00  0.00     0.014 A 
ATOM     43  C   UNL A   1      39.058  24.262  26.187  1.00  0.00     0.014 A 
ATOM     44  C   UNL A   1      41.120  24.031  28.055  1.00  0.00     0.010 A 
ATOM     45  C   UNL A   1      39.769  25.394  26.579  1.00  0.00     0.010 A 
ATOM     46  C   UNL A   1      40.803  25.291  27.522  1.00  0.00    -0.014 A 
BRANCH  46  47
ATOM     47  C   UNL A   1      41.557  26.509  27.920  1.00  0.00     0.031 A 
ATOM     48  C   UNL A   1      42.964  26.726  27.431  1.00  0.00     0.074 A 
ATOM     49  C   UNL A   1      41.011  27.365  28.806  1.00  0.00     0.049 A 
ATOM     50  N   UNL A   1      43.796  27.692  27.725  1.00  0.00    -0.248 NA
ATOM     51  C   UNL A   1      43.520  25.717  26.514  1.00  0.00     0.031 C 
ATOM     52  C   UNL A   1      39.690  27.213  29.424  1.00  0.00     0.029 A 
ATOM     53  N   UNL A   1      41.510  28.512  29.371  1.00  0.00    -0.354 N 
ATOM     54  C   UNL A   1      44.983  27.385  27.071  1.00  0.00     0.074 A 
ATOM     55  C   UNL A   1      44.771  26.134  26.377  1.00  0.00     0.031 C 
ATOM     56  C   UNL A   1      39.491  28.220  30.288  1.00  0.00     0.029 A 
ATOM     57  C   UNL A   1      40.675  29.074  30.309  1.00  0.00     0.049 A 
ATOM     58  H   UNL A   1      42.383  28.896  29.128  1.00  0.00     0.167 HD
ATOM     59  C   UNL A   1      46.138  28.092  27.033  1.00  0.00     0.034 A 
ATOM     60  C   UNL A   1      40.848  30.145  31.108  1.00  0.00     0.034 A 
ATOM     61  C   UNL A   1      46.325  29.363  27.679  1.00  0.00     0.049 A 
ATOM     62  C   UNL A   1      42.117  30.946  30.995  1.00  0.00     0.074 A 
ATOM     63  C   UNL A   1      47.412  30.216  27.596  1.00  0.00     0.029 A 
ATOM     64  N   UNL A   1      45.414  29.959  28.535  1.00  0.00    -0.354 N 
ATOM     65  N   UNL A   1      43.154  30.742  30.220  1.00  0.00    -0.248 NA
ATOM     66  C   UNL A   1      42.225  32.146  31.836  1.00  0.00     0.031 C 
ATOM     67  C   UNL A   1      47.171  31.314  28.426  1.00  0.00     0.029 A 
ATOM     68  C   UNL A   1      45.921  31.160  29.003  1.00  0.00     0.049 A 
ATOM     69  H   UNL A   1      44.536  29.585  28.774  1.00  0.00     0.167 HD
ATOM     70  C   UNL A   1      44.022  31.802  30.455  1.00  0.00     0.074 A 
ATOM     71  C   UNL A   1      43.377  32.660  31.427  1.00  0.00     0.031 C 
ATOM     72  C   UNL A   1      45.249  32.034  29.929  1.00  0.00     0.034 A 
BRANCH  59  73
ATOM     73  C   UNL A   1      47.284  27.537  26.229  1.00  0.00     0.023 A 
ATOM     74  C   UNL A   1      48.162  26.604  26.816  1.00  0.00     0.012 A 
ATOM     75  C   UNL A   1      47.436  27.870  24.867  1.00  0.00     0.148 A 
ATOM     76  C   UNL A   1      49.188  26.028  26.068  1.00  0.00     0.002 A 
ATOM     77  C   UNL A   1      48.433  27.259  24.118  1.00  0.00     0.091 A 
ATOM     78  F   UNL A   1      46.602  28.773  24.333  1.00  0.00    -0.205 F 
ATOM     79  C   UNL A   1      49.316  26.346  24.718  1.00  0.00     0.022 A 
BRANCH  77  80
ATOM     80  S   UNL A   1      48.630  27.536  22.354  1.00  0.00     0.127 S 
ATOM     81  O   UNL A   1      49.823  28.382  22.320  1.00  0.00    -0.237 OA
ATOM     82  O   UNL A   1      48.832  26.178  21.850  1.00  0.00    -0.237 OA
ATOM     83  O   UNL A   1      47.401  28.176  21.907  1.00  0.00    -0.744 OA
ENDBRANCH  77  80
ENDBRANCH  59  73
BRANCH  60  84
ATOM     84  C   UNL A   1      39.771  30.550  32.056  1.00  0.00     0.023 A 
ATOM     85  C   UNL A   1      39.560  29.804  33.231  1.00  0.00     0.012 A 
ATOM     86  C   UNL A   1      38.969  31.682  31.809  1.00  0.00     0.148 A 
ATOM     87  C   UNL A   1      38.547  30.154  34.124  1.00  0.00     0.002 A 
ATOM     88  C   UNL A   1      38.001  32.059  32.731  1.00  0.00     0.091 A 
ATOM     89  F   UNL A   1      39.174  32.373  30.678  1.00  0.00    -0.205 F 
ATOM     90  C   UNL A   1      37.775  31.286  33.880  1.00  0.00     0.022 A 
BRANCH  88  91
ATOM     91  S   UNL A   1      37.060  33.580  32.563  1.00  0.00     0.127 S 
ATOM     92  O   UNL A   1      36.150  33.250  31.469  1.00  0.00    -0.237 OA
ATOM     93  O   UNL A   1      36.429  33.697  33.878  1.00  0.00    -0.237 OA
ATOM     94  O   UNL A   1      38.044  34.617  32.281  1.00  0.00    -0.744 OA
ENDBRANCH  88  91
ENDBRANCH  60  84
BRANCH  72  95
ATOM     95  C   UNL A   1      45.973  33.282  30.361  1.00  0.00     0.023 A 
ATOM     96  C   UNL A   1      45.786  34.482  29.648  1.00  0.00     0.012 A 
ATOM     97  C   UNL A   1      46.774  33.283  31.521  1.00  0.00     0.148 A 
ATOM     98  C   UNL A   1      46.410  35.657  30.063  1.00  0.00     0.002 A 
ATOM     99  C   UNL A   1      47.352  34.469  31.957  1.00  0.00     0.091 A 
ATOM    100  F   UNL A   1      46.953  32.127  32.175  1.00  0.00    -0.205 F 
ATOM    101  C   UNL A   1      47.182  35.653  31.223  1.00  0.00     0.022 A 
BRANCH  99 102
ATOM    102  S   UNL A   1      48.280  34.579  33.491  1.00  0.00     0.127 S 
ATOM    103  O   UNL A   1      49.053  35.803  33.284  1.00  0.00    -0.237 OA
ATOM    104  O   UNL A   1      47.216  34.692  34.490  1.00  0.00    -0.237 OA
ATOM    105  O   UNL A   1      49.060  33.352  33.577  1.00  0.00    -0.744 OA
ENDBRANCH  99 102
ENDBRANCH  72  95
ENDBRANCH  46  47
ENDBRANCH  38  41
ENDBRANCH  36  37
ENDBRANCH  35  36
ENDBRANCH  34  35
ENDBRANCH  33  34
ENDBRANCH  32  33
ENDBRANCH  31  32
ENDBRANCH   3  31
TORSDOF 25
ENDMDL
