MODEL 1
REMARK VINA RESULT:     -13.1      0.000      0.000
REMARK SMILES Cc1ccc(/C=C(\NC(=O)c2cccc(C)c2)C(=O)NCCCCCCNC(=O)c2ccc(-c3c4nc(c(-c5cccc(S(=O)(=O)[O-])c5F)c5ccc([nH]5)c(-c5cccc(S(=O)(=O)[O-])c5F)c5nc(c(-c6cccc(S(=O)(=O)[O-])c6F)c6ccc3[nH]6)C=C5)C=C4)cc2)cc1
REMARK SMILES IDX 24 1 23 2 22 3 21 4 20 5 18 6 19 7 7 9 6 10 5 11 1 12 2 13
REMARK SMILES IDX 3 14 94 15 4 16 93 17 8 18 9 19 10 21 11 22 12 23 17 24
REMARK SMILES IDX 13 25 15 26 14 27 16 28 25 29 26 30 27 31 28 32 29 34 30 35
REMARK SMILES IDX 31 36 92 37 32 38 91 39 33 40 34 41 35 42 85 43 36 44 90 45
REMARK SMILES IDX 84 46 86 47 37 48 89 49 83 50 82 51 38 53 70 54 50 55 69 56
REMARK SMILES IDX 51 57 54 58 68 59 87 60 52 61 53 62 67 64 88 65 55 66 39 67
REMARK SMILES IDX 40 68 48 69 41 70 43 71 49 72 42 73 44 74 45 75 46 76 47 77
REMARK SMILES IDX 71 78 72 79 80 80 73 81 75 82 81 83 74 84 76 85 77 86 78 87
REMARK SMILES IDX 79 88 56 89 57 90 65 91 58 92 60 93 66 94 59 95 61 96 62 97
REMARK SMILES IDX 63 98 64 99
REMARK H PARENT 20 8 8 20 27 33 86 52 54 63
REMARK Flexibility Score: inf
ROOT
ATOM      1  C   UNL A   1      32.130  31.083  26.502  1.00  0.00     0.002 C 
ENDROOT
BRANCH   1   2
ATOM      2  C   UNL A   1      31.742  29.601  26.432  1.00  0.00     0.002 C 
BRANCH   2   3
ATOM      3  C   UNL A   1      32.456  28.672  25.443  1.00  0.00     0.021 C 
BRANCH   3   4
ATOM      4  C   UNL A   1      31.840  28.433  24.069  1.00  0.00     0.116 C 
BRANCH   4   5
ATOM      5  N   UNL A   1      30.455  28.015  24.032  1.00  0.00    -0.351 N 
ATOM      6  C   UNL A   1      29.943  26.760  23.817  1.00  0.00     0.267 C 
ATOM      7  O   UNL A   1      28.722  26.601  23.907  1.00  0.00    -0.268 OA
ATOM      8  H   UNL A   1      29.791  28.727  24.179  1.00  0.00     0.163 HD
BRANCH   6   9
ATOM      9  C   UNL A   1      30.840  25.594  23.425  1.00  0.00     0.107 C 
ATOM     10  C   UNL A   1      30.636  24.428  24.084  1.00  0.00     0.040 C 
BRANCH  10  11
ATOM     11  C   UNL A   1      31.321  23.102  23.980  1.00  0.00    -0.023 A 
ATOM     12  C   UNL A   1      33.131  19.143  23.934  1.00  0.00     0.044 C 
ATOM     13  C   UNL A   1      32.547  20.522  23.970  1.00  0.00    -0.051 A 
ATOM     14  C   UNL A   1      32.117  21.113  22.786  1.00  0.00     0.004 A 
ATOM     15  C   UNL A   1      32.397  21.237  25.160  1.00  0.00     0.004 A 
ATOM     16  C   UNL A   1      31.545  22.391  22.792  1.00  0.00     0.008 A 
ATOM     17  C   UNL A   1      31.788  22.504  25.163  1.00  0.00     0.008 A 
ENDBRANCH  10  11
BRANCH   9  18
ATOM     18  N   UNL A   1      31.766  25.665  22.419  1.00  0.00    -0.317 N 
ATOM     19  C   UNL A   1      33.103  25.382  22.308  1.00  0.00     0.255 C 
ATOM     20  H   UNL A   1      31.381  25.996  21.576  1.00  0.00     0.170 HD
ATOM     21  O   UNL A   1      33.616  25.555  21.199  1.00  0.00    -0.269 OA
BRANCH  19  22
ATOM     22  C   UNL A   1      33.960  24.902  23.421  1.00  0.00     0.040 A 
ATOM     23  C   UNL A   1      33.894  25.640  24.613  1.00  0.00     0.014 A 
ATOM     24  C   UNL A   1      34.760  23.758  23.376  1.00  0.00     0.017 A 
ATOM     25  C   UNL A   1      34.530  25.190  25.766  1.00  0.00     0.001 A 
ATOM     26  C   UNL A   1      35.373  23.277  24.544  1.00  0.00    -0.050 A 
ATOM     27  C   UNL A   1      35.239  23.993  25.739  1.00  0.00     0.003 A 
ATOM     28  C   UNL A   1      36.111  21.971  24.539  1.00  0.00     0.044 C 
ENDBRANCH  19  22
ENDBRANCH   9  18
ENDBRANCH   6   9
ENDBRANCH   4   5
ENDBRANCH   3   4
ENDBRANCH   2   3
ENDBRANCH   1   2
BRANCH   1  29
ATOM     29  C   UNL A   1      33.192  31.513  27.506  1.00  0.00     0.021 C 
BRANCH  29  30
ATOM     30  C   UNL A   1      34.572  30.888  27.367  1.00  0.00     0.116 C 
BRANCH  30  31
ATOM     31  N   UNL A   1      35.622  31.746  27.923  1.00  0.00    -0.352 N 
ATOM     32  C   UNL A   1      36.853  31.401  28.452  1.00  0.00     0.251 C 
ATOM     33  H   UNL A   1      35.421  32.709  27.919  1.00  0.00     0.163 HD
ATOM     34  O   UNL A   1      37.566  32.254  28.977  1.00  0.00    -0.269 OA
BRANCH  32  35
ATOM     35  C   UNL A   1      37.334  30.019  28.254  1.00  0.00     0.039 A 
ATOM     36  C   UNL A   1      37.311  29.181  29.374  1.00  0.00     0.014 A 
ATOM     37  C   UNL A   1      38.137  29.732  27.156  1.00  0.00     0.014 A 
ATOM     38  C   UNL A   1      38.316  28.237  29.530  1.00  0.00     0.010 A 
ATOM     39  C   UNL A   1      39.189  28.865  27.348  1.00  0.00     0.010 A 
ATOM     40  C   UNL A   1      39.320  28.189  28.568  1.00  0.00    -0.014 A 
BRANCH  40  41
ATOM     41  C   UNL A   1      40.585  27.505  28.754  1.00  0.00     0.031 A 
ATOM     42  C   UNL A   1      40.664  26.057  28.521  1.00  0.00     0.074 A 
ATOM     43  C   UNL A   1      41.705  28.231  28.962  1.00  0.00     0.049 A 
ATOM     44  N   UNL A   1      41.630  25.320  28.946  1.00  0.00    -0.248 NA
ATOM     45  C   UNL A   1      39.635  25.322  27.800  1.00  0.00     0.031 C 
ATOM     46  C   UNL A   1      43.083  27.798  28.764  1.00  0.00     0.029 A 
ATOM     47  N   UNL A   1      41.828  29.473  29.595  1.00  0.00    -0.354 N 
ATOM     48  C   UNL A   1      41.507  24.097  28.329  1.00  0.00     0.074 A 
ATOM     49  C   UNL A   1      40.213  24.122  27.687  1.00  0.00     0.031 C 
ATOM     50  C   UNL A   1      43.894  28.588  29.482  1.00  0.00     0.029 A 
ATOM     51  C   UNL A   1      43.048  29.440  30.296  1.00  0.00     0.049 A 
ATOM     52  H   UNL A   1      41.188  30.221  29.556  1.00  0.00     0.167 HD
ATOM     53  C   UNL A   1      42.584  23.265  28.298  1.00  0.00     0.034 A 
ATOM     54  C   UNL A   1      43.150  29.599  31.648  1.00  0.00     0.034 A 
ATOM     55  C   UNL A   1      43.728  23.850  29.015  1.00  0.00     0.049 A 
ATOM     56  C   UNL A   1      43.762  28.393  32.353  1.00  0.00     0.074 A 
ATOM     57  C   UNL A   1      44.869  24.533  28.622  1.00  0.00     0.029 A 
ATOM     58  N   UNL A   1      43.633  24.030  30.385  1.00  0.00    -0.354 N 
ATOM     59  N   UNL A   1      44.262  27.344  31.757  1.00  0.00    -0.248 NA
ATOM     60  C   UNL A   1      43.755  28.241  33.807  1.00  0.00     0.031 C 
ATOM     61  C   UNL A   1      45.460  25.122  29.778  1.00  0.00     0.029 A 
ATOM     62  C   UNL A   1      44.692  24.782  30.875  1.00  0.00     0.049 A 
ATOM     63  H   UNL A   1      42.905  23.671  30.942  1.00  0.00     0.167 HD
ATOM     64  C   UNL A   1      44.454  26.335  32.675  1.00  0.00     0.074 A 
ATOM     65  C   UNL A   1      44.164  26.969  33.951  1.00  0.00     0.031 C 
ATOM     66  C   UNL A   1      44.749  25.043  32.309  1.00  0.00     0.034 A 
BRANCH  53  67
ATOM     67  C   UNL A   1      42.700  22.073  27.371  1.00  0.00     0.023 A 
ATOM     68  C   UNL A   1      41.866  20.964  27.633  1.00  0.00     0.012 A 
ATOM     69  C   UNL A   1      43.602  21.933  26.291  1.00  0.00     0.148 A 
ATOM     70  C   UNL A   1      41.990  19.751  26.950  1.00  0.00     0.002 A 
ATOM     71  C   UNL A   1      43.782  20.698  25.659  1.00  0.00     0.091 A 
ATOM     72  F   UNL A   1      44.238  23.010  25.815  1.00  0.00    -0.205 F 
ATOM     73  C   UNL A   1      42.978  19.603  25.989  1.00  0.00     0.022 A 
BRANCH  71  74
ATOM     74  S   UNL A   1      45.112  20.395  24.481  1.00  0.00     0.127 S 
ATOM     75  O   UNL A   1      44.701  21.211  23.334  1.00  0.00    -0.237 OA
ATOM     76  O   UNL A   1      46.286  20.897  25.189  1.00  0.00    -0.237 OA
ATOM     77  O   UNL A   1      45.093  18.960  24.218  1.00  0.00    -0.744 OA
ENDBRANCH  71  74
ENDBRANCH  53  67
BRANCH  54  78
ATOM     78  C   UNL A   1      42.094  30.492  32.211  1.00  0.00     0.023 A 
ATOM     79  C   UNL A   1      42.106  31.845  31.790  1.00  0.00     0.012 A 
ATOM     80  C   UNL A   1      40.918  29.971  32.779  1.00  0.00     0.148 A 
ATOM     81  C   UNL A   1      40.940  32.611  31.800  1.00  0.00     0.002 A 
ATOM     82  C   UNL A   1      39.759  30.744  32.788  1.00  0.00     0.091 A 
ATOM     83  F   UNL A   1      40.921  28.708  33.217  1.00  0.00    -0.205 F 
ATOM     84  C   UNL A   1      39.757  32.046  32.263  1.00  0.00     0.022 A 
BRANCH  82  85
ATOM     85  S   UNL A   1      38.189  30.059  33.333  1.00  0.00     0.127 S 
ATOM     86  O   UNL A   1      38.247  30.306  34.770  1.00  0.00    -0.237 OA
ATOM     87  O   UNL A   1      37.221  30.878  32.605  1.00  0.00    -0.237 OA
ATOM     88  O   UNL A   1      38.229  28.667  32.911  1.00  0.00    -0.744 OA
ENDBRANCH  82  85
ENDBRANCH  54  78
BRANCH  66  89
ATOM     89  C   UNL A   1      45.005  23.871  33.261  1.00  0.00     0.023 A 
ATOM     90  C   UNL A   1      43.983  22.997  33.674  1.00  0.00     0.012 A 
ATOM     91  C   UNL A   1      46.284  23.638  33.847  1.00  0.00     0.148 A 
ATOM     92  C   UNL A   1      44.236  21.871  34.470  1.00  0.00     0.002 A 
ATOM     93  C   UNL A   1      46.539  22.519  34.637  1.00  0.00     0.091 A 
ATOM     94  F   UNL A   1      47.260  24.541  33.716  1.00  0.00    -0.205 F 
ATOM     95  C   UNL A   1      45.521  21.613  34.926  1.00  0.00     0.022 A 
BRANCH  93  96
ATOM     96  S   UNL A   1      48.172  22.186  35.316  1.00  0.00     0.127 S 
ATOM     97  O   UNL A   1      48.246  23.167  36.398  1.00  0.00    -0.237 OA
ATOM     98  O   UNL A   1      48.040  20.797  35.760  1.00  0.00    -0.237 OA
ATOM     99  O   UNL A   1      49.107  22.380  34.218  1.00  0.00    -0.744 OA
ENDBRANCH  93  96
ENDBRANCH  66  89
ENDBRANCH  40  41
ENDBRANCH  32  35
ENDBRANCH  30  31
ENDBRANCH  29  30
ENDBRANCH   1  29
TORSDOF 19
ENDMDL
MODEL 2
REMARK VINA RESULT:     -13.0      4.099     10.474
REMARK SMILES Cc1ccc(/C=C(\NC(=O)c2cccc(C)c2)C(=O)NCCCCCCNC(=O)c2ccc(-c3c4nc(c(-c5cccc(S(=O)(=O)[O-])c5F)c5ccc([nH]5)c(-c5cccc(S(=O)(=O)[O-])c5F)c5nc(c(-c6cccc(S(=O)(=O)[O-])c6F)c6ccc3[nH]6)C=C5)C=C4)cc2)cc1
REMARK SMILES IDX 24 1 23 2 22 3 21 4 20 5 18 6 19 7 7 9 6 10 5 11 1 12 2 13
REMARK SMILES IDX 3 14 94 15 4 16 93 17 8 18 9 19 10 21 11 22 12 23 17 24
REMARK SMILES IDX 13 25 15 26 14 27 16 28 25 29 26 30 27 31 28 32 29 34 30 35
REMARK SMILES IDX 31 36 92 37 32 38 91 39 33 40 34 41 35 42 85 43 36 44 90 45
REMARK SMILES IDX 84 46 86 47 37 48 89 49 83 50 82 51 38 53 70 54 50 55 69 56
REMARK SMILES IDX 51 57 54 58 68 59 87 60 52 61 53 62 67 64 88 65 55 66 39 67
REMARK SMILES IDX 40 68 48 69 41 70 43 71 49 72 42 73 44 74 45 75 46 76 47 77
REMARK SMILES IDX 71 78 72 79 80 80 73 81 75 82 81 83 74 84 76 85 77 86 78 87
REMARK SMILES IDX 79 88 56 89 57 90 65 91 58 92 60 93 66 94 59 95 61 96 62 97
REMARK SMILES IDX 63 98 64 99
REMARK H PARENT 20 8 8 20 27 33 86 52 54 63
REMARK Flexibility Score: inf
ROOT
ATOM      1  C   UNL A   1      37.450  20.776  24.816  1.00  0.00     0.002 C 
ENDROOT
BRANCH   1   2
ATOM      2  C   UNL A   1      36.077  21.084  25.424  1.00  0.00     0.002 C 
BRANCH   2   3
ATOM      3  C   UNL A   1      35.743  22.514  25.867  1.00  0.00     0.021 C 
BRANCH   3   4
ATOM      4  C   UNL A   1      34.437  22.776  26.610  1.00  0.00     0.116 C 
BRANCH   4   5
ATOM      5  N   UNL A   1      33.207  22.507  25.896  1.00  0.00    -0.351 N 
ATOM      6  C   UNL A   1      32.469  23.354  25.108  1.00  0.00     0.267 C 
ATOM      7  O   UNL A   1      31.485  22.900  24.518  1.00  0.00    -0.268 OA
ATOM      8  H   UNL A   1      32.852  21.593  25.988  1.00  0.00     0.163 HD
BRANCH   6   9
ATOM      9  C   UNL A   1      32.812  24.834  24.997  1.00  0.00     0.107 C 
ATOM     10  C   UNL A   1      32.663  25.573  26.122  1.00  0.00     0.040 C 
BRANCH  10  11
ATOM     11  C   UNL A   1      32.884  27.030  26.383  1.00  0.00    -0.023 A 
ATOM     12  C   UNL A   1      33.362  31.229  27.427  1.00  0.00     0.044 C 
ATOM     13  C   UNL A   1      33.164  29.796  27.037  1.00  0.00    -0.051 A 
ATOM     14  C   UNL A   1      34.246  29.061  26.565  1.00  0.00     0.004 A 
ATOM     15  C   UNL A   1      31.927  29.158  27.150  1.00  0.00     0.004 A 
ATOM     16  C   UNL A   1      34.097  27.713  26.217  1.00  0.00     0.008 A 
ATOM     17  C   UNL A   1      31.793  27.795  26.832  1.00  0.00     0.008 A 
ENDBRANCH  10  11
BRANCH   9  18
ATOM     18  N   UNL A   1      33.312  25.405  23.858  1.00  0.00    -0.317 N 
ATOM     19  C   UNL A   1      32.904  26.406  23.014  1.00  0.00     0.255 C 
ATOM     20  H   UNL A   1      34.165  25.003  23.578  1.00  0.00     0.170 HD
ATOM     21  O   UNL A   1      33.649  26.671  22.067  1.00  0.00    -0.269 OA
BRANCH  19  22
ATOM     22  C   UNL A   1      31.638  27.170  23.159  1.00  0.00     0.040 A 
ATOM     23  C   UNL A   1      31.690  28.524  22.792  1.00  0.00     0.014 A 
ATOM     24  C   UNL A   1      30.420  26.625  23.569  1.00  0.00     0.017 A 
ATOM     25  C   UNL A   1      30.530  29.291  22.736  1.00  0.00     0.001 A 
ATOM     26  C   UNL A   1      29.240  27.381  23.479  1.00  0.00    -0.050 A 
ATOM     27  C   UNL A   1      29.304  28.710  23.046  1.00  0.00     0.003 A 
ATOM     28  C   UNL A   1      27.908  26.760  23.777  1.00  0.00     0.044 C 
ENDBRANCH  19  22
ENDBRANCH   9  18
ENDBRANCH   6   9
ENDBRANCH   4   5
ENDBRANCH   3   4
ENDBRANCH   2   3
ENDBRANCH   1   2
BRANCH   1  29
ATOM     29  C   UNL A   1      38.695  21.025  25.659  1.00  0.00     0.021 C 
BRANCH  29  30
ATOM     30  C   UNL A   1      39.040  22.472  25.977  1.00  0.00     0.116 C 
BRANCH  30  31
ATOM     31  N   UNL A   1      40.258  22.581  26.784  1.00  0.00    -0.352 N 
ATOM     32  C   UNL A   1      40.837  23.698  27.360  1.00  0.00     0.251 C 
ATOM     33  H   UNL A   1      40.735  21.735  26.938  1.00  0.00     0.163 HD
ATOM     34  O   UNL A   1      41.930  23.617  27.916  1.00  0.00    -0.269 OA
BRANCH  32  35
ATOM     35  C   UNL A   1      40.052  24.948  27.396  1.00  0.00     0.039 A 
ATOM     36  C   UNL A   1      40.478  25.982  26.556  1.00  0.00     0.014 A 
ATOM     37  C   UNL A   1      39.233  25.202  28.491  1.00  0.00     0.014 A 
ATOM     38  C   UNL A   1      40.352  27.295  26.986  1.00  0.00     0.010 A 
ATOM     39  C   UNL A   1      39.190  26.493  28.966  1.00  0.00     0.010 A 
ATOM     40  C   UNL A   1      39.825  27.519  28.253  1.00  0.00    -0.014 A 
BRANCH  40  41
ATOM     41  C   UNL A   1      39.932  28.779  28.963  1.00  0.00     0.031 A 
ATOM     42  C   UNL A   1      38.932  29.827  28.728  1.00  0.00     0.074 A 
ATOM     43  C   UNL A   1      40.841  28.903  29.955  1.00  0.00     0.049 A 
ATOM     44  N   UNL A   1      39.102  31.059  29.057  1.00  0.00    -0.248 NA
ATOM     45  C   UNL A   1      37.656  29.562  28.077  1.00  0.00     0.031 C 
ATOM     46  C   UNL A   1      40.837  29.887  31.031  1.00  0.00     0.029 A 
ATOM     47  N   UNL A   1      42.082  28.271  30.078  1.00  0.00    -0.354 N 
ATOM     48  C   UNL A   1      37.883  31.684  28.931  1.00  0.00     0.074 A 
ATOM     49  C   UNL A   1      37.036  30.733  28.248  1.00  0.00     0.031 C 
ATOM     50  C   UNL A   1      42.079  29.994  31.526  1.00  0.00     0.029 A 
ATOM     51  C   UNL A   1      42.949  29.211  30.668  1.00  0.00     0.049 A 
ATOM     52  H   UNL A   1      42.306  27.350  29.808  1.00  0.00     0.167 HD
ATOM     53  C   UNL A   1      37.685  32.874  29.562  1.00  0.00     0.034 A 
ATOM     54  C   UNL A   1      44.095  29.661  30.078  1.00  0.00     0.034 A 
ATOM     55  C   UNL A   1      38.903  33.312  30.262  1.00  0.00     0.049 A 
ATOM     56  C   UNL A   1      44.099  31.167  29.839  1.00  0.00     0.074 A 
ATOM     57  C   UNL A   1      39.336  33.251  31.578  1.00  0.00     0.029 A 
ATOM     58  N   UNL A   1      40.017  33.648  29.512  1.00  0.00    -0.354 N 
ATOM     59  N   UNL A   1      43.179  31.999  30.249  1.00  0.00    -0.248 NA
ATOM     60  C   UNL A   1      45.108  31.833  29.019  1.00  0.00     0.031 C 
ATOM     61  C   UNL A   1      40.728  33.561  31.607  1.00  0.00     0.029 A 
ATOM     62  C   UNL A   1      41.136  33.829  30.314  1.00  0.00     0.049 A 
ATOM     63  H   UNL A   1      40.017  33.746  28.532  1.00  0.00     0.167 HD
ATOM     64  C   UNL A   1      43.338  33.215  29.622  1.00  0.00     0.074 A 
ATOM     65  C   UNL A   1      44.591  33.068  28.897  1.00  0.00     0.031 C 
ATOM     66  C   UNL A   1      42.390  34.209  29.674  1.00  0.00     0.034 A 
BRANCH  53  67
ATOM     67  C   UNL A   1      36.319  33.483  29.800  1.00  0.00     0.023 A 
ATOM     68  C   UNL A   1      35.678  34.088  28.697  1.00  0.00     0.012 A 
ATOM     69  C   UNL A   1      35.634  33.555  31.035  1.00  0.00     0.148 A 
ATOM     70  C   UNL A   1      34.494  34.820  28.823  1.00  0.00     0.002 A 
ATOM     71  C   UNL A   1      34.492  34.350  31.179  1.00  0.00     0.091 A 
ATOM     72  F   UNL A   1      36.037  32.797  32.061  1.00  0.00    -0.205 F 
ATOM     73  C   UNL A   1      33.921  34.986  30.073  1.00  0.00     0.022 A 
BRANCH  71  74
ATOM     74  S   UNL A   1      33.753  34.704  32.784  1.00  0.00     0.127 S 
ATOM     75  O   UNL A   1      34.869  35.318  33.510  1.00  0.00    -0.237 OA
ATOM     76  O   UNL A   1      32.674  35.628  32.442  1.00  0.00    -0.237 OA
ATOM     77  O   UNL A   1      33.337  33.415  33.326  1.00  0.00    -0.744 OA
ENDBRANCH  71  74
ENDBRANCH  53  67
BRANCH  54  78
ATOM     78  C   UNL A   1      44.737  28.639  29.198  1.00  0.00     0.023 A 
ATOM     79  C   UNL A   1      45.262  27.486  29.832  1.00  0.00     0.012 A 
ATOM     80  C   UNL A   1      44.480  28.594  27.817  1.00  0.00     0.148 A 
ATOM     81  C   UNL A   1      45.389  26.281  29.140  1.00  0.00     0.002 A 
ATOM     82  C   UNL A   1      44.612  27.388  27.133  1.00  0.00     0.091 A 
ATOM     83  F   UNL A   1      44.026  29.697  27.211  1.00  0.00    -0.205 F 
ATOM     84  C   UNL A   1      45.026  26.224  27.799  1.00  0.00     0.022 A 
BRANCH  82  85
ATOM     85  S   UNL A   1      44.120  27.237  25.411  1.00  0.00     0.127 S 
ATOM     86  O   UNL A   1      45.356  27.593  24.722  1.00  0.00    -0.237 OA
ATOM     87  O   UNL A   1      43.745  25.827  25.316  1.00  0.00    -0.237 OA
ATOM     88  O   UNL A   1      43.005  28.161  25.264  1.00  0.00    -0.744 OA
ENDBRANCH  82  85
ENDBRANCH  54  78
BRANCH  66  89
ATOM     89  C   UNL A   1      42.499  35.595  29.031  1.00  0.00     0.023 A 
ATOM     90  C   UNL A   1      41.968  35.881  27.761  1.00  0.00     0.012 A 
ATOM     91  C   UNL A   1      43.211  36.663  29.652  1.00  0.00     0.148 A 
ATOM     92  C   UNL A   1      41.987  37.172  27.214  1.00  0.00     0.002 A 
ATOM     93  C   UNL A   1      43.229  37.948  29.114  1.00  0.00     0.091 A 
ATOM     94  F   UNL A   1      43.953  36.435  30.740  1.00  0.00    -0.205 F 
ATOM     95  C   UNL A   1      42.589  38.214  27.905  1.00  0.00     0.022 A 
BRANCH  93  96
ATOM     96  S   UNL A   1      44.066  39.313  29.935  1.00  0.00     0.127 S 
ATOM     97  O   UNL A   1      43.494  39.242  31.279  1.00  0.00    -0.237 OA
ATOM     98  O   UNL A   1      45.469  38.907  29.847  1.00  0.00    -0.237 OA
ATOM     99  O   UNL A   1      43.734  40.503  29.166  1.00  0.00    -0.744 OA
ENDBRANCH  93  96
ENDBRANCH  66  89
ENDBRANCH  40  41
ENDBRANCH  32  35
ENDBRANCH  30  31
ENDBRANCH  29  30
ENDBRANCH   1  29
TORSDOF 19
ENDMDL
MODEL 3
REMARK VINA RESULT:     -12.9      0.936      2.146
REMARK SMILES Cc1ccc(/C=C(\NC(=O)c2cccc(C)c2)C(=O)NCCCCCCNC(=O)c2ccc(-c3c4nc(c(-c5cccc(S(=O)(=O)[O-])c5F)c5ccc([nH]5)c(-c5cccc(S(=O)(=O)[O-])c5F)c5nc(c(-c6cccc(S(=O)(=O)[O-])c6F)c6ccc3[nH]6)C=C5)C=C4)cc2)cc1
REMARK SMILES IDX 24 1 23 2 22 3 21 4 20 5 18 6 19 7 7 9 6 10 5 11 1 12 2 13
REMARK SMILES IDX 3 14 94 15 4 16 93 17 8 18 9 19 10 21 11 22 12 23 17 24
REMARK SMILES IDX 13 25 15 26 14 27 16 28 25 29 26 30 27 31 28 32 29 34 30 35
REMARK SMILES IDX 31 36 92 37 32 38 91 39 33 40 34 41 35 42 85 43 36 44 90 45
REMARK SMILES IDX 84 46 86 47 37 48 89 49 83 50 82 51 38 53 70 54 50 55 69 56
REMARK SMILES IDX 51 57 54 58 68 59 87 60 52 61 53 62 67 64 88 65 55 66 39 67
REMARK SMILES IDX 40 68 48 69 41 70 43 71 49 72 42 73 44 74 45 75 46 76 47 77
REMARK SMILES IDX 71 78 72 79 80 80 73 81 75 82 81 83 74 84 76 85 77 86 78 87
REMARK SMILES IDX 79 88 56 89 57 90 65 91 58 92 60 93 66 94 59 95 61 96 62 97
REMARK SMILES IDX 63 98 64 99
REMARK H PARENT 20 8 8 20 27 33 86 52 54 63
REMARK Flexibility Score: inf
ROOT
ATOM      1  C   UNL A   1      32.252  31.330  26.420  1.00  0.00     0.002 C 
ENDROOT
BRANCH   1   2
ATOM      2  C   UNL A   1      31.867  29.893  26.051  1.00  0.00     0.002 C 
BRANCH   2   3
ATOM      3  C   UNL A   1      32.962  28.844  25.825  1.00  0.00     0.021 C 
BRANCH   3   4
ATOM      4  C   UNL A   1      33.328  28.446  24.399  1.00  0.00     0.116 C 
BRANCH   4   5
ATOM      5  N   UNL A   1      32.321  27.745  23.632  1.00  0.00    -0.351 N 
ATOM      6  C   UNL A   1      32.012  26.409  23.640  1.00  0.00     0.267 C 
ATOM      7  O   UNL A   1      31.055  26.023  22.963  1.00  0.00    -0.268 OA
ATOM      8  H   UNL A   1      31.786  28.303  23.021  1.00  0.00     0.163 HD
BRANCH   6   9
ATOM      9  C   UNL A   1      32.853  25.405  24.417  1.00  0.00     0.107 C 
ATOM     10  C   UNL A   1      34.079  25.126  23.911  1.00  0.00     0.040 C 
BRANCH  10  11
ATOM     11  C   UNL A   1      35.154  24.199  24.384  1.00  0.00    -0.023 A 
ATOM     12  C   UNL A   1      38.434  21.549  25.467  1.00  0.00     0.044 C 
ATOM     13  C   UNL A   1      37.278  22.423  25.087  1.00  0.00    -0.051 A 
ATOM     14  C   UNL A   1      36.824  23.385  25.984  1.00  0.00     0.004 A 
ATOM     15  C   UNL A   1      36.645  22.324  23.846  1.00  0.00     0.004 A 
ATOM     16  C   UNL A   1      35.762  24.233  25.647  1.00  0.00     0.008 A 
ATOM     17  C   UNL A   1      35.604  23.202  23.500  1.00  0.00     0.008 A 
ENDBRANCH  10  11
BRANCH   9  18
ATOM     18  N   UNL A   1      32.452  24.848  25.602  1.00  0.00    -0.317 N 
ATOM     19  C   UNL A   1      32.240  23.570  26.051  1.00  0.00     0.255 C 
ATOM     20  H   UNL A   1      32.276  25.523  26.295  1.00  0.00     0.170 HD
ATOM     21  O   UNL A   1      31.891  23.447  27.228  1.00  0.00    -0.269 OA
BRANCH  19  22
ATOM     22  C   UNL A   1      32.389  22.347  25.222  1.00  0.00     0.040 A 
ATOM     23  C   UNL A   1      31.671  22.328  24.016  1.00  0.00     0.014 A 
ATOM     24  C   UNL A   1      33.224  21.271  25.531  1.00  0.00     0.017 A 
ATOM     25  C   UNL A   1      31.860  21.306  23.090  1.00  0.00     0.001 A 
ATOM     26  C   UNL A   1      33.449  20.257  24.586  1.00  0.00    -0.050 A 
ATOM     27  C   UNL A   1      32.773  20.292  23.361  1.00  0.00     0.003 A 
ATOM     28  C   UNL A   1      34.456  19.176  24.848  1.00  0.00     0.044 C 
ENDBRANCH  19  22
ENDBRANCH   9  18
ENDBRANCH   6   9
ENDBRANCH   4   5
ENDBRANCH   3   4
ENDBRANCH   2   3
ENDBRANCH   1   2
BRANCH   1  29
ATOM     29  C   UNL A   1      33.122  31.561  27.650  1.00  0.00     0.021 C 
BRANCH  29  30
ATOM     30  C   UNL A   1      34.463  30.845  27.696  1.00  0.00     0.116 C 
BRANCH  30  31
ATOM     31  N   UNL A   1      35.538  31.722  28.166  1.00  0.00    -0.352 N 
ATOM     32  C   UNL A   1      36.815  31.401  28.592  1.00  0.00     0.251 C 
ATOM     33  H   UNL A   1      35.319  32.681  28.181  1.00  0.00     0.163 HD
ATOM     34  O   UNL A   1      37.551  32.267  29.060  1.00  0.00    -0.269 OA
BRANCH  32  35
ATOM     35  C   UNL A   1      37.304  30.028  28.353  1.00  0.00     0.039 A 
ATOM     36  C   UNL A   1      37.276  29.153  29.445  1.00  0.00     0.014 A 
ATOM     37  C   UNL A   1      38.118  29.782  27.254  1.00  0.00     0.014 A 
ATOM     38  C   UNL A   1      38.285  28.210  29.578  1.00  0.00     0.010 A 
ATOM     39  C   UNL A   1      39.173  28.914  27.426  1.00  0.00     0.010 A 
ATOM     40  C   UNL A   1      39.297  28.198  28.624  1.00  0.00    -0.014 A 
BRANCH  40  41
ATOM     41  C   UNL A   1      40.564  27.515  28.798  1.00  0.00     0.031 A 
ATOM     42  C   UNL A   1      40.642  26.068  28.561  1.00  0.00     0.074 A 
ATOM     43  C   UNL A   1      41.685  28.242  29.001  1.00  0.00     0.049 A 
ATOM     44  N   UNL A   1      41.611  25.330  28.976  1.00  0.00    -0.248 NA
ATOM     45  C   UNL A   1      39.608  25.334  27.845  1.00  0.00     0.031 C 
ATOM     46  C   UNL A   1      43.061  27.809  28.790  1.00  0.00     0.029 A 
ATOM     47  N   UNL A   1      41.811  29.481  29.636  1.00  0.00    -0.354 N 
ATOM     48  C   UNL A   1      41.485  24.109  28.356  1.00  0.00     0.074 A 
ATOM     49  C   UNL A   1      40.185  24.135  27.724  1.00  0.00     0.031 C 
ATOM     50  C   UNL A   1      43.877  28.598  29.505  1.00  0.00     0.029 A 
ATOM     51  C   UNL A   1      43.037  29.447  30.328  1.00  0.00     0.049 A 
ATOM     52  H   UNL A   1      41.171  30.229  29.605  1.00  0.00     0.167 HD
ATOM     53  C   UNL A   1      42.562  23.278  28.315  1.00  0.00     0.034 A 
ATOM     54  C   UNL A   1      43.149  29.602  31.680  1.00  0.00     0.034 A 
ATOM     55  C   UNL A   1      43.711  23.862  29.025  1.00  0.00     0.049 A 
ATOM     56  C   UNL A   1      43.767  28.394  32.377  1.00  0.00     0.074 A 
ATOM     57  C   UNL A   1      44.848  24.547  28.624  1.00  0.00     0.029 A 
ATOM     58  N   UNL A   1      43.626  24.038  30.395  1.00  0.00    -0.354 N 
ATOM     59  N   UNL A   1      44.263  27.347  31.773  1.00  0.00    -0.248 NA
ATOM     60  C   UNL A   1      43.771  28.238  33.829  1.00  0.00     0.031 C 
ATOM     61  C   UNL A   1      45.448  25.132  29.778  1.00  0.00     0.029 A 
ATOM     62  C   UNL A   1      44.688  24.788  30.880  1.00  0.00     0.049 A 
ATOM     63  H   UNL A   1      42.902  23.676  30.957  1.00  0.00     0.167 HD
ATOM     64  C   UNL A   1      44.463  26.336  32.686  1.00  0.00     0.074 A 
ATOM     65  C   UNL A   1      44.182  26.966  33.967  1.00  0.00     0.031 C 
ATOM     66  C   UNL A   1      44.756  25.044  32.314  1.00  0.00     0.034 A 
BRANCH  53  67
ATOM     67  C   UNL A   1      42.672  22.088  27.382  1.00  0.00     0.023 A 
ATOM     68  C   UNL A   1      41.843  20.977  27.649  1.00  0.00     0.012 A 
ATOM     69  C   UNL A   1      43.563  21.954  26.293  1.00  0.00     0.148 A 
ATOM     70  C   UNL A   1      41.964  19.766  26.962  1.00  0.00     0.002 A 
ATOM     71  C   UNL A   1      43.740  20.721  25.656  1.00  0.00     0.091 A 
ATOM     72  F   UNL A   1      44.192  23.034  25.815  1.00  0.00    -0.205 F 
ATOM     73  C   UNL A   1      42.942  19.624  25.991  1.00  0.00     0.022 A 
BRANCH  71  74
ATOM     74  S   UNL A   1      45.059  20.425  24.464  1.00  0.00     0.127 S 
ATOM     75  O   UNL A   1      44.724  21.367  23.392  1.00  0.00    -0.237 OA
ATOM     76  O   UNL A   1      46.258  20.774  25.221  1.00  0.00    -0.237 OA
ATOM     77  O   UNL A   1      44.938  19.025  24.075  1.00  0.00    -0.744 OA
ENDBRANCH  71  74
ENDBRANCH  53  67
BRANCH  54  78
ATOM     78  C   UNL A   1      42.096  30.493  32.253  1.00  0.00     0.023 A 
ATOM     79  C   UNL A   1      42.110  31.848  31.843  1.00  0.00     0.012 A 
ATOM     80  C   UNL A   1      40.922  29.969  32.821  1.00  0.00     0.148 A 
ATOM     81  C   UNL A   1      40.945  32.617  31.863  1.00  0.00     0.002 A 
ATOM     82  C   UNL A   1      39.764  30.744  32.840  1.00  0.00     0.091 A 
ATOM     83  F   UNL A   1      40.924  28.702  33.249  1.00  0.00    -0.205 F 
ATOM     84  C   UNL A   1      39.763  32.050  32.326  1.00  0.00     0.022 A 
BRANCH  82  85
ATOM     85  S   UNL A   1      38.195  30.057  33.385  1.00  0.00     0.127 S 
ATOM     86  O   UNL A   1      38.238  30.334  34.817  1.00  0.00    -0.237 OA
ATOM     87  O   UNL A   1      37.227  30.853  32.632  1.00  0.00    -0.237 OA
ATOM     88  O   UNL A   1      38.250  28.657  32.993  1.00  0.00    -0.744 OA
ENDBRANCH  82  85
ENDBRANCH  54  78
BRANCH  66  89
ATOM     89  C   UNL A   1      45.020  23.870  33.261  1.00  0.00     0.023 A 
ATOM     90  C   UNL A   1      44.004  22.986  33.666  1.00  0.00     0.012 A 
ATOM     91  C   UNL A   1      46.299  23.645  33.848  1.00  0.00     0.148 A 
ATOM     92  C   UNL A   1      44.266  21.858  34.458  1.00  0.00     0.002 A 
ATOM     93  C   UNL A   1      46.562  22.524  34.632  1.00  0.00     0.091 A 
ATOM     94  F   UNL A   1      47.268  24.557  33.723  1.00  0.00    -0.205 F 
ATOM     95  C   UNL A   1      45.551  21.608  34.915  1.00  0.00     0.022 A 
BRANCH  93  96
ATOM     96  S   UNL A   1      48.197  22.201  35.313  1.00  0.00     0.127 S 
ATOM     97  O   UNL A   1      48.098  20.782  35.655  1.00  0.00    -0.237 OA
ATOM     98  O   UNL A   1      49.066  22.494  34.172  1.00  0.00    -0.237 OA
ATOM     99  O   UNL A   1      48.348  23.115  36.436  1.00  0.00    -0.744 OA
ENDBRANCH  93  96
ENDBRANCH  66  89
ENDBRANCH  40  41
ENDBRANCH  32  35
ENDBRANCH  30  31
ENDBRANCH  29  30
ENDBRANCH   1  29
TORSDOF 19
ENDMDL
