MODEL 1
REMARK VINA RESULT:     -12.0      0.000      0.000
REMARK SMILES O=C(NCCCCCCNC(=O)[C@@]1([C@@H]2CCC[C@@H]2O)CCCc2ccccc21)c1ccc(-c2c3nc(c(-c4cccc(S(=O)(=O)[O-])c4F)c4ccc([nH]4)c(-c4cccc(S(=O)(=O)[O-])c4F)c4nc(c(-c5cccc(S(=O)(=O)[O-])c5F)c5ccc2[nH]5)C=C4)C=C3)cc1
REMARK SMILES IDX 6 1 5 2 4 3 3 4 1 5 2 6 29 8 30 9 91 10 31 11 90 12 32 13
REMARK SMILES IDX 33 14 34 15 84 16 35 17 89 18 83 19 85 20 36 21 88 22 82 23
REMARK SMILES IDX 81 24 37 26 69 27 49 28 68 29 50 30 53 31 67 32 86 33 51 34
REMARK SMILES IDX 52 35 66 37 87 38 54 39 38 40 39 41 47 42 40 43 42 44 48 45
REMARK SMILES IDX 41 46 43 47 44 48 45 49 46 50 70 51 71 52 79 53 72 54 74 55
REMARK SMILES IDX 80 56 73 57 75 58 76 59 77 60 78 61 55 62 56 63 64 64 57 65
REMARK SMILES IDX 59 66 65 67 58 68 60 69 61 70 62 71 63 72 7 73 8 74 9 75
REMARK SMILES IDX 10 76 11 77 12 79 13 80 20 81 28 82 21 83 23 84 27 85 22 86
REMARK SMILES IDX 24 87 26 88 25 89 14 90 15 91 18 92 16 93 17 94 19 95
REMARK H PARENT 3 7 85 25 53 36 10 78 19 96
REMARK Flexibility Score: inf
ROOT
ATOM      1  C   UNL A   1      31.696  27.712  25.801  1.00  0.00     0.002 C 
ENDROOT
BRANCH   1   2
ATOM      2  C   UNL A   1      32.890  27.833  26.751  1.00  0.00     0.021 C 
BRANCH   2   3
ATOM      3  C   UNL A   1      34.022  28.721  26.248  1.00  0.00     0.116 C 
BRANCH   3   4
ATOM      4  N   UNL A   1      33.856  30.102  26.661  1.00  0.00    -0.352 N 
ATOM      5  O   UNL A   1      34.169  31.908  27.967  1.00  0.00    -0.269 OA
ATOM      6  C   UNL A   1      34.574  30.820  27.583  1.00  0.00     0.251 C 
ATOM      7  H   UNL A   1      33.126  30.593  26.218  1.00  0.00     0.163 HD
BRANCH   6   8
ATOM      8  C   UNL A   1      35.827  30.248  28.119  1.00  0.00     0.039 A 
ATOM      9  C   UNL A   1      35.850  29.641  29.379  1.00  0.00     0.014 A 
ATOM     10  C   UNL A   1      36.987  30.328  27.348  1.00  0.00     0.014 A 
ATOM     11  C   UNL A   1      37.059  29.218  29.920  1.00  0.00     0.010 A 
ATOM     12  C   UNL A   1      38.184  29.831  27.860  1.00  0.00     0.010 A 
ATOM     13  C   UNL A   1      38.234  29.294  29.158  1.00  0.00    -0.014 A 
BRANCH  13  14
ATOM     14  C   UNL A   1      39.507  28.752  29.689  1.00  0.00     0.031 A 
ATOM     15  C   UNL A   1      40.240  29.455  30.793  1.00  0.00     0.074 A 
ATOM     16  C   UNL A   1      40.034  27.654  29.113  1.00  0.00     0.049 A 
ATOM     17  N   UNL A   1      41.416  29.191  31.301  1.00  0.00    -0.248 NA
ATOM     18  C   UNL A   1      39.572  30.619  31.397  1.00  0.00     0.031 C 
ATOM     19  C   UNL A   1      39.422  26.906  28.013  1.00  0.00     0.029 A 
ATOM     20  N   UNL A   1      41.218  27.000  29.343  1.00  0.00    -0.354 N 
ATOM     21  C   UNL A   1      41.653  30.180  32.247  1.00  0.00     0.074 A 
ATOM     22  C   UNL A   1      40.498  31.053  32.240  1.00  0.00     0.031 C 
ATOM     23  C   UNL A   1      40.239  25.906  27.654  1.00  0.00     0.029 A 
ATOM     24  C   UNL A   1      41.456  25.981  28.453  1.00  0.00     0.049 A 
ATOM     25  H   UNL A   1      41.834  27.238  30.073  1.00  0.00     0.167 HD
ATOM     26  C   UNL A   1      42.734  30.343  33.047  1.00  0.00     0.034 A 
ATOM     27  C   UNL A   1      42.550  25.218  28.266  1.00  0.00     0.034 A 
ATOM     28  C   UNL A   1      43.870  29.459  33.048  1.00  0.00     0.049 A 
ATOM     29  C   UNL A   1      43.739  25.419  29.159  1.00  0.00     0.074 A 
ATOM     30  C   UNL A   1      44.987  29.495  33.865  1.00  0.00     0.029 A 
ATOM     31  N   UNL A   1      44.048  28.396  32.175  1.00  0.00    -0.354 N 
ATOM     32  N   UNL A   1      43.902  26.288  30.128  1.00  0.00    -0.248 NA
ATOM     33  C   UNL A   1      44.882  24.518  28.959  1.00  0.00     0.031 C 
ATOM     34  C   UNL A   1      45.858  28.480  33.457  1.00  0.00     0.029 A 
ATOM     35  C   UNL A   1      45.262  27.778  32.421  1.00  0.00     0.049 A 
ATOM     36  H   UNL A   1      43.406  28.120  31.482  1.00  0.00     0.167 HD
ATOM     37  C   UNL A   1      45.146  26.013  30.680  1.00  0.00     0.074 A 
ATOM     38  C   UNL A   1      45.693  24.895  29.939  1.00  0.00     0.031 C 
ATOM     39  C   UNL A   1      45.774  26.633  31.709  1.00  0.00     0.034 A 
BRANCH  26  40
ATOM     40  C   UNL A   1      42.737  31.519  33.989  1.00  0.00     0.023 A 
ATOM     41  C   UNL A   1      43.301  32.747  33.584  1.00  0.00     0.012 A 
ATOM     42  C   UNL A   1      42.149  31.420  35.266  1.00  0.00     0.148 A 
ATOM     43  C   UNL A   1      43.325  33.839  34.452  1.00  0.00     0.002 A 
ATOM     44  C   UNL A   1      42.133  32.528  36.107  1.00  0.00     0.091 A 
ATOM     45  F   UNL A   1      41.633  30.243  35.645  1.00  0.00    -0.205 F 
ATOM     46  C   UNL A   1      42.735  33.733  35.708  1.00  0.00     0.022 A 
BRANCH  44  47
ATOM     47  S   UNL A   1      41.322  32.512  37.709  1.00  0.00     0.127 S 
ATOM     48  O   UNL A   1      42.192  31.618  38.471  1.00  0.00    -0.237 OA
ATOM     49  O   UNL A   1      41.396  33.919  38.107  1.00  0.00    -0.237 OA
ATOM     50  O   UNL A   1      39.972  32.021  37.469  1.00  0.00    -0.744 OA
ENDBRANCH  44  47
ENDBRANCH  26  40
BRANCH  27  51
ATOM     51  C   UNL A   1      42.539  24.183  27.197  1.00  0.00     0.023 A 
ATOM     52  C   UNL A   1      43.172  24.448  25.968  1.00  0.00     0.012 A 
ATOM     53  C   UNL A   1      41.978  22.911  27.425  1.00  0.00     0.148 A 
ATOM     54  C   UNL A   1      43.228  23.470  24.975  1.00  0.00     0.002 A 
ATOM     55  C   UNL A   1      42.087  21.924  26.455  1.00  0.00     0.091 A 
ATOM     56  F   UNL A   1      41.382  22.684  28.604  1.00  0.00    -0.205 F 
ATOM     57  C   UNL A   1      42.697  22.206  25.222  1.00  0.00     0.022 A 
BRANCH  55  58
ATOM     58  S   UNL A   1      41.558  20.230  26.733  1.00  0.00     0.127 S 
ATOM     59  O   UNL A   1      41.799  19.624  25.425  1.00  0.00    -0.237 OA
ATOM     60  O   UNL A   1      42.477  19.802  27.788  1.00  0.00    -0.237 OA
ATOM     61  O   UNL A   1      40.163  20.310  27.140  1.00  0.00    -0.744 OA
ENDBRANCH  55  58
ENDBRANCH  27  51
BRANCH  39  62
ATOM     62  C   UNL A   1      47.102  26.083  32.156  1.00  0.00     0.023 A 
ATOM     63  C   UNL A   1      48.300  26.575  31.603  1.00  0.00     0.012 A 
ATOM     64  C   UNL A   1      47.157  25.149  33.210  1.00  0.00     0.148 A 
ATOM     65  C   UNL A   1      49.533  26.131  32.080  1.00  0.00     0.002 A 
ATOM     66  C   UNL A   1      48.387  24.751  33.716  1.00  0.00     0.091 A 
ATOM     67  F   UNL A   1      46.004  24.679  33.707  1.00  0.00    -0.205 F 
ATOM     68  C   UNL A   1      49.577  25.233  33.145  1.00  0.00     0.022 A 
BRANCH  66  69
ATOM     69  S   UNL A   1      48.540  23.682  35.151  1.00  0.00     0.127 S 
ATOM     70  O   UNL A   1      48.248  22.370  34.577  1.00  0.00    -0.237 OA
ATOM     71  O   UNL A   1      49.936  23.884  35.538  1.00  0.00    -0.237 OA
ATOM     72  O   UNL A   1      47.565  24.164  36.120  1.00  0.00    -0.744 OA
ENDBRANCH  66  69
ENDBRANCH  39  62
ENDBRANCH  13  14
ENDBRANCH   6   8
ENDBRANCH   3   4
ENDBRANCH   2   3
ENDBRANCH   1   2
BRANCH   1  73
ATOM     73  C   UNL A   1      31.928  28.268  24.396  1.00  0.00     0.002 C 
BRANCH  73  74
ATOM     74  C   UNL A   1      32.044  27.214  23.297  1.00  0.00     0.021 C 
BRANCH  74  75
ATOM     75  C   UNL A   1      33.316  26.364  23.350  1.00  0.00     0.116 C 
BRANCH  75  76
ATOM     76  N   UNL A   1      33.257  25.269  22.404  1.00  0.00    -0.355 N 
ATOM     77  C   UNL A   1      33.353  23.920  22.538  1.00  0.00     0.231 C 
ATOM     78  H   UNL A   1      33.119  25.563  21.474  1.00  0.00     0.163 HD
ATOM     79  O   UNL A   1      33.595  23.357  21.461  1.00  0.00    -0.274 OA
BRANCH  77  80
ATOM     80  C   UNL A   1      33.208  23.118  23.912  1.00  0.00     0.080 C 
ATOM     81  C   UNL A   1      32.469  21.777  23.611  1.00  0.00     0.022 C 
ATOM     82  C   UNL A   1      34.670  22.772  24.427  1.00  0.00    -0.029 A 
ATOM     83  C   UNL A   1      32.724  20.603  24.544  1.00  0.00     0.006 C 
ATOM     84  C   UNL A   1      35.073  21.469  24.786  1.00  0.00    -0.044 A 
ATOM     85  C   UNL A   1      35.622  23.807  24.599  1.00  0.00     0.005 A 
ATOM     86  C   UNL A   1      34.192  20.263  24.633  1.00  0.00     0.036 C 
ATOM     87  C   UNL A   1      36.381  21.241  25.263  1.00  0.00     0.004 A 
ATOM     88  C   UNL A   1      36.917  23.567  25.059  1.00  0.00     0.000 A 
ATOM     89  C   UNL A   1      37.297  22.280  25.397  1.00  0.00     0.000 A 
BRANCH  80  90
ATOM     90  C   UNL A   1      32.585  24.048  25.048  1.00  0.00     0.038 C 
ATOM     91  C   UNL A   1      33.088  23.784  26.483  1.00  0.00     0.008 C 
ATOM     92  C   UNL A   1      31.080  24.134  25.337  1.00  0.00     0.119 C 
ATOM     93  C   UNL A   1      32.024  22.915  27.169  1.00  0.00     0.003 C 
ATOM     94  C   UNL A   1      30.780  22.994  26.294  1.00  0.00     0.032 C 
BRANCH  92  95
ATOM     95  O   UNL A   1      30.235  24.166  24.225  1.00  0.00    -0.393 OA
ATOM     96  H   UNL A   1      29.721  23.345  24.186  1.00  0.00     0.210 HD
ENDBRANCH  92  95
ENDBRANCH  80  90
ENDBRANCH  77  80
ENDBRANCH  75  76
ENDBRANCH  74  75
ENDBRANCH  73  74
ENDBRANCH   1  73
TORSDOF 18
ENDMDL
MODEL 2
REMARK VINA RESULT:     -12.0      2.276      3.585
REMARK SMILES O=C(NCCCCCCNC(=O)[C@@]1([C@@H]2CCC[C@@H]2O)CCCc2ccccc21)c1ccc(-c2c3nc(c(-c4cccc(S(=O)(=O)[O-])c4F)c4ccc([nH]4)c(-c4cccc(S(=O)(=O)[O-])c4F)c4nc(c(-c5cccc(S(=O)(=O)[O-])c5F)c5ccc2[nH]5)C=C4)C=C3)cc1
REMARK SMILES IDX 6 1 5 2 4 3 3 4 1 5 2 6 29 8 30 9 91 10 31 11 90 12 32 13
REMARK SMILES IDX 33 14 34 15 84 16 35 17 89 18 83 19 85 20 36 21 88 22 82 23
REMARK SMILES IDX 81 24 37 26 69 27 49 28 68 29 50 30 53 31 67 32 86 33 51 34
REMARK SMILES IDX 52 35 66 37 87 38 54 39 38 40 39 41 47 42 40 43 42 44 48 45
REMARK SMILES IDX 41 46 43 47 44 48 45 49 46 50 70 51 71 52 79 53 72 54 74 55
REMARK SMILES IDX 80 56 73 57 75 58 76 59 77 60 78 61 55 62 56 63 64 64 57 65
REMARK SMILES IDX 59 66 65 67 58 68 60 69 61 70 62 71 63 72 7 73 8 74 9 75
REMARK SMILES IDX 10 76 11 77 12 79 13 80 20 81 28 82 21 83 23 84 27 85 22 86
REMARK SMILES IDX 24 87 26 88 25 89 14 90 15 91 18 92 16 93 17 94 19 95
REMARK H PARENT 3 7 85 25 53 36 10 78 19 96
REMARK Flexibility Score: inf
ROOT
ATOM      1  C   UNL A   1      31.158  28.036  24.117  1.00  0.00     0.002 C 
ENDROOT
BRANCH   1   2
ATOM      2  C   UNL A   1      31.497  28.669  25.469  1.00  0.00     0.021 C 
BRANCH   2   3
ATOM      3  C   UNL A   1      32.705  29.599  25.456  1.00  0.00     0.116 C 
BRANCH   3   4
ATOM      4  N   UNL A   1      32.357  30.949  25.859  1.00  0.00    -0.352 N 
ATOM      5  O   UNL A   1      32.296  32.733  27.230  1.00  0.00    -0.269 OA
ATOM      6  C   UNL A   1      32.850  31.693  26.901  1.00  0.00     0.251 C 
ATOM      7  H   UNL A   1      31.673  31.394  25.308  1.00  0.00     0.163 HD
BRANCH   6   8
ATOM      8  C   UNL A   1      34.040  31.207  27.629  1.00  0.00     0.039 A 
ATOM      9  C   UNL A   1      34.151  29.860  27.992  1.00  0.00     0.014 A 
ATOM     10  C   UNL A   1      35.048  32.114  27.953  1.00  0.00     0.014 A 
ATOM     11  C   UNL A   1      35.216  29.443  28.781  1.00  0.00     0.010 A 
ATOM     12  C   UNL A   1      36.156  31.676  28.678  1.00  0.00     0.010 A 
ATOM     13  C   UNL A   1      36.237  30.344  29.116  1.00  0.00    -0.014 A 
BRANCH  13  14
ATOM     14  C   UNL A   1      37.426  29.882  29.871  1.00  0.00     0.031 A 
ATOM     15  C   UNL A   1      37.703  30.393  31.255  1.00  0.00     0.074 A 
ATOM     16  C   UNL A   1      38.295  29.050  29.266  1.00  0.00     0.049 A 
ATOM     17  N   UNL A   1      38.747  30.188  32.015  1.00  0.00    -0.248 NA
ATOM     18  C   UNL A   1      36.679  31.260  31.860  1.00  0.00     0.031 C 
ATOM     19  C   UNL A   1      38.141  28.513  27.912  1.00  0.00     0.029 A 
ATOM     20  N   UNL A   1      39.495  28.542  29.692  1.00  0.00    -0.354 N 
ATOM     21  C   UNL A   1      38.534  30.938  33.165  1.00  0.00     0.074 A 
ATOM     22  C   UNL A   1      37.259  31.605  33.001  1.00  0.00     0.031 C 
ATOM     23  C   UNL A   1      39.210  27.764  27.612  1.00  0.00     0.029 A 
ATOM     24  C   UNL A   1      40.152  27.820  28.724  1.00  0.00     0.049 A 
ATOM     25  H   UNL A   1      39.851  28.681  30.599  1.00  0.00     0.167 HD
ATOM     26  C   UNL A   1      39.327  31.056  34.257  1.00  0.00     0.034 A 
ATOM     27  C   UNL A   1      41.393  27.296  28.711  1.00  0.00     0.034 A 
ATOM     28  C   UNL A   1      40.587  30.377  34.408  1.00  0.00     0.049 A 
ATOM     29  C   UNL A   1      42.258  27.444  29.928  1.00  0.00     0.074 A 
ATOM     30  C   UNL A   1      41.437  30.375  35.500  1.00  0.00     0.029 A 
ATOM     31  N   UNL A   1      41.191  29.600  33.431  1.00  0.00    -0.354 N 
ATOM     32  N   UNL A   1      41.994  28.062  31.054  1.00  0.00    -0.248 NA
ATOM     33  C   UNL A   1      43.577  26.800  29.889  1.00  0.00     0.031 C 
ATOM     34  C   UNL A   1      42.574  29.632  35.167  1.00  0.00     0.029 A 
ATOM     35  C   UNL A   1      42.410  29.126  33.887  1.00  0.00     0.049 A 
ATOM     36  H   UNL A   1      40.810  29.411  32.543  1.00  0.00     0.167 HD
ATOM     37  C   UNL A   1      43.094  27.847  31.873  1.00  0.00     0.074 A 
ATOM     38  C   UNL A   1      44.027  27.039  31.114  1.00  0.00     0.031 C 
ATOM     39  C   UNL A   1      43.307  28.280  33.140  1.00  0.00     0.034 A 
BRANCH  26  40
ATOM     40  C   UNL A   1      38.854  31.952  35.372  1.00  0.00     0.023 A 
ATOM     41  C   UNL A   1      38.994  33.351  35.263  1.00  0.00     0.012 A 
ATOM     42  C   UNL A   1      38.237  31.410  36.518  1.00  0.00     0.148 A 
ATOM     43  C   UNL A   1      38.575  34.191  36.295  1.00  0.00     0.002 A 
ATOM     44  C   UNL A   1      37.778  32.257  37.521  1.00  0.00     0.091 A 
ATOM     45  F   UNL A   1      38.127  30.078  36.617  1.00  0.00    -0.205 F 
ATOM     46  C   UNL A   1      37.961  33.645  37.419  1.00  0.00     0.022 A 
BRANCH  44  47
ATOM     47  S   UNL A   1      36.898  31.653  38.966  1.00  0.00     0.127 S 
ATOM     48  O   UNL A   1      36.675  30.253  38.611  1.00  0.00    -0.237 OA
ATOM     49  O   UNL A   1      37.877  31.863  40.034  1.00  0.00    -0.237 OA
ATOM     50  O   UNL A   1      35.699  32.472  39.075  1.00  0.00    -0.744 OA
ENDBRANCH  44  47
ENDBRANCH  26  40
BRANCH  27  51
ATOM     51  C   UNL A   1      41.860  26.566  27.501  1.00  0.00     0.023 A 
ATOM     52  C   UNL A   1      42.531  27.269  26.483  1.00  0.00     0.012 A 
ATOM     53  C   UNL A   1      41.714  25.169  27.397  1.00  0.00     0.148 A 
ATOM     54  C   UNL A   1      43.033  26.594  25.370  1.00  0.00     0.002 A 
ATOM     55  C   UNL A   1      42.266  24.496  26.315  1.00  0.00     0.091 A 
ATOM     56  F   UNL A   1      41.073  24.523  28.381  1.00  0.00    -0.205 F 
ATOM     57  C   UNL A   1      42.911  25.208  25.291  1.00  0.00     0.022 A 
BRANCH  55  58
ATOM     58  S   UNL A   1      42.281  22.704  26.194  1.00  0.00     0.127 S 
ATOM     59  O   UNL A   1      40.853  22.396  26.148  1.00  0.00    -0.237 OA
ATOM     60  O   UNL A   1      42.996  22.497  24.934  1.00  0.00    -0.237 OA
ATOM     61  O   UNL A   1      42.988  22.231  27.375  1.00  0.00    -0.744 OA
ENDBRANCH  55  58
ENDBRANCH  27  51
BRANCH  39  62
ATOM     62  C   UNL A   1      44.570  27.839  33.830  1.00  0.00     0.023 A 
ATOM     63  C   UNL A   1      45.717  28.656  33.808  1.00  0.00     0.012 A 
ATOM     64  C   UNL A   1      44.577  26.655  34.595  1.00  0.00     0.148 A 
ATOM     65  C   UNL A   1      46.858  28.291  34.522  1.00  0.00     0.002 A 
ATOM     66  C   UNL A   1      45.697  26.325  35.346  1.00  0.00     0.091 A 
ATOM     67  F   UNL A   1      43.481  25.883  34.584  1.00  0.00    -0.205 F 
ATOM     68  C   UNL A   1      46.843  27.136  35.302  1.00  0.00     0.022 A 
BRANCH  66  69
ATOM     69  S   UNL A   1      45.730  24.916  36.459  1.00  0.00     0.127 S 
ATOM     70  O   UNL A   1      47.166  24.676  36.593  1.00  0.00    -0.237 OA
ATOM     71  O   UNL A   1      45.086  25.456  37.657  1.00  0.00    -0.237 OA
ATOM     72  O   UNL A   1      44.984  23.857  35.794  1.00  0.00    -0.744 OA
ENDBRANCH  66  69
ENDBRANCH  39  62
ENDBRANCH  13  14
ENDBRANCH   6   8
ENDBRANCH   3   4
ENDBRANCH   2   3
ENDBRANCH   1   2
BRANCH   1  73
ATOM     73  C   UNL A   1      30.180  26.863  24.178  1.00  0.00     0.002 C 
BRANCH  73  74
ATOM     74  C   UNL A   1      30.448  25.746  23.171  1.00  0.00     0.021 C 
BRANCH  74  75
ATOM     75  C   UNL A   1      31.738  25.903  22.363  1.00  0.00     0.116 C 
BRANCH  75  76
ATOM     76  N   UNL A   1      32.234  24.620  21.909  1.00  0.00    -0.355 N 
ATOM     77  C   UNL A   1      33.187  23.773  22.381  1.00  0.00     0.231 C 
ATOM     78  H   UNL A   1      31.789  24.295  21.093  1.00  0.00     0.163 HD
ATOM     79  O   UNL A   1      33.549  22.951  21.527  1.00  0.00    -0.274 OA
BRANCH  77  80
ATOM     80  C   UNL A   1      33.815  23.819  23.849  1.00  0.00     0.080 C 
ATOM     81  C   UNL A   1      34.404  25.245  24.078  1.00  0.00     0.022 C 
ATOM     82  C   UNL A   1      32.635  23.598  24.888  1.00  0.00    -0.029 A 
ATOM     83  C   UNL A   1      34.502  25.749  25.509  1.00  0.00     0.006 C 
ATOM     84  C   UNL A   1      32.390  24.464  25.973  1.00  0.00    -0.044 A 
ATOM     85  C   UNL A   1      31.802  22.456  24.779  1.00  0.00     0.005 A 
ATOM     86  C   UNL A   1      33.163  25.730  26.207  1.00  0.00     0.036 C 
ATOM     87  C   UNL A   1      31.339  24.189  26.874  1.00  0.00     0.004 A 
ATOM     88  C   UNL A   1      30.757  22.202  25.669  1.00  0.00     0.000 A 
ATOM     89  C   UNL A   1      30.528  23.069  26.723  1.00  0.00     0.000 A 
BRANCH  80  90
ATOM     90  C   UNL A   1      34.799  22.584  24.082  1.00  0.00     0.038 C 
ATOM     91  C   UNL A   1      34.998  22.152  25.550  1.00  0.00     0.008 C 
ATOM     92  C   UNL A   1      36.267  22.578  23.632  1.00  0.00     0.119 C 
ATOM     93  C   UNL A   1      36.319  22.780  26.018  1.00  0.00     0.003 C 
ATOM     94  C   UNL A   1      37.043  23.237  24.758  1.00  0.00     0.032 C 
BRANCH  92  95
ATOM     95  O   UNL A   1      36.532  23.126  22.375  1.00  0.00    -0.393 OA
ATOM     96  H   UNL A   1      36.650  22.413  21.730  1.00  0.00     0.210 HD
ENDBRANCH  92  95
ENDBRANCH  80  90
ENDBRANCH  77  80
ENDBRANCH  75  76
ENDBRANCH  74  75
ENDBRANCH  73  74
ENDBRANCH   1  73
TORSDOF 18
ENDMDL
MODEL 3
REMARK VINA RESULT:     -11.9      2.134      7.959
REMARK SMILES O=C(NCCCCCCNC(=O)[C@@]1([C@@H]2CCC[C@@H]2O)CCCc2ccccc21)c1ccc(-c2c3nc(c(-c4cccc(S(=O)(=O)[O-])c4F)c4ccc([nH]4)c(-c4cccc(S(=O)(=O)[O-])c4F)c4nc(c(-c5cccc(S(=O)(=O)[O-])c5F)c5ccc2[nH]5)C=C4)C=C3)cc1
REMARK SMILES IDX 6 1 5 2 4 3 3 4 1 5 2 6 29 8 30 9 91 10 31 11 90 12 32 13
REMARK SMILES IDX 33 14 34 15 84 16 35 17 89 18 83 19 85 20 36 21 88 22 82 23
REMARK SMILES IDX 81 24 37 26 69 27 49 28 68 29 50 30 53 31 67 32 86 33 51 34
REMARK SMILES IDX 52 35 66 37 87 38 54 39 38 40 39 41 47 42 40 43 42 44 48 45
REMARK SMILES IDX 41 46 43 47 44 48 45 49 46 50 70 51 71 52 79 53 72 54 74 55
REMARK SMILES IDX 80 56 73 57 75 58 76 59 77 60 78 61 55 62 56 63 64 64 57 65
REMARK SMILES IDX 59 66 65 67 58 68 60 69 61 70 62 71 63 72 7 73 8 74 9 75
REMARK SMILES IDX 10 76 11 77 12 79 13 80 20 81 28 82 21 83 23 84 27 85 22 86
REMARK SMILES IDX 24 87 26 88 25 89 14 90 15 91 18 92 16 93 17 94 19 95
REMARK H PARENT 3 7 85 25 53 36 10 78 19 96
REMARK Flexibility Score: inf
ROOT
ATOM      1  C   UNL A   1      31.317  28.297  24.393  1.00  0.00     0.002 C 
ENDROOT
BRANCH   1   2
ATOM      2  C   UNL A   1      32.745  28.843  24.323  1.00  0.00     0.021 C 
BRANCH   2   3
ATOM      3  C   UNL A   1      33.302  29.353  25.648  1.00  0.00     0.116 C 
BRANCH   3   4
ATOM      4  N   UNL A   1      32.783  30.665  25.988  1.00  0.00    -0.352 N 
ATOM      5  O   UNL A   1      32.514  32.501  27.260  1.00  0.00    -0.269 OA
ATOM      6  C   UNL A   1      33.196  31.529  26.970  1.00  0.00     0.251 C 
ATOM      7  H   UNL A   1      32.028  30.978  25.438  1.00  0.00     0.163 HD
BRANCH   6   8
ATOM      8  C   UNL A   1      34.462  31.254  27.680  1.00  0.00     0.039 A 
ATOM      9  C   UNL A   1      35.426  32.256  27.830  1.00  0.00     0.014 A 
ATOM     10  C   UNL A   1      34.680  29.976  28.196  1.00  0.00     0.014 A 
ATOM     11  C   UNL A   1      36.660  31.949  28.393  1.00  0.00     0.010 A 
ATOM     12  C   UNL A   1      35.888  29.692  28.831  1.00  0.00     0.010 A 
ATOM     13  C   UNL A   1      36.895  30.669  28.914  1.00  0.00    -0.014 A 
BRANCH  13  14
ATOM     14  C   UNL A   1      38.170  30.365  29.606  1.00  0.00     0.031 A 
ATOM     15  C   UNL A   1      39.144  29.383  29.024  1.00  0.00     0.074 A 
ATOM     16  C   UNL A   1      38.407  30.930  30.805  1.00  0.00     0.049 A 
ATOM     17  N   UNL A   1      40.248  28.911  29.542  1.00  0.00    -0.248 NA
ATOM     18  C   UNL A   1      38.831  28.848  27.689  1.00  0.00     0.031 C 
ATOM     19  C   UNL A   1      37.516  31.877  31.479  1.00  0.00     0.029 A 
ATOM     20  N   UNL A   1      39.445  30.764  31.686  1.00  0.00    -0.354 N 
ATOM     21  C   UNL A   1      40.736  27.989  28.625  1.00  0.00     0.074 A 
ATOM     22  C   UNL A   1      39.805  27.966  27.518  1.00  0.00     0.031 C 
ATOM     23  C   UNL A   1      38.036  32.196  32.672  1.00  0.00     0.029 A 
ATOM     24  C   UNL A   1      39.261  31.431  32.873  1.00  0.00     0.049 A 
ATOM     25  H   UNL A   1      40.242  30.221  31.487  1.00  0.00     0.167 HD
ATOM     26  C   UNL A   1      41.859  27.234  28.701  1.00  0.00     0.034 A 
ATOM     27  C   UNL A   1      39.971  31.399  34.017  1.00  0.00     0.034 A 
ATOM     28  C   UNL A   1      42.780  27.278  29.806  1.00  0.00     0.049 A 
ATOM     29  C   UNL A   1      41.207  30.551  34.082  1.00  0.00     0.074 A 
ATOM     30  C   UNL A   1      43.980  26.604  29.952  1.00  0.00     0.029 A 
ATOM     31  N   UNL A   1      42.593  28.016  30.966  1.00  0.00    -0.354 N 
ATOM     32  N   UNL A   1      41.718  29.770  33.160  1.00  0.00    -0.248 NA
ATOM     33  C   UNL A   1      41.984  30.600  35.328  1.00  0.00     0.031 C 
ATOM     34  C   UNL A   1      44.497  26.902  31.216  1.00  0.00     0.029 A 
ATOM     35  C   UNL A   1      43.646  27.803  31.839  1.00  0.00     0.049 A 
ATOM     36  H   UNL A   1      41.824  28.606  31.142  1.00  0.00     0.167 HD
ATOM     37  C   UNL A   1      42.896  29.267  33.697  1.00  0.00     0.074 A 
ATOM     38  C   UNL A   1      43.025  29.835  35.024  1.00  0.00     0.031 C 
ATOM     39  C   UNL A   1      43.788  28.414  33.137  1.00  0.00     0.034 A 
BRANCH  26  40
ATOM     40  C   UNL A   1      42.151  26.299  27.557  1.00  0.00     0.023 A 
ATOM     41  C   UNL A   1      42.874  26.757  26.436  1.00  0.00     0.012 A 
ATOM     42  C   UNL A   1      41.739  24.951  27.605  1.00  0.00     0.148 A 
ATOM     43  C   UNL A   1      43.137  25.907  25.362  1.00  0.00     0.002 A 
ATOM     44  C   UNL A   1      42.048  24.097  26.552  1.00  0.00     0.091 A 
ATOM     45  F   UNL A   1      41.037  24.534  28.667  1.00  0.00    -0.205 F 
ATOM     46  C   UNL A   1      42.732  24.576  25.423  1.00  0.00     0.022 A 
BRANCH  44  47
ATOM     47  S   UNL A   1      41.643  22.347  26.578  1.00  0.00     0.127 S 
ATOM     48  O   UNL A   1      40.181  22.384  26.593  1.00  0.00    -0.237 OA
ATOM     49  O   UNL A   1      42.228  21.876  25.323  1.00  0.00    -0.237 OA
ATOM     50  O   UNL A   1      42.269  21.810  27.778  1.00  0.00    -0.744 OA
ENDBRANCH  44  47
ENDBRANCH  26  40
BRANCH  27  51
ATOM     51  C   UNL A   1      39.525  32.222  35.172  1.00  0.00     0.023 A 
ATOM     52  C   UNL A   1      39.721  33.616  35.149  1.00  0.00     0.012 A 
ATOM     53  C   UNL A   1      38.834  31.640  36.254  1.00  0.00     0.148 A 
ATOM     54  C   UNL A   1      39.254  34.414  36.193  1.00  0.00     0.002 A 
ATOM     55  C   UNL A   1      38.322  32.446  37.261  1.00  0.00     0.091 A 
ATOM     56  F   UNL A   1      38.659  30.311  36.251  1.00  0.00    -0.205 F 
ATOM     57  C   UNL A   1      38.546  33.832  37.242  1.00  0.00     0.022 A 
BRANCH  55  58
ATOM     58  S   UNL A   1      37.281  31.808  38.578  1.00  0.00     0.127 S 
ATOM     59  O   UNL A   1      36.128  32.703  38.506  1.00  0.00    -0.237 OA
ATOM     60  O   UNL A   1      37.028  30.441  38.121  1.00  0.00    -0.237 OA
ATOM     61  O   UNL A   1      38.074  31.902  39.795  1.00  0.00    -0.744 OA
ENDBRANCH  55  58
ENDBRANCH  27  51
BRANCH  39  62
ATOM     62  C   UNL A   1      45.030  28.082  33.921  1.00  0.00     0.023 A 
ATOM     63  C   UNL A   1      46.151  28.933  33.876  1.00  0.00     0.012 A 
ATOM     64  C   UNL A   1      45.037  26.972  34.789  1.00  0.00     0.148 A 
ATOM     65  C   UNL A   1      47.267  28.674  34.671  1.00  0.00     0.002 A 
ATOM     66  C   UNL A   1      46.129  26.750  35.617  1.00  0.00     0.091 A 
ATOM     67  F   UNL A   1      43.966  26.164  34.799  1.00  0.00    -0.205 F 
ATOM     68  C   UNL A   1      47.250  27.593  35.551  1.00  0.00     0.022 A 
BRANCH  66  69
ATOM     69  S   UNL A   1      46.152  25.448  36.854  1.00  0.00     0.127 S 
ATOM     70  O   UNL A   1      47.412  25.717  37.545  1.00  0.00    -0.237 OA
ATOM     71  O   UNL A   1      44.951  25.745  37.635  1.00  0.00    -0.237 OA
ATOM     72  O   UNL A   1      46.104  24.191  36.120  1.00  0.00    -0.744 OA
ENDBRANCH  66  69
ENDBRANCH  39  62
ENDBRANCH  13  14
ENDBRANCH   6   8
ENDBRANCH   3   4
ENDBRANCH   2   3
ENDBRANCH   1   2
BRANCH   1  73
ATOM     73  C   UNL A   1      30.735  27.834  23.058  1.00  0.00     0.002 C 
BRANCH  73  74
ATOM     74  C   UNL A   1      31.535  26.744  22.348  1.00  0.00     0.021 C 
BRANCH  74  75
ATOM     75  C   UNL A   1      31.096  25.313  22.663  1.00  0.00     0.116 C 
BRANCH  75  76
ATOM     76  N   UNL A   1      31.957  24.344  22.016  1.00  0.00    -0.355 N 
ATOM     77  C   UNL A   1      33.154  23.794  22.353  1.00  0.00     0.231 C 
ATOM     78  H   UNL A   1      31.603  24.017  21.158  1.00  0.00     0.163 HD
ATOM     79  O   UNL A   1      33.721  23.271  21.382  1.00  0.00    -0.274 OA
BRANCH  77  80
ATOM     80  C   UNL A   1      33.804  23.823  23.812  1.00  0.00     0.080 C 
ATOM     81  C   UNL A   1      34.402  25.245  24.045  1.00  0.00     0.022 C 
ATOM     82  C   UNL A   1      32.638  23.598  24.866  1.00  0.00    -0.029 A 
ATOM     83  C   UNL A   1      34.523  25.736  25.480  1.00  0.00     0.006 C 
ATOM     84  C   UNL A   1      32.413  24.456  25.963  1.00  0.00    -0.044 A 
ATOM     85  C   UNL A   1      31.799  22.462  24.760  1.00  0.00     0.005 A 
ATOM     86  C   UNL A   1      33.195  25.716  26.197  1.00  0.00     0.036 C 
ATOM     87  C   UNL A   1      31.374  24.177  26.876  1.00  0.00     0.004 A 
ATOM     88  C   UNL A   1      30.765  22.204  25.662  1.00  0.00     0.000 A 
ATOM     89  C   UNL A   1      30.555  23.062  26.727  1.00  0.00     0.000 A 
BRANCH  80  90
ATOM     90  C   UNL A   1      34.785  22.583  24.020  1.00  0.00     0.038 C 
ATOM     91  C   UNL A   1      34.955  22.096  25.474  1.00  0.00     0.008 C 
ATOM     92  C   UNL A   1      36.262  22.596  23.602  1.00  0.00     0.119 C 
ATOM     93  C   UNL A   1      36.264  22.709  25.993  1.00  0.00     0.003 C 
ATOM     94  C   UNL A   1      37.013  23.213  24.767  1.00  0.00     0.032 C 
BRANCH  92  95
ATOM     95  O   UNL A   1      36.553  23.191  22.372  1.00  0.00    -0.393 OA
ATOM     96  H   UNL A   1      36.269  24.118  22.387  1.00  0.00     0.210 HD
ENDBRANCH  92  95
ENDBRANCH  80  90
ENDBRANCH  77  80
ENDBRANCH  75  76
ENDBRANCH  74  75
ENDBRANCH  73  74
ENDBRANCH   1  73
TORSDOF 18
ENDMDL
