MODEL 1
REMARK VINA RESULT:     -11.4      0.000      0.000
REMARK SMILES COc1ccccc1Nc1nc(C)c(C(=O)NCCCCCCNC(=O)c2ccc(-c3c4nc(c(-c5cccc(S(=O)(=O)[O-])c5F)c5ccc([nH]5)c(-c5cccc(S(=O)(=O)[O-])c5F)c5nc(c(-c6cccc(S(=O)(=O)[O-])c6F)c6ccc3[nH]6)C=C5)C=C4)cc2)s1
REMARK SMILES IDX 20 1 19 2 18 3 17 4 15 5 16 6 14 8 10 9 11 10 90 11 12 12
REMARK SMILES IDX 13 13 9 14 8 16 3 17 4 18 5 19 7 20 6 21 2 22 1 23 21 24
REMARK SMILES IDX 22 25 23 26 24 27 25 28 26 30 27 31 28 32 89 33 29 34 88 35
REMARK SMILES IDX 30 36 31 37 32 38 82 39 33 40 87 41 81 42 83 43 34 44 86 45
REMARK SMILES IDX 80 46 79 47 35 49 67 50 47 51 66 52 48 53 51 54 65 55 84 56
REMARK SMILES IDX 49 57 50 58 64 60 85 61 52 62 36 63 37 64 45 65 38 66 40 67
REMARK SMILES IDX 46 68 39 69 41 70 42 71 43 72 44 73 68 74 69 75 77 76 70 77
REMARK SMILES IDX 72 78 78 79 71 80 73 81 74 82 75 83 76 84 53 85 54 86 62 87
REMARK SMILES IDX 55 88 57 89 63 90 56 91 58 92 59 93 60 94 61 95
REMARK H PARENT 17 7 9 15 24 29 83 48 51 59
REMARK Flexibility Score: inf
ROOT
ATOM      1  C   UNL A   1      31.788  30.007  25.442  1.00  0.00     0.002 C 
ENDROOT
BRANCH   1   2
ATOM      2  C   UNL A   1      33.069  29.208  25.189  1.00  0.00     0.021 C 
BRANCH   2   3
ATOM      3  C   UNL A   1      33.435  29.095  23.706  1.00  0.00     0.116 C 
BRANCH   3   4
ATOM      4  N   UNL A   1      32.299  28.620  22.956  1.00  0.00    -0.351 N 
ATOM      5  C   UNL A   1      31.627  27.429  22.916  1.00  0.00     0.263 C 
ATOM      6  O   UNL A   1      30.697  27.433  22.098  1.00  0.00    -0.268 OA
ATOM      7  H   UNL A   1      31.929  29.297  22.343  1.00  0.00     0.163 HD
BRANCH   5   8
ATOM      8  C   UNL A   1      31.927  26.271  23.751  1.00  0.00     0.117 A 
ATOM      9  C   UNL A   1      33.111  24.239  24.477  1.00  0.00     0.188 A 
ATOM     10  N   UNL A   1      32.238  24.609  25.373  1.00  0.00    -0.225 NA
ATOM     11  S   UNL A   1      33.004  25.107  23.012  1.00  0.00    -0.091 S 
ATOM     12  C   UNL A   1      31.646  25.818  25.038  1.00  0.00     0.063 A 
ATOM     13  C   UNL A   1      30.897  26.408  26.174  1.00  0.00     0.068 C 
BRANCH   9  14
ATOM     14  N   UNL A   1      33.950  23.215  24.731  1.00  0.00    -0.328 N 
ATOM     15  H   UNL A   1      34.838  23.461  25.077  1.00  0.00     0.169 HD
BRANCH  14  16
ATOM     16  C   UNL A   1      33.713  21.831  24.561  1.00  0.00     0.083 A 
ATOM     17  C   UNL A   1      34.634  20.887  25.065  1.00  0.00     0.142 A 
ATOM     18  C   UNL A   1      34.470  19.524  24.790  1.00  0.00     0.048 A 
ATOM     19  C   UNL A   1      33.375  19.070  24.058  1.00  0.00     0.004 A 
ATOM     20  C   UNL A   1      32.600  21.344  23.851  1.00  0.00     0.030 A 
ATOM     21  C   UNL A   1      32.434  19.980  23.596  1.00  0.00     0.002 A 
BRANCH  17  22
ATOM     22  O   UNL A   1      35.799  21.185  25.728  1.00  0.00    -0.495 OA
ATOM     23  C   UNL A   1      36.987  21.217  24.941  1.00  0.00     0.278 C 
ENDBRANCH  17  22
ENDBRANCH  14  16
ENDBRANCH   9  14
ENDBRANCH   5   8
ENDBRANCH   3   4
ENDBRANCH   2   3
ENDBRANCH   1   2
BRANCH   1  24
ATOM     24  C   UNL A   1      31.706  30.642  26.834  1.00  0.00     0.002 C 
BRANCH  24  25
ATOM     25  C   UNL A   1      31.574  32.169  26.843  1.00  0.00     0.021 C 
BRANCH  25  26
ATOM     26  C   UNL A   1      32.871  32.909  27.161  1.00  0.00     0.116 C 
BRANCH  26  27
ATOM     27  N   UNL A   1      32.608  34.265  27.619  1.00  0.00    -0.352 N 
ATOM     28  C   UNL A   1      33.085  34.914  28.729  1.00  0.00     0.251 C 
ATOM     29  H   UNL A   1      31.999  34.792  27.051  1.00  0.00     0.163 HD
ATOM     30  O   UNL A   1      32.548  35.946  29.115  1.00  0.00    -0.269 OA
BRANCH  28  31
ATOM     31  C   UNL A   1      34.252  34.366  29.454  1.00  0.00     0.039 A 
ATOM     32  C   UNL A   1      34.067  33.804  30.719  1.00  0.00     0.014 A 
ATOM     33  C   UNL A   1      35.532  34.436  28.895  1.00  0.00     0.014 A 
ATOM     34  C   UNL A   1      35.160  33.272  31.407  1.00  0.00     0.010 A 
ATOM     35  C   UNL A   1      36.607  33.847  29.551  1.00  0.00     0.010 A 
ATOM     36  C   UNL A   1      36.436  33.270  30.819  1.00  0.00    -0.014 A 
BRANCH  36  37
ATOM     37  C   UNL A   1      37.606  32.671  31.508  1.00  0.00     0.031 A 
ATOM     38  C   UNL A   1      38.353  31.527  30.875  1.00  0.00     0.074 A 
ATOM     39  C   UNL A   1      37.931  33.089  32.749  1.00  0.00     0.049 A 
ATOM     40  N   UNL A   1      39.347  30.827  31.355  1.00  0.00    -0.248 NA
ATOM     41  C   UNL A   1      37.905  31.094  29.541  1.00  0.00     0.031 C 
ATOM     42  C   UNL A   1      37.229  34.131  33.501  1.00  0.00     0.029 A 
ATOM     43  N   UNL A   1      38.911  32.662  33.609  1.00  0.00    -0.354 N 
ATOM     44  C   UNL A   1      39.611  29.843  30.410  1.00  0.00     0.074 A 
ATOM     45  C   UNL A   1      38.661  30.023  29.335  1.00  0.00     0.031 C 
ATOM     46  C   UNL A   1      37.796  34.258  34.712  1.00  0.00     0.029 A 
ATOM     47  C   UNL A   1      38.881  33.289  34.834  1.00  0.00     0.049 A 
ATOM     48  H   UNL A   1      39.573  31.972  33.373  1.00  0.00     0.167 HD
ATOM     49  C   UNL A   1      40.572  28.890  30.425  1.00  0.00     0.034 A 
ATOM     50  C   UNL A   1      39.634  33.096  35.935  1.00  0.00     0.034 A 
ATOM     51  C   UNL A   1      41.555  28.756  31.467  1.00  0.00     0.049 A 
ATOM     52  C   UNL A   1      40.738  32.073  35.894  1.00  0.00     0.074 A 
ATOM     53  C   UNL A   1      42.643  27.904  31.516  1.00  0.00     0.029 A 
ATOM     54  N   UNL A   1      41.562  29.485  32.645  1.00  0.00    -0.354 N 
ATOM     55  N   UNL A   1      41.090  31.278  34.914  1.00  0.00    -0.248 NA
ATOM     56  C   UNL A   1      41.573  31.948  37.098  1.00  0.00     0.031 C 
ATOM     57  C   UNL A   1      43.295  28.099  32.737  1.00  0.00     0.029 A 
ATOM     58  C   UNL A   1      42.628  29.093  33.435  1.00  0.00     0.049 A 
ATOM     59  H   UNL A   1      40.906  30.179  32.885  1.00  0.00     0.167 HD
ATOM     60  C   UNL A   1      42.209  30.589  35.365  1.00  0.00     0.074 A 
ATOM     61  C   UNL A   1      42.488  31.074  36.701  1.00  0.00     0.031 C 
ATOM     62  C   UNL A   1      42.931  29.629  34.736  1.00  0.00     0.034 A 
BRANCH  49  63
ATOM     63  C   UNL A   1      40.652  27.943  29.257  1.00  0.00     0.023 A 
ATOM     64  C   UNL A   1      39.767  26.848  29.185  1.00  0.00     0.012 A 
ATOM     65  C   UNL A   1      41.541  28.185  28.192  1.00  0.00     0.148 A 
ATOM     66  C   UNL A   1      39.785  25.991  28.084  1.00  0.00     0.002 A 
ATOM     67  C   UNL A   1      41.523  27.353  27.078  1.00  0.00     0.091 A 
ATOM     68  F   UNL A   1      42.388  29.219  28.289  1.00  0.00    -0.205 F 
ATOM     69  C   UNL A   1      40.654  26.252  27.027  1.00  0.00     0.022 A 
BRANCH  67  70
ATOM     70  S   UNL A   1      42.544  27.651  25.630  1.00  0.00     0.127 S 
ATOM     71  O   UNL A   1      42.290  26.447  24.839  1.00  0.00    -0.237 OA
ATOM     72  O   UNL A   1      41.954  28.874  25.084  1.00  0.00    -0.237 OA
ATOM     73  O   UNL A   1      43.906  27.799  26.121  1.00  0.00    -0.744 OA
ENDBRANCH  67  70
ENDBRANCH  49  63
BRANCH  50  74
ATOM     74  C   UNL A   1      39.412  33.932  37.149  1.00  0.00     0.023 A 
ATOM     75  C   UNL A   1      39.821  35.280  37.145  1.00  0.00     0.012 A 
ATOM     76  C   UNL A   1      38.788  33.409  38.297  1.00  0.00     0.148 A 
ATOM     77  C   UNL A   1      39.649  36.080  38.275  1.00  0.00     0.002 A 
ATOM     78  C   UNL A   1      38.566  34.227  39.399  1.00  0.00     0.091 A 
ATOM     79  F   UNL A   1      38.416  32.121  38.289  1.00  0.00    -0.205 F 
ATOM     80  C   UNL A   1      39.013  35.558  39.398  1.00  0.00     0.022 A 
BRANCH  78  81
ATOM     81  S   UNL A   1      37.635  33.672  40.831  1.00  0.00     0.127 S 
ATOM     82  O   UNL A   1      37.431  34.920  41.559  1.00  0.00    -0.237 OA
ATOM     83  O   UNL A   1      36.430  33.114  40.214  1.00  0.00    -0.237 OA
ATOM     84  O   UNL A   1      38.482  32.682  41.483  1.00  0.00    -0.744 OA
ENDBRANCH  78  81
ENDBRANCH  50  74
BRANCH  62  85
ATOM     85  C   UNL A   1      44.127  29.065  35.458  1.00  0.00     0.023 A 
ATOM     86  C   UNL A   1      45.402  29.624  35.246  1.00  0.00     0.012 A 
ATOM     87  C   UNL A   1      43.970  28.038  36.408  1.00  0.00     0.148 A 
ATOM     88  C   UNL A   1      46.508  29.148  35.948  1.00  0.00     0.002 A 
ATOM     89  C   UNL A   1      45.068  27.603  37.141  1.00  0.00     0.091 A 
ATOM     90  F   UNL A   1      42.751  27.507  36.581  1.00  0.00    -0.205 F 
ATOM     91  C   UNL A   1      46.339  28.149  36.903  1.00  0.00     0.022 A 
BRANCH  89  92
ATOM     92  S   UNL A   1      44.925  26.393  38.460  1.00  0.00     0.127 S 
ATOM     93  O   UNL A   1      43.783  25.597  38.012  1.00  0.00    -0.237 OA
ATOM     94  O   UNL A   1      46.214  25.702  38.390  1.00  0.00    -0.237 OA
ATOM     95  O   UNL A   1      44.716  27.155  39.683  1.00  0.00    -0.744 OA
ENDBRANCH  89  92
ENDBRANCH  62  85
ENDBRANCH  36  37
ENDBRANCH  28  31
ENDBRANCH  26  27
ENDBRANCH  25  26
ENDBRANCH  24  25
ENDBRANCH   1  24
TORSDOF 19
ENDMDL
MODEL 2
REMARK VINA RESULT:     -11.0      2.462      8.246
REMARK SMILES COc1ccccc1Nc1nc(C)c(C(=O)NCCCCCCNC(=O)c2ccc(-c3c4nc(c(-c5cccc(S(=O)(=O)[O-])c5F)c5ccc([nH]5)c(-c5cccc(S(=O)(=O)[O-])c5F)c5nc(c(-c6cccc(S(=O)(=O)[O-])c6F)c6ccc3[nH]6)C=C5)C=C4)cc2)s1
REMARK SMILES IDX 20 1 19 2 18 3 17 4 15 5 16 6 14 8 10 9 11 10 90 11 12 12
REMARK SMILES IDX 13 13 9 14 8 16 3 17 4 18 5 19 7 20 6 21 2 22 1 23 21 24
REMARK SMILES IDX 22 25 23 26 24 27 25 28 26 30 27 31 28 32 89 33 29 34 88 35
REMARK SMILES IDX 30 36 31 37 32 38 82 39 33 40 87 41 81 42 83 43 34 44 86 45
REMARK SMILES IDX 80 46 79 47 35 49 67 50 47 51 66 52 48 53 51 54 65 55 84 56
REMARK SMILES IDX 49 57 50 58 64 60 85 61 52 62 36 63 37 64 45 65 38 66 40 67
REMARK SMILES IDX 46 68 39 69 41 70 42 71 43 72 44 73 68 74 69 75 77 76 70 77
REMARK SMILES IDX 72 78 78 79 71 80 73 81 74 82 75 83 76 84 53 85 54 86 62 87
REMARK SMILES IDX 55 88 57 89 63 90 56 91 58 92 59 93 60 94 61 95
REMARK H PARENT 17 7 9 15 24 29 83 48 51 59
REMARK Flexibility Score: inf
ROOT
ATOM      1  C   UNL A   1      32.060  25.479  26.113  1.00  0.00     0.002 C 
ENDROOT
BRANCH   1   2
ATOM      2  C   UNL A   1      31.101  25.544  24.921  1.00  0.00     0.021 C 
BRANCH   2   3
ATOM      3  C   UNL A   1      31.074  24.259  24.089  1.00  0.00     0.116 C 
BRANCH   3   4
ATOM      4  N   UNL A   1      31.924  24.403  22.934  1.00  0.00    -0.351 N 
ATOM      5  C   UNL A   1      33.111  23.834  22.561  1.00  0.00     0.263 C 
ATOM      6  O   UNL A   1      33.525  24.260  21.474  1.00  0.00    -0.268 OA
ATOM      7  H   UNL A   1      31.577  25.047  22.275  1.00  0.00     0.163 HD
BRANCH   5   8
ATOM      8  C   UNL A   1      33.825  22.814  23.321  1.00  0.00     0.117 A 
ATOM      9  C   UNL A   1      35.671  21.813  24.605  1.00  0.00     0.188 A 
ATOM     10  N   UNL A   1      34.623  21.037  24.623  1.00  0.00    -0.225 NA
ATOM     11  S   UNL A   1      35.533  23.132  23.532  1.00  0.00    -0.091 S 
ATOM     12  C   UNL A   1      33.535  21.637  24.007  1.00  0.00     0.063 A 
ATOM     13  C   UNL A   1      32.267  20.921  24.289  1.00  0.00     0.068 C 
BRANCH   9  14
ATOM     14  N   UNL A   1      36.754  21.506  25.347  1.00  0.00    -0.328 N 
ATOM     15  H   UNL A   1      36.867  20.555  25.573  1.00  0.00     0.169 HD
BRANCH  14  16
ATOM     16  C   UNL A   1      37.748  22.382  25.842  1.00  0.00     0.083 A 
ATOM     17  C   UNL A   1      39.065  21.917  26.046  1.00  0.00     0.142 A 
ATOM     18  C   UNL A   1      40.020  22.742  26.654  1.00  0.00     0.048 A 
ATOM     19  C   UNL A   1      39.703  24.047  27.025  1.00  0.00     0.004 A 
ATOM     20  C   UNL A   1      37.463  23.714  26.198  1.00  0.00     0.030 A 
ATOM     21  C   UNL A   1      38.426  24.536  26.789  1.00  0.00     0.002 A 
BRANCH  17  22
ATOM     22  O   UNL A   1      39.505  20.637  25.810  1.00  0.00    -0.495 OA
ATOM     23  C   UNL A   1      40.673  20.227  26.516  1.00  0.00     0.278 C 
ENDBRANCH  17  22
ENDBRANCH  14  16
ENDBRANCH   9  14
ENDBRANCH   5   8
ENDBRANCH   3   4
ENDBRANCH   2   3
ENDBRANCH   1   2
BRANCH   1  24
ATOM     24  C   UNL A   1      33.295  26.377  25.978  1.00  0.00     0.002 C 
BRANCH  24  25
ATOM     25  C   UNL A   1      33.031  27.754  25.360  1.00  0.00     0.021 C 
BRANCH  25  26
ATOM     26  C   UNL A   1      34.162  28.760  25.558  1.00  0.00     0.116 C 
BRANCH  26  27
ATOM     27  N   UNL A   1      33.645  30.086  25.860  1.00  0.00    -0.352 N 
ATOM     28  C   UNL A   1      33.877  30.878  26.956  1.00  0.00     0.251 C 
ATOM     29  H   UNL A   1      33.041  30.468  25.183  1.00  0.00     0.163 HD
ATOM     30  O   UNL A   1      33.148  31.837  27.185  1.00  0.00    -0.269 OA
BRANCH  28  31
ATOM     31  C   UNL A   1      35.011  30.574  27.855  1.00  0.00     0.039 A 
ATOM     32  C   UNL A   1      35.053  29.339  28.506  1.00  0.00     0.014 A 
ATOM     33  C   UNL A   1      36.015  31.521  28.076  1.00  0.00     0.014 A 
ATOM     34  C   UNL A   1      36.126  29.037  29.348  1.00  0.00     0.010 A 
ATOM     35  C   UNL A   1      37.116  31.194  28.861  1.00  0.00     0.010 A 
ATOM     36  C   UNL A   1      37.178  29.953  29.514  1.00  0.00    -0.014 A 
BRANCH  36  37
ATOM     37  C   UNL A   1      38.352  29.639  30.367  1.00  0.00     0.031 A 
ATOM     38  C   UNL A   1      38.509  30.301  31.710  1.00  0.00     0.074 A 
ATOM     39  C   UNL A   1      39.326  28.839  29.887  1.00  0.00     0.049 A 
ATOM     40  N   UNL A   1      39.498  30.214  32.560  1.00  0.00    -0.248 NA
ATOM     41  C   UNL A   1      37.428  31.203  32.142  1.00  0.00     0.031 C 
ATOM     42  C   UNL A   1      39.327  28.207  28.567  1.00  0.00     0.029 A 
ATOM     43  N   UNL A   1      40.519  28.451  30.442  1.00  0.00    -0.354 N 
ATOM     44  C   UNL A   1      39.186  31.082  33.600  1.00  0.00     0.074 A 
ATOM     45  C   UNL A   1      37.923  31.702  33.267  1.00  0.00     0.031 C 
ATOM     46  C   UNL A   1      40.467  27.517  28.410  1.00  0.00     0.029 A 
ATOM     47  C   UNL A   1      41.290  27.678  29.604  1.00  0.00     0.049 A 
ATOM     48  H   UNL A   1      40.797  28.701  31.353  1.00  0.00     0.167 HD
ATOM     49  C   UNL A   1      39.876  31.323  34.738  1.00  0.00     0.034 A 
ATOM     50  C   UNL A   1      42.527  27.169  29.774  1.00  0.00     0.034 A 
ATOM     51  C   UNL A   1      41.099  30.655  35.093  1.00  0.00     0.049 A 
ATOM     52  C   UNL A   1      43.239  27.402  31.080  1.00  0.00     0.074 A 
ATOM     53  C   UNL A   1      41.810  30.738  36.277  1.00  0.00     0.029 A 
ATOM     54  N   UNL A   1      41.797  29.791  34.266  1.00  0.00    -0.354 N 
ATOM     55  N   UNL A   1      42.838  28.078  32.129  1.00  0.00    -0.248 NA
ATOM     56  C   UNL A   1      44.557  26.770  31.241  1.00  0.00     0.031 C 
ATOM     57  C   UNL A   1      42.954  29.943  36.155  1.00  0.00     0.029 A 
ATOM     58  C   UNL A   1      42.940  29.344  34.906  1.00  0.00     0.049 A 
ATOM     59  H   UNL A   1      41.522  29.533  33.356  1.00  0.00     0.167 HD
ATOM     60  C   UNL A   1      43.833  27.920  33.086  1.00  0.00     0.074 A 
ATOM     61  C   UNL A   1      44.847  27.068  32.500  1.00  0.00     0.031 C 
ATOM     62  C   UNL A   1      43.908  28.446  34.334  1.00  0.00     0.034 A 
BRANCH  49  63
ATOM     63  C   UNL A   1      39.305  32.313  35.719  1.00  0.00     0.023 A 
ATOM     64  C   UNL A   1      38.279  31.912  36.600  1.00  0.00     0.012 A 
ATOM     65  C   UNL A   1      39.840  33.612  35.827  1.00  0.00     0.148 A 
ATOM     66  C   UNL A   1      37.776  32.797  37.553  1.00  0.00     0.002 A 
ATOM     67  C   UNL A   1      39.364  34.473  36.809  1.00  0.00     0.091 A 
ATOM     68  F   UNL A   1      40.799  33.981  34.966  1.00  0.00    -0.205 F 
ATOM     69  C   UNL A   1      38.327  34.070  37.665  1.00  0.00     0.022 A 
BRANCH  67  70
ATOM     70  S   UNL A   1      40.062  36.105  37.088  1.00  0.00     0.127 S 
ATOM     71  O   UNL A   1      41.474  35.788  37.301  1.00  0.00    -0.237 OA
ATOM     72  O   UNL A   1      39.775  36.782  35.823  1.00  0.00    -0.237 OA
ATOM     73  O   UNL A   1      39.364  36.649  38.243  1.00  0.00    -0.744 OA
ENDBRANCH  67  70
ENDBRANCH  49  63
BRANCH  50  74
ATOM     74  C   UNL A   1      43.146  26.336  28.704  1.00  0.00     0.023 A 
ATOM     75  C   UNL A   1      42.798  24.975  28.599  1.00  0.00     0.012 A 
ATOM     76  C   UNL A   1      44.061  26.882  27.785  1.00  0.00     0.148 A 
ATOM     77  C   UNL A   1      43.380  24.164  27.624  1.00  0.00     0.002 A 
ATOM     78  C   UNL A   1      44.594  26.082  26.779  1.00  0.00     0.091 A 
ATOM     79  F   UNL A   1      44.391  28.175  27.906  1.00  0.00    -0.205 F 
ATOM     80  C   UNL A   1      44.269  24.719  26.708  1.00  0.00     0.022 A 
BRANCH  78  81
ATOM     81  S   UNL A   1      45.639  26.750  25.480  1.00  0.00     0.127 S 
ATOM     82  O   UNL A   1      45.844  25.581  24.630  1.00  0.00    -0.237 OA
ATOM     83  O   UNL A   1      44.784  27.789  24.903  1.00  0.00    -0.237 OA
ATOM     84  O   UNL A   1      46.821  27.262  26.159  1.00  0.00    -0.744 OA
ENDBRANCH  78  81
ENDBRANCH  50  74
BRANCH  62  85
ATOM     85  C   UNL A   1      45.101  28.082  35.178  1.00  0.00     0.023 A 
ATOM     86  C   UNL A   1      46.250  28.898  35.156  1.00  0.00     0.012 A 
ATOM     87  C   UNL A   1      45.049  26.981  36.055  1.00  0.00     0.148 A 
ATOM     88  C   UNL A   1      47.340  28.605  35.974  1.00  0.00     0.002 A 
ATOM     89  C   UNL A   1      46.119  26.725  36.902  1.00  0.00     0.091 A 
ATOM     90  F   UNL A   1      43.954  26.208  36.046  1.00  0.00    -0.205 F 
ATOM     91  C   UNL A   1      47.270  27.528  36.854  1.00  0.00     0.022 A 
BRANCH  89  92
ATOM     92  S   UNL A   1      46.076  25.422  38.138  1.00  0.00     0.127 S 
ATOM     93  O   UNL A   1      44.648  25.349  38.443  1.00  0.00    -0.237 OA
ATOM     94  O   UNL A   1      46.601  24.273  37.398  1.00  0.00    -0.237 OA
ATOM     95  O   UNL A   1      46.927  25.876  39.230  1.00  0.00    -0.744 OA
ENDBRANCH  89  92
ENDBRANCH  62  85
ENDBRANCH  36  37
ENDBRANCH  28  31
ENDBRANCH  26  27
ENDBRANCH  25  26
ENDBRANCH  24  25
ENDBRANCH   1  24
TORSDOF 19
ENDMDL
MODEL 3
REMARK VINA RESULT:     -10.9      2.797      4.295
REMARK SMILES COc1ccccc1Nc1nc(C)c(C(=O)NCCCCCCNC(=O)c2ccc(-c3c4nc(c(-c5cccc(S(=O)(=O)[O-])c5F)c5ccc([nH]5)c(-c5cccc(S(=O)(=O)[O-])c5F)c5nc(c(-c6cccc(S(=O)(=O)[O-])c6F)c6ccc3[nH]6)C=C5)C=C4)cc2)s1
REMARK SMILES IDX 20 1 19 2 18 3 17 4 15 5 16 6 14 8 10 9 11 10 90 11 12 12
REMARK SMILES IDX 13 13 9 14 8 16 3 17 4 18 5 19 7 20 6 21 2 22 1 23 21 24
REMARK SMILES IDX 22 25 23 26 24 27 25 28 26 30 27 31 28 32 89 33 29 34 88 35
REMARK SMILES IDX 30 36 31 37 32 38 82 39 33 40 87 41 81 42 83 43 34 44 86 45
REMARK SMILES IDX 80 46 79 47 35 49 67 50 47 51 66 52 48 53 51 54 65 55 84 56
REMARK SMILES IDX 49 57 50 58 64 60 85 61 52 62 36 63 37 64 45 65 38 66 40 67
REMARK SMILES IDX 46 68 39 69 41 70 42 71 43 72 44 73 68 74 69 75 77 76 70 77
REMARK SMILES IDX 72 78 78 79 71 80 73 81 74 82 75 83 76 84 53 85 54 86 62 87
REMARK SMILES IDX 55 88 57 89 63 90 56 91 58 92 59 93 60 94 61 95
REMARK H PARENT 17 7 9 15 24 29 83 48 51 59
REMARK Flexibility Score: inf
ROOT
ATOM      1  C   UNL A   1      33.674  26.166  24.732  1.00  0.00     0.002 C 
ENDROOT
BRANCH   1   2
ATOM      2  C   UNL A   1      32.470  25.659  25.531  1.00  0.00     0.021 C 
BRANCH   2   3
ATOM      3  C   UNL A   1      32.219  24.157  25.367  1.00  0.00     0.116 C 
BRANCH   3   4
ATOM      4  N   UNL A   1      32.363  23.783  23.983  1.00  0.00    -0.351 N 
ATOM      5  C   UNL A   1      33.264  23.009  23.304  1.00  0.00     0.263 C 
ATOM      6  O   UNL A   1      33.033  22.961  22.089  1.00  0.00    -0.268 OA
ATOM      7  H   UNL A   1      31.664  24.165  23.404  1.00  0.00     0.163 HD
BRANCH   5   8
ATOM      8  C   UNL A   1      34.370  22.282  23.917  1.00  0.00     0.117 A 
ATOM      9  C   UNL A   1      36.695  21.822  24.583  1.00  0.00     0.188 A 
ATOM     10  N   UNL A   1      35.880  20.963  25.130  1.00  0.00    -0.225 NA
ATOM     11  S   UNL A   1      35.957  22.825  23.417  1.00  0.00    -0.091 S 
ATOM     12  C   UNL A   1      34.556  21.278  24.864  1.00  0.00     0.063 A 
ATOM     13  C   UNL A   1      33.616  20.515  25.722  1.00  0.00     0.068 C 
BRANCH   9  14
ATOM     14  N   UNL A   1      38.002  21.820  24.912  1.00  0.00    -0.328 N 
ATOM     15  H   UNL A   1      38.564  21.163  24.441  1.00  0.00     0.169 HD
BRANCH  14  16
ATOM     16  C   UNL A   1      38.666  22.643  25.852  1.00  0.00     0.083 A 
ATOM     17  C   UNL A   1      39.807  22.164  26.532  1.00  0.00     0.142 A 
ATOM     18  C   UNL A   1      40.391  22.924  27.553  1.00  0.00     0.048 A 
ATOM     19  C   UNL A   1      39.889  24.181  27.883  1.00  0.00     0.004 A 
ATOM     20  C   UNL A   1      38.197  23.927  26.185  1.00  0.00     0.030 A 
ATOM     21  C   UNL A   1      38.797  24.687  27.193  1.00  0.00     0.002 A 
BRANCH  17  22
ATOM     22  O   UNL A   1      40.364  20.919  26.376  1.00  0.00    -0.495 OA
ATOM     23  C   UNL A   1      41.077  20.398  27.496  1.00  0.00     0.278 C 
ENDBRANCH  17  22
ENDBRANCH  14  16
ENDBRANCH   9  14
ENDBRANCH   5   8
ENDBRANCH   3   4
ENDBRANCH   2   3
ENDBRANCH   1   2
BRANCH   1  24
ATOM     24  C   UNL A   1      33.312  27.090  23.565  1.00  0.00     0.002 C 
BRANCH  24  25
ATOM     25  C   UNL A   1      33.416  28.589  23.867  1.00  0.00     0.021 C 
BRANCH  25  26
ATOM     26  C   UNL A   1      33.875  28.913  25.286  1.00  0.00     0.116 C 
BRANCH  26  27
ATOM     27  N   UNL A   1      33.172  30.071  25.818  1.00  0.00    -0.352 N 
ATOM     28  C   UNL A   1      33.443  30.809  26.943  1.00  0.00     0.251 C 
ATOM     29  H   UNL A   1      32.390  30.366  25.298  1.00  0.00     0.163 HD
ATOM     30  O   UNL A   1      32.596  31.569  27.397  1.00  0.00    -0.269 OA
BRANCH  28  31
ATOM     31  C   UNL A   1      34.762  30.686  27.600  1.00  0.00     0.039 A 
ATOM     32  C   UNL A   1      35.581  31.812  27.703  1.00  0.00     0.014 A 
ATOM     33  C   UNL A   1      35.200  29.450  28.087  1.00  0.00     0.014 A 
ATOM     34  C   UNL A   1      36.824  31.710  28.334  1.00  0.00     0.010 A 
ATOM     35  C   UNL A   1      36.407  29.365  28.772  1.00  0.00     0.010 A 
ATOM     36  C   UNL A   1      37.237  30.490  28.893  1.00  0.00    -0.014 A 
BRANCH  36  37
ATOM     37  C   UNL A   1      38.532  30.364  29.607  1.00  0.00     0.031 A 
ATOM     38  C   UNL A   1      39.641  29.532  29.021  1.00  0.00     0.074 A 
ATOM     39  C   UNL A   1      38.671  30.913  30.831  1.00  0.00     0.049 A 
ATOM     40  N   UNL A   1      40.810  29.242  29.529  1.00  0.00    -0.248 NA
ATOM     41  C   UNL A   1      39.394  28.921  27.703  1.00  0.00     0.031 C 
ATOM     42  C   UNL A   1      37.638  31.670  31.541  1.00  0.00     0.029 A 
ATOM     43  N   UNL A   1      39.726  30.888  31.709  1.00  0.00    -0.354 N 
ATOM     44  C   UNL A   1      41.416  28.379  28.624  1.00  0.00     0.074 A 
ATOM     45  C   UNL A   1      40.480  28.176  27.541  1.00  0.00     0.031 C 
ATOM     46  C   UNL A   1      38.107  32.031  32.746  1.00  0.00     0.029 A 
ATOM     47  C   UNL A   1      39.459  31.509  32.908  1.00  0.00     0.049 A 
ATOM     48  H   UNL A   1      40.591  30.466  31.501  1.00  0.00     0.167 HD
ATOM     49  C   UNL A   1      42.650  27.825  28.678  1.00  0.00     0.034 A 
ATOM     50  C   UNL A   1      40.216  31.632  34.017  1.00  0.00     0.034 A 
ATOM     51  C   UNL A   1      43.601  28.081  29.725  1.00  0.00     0.049 A 
ATOM     52  C   UNL A   1      41.608  31.060  34.018  1.00  0.00     0.074 A 
ATOM     53  C   UNL A   1      44.918  27.666  29.809  1.00  0.00     0.029 A 
ATOM     54  N   UNL A   1      43.335  28.808  30.874  1.00  0.00    -0.354 N 
ATOM     55  N   UNL A   1      42.231  30.403  33.070  1.00  0.00    -0.248 NA
ATOM     56  C   UNL A   1      42.416  31.278  35.227  1.00  0.00     0.031 C 
ATOM     57  C   UNL A   1      45.442  28.121  31.023  1.00  0.00     0.029 A 
ATOM     58  C   UNL A   1      44.459  28.843  31.681  1.00  0.00     0.049 A 
ATOM     59  H   UNL A   1      42.474  29.237  31.085  1.00  0.00     0.167 HD
ATOM     60  C   UNL A   1      43.513  30.166  33.550  1.00  0.00     0.074 A 
ATOM     61  C   UNL A   1      43.585  30.766  34.866  1.00  0.00     0.031 C 
ATOM     62  C   UNL A   1      44.536  29.498  32.960  1.00  0.00     0.034 A 
BRANCH  49  63
ATOM     63  C   UNL A   1      43.073  26.923  27.547  1.00  0.00     0.023 A 
ATOM     64  C   UNL A   1      43.337  27.474  26.277  1.00  0.00     0.012 A 
ATOM     65  C   UNL A   1      43.292  25.549  27.764  1.00  0.00     0.148 A 
ATOM     66  C   UNL A   1      43.785  26.666  25.232  1.00  0.00     0.002 A 
ATOM     67  C   UNL A   1      43.781  24.759  26.731  1.00  0.00     0.091 A 
ATOM     68  F   UNL A   1      43.015  25.041  28.974  1.00  0.00    -0.205 F 
ATOM     69  C   UNL A   1      44.018  25.313  25.463  1.00  0.00     0.022 A 
BRANCH  67  70
ATOM     70  S   UNL A   1      44.192  23.023  26.949  1.00  0.00     0.127 S 
ATOM     71  O   UNL A   1      43.464  22.407  25.840  1.00  0.00    -0.237 OA
ATOM     72  O   UNL A   1      45.647  23.030  26.793  1.00  0.00    -0.237 OA
ATOM     73  O   UNL A   1      43.725  22.663  28.280  1.00  0.00    -0.744 OA
ENDBRANCH  67  70
ENDBRANCH  49  63
BRANCH  50  74
ATOM     74  C   UNL A   1      39.696  32.381  35.196  1.00  0.00     0.023 A 
ATOM     75  C   UNL A   1      38.828  31.735  36.097  1.00  0.00     0.012 A 
ATOM     76  C   UNL A   1      40.066  33.717  35.439  1.00  0.00     0.148 A 
ATOM     77  C   UNL A   1      38.305  32.418  37.196  1.00  0.00     0.002 A 
ATOM     78  C   UNL A   1      39.587  34.374  36.567  1.00  0.00     0.091 A 
ATOM     79  F   UNL A   1      40.883  34.321  34.565  1.00  0.00    -0.205 F 
ATOM     80  C   UNL A   1      38.692  33.733  37.437  1.00  0.00     0.022 A 
BRANCH  78  81
ATOM     81  S   UNL A   1      40.143  36.020  37.023  1.00  0.00     0.127 S 
ATOM     82  O   UNL A   1      41.578  35.815  37.198  1.00  0.00    -0.237 OA
ATOM     83  O   UNL A   1      39.772  36.806  35.845  1.00  0.00    -0.237 OA
ATOM     84  O   UNL A   1      39.395  36.362  38.226  1.00  0.00    -0.744 OA
ENDBRANCH  78  81
ENDBRANCH  50  74
BRANCH  62  85
ATOM     85  C   UNL A   1      45.842  29.415  33.705  1.00  0.00     0.023 A 
ATOM     86  C   UNL A   1      46.815  30.417  33.528  1.00  0.00     0.012 A 
ATOM     87  C   UNL A   1      46.066  28.388  34.643  1.00  0.00     0.148 A 
ATOM     88  C   UNL A   1      48.006  30.382  34.253  1.00  0.00     0.002 A 
ATOM     89  C   UNL A   1      47.233  28.388  35.397  1.00  0.00     0.091 A 
ATOM     90  F   UNL A   1      45.135  27.434  34.783  1.00  0.00    -0.205 F 
ATOM     91  C   UNL A   1      48.209  29.377  35.195  1.00  0.00     0.022 A 
BRANCH  89  92
ATOM     92  S   UNL A   1      47.533  27.192  36.703  1.00  0.00     0.127 S 
ATOM     93  O   UNL A   1      48.388  27.952  37.613  1.00  0.00    -0.237 OA
ATOM     94  O   UNL A   1      46.182  26.934  37.206  1.00  0.00    -0.237 OA
ATOM     95  O   UNL A   1      48.164  26.046  36.060  1.00  0.00    -0.744 OA
ENDBRANCH  89  92
ENDBRANCH  62  85
ENDBRANCH  36  37
ENDBRANCH  28  31
ENDBRANCH  26  27
ENDBRANCH  25  26
ENDBRANCH  24  25
ENDBRANCH   1  24
TORSDOF 19
ENDMDL
