MODEL 1
REMARK VINA RESULT:     -11.0      0.000      0.000
REMARK SMILES Cc1ccc(-c2nn(CCC(=O)NCCCCCCNC(=O)c3ccc(-c4c5nc(c(-c6cccc(S(=O)(=O)[O-])c6F)c6ccc([nH]6)c(-c6cccc(S(=O)(=O)[O-])c6F)c6nc(c(-c7cccc(S(=O)(=O)[O-])c7F)c7ccc4[nH]7)C=C6)C=C5)cc3)c(=O)c3noc(C)c23)cc1C
REMARK SMILES IDX 16 1 15 2 14 3 13 4 11 5 12 6 10 8 9 9 8 10 6 11 7 12 93 13
REMARK SMILES IDX 88 14 91 15 86 16 89 17 90 18 92 19 87 20 5 21 1 22 2 23
REMARK SMILES IDX 3 24 95 25 4 26 94 27 96 28 17 29 18 30 19 31 20 32 21 33
REMARK SMILES IDX 22 35 23 36 24 37 85 38 25 39 84 40 26 41 27 42 28 43 78 44
REMARK SMILES IDX 29 45 83 46 77 47 79 48 30 49 82 50 76 51 75 52 31 54 63 55
REMARK SMILES IDX 43 56 62 57 44 58 47 59 61 60 80 61 45 62 46 63 60 65 81 66
REMARK SMILES IDX 48 67 32 68 33 69 41 70 34 71 36 72 42 73 35 74 37 75 38 76
REMARK SMILES IDX 39 77 40 78 64 79 65 80 73 81 66 82 68 83 74 84 67 85 69 86
REMARK SMILES IDX 70 87 71 88 72 89 49 90 50 91 58 92 51 93 53 94 59 95 52 96
REMARK SMILES IDX 54 97 55 98 56 99 57 100
REMARK H PARENT 13 7 20 34 79 53 47 64
REMARK Flexibility Score: inf
ROOT
ATOM      1  C   UNL A   1      44.422  25.195  32.579  1.00  0.00     0.002 C 
ENDROOT
BRANCH   1   2
ATOM      2  C   UNL A   1      44.379  24.940  31.072  1.00  0.00     0.021 C 
BRANCH   2   3
ATOM      3  C   UNL A   1      43.875  23.581  30.584  1.00  0.00     0.116 C 
BRANCH   3   4
ATOM      4  N   UNL A   1      44.283  23.329  29.210  1.00  0.00    -0.356 N 
ATOM      5  C   UNL A   1      43.598  22.776  28.170  1.00  0.00     0.221 C 
ATOM      6  O   UNL A   1      44.202  22.577  27.113  1.00  0.00    -0.275 OA
ATOM      7  H   UNL A   1      45.205  23.602  28.996  1.00  0.00     0.163 HD
BRANCH   5   8
ATOM      8  C   UNL A   1      42.117  22.469  28.274  1.00  0.00     0.124 C 
BRANCH   8   9
ATOM      9  C   UNL A   1      41.258  23.289  27.316  1.00  0.00     0.158 C 
BRANCH   9  10
ATOM     10  N   UNL A   1      40.225  22.510  26.635  1.00  0.00    -0.227 N 
ATOM     11  C   UNL A   1      38.043  22.560  25.745  1.00  0.00     0.104 A 
ATOM     12  N   UNL A   1      39.016  23.195  26.340  1.00  0.00    -0.169 NA
ATOM     13  C   UNL A   1      38.155  21.151  25.508  1.00  0.00     0.078 A 
ATOM     14  C   UNL A   1      39.388  20.508  25.642  1.00  0.00     0.183 A 
ATOM     15  C   UNL A   1      37.264  20.156  25.187  1.00  0.00     0.143 A 
ATOM     16  C   UNL A   1      40.546  21.206  26.172  1.00  0.00     0.296 A 
ATOM     17  N   UNL A   1      39.297  19.200  25.376  1.00  0.00    -0.074 NA
ATOM     18  O   UNL A   1      37.956  18.982  25.080  1.00  0.00    -0.360 OA
ATOM     19  C   UNL A   1      35.801  20.071  25.002  1.00  0.00     0.091 C 
ATOM     20  O   UNL A   1      41.653  20.698  26.288  1.00  0.00    -0.265 OA
BRANCH  11  21
ATOM     21  C   UNL A   1      36.899  23.248  25.127  1.00  0.00     0.003 A 
ATOM     22  C   UNL A   1      33.228  24.212  23.108  1.00  0.00     0.044 C 
ATOM     23  C   UNL A   1      34.509  23.942  23.854  1.00  0.00    -0.048 A 
ATOM     24  C   UNL A   1      35.582  23.415  23.119  1.00  0.00     0.004 A 
ATOM     25  C   UNL A   1      34.638  24.121  25.250  1.00  0.00    -0.048 A 
ATOM     26  C   UNL A   1      36.772  23.073  23.747  1.00  0.00     0.011 A 
ATOM     27  C   UNL A   1      35.855  23.790  25.880  1.00  0.00     0.014 A 
ATOM     28  C   UNL A   1      33.473  24.527  26.113  1.00  0.00     0.044 C 
ENDBRANCH  11  21
ENDBRANCH   9  10
ENDBRANCH   8   9
ENDBRANCH   5   8
ENDBRANCH   3   4
ENDBRANCH   2   3
ENDBRANCH   1   2
BRANCH   1  29
ATOM     29  C   UNL A   1      44.458  23.949  33.472  1.00  0.00     0.002 C 
BRANCH  29  30
ATOM     30  C   UNL A   1      43.240  23.677  34.383  1.00  0.00     0.021 C 
BRANCH  30  31
ATOM     31  C   UNL A   1      43.457  23.705  35.914  1.00  0.00     0.116 C 
BRANCH  31  32
ATOM     32  N   UNL A   1      42.252  24.080  36.627  1.00  0.00    -0.352 N 
ATOM     33  C   UNL A   1      41.597  25.267  36.824  1.00  0.00     0.251 C 
ATOM     34  H   UNL A   1      41.809  23.317  37.064  1.00  0.00     0.163 HD
ATOM     35  O   UNL A   1      40.700  25.259  37.673  1.00  0.00    -0.269 OA
BRANCH  33  36
ATOM     36  C   UNL A   1      41.884  26.552  36.125  1.00  0.00     0.039 A 
ATOM     37  C   UNL A   1      41.369  26.669  34.823  1.00  0.00     0.014 A 
ATOM     38  C   UNL A   1      42.780  27.528  36.575  1.00  0.00     0.014 A 
ATOM     39  C   UNL A   1      41.748  27.720  33.981  1.00  0.00     0.010 A 
ATOM     40  C   UNL A   1      43.157  28.595  35.723  1.00  0.00     0.010 A 
ATOM     41  C   UNL A   1      42.654  28.695  34.415  1.00  0.00    -0.014 A 
BRANCH  41  42
ATOM     42  C   UNL A   1      42.926  29.823  33.483  1.00  0.00     0.031 A 
ATOM     43  C   UNL A   1      43.369  29.439  32.102  1.00  0.00     0.074 A 
ATOM     44  C   UNL A   1      42.411  31.062  33.687  1.00  0.00     0.049 A 
ATOM     45  N   UNL A   1      42.547  29.088  31.157  1.00  0.00    -0.248 NA
ATOM     46  C   UNL A   1      44.774  29.217  31.759  1.00  0.00     0.031 C 
ATOM     47  C   UNL A   1      41.031  31.287  34.138  1.00  0.00     0.029 A 
ATOM     48  N   UNL A   1      42.848  32.320  33.312  1.00  0.00    -0.354 N 
ATOM     49  C   UNL A   1      43.298  28.597  30.097  1.00  0.00     0.074 A 
ATOM     50  C   UNL A   1      44.678  28.683  30.527  1.00  0.00     0.031 C 
ATOM     51  C   UNL A   1      40.684  32.563  33.862  1.00  0.00     0.029 A 
ATOM     52  C   UNL A   1      41.843  33.293  33.347  1.00  0.00     0.049 A 
ATOM     53  H   UNL A   1      43.777  32.513  33.046  1.00  0.00     0.167 HD
ATOM     54  C   UNL A   1      42.739  28.197  28.920  1.00  0.00     0.034 A 
ATOM     55  C   UNL A   1      41.767  34.376  32.515  1.00  0.00     0.034 A 
ATOM     56  C   UNL A   1      41.318  28.398  28.843  1.00  0.00     0.049 A 
ATOM     57  C   UNL A   1      41.350  33.705  31.229  1.00  0.00     0.074 A 
ATOM     58  C   UNL A   1      40.162  27.663  28.993  1.00  0.00     0.029 A 
ATOM     59  N   UNL A   1      40.873  29.673  28.585  1.00  0.00    -0.354 N 
ATOM     60  N   UNL A   1      40.154  33.253  30.954  1.00  0.00    -0.248 NA
ATOM     61  C   UNL A   1      42.423  33.145  30.408  1.00  0.00     0.031 C 
ATOM     62  C   UNL A   1      39.136  28.621  29.286  1.00  0.00     0.029 A 
ATOM     63  C   UNL A   1      39.737  29.877  29.321  1.00  0.00     0.049 A 
ATOM     64  H   UNL A   1      41.296  30.323  27.979  1.00  0.00     0.167 HD
ATOM     65  C   UNL A   1      40.364  32.121  30.161  1.00  0.00     0.074 A 
ATOM     66  C   UNL A   1      41.787  32.113  29.872  1.00  0.00     0.031 C 
ATOM     67  C   UNL A   1      39.424  31.159  29.918  1.00  0.00     0.034 A 
BRANCH  54  68
ATOM     68  C   UNL A   1      43.463  27.847  27.664  1.00  0.00     0.023 A 
ATOM     69  C   UNL A   1      43.366  26.499  27.255  1.00  0.00     0.012 A 
ATOM     70  C   UNL A   1      44.419  28.677  27.049  1.00  0.00     0.148 A 
ATOM     71  C   UNL A   1      44.244  25.958  26.321  1.00  0.00     0.002 A 
ATOM     72  C   UNL A   1      45.285  28.132  26.097  1.00  0.00     0.091 A 
ATOM     73  F   UNL A   1      44.497  29.960  27.430  1.00  0.00    -0.205 F 
ATOM     74  C   UNL A   1      45.211  26.771  25.751  1.00  0.00     0.022 A 
BRANCH  72  75
ATOM     75  S   UNL A   1      46.588  29.067  25.285  1.00  0.00     0.127 S 
ATOM     76  O   UNL A   1      46.584  28.504  23.935  1.00  0.00    -0.237 OA
ATOM     77  O   UNL A   1      46.079  30.435  25.377  1.00  0.00    -0.237 OA
ATOM     78  O   UNL A   1      47.800  28.812  26.051  1.00  0.00    -0.744 OA
ENDBRANCH  72  75
ENDBRANCH  54  68
BRANCH  55  79
ATOM     79  C   UNL A   1      42.891  35.376  32.605  1.00  0.00     0.023 A 
ATOM     80  C   UNL A   1      43.984  35.177  31.729  1.00  0.00     0.012 A 
ATOM     81  C   UNL A   1      42.956  36.486  33.470  1.00  0.00     0.148 A 
ATOM     82  C   UNL A   1      45.022  36.107  31.618  1.00  0.00     0.002 A 
ATOM     83  C   UNL A   1      43.953  37.451  33.307  1.00  0.00     0.091 A 
ATOM     84  F   UNL A   1      42.055  36.603  34.453  1.00  0.00    -0.205 F 
ATOM     85  C   UNL A   1      44.983  37.266  32.378  1.00  0.00     0.022 A 
BRANCH  83  86
ATOM     86  S   UNL A   1      43.930  39.029  34.172  1.00  0.00     0.127 S 
ATOM     87  O   UNL A   1      45.129  39.683  33.650  1.00  0.00    -0.237 OA
ATOM     88  O   UNL A   1      42.665  39.595  33.704  1.00  0.00    -0.237 OA
ATOM     89  O   UNL A   1      43.972  38.703  35.591  1.00  0.00    -0.744 OA
ENDBRANCH  83  86
ENDBRANCH  55  79
BRANCH  67  90
ATOM     90  C   UNL A   1      38.040  31.409  30.439  1.00  0.00     0.023 A 
ATOM     91  C   UNL A   1      37.746  31.067  31.771  1.00  0.00     0.012 A 
ATOM     92  C   UNL A   1      37.057  32.068  29.669  1.00  0.00     0.148 A 
ATOM     93  C   UNL A   1      36.520  31.400  32.342  1.00  0.00     0.002 A 
ATOM     94  C   UNL A   1      35.852  32.440  30.257  1.00  0.00     0.091 A 
ATOM     95  F   UNL A   1      37.317  32.341  28.382  1.00  0.00    -0.205 F 
ATOM     96  C   UNL A   1      35.581  32.104  31.592  1.00  0.00     0.022 A 
BRANCH  94  97
ATOM     97  S   UNL A   1      34.610  33.421  29.407  1.00  0.00     0.127 S 
ATOM     98  O   UNL A   1      33.663  33.714  30.483  1.00  0.00    -0.237 OA
ATOM     99  O   UNL A   1      35.393  34.573  28.957  1.00  0.00    -0.237 OA
ATOM    100  O   UNL A   1      34.082  32.583  28.339  1.00  0.00    -0.744 OA
ENDBRANCH  94  97
ENDBRANCH  67  90
ENDBRANCH  41  42
ENDBRANCH  33  36
ENDBRANCH  31  32
ENDBRANCH  30  31
ENDBRANCH  29  30
ENDBRANCH   1  29
TORSDOF 19
ENDMDL
MODEL 2
REMARK VINA RESULT:     -11.0      8.524     15.436
REMARK SMILES Cc1ccc(-c2nn(CCC(=O)NCCCCCCNC(=O)c3ccc(-c4c5nc(c(-c6cccc(S(=O)(=O)[O-])c6F)c6ccc([nH]6)c(-c6cccc(S(=O)(=O)[O-])c6F)c6nc(c(-c7cccc(S(=O)(=O)[O-])c7F)c7ccc4[nH]7)C=C6)C=C5)cc3)c(=O)c3noc(C)c23)cc1C
REMARK SMILES IDX 16 1 15 2 14 3 13 4 11 5 12 6 10 8 9 9 8 10 6 11 7 12 93 13
REMARK SMILES IDX 88 14 91 15 86 16 89 17 90 18 92 19 87 20 5 21 1 22 2 23
REMARK SMILES IDX 3 24 95 25 4 26 94 27 96 28 17 29 18 30 19 31 20 32 21 33
REMARK SMILES IDX 22 35 23 36 24 37 85 38 25 39 84 40 26 41 27 42 28 43 78 44
REMARK SMILES IDX 29 45 83 46 77 47 79 48 30 49 82 50 76 51 75 52 31 54 63 55
REMARK SMILES IDX 43 56 62 57 44 58 47 59 61 60 80 61 45 62 46 63 60 65 81 66
REMARK SMILES IDX 48 67 32 68 33 69 41 70 34 71 36 72 42 73 35 74 37 75 38 76
REMARK SMILES IDX 39 77 40 78 64 79 65 80 73 81 66 82 68 83 74 84 67 85 69 86
REMARK SMILES IDX 70 87 71 88 72 89 49 90 50 91 58 92 51 93 53 94 59 95 52 96
REMARK SMILES IDX 54 97 55 98 56 99 57 100
REMARK H PARENT 13 7 20 34 79 53 47 64
REMARK Flexibility Score: inf
ROOT
ATOM      1  C   UNL A   1      43.797  41.557  27.738  1.00  0.00     0.002 C 
ENDROOT
BRANCH   1   2
ATOM      2  C   UNL A   1      44.750  41.883  26.588  1.00  0.00     0.021 C 
BRANCH   2   3
ATOM      3  C   UNL A   1      44.276  42.864  25.513  1.00  0.00     0.116 C 
BRANCH   3   4
ATOM      4  N   UNL A   1      43.073  42.380  24.852  1.00  0.00    -0.356 N 
ATOM      5  C   UNL A   1      42.536  42.705  23.642  1.00  0.00     0.221 C 
ATOM      6  O   UNL A   1      41.441  42.224  23.342  1.00  0.00    -0.275 OA
ATOM      7  H   UNL A   1      42.563  41.709  25.361  1.00  0.00     0.163 HD
BRANCH   5   8
ATOM      8  C   UNL A   1      43.284  43.581  22.657  1.00  0.00     0.124 C 
BRANCH   8   9
ATOM      9  C   UNL A   1      44.162  42.793  21.689  1.00  0.00     0.158 C 
BRANCH   9  10
ATOM     10  N   UNL A   1      44.958  43.633  20.796  1.00  0.00    -0.227 N 
ATOM     11  C   UNL A   1      44.893  45.052  18.915  1.00  0.00     0.104 A 
ATOM     12  N   UNL A   1      44.247  44.294  19.760  1.00  0.00    -0.169 NA
ATOM     13  C   UNL A   1      46.325  45.111  18.964  1.00  0.00     0.078 A 
ATOM     14  C   UNL A   1      47.014  44.602  20.068  1.00  0.00     0.183 A 
ATOM     15  C   UNL A   1      47.300  45.547  18.101  1.00  0.00     0.143 A 
ATOM     16  C   UNL A   1      46.323  43.866  21.112  1.00  0.00     0.296 A 
ATOM     17  N   UNL A   1      48.338  44.749  19.937  1.00  0.00    -0.074 NA
ATOM     18  O   UNL A   1      48.514  45.355  18.698  1.00  0.00    -0.360 OA
ATOM     19  C   UNL A   1      47.325  46.090  16.727  1.00  0.00     0.091 C 
ATOM     20  O   UNL A   1      46.874  43.421  22.110  1.00  0.00    -0.265 OA
BRANCH  11  21
ATOM     21  C   UNL A   1      44.221  46.008  18.021  1.00  0.00     0.003 A 
ATOM     22  C   UNL A   1      41.337  48.398  15.910  1.00  0.00     0.044 C 
ATOM     23  C   UNL A   1      42.401  47.616  16.636  1.00  0.00    -0.048 A 
ATOM     24  C   UNL A   1      42.475  46.238  16.380  1.00  0.00     0.004 A 
ATOM     25  C   UNL A   1      43.252  48.194  17.606  1.00  0.00    -0.048 A 
ATOM     26  C   UNL A   1      43.380  45.437  17.063  1.00  0.00     0.011 A 
ATOM     27  C   UNL A   1      44.183  47.380  18.283  1.00  0.00     0.014 A 
ATOM     28  C   UNL A   1      43.108  49.628  18.040  1.00  0.00     0.044 C 
ENDBRANCH  11  21
ENDBRANCH   9  10
ENDBRANCH   8   9
ENDBRANCH   5   8
ENDBRANCH   3   4
ENDBRANCH   2   3
ENDBRANCH   1   2
BRANCH   1  29
ATOM     29  C   UNL A   1      43.484  40.071  27.952  1.00  0.00     0.002 C 
BRANCH  29  30
ATOM     30  C   UNL A   1      42.847  39.290  26.781  1.00  0.00     0.021 C 
BRANCH  30  31
ATOM     31  C   UNL A   1      42.767  37.750  26.892  1.00  0.00     0.116 C 
BRANCH  31  32
ATOM     32  N   UNL A   1      43.956  37.104  26.372  1.00  0.00    -0.352 N 
ATOM     33  C   UNL A   1      44.774  36.108  26.836  1.00  0.00     0.251 C 
ATOM     34  H   UNL A   1      44.236  37.458  25.497  1.00  0.00     0.163 HD
ATOM     35  O   UNL A   1      45.835  35.947  26.226  1.00  0.00    -0.269 OA
BRANCH  33  36
ATOM     36  C   UNL A   1      44.504  35.227  28.009  1.00  0.00     0.039 A 
ATOM     37  C   UNL A   1      43.504  34.257  27.829  1.00  0.00     0.014 A 
ATOM     38  C   UNL A   1      45.006  35.433  29.299  1.00  0.00     0.014 A 
ATOM     39  C   UNL A   1      43.000  33.520  28.906  1.00  0.00     0.010 A 
ATOM     40  C   UNL A   1      44.500  34.681  30.387  1.00  0.00     0.010 A 
ATOM     41  C   UNL A   1      43.485  33.726  30.203  1.00  0.00    -0.014 A 
BRANCH  41  42
ATOM     42  C   UNL A   1      42.956  32.832  31.269  1.00  0.00     0.031 A 
ATOM     43  C   UNL A   1      41.558  33.121  31.731  1.00  0.00     0.074 A 
ATOM     44  C   UNL A   1      43.484  31.606  31.505  1.00  0.00     0.049 A 
ATOM     45  N   UNL A   1      40.496  32.708  31.102  1.00  0.00    -0.248 NA
ATOM     46  C   UNL A   1      41.261  34.070  32.804  1.00  0.00     0.031 C 
ATOM     47  C   UNL A   1      43.886  30.690  30.428  1.00  0.00     0.029 A 
ATOM     48  N   UNL A   1      43.536  30.821  32.644  1.00  0.00    -0.354 N 
ATOM     49  C   UNL A   1      39.393  33.329  31.673  1.00  0.00     0.074 A 
ATOM     50  C   UNL A   1      39.923  34.179  32.717  1.00  0.00     0.031 C 
ATOM     51  C   UNL A   1      43.981  29.440  30.930  1.00  0.00     0.029 A 
ATOM     52  C   UNL A   1      43.791  29.471  32.381  1.00  0.00     0.049 A 
ATOM     53  H   UNL A   1      43.405  31.179  33.553  1.00  0.00     0.167 HD
ATOM     54  C   UNL A   1      38.113  33.066  31.280  1.00  0.00     0.034 A 
ATOM     55  C   UNL A   1      43.318  28.422  33.122  1.00  0.00     0.034 A 
ATOM     56  C   UNL A   1      38.002  32.039  30.280  1.00  0.00     0.049 A 
ATOM     57  C   UNL A   1      41.864  28.433  32.716  1.00  0.00     0.074 A 
ATOM     58  C   UNL A   1      37.844  31.942  28.915  1.00  0.00     0.029 A 
ATOM     59  N   UNL A   1      38.107  30.735  30.700  1.00  0.00    -0.354 N 
ATOM     60  N   UNL A   1      41.384  28.007  31.576  1.00  0.00    -0.248 NA
ATOM     61  C   UNL A   1      40.990  29.349  33.448  1.00  0.00     0.031 C 
ATOM     62  C   UNL A   1      38.338  30.642  28.567  1.00  0.00     0.029 A 
ATOM     63  C   UNL A   1      38.790  30.039  29.739  1.00  0.00     0.049 A 
ATOM     64  H   UNL A   1      37.755  30.366  31.543  1.00  0.00     0.167 HD
ATOM     65  C   UNL A   1      40.305  28.850  31.296  1.00  0.00     0.074 A 
ATOM     66  C   UNL A   1      40.127  29.656  32.491  1.00  0.00     0.031 C 
ATOM     67  C   UNL A   1      39.720  28.979  30.068  1.00  0.00     0.034 A 
BRANCH  54  68
ATOM     68  C   UNL A   1      36.864  33.523  31.955  1.00  0.00     0.023 A 
ATOM     69  C   UNL A   1      36.588  32.925  33.203  1.00  0.00     0.012 A 
ATOM     70  C   UNL A   1      35.854  34.268  31.320  1.00  0.00     0.148 A 
ATOM     71  C   UNL A   1      35.321  32.990  33.777  1.00  0.00     0.002 A 
ATOM     72  C   UNL A   1      34.589  34.346  31.910  1.00  0.00     0.091 A 
ATOM     73  F   UNL A   1      36.125  34.847  30.141  1.00  0.00    -0.205 F 
ATOM     74  C   UNL A   1      34.319  33.690  33.124  1.00  0.00     0.022 A 
BRANCH  72  75
ATOM     75  S   UNL A   1      33.197  35.213  31.172  1.00  0.00     0.127 S 
ATOM     76  O   UNL A   1      32.143  35.020  32.167  1.00  0.00    -0.237 OA
ATOM     77  O   UNL A   1      33.708  36.580  31.081  1.00  0.00    -0.237 OA
ATOM     78  O   UNL A   1      32.955  34.564  29.891  1.00  0.00    -0.744 OA
ENDBRANCH  72  75
ENDBRANCH  54  68
BRANCH  55  79
ATOM     79  C   UNL A   1      43.782  28.344  34.553  1.00  0.00     0.023 A 
ATOM     80  C   UNL A   1      44.404  29.501  35.079  1.00  0.00     0.012 A 
ATOM     81  C   UNL A   1      43.653  27.237  35.415  1.00  0.00     0.148 A 
ATOM     82  C   UNL A   1      44.754  29.605  36.428  1.00  0.00     0.002 A 
ATOM     83  C   UNL A   1      43.934  27.367  36.778  1.00  0.00     0.091 A 
ATOM     84  F   UNL A   1      43.263  26.059  34.914  1.00  0.00    -0.205 F 
ATOM     85  C   UNL A   1      44.479  28.552  37.287  1.00  0.00     0.022 A 
BRANCH  83  86
ATOM     86  S   UNL A   1      43.518  26.096  37.983  1.00  0.00     0.127 S 
ATOM     87  O   UNL A   1      44.089  26.641  39.212  1.00  0.00    -0.237 OA
ATOM     88  O   UNL A   1      42.057  26.111  37.921  1.00  0.00    -0.237 OA
ATOM     89  O   UNL A   1      44.142  24.873  37.498  1.00  0.00    -0.744 OA
ENDBRANCH  83  86
ENDBRANCH  55  79
BRANCH  67  90
ATOM     90  C   UNL A   1      40.194  28.056  28.984  1.00  0.00     0.023 A 
ATOM     91  C   UNL A   1      39.510  26.844  28.782  1.00  0.00     0.012 A 
ATOM     92  C   UNL A   1      41.234  28.411  28.098  1.00  0.00     0.148 A 
ATOM     93  C   UNL A   1      39.825  26.016  27.706  1.00  0.00     0.002 A 
ATOM     94  C   UNL A   1      41.513  27.605  27.000  1.00  0.00     0.091 A 
ATOM     95  F   UNL A   1      41.923  29.539  28.327  1.00  0.00    -0.205 F 
ATOM     96  C   UNL A   1      40.811  26.405  26.804  1.00  0.00     0.022 A 
BRANCH  94  97
ATOM     97  S   UNL A   1      42.705  28.054  25.732  1.00  0.00     0.127 S 
ATOM     98  O   UNL A   1      43.200  26.747  25.300  1.00  0.00    -0.237 OA
ATOM     99  O   UNL A   1      41.858  28.737  24.753  1.00  0.00    -0.237 OA
ATOM    100  O   UNL A   1      43.697  28.900  26.381  1.00  0.00    -0.744 OA
ENDBRANCH  94  97
ENDBRANCH  67  90
ENDBRANCH  41  42
ENDBRANCH  33  36
ENDBRANCH  31  32
ENDBRANCH  30  31
ENDBRANCH  29  30
ENDBRANCH   1  29
TORSDOF 19
ENDMDL
MODEL 3
REMARK VINA RESULT:     -10.7      3.204      7.322
REMARK SMILES Cc1ccc(-c2nn(CCC(=O)NCCCCCCNC(=O)c3ccc(-c4c5nc(c(-c6cccc(S(=O)(=O)[O-])c6F)c6ccc([nH]6)c(-c6cccc(S(=O)(=O)[O-])c6F)c6nc(c(-c7cccc(S(=O)(=O)[O-])c7F)c7ccc4[nH]7)C=C6)C=C5)cc3)c(=O)c3noc(C)c23)cc1C
REMARK SMILES IDX 16 1 15 2 14 3 13 4 11 5 12 6 10 8 9 9 8 10 6 11 7 12 93 13
REMARK SMILES IDX 88 14 91 15 86 16 89 17 90 18 92 19 87 20 5 21 1 22 2 23
REMARK SMILES IDX 3 24 95 25 4 26 94 27 96 28 17 29 18 30 19 31 20 32 21 33
REMARK SMILES IDX 22 35 23 36 24 37 85 38 25 39 84 40 26 41 27 42 28 43 78 44
REMARK SMILES IDX 29 45 83 46 77 47 79 48 30 49 82 50 76 51 75 52 31 54 63 55
REMARK SMILES IDX 43 56 62 57 44 58 47 59 61 60 80 61 45 62 46 63 60 65 81 66
REMARK SMILES IDX 48 67 32 68 33 69 41 70 34 71 36 72 42 73 35 74 37 75 38 76
REMARK SMILES IDX 39 77 40 78 64 79 65 80 73 81 66 82 68 83 74 84 67 85 69 86
REMARK SMILES IDX 70 87 71 88 72 89 49 90 50 91 58 92 51 93 53 94 59 95 52 96
REMARK SMILES IDX 54 97 55 98 56 99 57 100
REMARK H PARENT 13 7 20 34 79 53 47 64
REMARK Flexibility Score: inf
ROOT
ATOM      1  C   UNL A   1      38.208  29.526  28.069  1.00  0.00     0.002 C 
ENDROOT
BRANCH   1   2
ATOM      2  C   UNL A   1      38.403  28.070  28.494  1.00  0.00     0.021 C 
BRANCH   2   3
ATOM      3  C   UNL A   1      39.798  27.458  28.353  1.00  0.00     0.116 C 
BRANCH   3   4
ATOM      4  N   UNL A   1      40.083  27.106  26.970  1.00  0.00    -0.356 N 
ATOM      5  C   UNL A   1      40.972  26.216  26.447  1.00  0.00     0.221 C 
ATOM      6  O   UNL A   1      41.097  26.168  25.221  1.00  0.00    -0.275 OA
ATOM      7  H   UNL A   1      39.545  27.591  26.302  1.00  0.00     0.163 HD
BRANCH   5   8
ATOM      8  C   UNL A   1      41.745  25.260  27.334  1.00  0.00     0.124 C 
BRANCH   8   9
ATOM      9  C   UNL A   1      40.852  24.300  28.115  1.00  0.00     0.158 C 
BRANCH   9  10
ATOM     10  N   UNL A   1      40.189  23.299  27.280  1.00  0.00    -0.227 N 
ATOM     11  C   UNL A   1      38.234  22.787  26.067  1.00  0.00     0.104 A 
ATOM     12  N   UNL A   1      38.893  23.637  26.808  1.00  0.00    -0.169 NA
ATOM     13  C   UNL A   1      38.769  21.477  25.842  1.00  0.00     0.078 A 
ATOM     14  C   UNL A   1      40.100  21.194  26.159  1.00  0.00     0.183 A 
ATOM     15  C   UNL A   1      38.249  20.291  25.384  1.00  0.00     0.143 A 
ATOM     16  C   UNL A   1      40.926  22.159  26.864  1.00  0.00     0.296 A 
ATOM     17  N   UNL A   1      40.420  19.926  25.875  1.00  0.00    -0.074 NA
ATOM     18  O   UNL A   1      39.250  19.361  25.377  1.00  0.00    -0.360 OA
ATOM     19  C   UNL A   1      36.911  19.814  24.978  1.00  0.00     0.091 C 
ATOM     20  O   UNL A   1      42.103  21.972  27.144  1.00  0.00    -0.265 OA
BRANCH  11  21
ATOM     21  C   UNL A   1      37.045  23.162  25.286  1.00  0.00     0.003 A 
ATOM     22  C   UNL A   1      33.633  23.190  22.670  1.00  0.00     0.044 C 
ATOM     23  C   UNL A   1      34.796  23.238  23.627  1.00  0.00    -0.048 A 
ATOM     24  C   UNL A   1      36.085  23.152  23.079  1.00  0.00     0.004 A 
ATOM     25  C   UNL A   1      34.634  23.283  25.031  1.00  0.00    -0.048 A 
ATOM     26  C   UNL A   1      37.204  23.118  23.900  1.00  0.00     0.011 A 
ATOM     27  C   UNL A   1      35.775  23.268  25.859  1.00  0.00     0.014 A 
ATOM     28  C   UNL A   1      33.277  23.211  25.680  1.00  0.00     0.044 C 
ENDBRANCH  11  21
ENDBRANCH   9  10
ENDBRANCH   8   9
ENDBRANCH   5   8
ENDBRANCH   3   4
ENDBRANCH   2   3
ENDBRANCH   1   2
BRANCH   1  29
ATOM     29  C   UNL A   1      36.799  29.907  27.598  1.00  0.00     0.002 C 
BRANCH  29  30
ATOM     30  C   UNL A   1      36.268  31.309  27.971  1.00  0.00     0.021 C 
BRANCH  30  31
ATOM     31  C   UNL A   1      34.754  31.463  28.246  1.00  0.00     0.116 C 
BRANCH  31  32
ATOM     32  N   UNL A   1      34.490  32.383  29.336  1.00  0.00    -0.352 N 
ATOM     33  C   UNL A   1      34.985  32.514  30.606  1.00  0.00     0.251 C 
ATOM     34  H   UNL A   1      33.809  33.058  29.114  1.00  0.00     0.163 HD
ATOM     35  O   UNL A   1      34.377  33.290  31.350  1.00  0.00    -0.269 OA
BRANCH  33  36
ATOM     36  C   UNL A   1      36.167  31.798  31.165  1.00  0.00     0.039 A 
ATOM     37  C   UNL A   1      37.381  32.506  31.141  1.00  0.00     0.014 A 
ATOM     38  C   UNL A   1      36.198  30.439  31.501  1.00  0.00     0.014 A 
ATOM     39  C   UNL A   1      38.598  31.877  31.425  1.00  0.00     0.010 A 
ATOM     40  C   UNL A   1      37.430  29.807  31.795  1.00  0.00     0.010 A 
ATOM     41  C   UNL A   1      38.642  30.516  31.749  1.00  0.00    -0.014 A 
BRANCH  41  42
ATOM     42  C   UNL A   1      39.969  29.957  32.126  1.00  0.00     0.031 A 
ATOM     43  C   UNL A   1      41.090  30.226  31.165  1.00  0.00     0.074 A 
ATOM     44  C   UNL A   1      40.269  29.620  33.405  1.00  0.00     0.049 A 
ATOM     45  N   UNL A   1      41.762  31.339  31.141  1.00  0.00    -0.248 NA
ATOM     46  C   UNL A   1      41.383  29.349  30.030  1.00  0.00     0.031 C 
ATOM     47  C   UNL A   1      39.881  30.444  34.558  1.00  0.00     0.029 A 
ATOM     48  N   UNL A   1      41.151  28.697  33.939  1.00  0.00    -0.354 N 
ATOM     49  C   UNL A   1      42.562  31.332  30.006  1.00  0.00     0.074 A 
ATOM     50  C   UNL A   1      42.277  30.080  29.339  1.00  0.00     0.031 C 
ATOM     51  C   UNL A   1      40.640  30.097  35.620  1.00  0.00     0.029 A 
ATOM     52  C   UNL A   1      41.469  28.939  35.280  1.00  0.00     0.049 A 
ATOM     53  H   UNL A   1      41.521  27.942  33.424  1.00  0.00     0.167 HD
ATOM     54  C   UNL A   1      43.438  32.335  29.715  1.00  0.00     0.034 A 
ATOM     55  C   UNL A   1      42.670  28.649  35.868  1.00  0.00     0.034 A 
ATOM     56  C   UNL A   1      43.518  33.360  30.721  1.00  0.00     0.049 A 
ATOM     57  C   UNL A   1      43.541  29.721  35.260  1.00  0.00     0.074 A 
ATOM     58  C   UNL A   1      43.018  34.624  30.947  1.00  0.00     0.029 A 
ATOM     59  N   UNL A   1      44.256  33.084  31.847  1.00  0.00    -0.354 N 
ATOM     60  N   UNL A   1      43.542  30.986  35.593  1.00  0.00    -0.248 NA
ATOM     61  C   UNL A   1      44.111  29.429  33.946  1.00  0.00     0.031 C 
ATOM     62  C   UNL A   1      43.094  34.815  32.366  1.00  0.00     0.029 A 
ATOM     63  C   UNL A   1      43.613  33.645  32.917  1.00  0.00     0.049 A 
ATOM     64  H   UNL A   1      45.098  32.574  31.878  1.00  0.00     0.167 HD
ATOM     65  C   UNL A   1      43.807  31.675  34.406  1.00  0.00     0.074 A 
ATOM     66  C   UNL A   1      44.140  30.651  33.432  1.00  0.00     0.031 C 
ATOM     67  C   UNL A   1      43.582  33.010  34.219  1.00  0.00     0.034 A 
BRANCH  54  68
ATOM     68  C   UNL A   1      44.473  32.329  28.641  1.00  0.00     0.023 A 
ATOM     69  C   UNL A   1      45.556  31.445  28.838  1.00  0.00     0.012 A 
ATOM     70  C   UNL A   1      44.569  33.308  27.635  1.00  0.00     0.148 A 
ATOM     71  C   UNL A   1      46.739  31.571  28.116  1.00  0.00     0.002 A 
ATOM     72  C   UNL A   1      45.753  33.418  26.900  1.00  0.00     0.091 A 
ATOM     73  F   UNL A   1      43.533  34.136  27.441  1.00  0.00    -0.205 F 
ATOM     74  C   UNL A   1      46.842  32.566  27.156  1.00  0.00     0.022 A 
BRANCH  72  75
ATOM     75  S   UNL A   1      46.027  34.663  25.632  1.00  0.00     0.127 S 
ATOM     76  O   UNL A   1      47.446  34.492  25.325  1.00  0.00    -0.237 OA
ATOM     77  O   UNL A   1      45.116  34.222  24.576  1.00  0.00    -0.237 OA
ATOM     78  O   UNL A   1      45.682  35.939  26.244  1.00  0.00    -0.744 OA
ENDBRANCH  72  75
ENDBRANCH  54  68
BRANCH  55  79
ATOM     79  C   UNL A   1      43.058  27.194  35.925  1.00  0.00     0.023 A 
ATOM     80  C   UNL A   1      42.006  26.255  35.806  1.00  0.00     0.012 A 
ATOM     81  C   UNL A   1      44.361  26.681  36.080  1.00  0.00     0.148 A 
ATOM     82  C   UNL A   1      42.247  24.882  35.706  1.00  0.00     0.002 A 
ATOM     83  C   UNL A   1      44.609  25.317  35.905  1.00  0.00     0.091 A 
ATOM     84  F   UNL A   1      45.359  27.514  36.401  1.00  0.00    -0.205 F 
ATOM     85  C   UNL A   1      43.554  24.417  35.713  1.00  0.00     0.022 A 
BRANCH  83  86
ATOM     86  S   UNL A   1      46.271  24.636  35.798  1.00  0.00     0.127 S 
ATOM     87  O   UNL A   1      46.078  23.276  36.296  1.00  0.00    -0.237 OA
ATOM     88  O   UNL A   1      46.529  24.736  34.361  1.00  0.00    -0.237 OA
ATOM     89  O   UNL A   1      47.103  25.490  36.633  1.00  0.00    -0.744 OA
ENDBRANCH  83  86
ENDBRANCH  55  79
BRANCH  67  90
ATOM     90  C   UNL A   1      43.141  33.804  35.413  1.00  0.00     0.023 A 
ATOM     91  C   UNL A   1      44.113  34.247  36.328  1.00  0.00     0.012 A 
ATOM     92  C   UNL A   1      41.800  34.207  35.591  1.00  0.00     0.148 A 
ATOM     93  C   UNL A   1      43.773  35.099  37.377  1.00  0.00     0.002 A 
ATOM     94  C   UNL A   1      41.473  35.093  36.611  1.00  0.00     0.091 A 
ATOM     95  F   UNL A   1      40.865  33.737  34.751  1.00  0.00    -0.205 F 
ATOM     96  C   UNL A   1      42.458  35.538  37.507  1.00  0.00     0.022 A 
BRANCH  94  97
ATOM     97  S   UNL A   1      39.828  35.788  36.817  1.00  0.00     0.127 S 
ATOM     98  O   UNL A   1      39.069  34.636  37.303  1.00  0.00    -0.237 OA
ATOM     99  O   UNL A   1      40.064  36.826  37.820  1.00  0.00    -0.237 OA
ATOM    100  O   UNL A   1      39.422  36.280  35.508  1.00  0.00    -0.744 OA
ENDBRANCH  94  97
ENDBRANCH  67  90
ENDBRANCH  41  42
ENDBRANCH  33  36
ENDBRANCH  31  32
ENDBRANCH  30  31
ENDBRANCH  29  30
ENDBRANCH   1  29
TORSDOF 19
ENDMDL
