MODEL 1
REMARK VINA RESULT:     -10.8      0.000      0.000
REMARK SMILES CC(C)(NC(=O)[C@]1(C)CCCO1)C(C)(C)C(=O)NCCCCCCNC(=O)c1ccc(-c2c3nc(c(-c4cccc(S(=O)(=O)[O-])c4F)c4ccc([nH]4)c(-c4cccc(S(=O)(=O)[O-])c4F)c4nc(c(-c5cccc(S(=O)(=O)[O-])c5F)c5ccc2[nH]5)C=C4)C=C3)cc1
REMARK SMILES IDX 21 1 20 2 19 3 18 4 16 5 17 6 13 8 14 9 15 10 2 11 1 12 3 13
REMARK SMILES IDX 4 14 5 15 6 17 7 18 9 19 12 20 8 21 10 22 11 23 22 24 23 25
REMARK SMILES IDX 24 26 25 27 26 28 27 30 28 31 29 32 90 33 30 34 89 35 31 36
REMARK SMILES IDX 32 37 33 38 83 39 34 40 88 41 82 42 84 43 35 44 87 45 81 46
REMARK SMILES IDX 80 47 36 49 68 50 48 51 67 52 49 53 52 54 66 55 85 56 50 57
REMARK SMILES IDX 51 58 65 60 86 61 53 62 37 63 38 64 46 65 39 66 41 67 47 68
REMARK SMILES IDX 40 69 42 70 43 71 44 72 45 73 69 74 70 75 78 76 71 77 73 78
REMARK SMILES IDX 79 79 72 80 74 81 75 82 76 83 77 84 54 85 55 86 63 87 56 88
REMARK SMILES IDX 58 89 64 90 57 91 59 92 60 93 61 94 62 95
REMARK H PARENT 18 7 4 16 25 29 84 48 52 59
REMARK Flexibility Score: inf
ROOT
ATOM      1  C   UNL A   1      32.468  29.942  27.028  1.00  0.00     0.002 C 
ENDROOT
BRANCH   1   2
ATOM      2  C   UNL A   1      33.625  29.360  26.205  1.00  0.00     0.021 C 
BRANCH   2   3
ATOM      3  C   UNL A   1      33.781  27.846  26.285  1.00  0.00     0.116 C 
BRANCH   3   4
ATOM      4  N   UNL A   1      32.546  27.252  26.722  1.00  0.00    -0.356 N 
ATOM      5  C   UNL A   1      31.501  26.659  26.124  1.00  0.00     0.228 C 
ATOM      6  O   UNL A   1      30.543  26.480  26.889  1.00  0.00    -0.274 OA
ATOM      7  H   UNL A   1      32.443  27.289  27.701  1.00  0.00     0.163 HD
BRANCH   5   8
ATOM      8  C   UNL A   1      31.381  26.361  24.621  1.00  0.00     0.066 C 
ATOM      9  C   UNL A   1      31.974  27.343  23.585  1.00  0.00     0.024 C 
ATOM     10  C   UNL A   1      29.845  26.425  24.375  1.00  0.00     0.024 C 
BRANCH   8  11
ATOM     11  C   UNL A   1      32.011  24.908  24.378  1.00  0.00     0.048 C 
ATOM     12  C   UNL A   1      33.504  25.018  23.933  1.00  0.00     0.035 C 
ATOM     13  C   UNL A   1      31.331  24.169  23.178  1.00  0.00     0.035 C 
BRANCH  11  14
ATOM     14  N   UNL A   1      32.016  23.908  25.536  1.00  0.00    -0.348 N 
ATOM     15  C   UNL A   1      32.568  22.801  26.096  1.00  0.00     0.252 C 
ATOM     16  H   UNL A   1      31.298  24.194  26.147  1.00  0.00     0.164 HD
ATOM     17  O   UNL A   1      32.127  22.599  27.244  1.00  0.00    -0.272 OA
BRANCH  15  18
ATOM     18  C   UNL A   1      33.611  21.770  25.511  1.00  0.00     0.143 C 
ATOM     19  C   UNL A   1      33.337  21.480  24.017  1.00  0.00     0.048 C 
ATOM     20  O   UNL A   1      33.547  20.477  26.116  1.00  0.00    -0.365 OA
ATOM     21  C   UNL A   1      35.037  22.293  25.605  1.00  0.00     0.053 C 
ATOM     22  C   UNL A   1      32.435  20.275  24.024  1.00  0.00     0.032 C 
ATOM     23  C   UNL A   1      32.821  19.562  25.296  1.00  0.00     0.162 C 
ENDBRANCH  15  18
ENDBRANCH  11  14
ENDBRANCH   8  11
ENDBRANCH   5   8
ENDBRANCH   3   4
ENDBRANCH   2   3
ENDBRANCH   1   2
BRANCH   1  24
ATOM     24  C   UNL A   1      31.385  30.672  26.231  1.00  0.00     0.002 C 
BRANCH  24  25
ATOM     25  C   UNL A   1      31.265  32.169  26.515  1.00  0.00     0.021 C 
BRANCH  25  26
ATOM     26  C   UNL A   1      32.583  32.877  26.799  1.00  0.00     0.116 C 
BRANCH  26  27
ATOM     27  N   UNL A   1      32.403  34.158  27.461  1.00  0.00    -0.352 N 
ATOM     28  C   UNL A   1      33.101  34.669  28.527  1.00  0.00     0.251 C 
ATOM     29  H   UNL A   1      31.689  34.732  27.099  1.00  0.00     0.163 HD
ATOM     30  O   UNL A   1      32.738  35.712  29.065  1.00  0.00    -0.269 OA
BRANCH  28  31
ATOM     31  C   UNL A   1      34.275  33.932  29.041  1.00  0.00     0.039 A 
ATOM     32  C   UNL A   1      35.542  34.496  28.891  1.00  0.00     0.014 A 
ATOM     33  C   UNL A   1      34.118  32.709  29.703  1.00  0.00     0.014 A 
ATOM     34  C   UNL A   1      36.650  33.858  29.450  1.00  0.00     0.010 A 
ATOM     35  C   UNL A   1      35.212  32.118  30.327  1.00  0.00     0.010 A 
ATOM     36  C   UNL A   1      36.490  32.681  30.201  1.00  0.00    -0.014 A 
BRANCH  36  37
ATOM     37  C   UNL A   1      37.651  32.033  30.866  1.00  0.00     0.031 A 
ATOM     38  C   UNL A   1      38.457  30.989  30.140  1.00  0.00     0.074 A 
ATOM     39  C   UNL A   1      37.934  32.333  32.149  1.00  0.00     0.049 A 
ATOM     40  N   UNL A   1      39.479  30.294  30.568  1.00  0.00    -0.248 NA
ATOM     41  C   UNL A   1      38.047  30.666  28.764  1.00  0.00     0.031 C 
ATOM     42  C   UNL A   1      37.180  33.269  32.985  1.00  0.00     0.029 A 
ATOM     43  N   UNL A   1      38.919  31.865  32.983  1.00  0.00    -0.354 N 
ATOM     44  C   UNL A   1      39.812  29.432  29.531  1.00  0.00     0.074 A 
ATOM     45  C   UNL A   1      38.861  29.663  28.466  1.00  0.00     0.031 C 
ATOM     46  C   UNL A   1      37.733  33.314  34.207  1.00  0.00     0.029 A 
ATOM     47  C   UNL A   1      38.858  32.385  34.254  1.00  0.00     0.049 A 
ATOM     48  H   UNL A   1      39.603  31.217  32.697  1.00  0.00     0.167 HD
ATOM     49  C   UNL A   1      40.835  28.546  29.459  1.00  0.00     0.034 A 
ATOM     50  C   UNL A   1      39.618  32.137  35.340  1.00  0.00     0.034 A 
ATOM     51  C   UNL A   1      41.798  28.343  30.507  1.00  0.00     0.049 A 
ATOM     52  C   UNL A   1      40.763  31.169  35.224  1.00  0.00     0.074 A 
ATOM     53  C   UNL A   1      42.920  27.533  30.498  1.00  0.00     0.029 A 
ATOM     54  N   UNL A   1      41.749  28.943  31.756  1.00  0.00    -0.354 N 
ATOM     55  N   UNL A   1      41.159  30.479  34.182  1.00  0.00    -0.248 NA
ATOM     56  C   UNL A   1      41.591  30.973  36.423  1.00  0.00     0.031 C 
ATOM     57  C   UNL A   1      43.529  27.615  31.754  1.00  0.00     0.029 A 
ATOM     58  C   UNL A   1      42.811  28.510  32.532  1.00  0.00     0.049 A 
ATOM     59  H   UNL A   1      41.060  29.583  32.048  1.00  0.00     0.167 HD
ATOM     60  C   UNL A   1      42.300  29.797  34.587  1.00  0.00     0.074 A 
ATOM     61  C   UNL A   1      42.545  30.174  35.964  1.00  0.00     0.031 C 
ATOM     62  C   UNL A   1      43.070  28.928  33.885  1.00  0.00     0.034 A 
BRANCH  49  63
ATOM     63  C   UNL A   1      40.990  27.757  28.184  1.00  0.00     0.023 A 
ATOM     64  C   UNL A   1      41.601  28.355  27.062  1.00  0.00     0.012 A 
ATOM     65  C   UNL A   1      40.587  26.409  28.115  1.00  0.00     0.148 A 
ATOM     66  C   UNL A   1      41.773  27.636  25.880  1.00  0.00     0.002 A 
ATOM     67  C   UNL A   1      40.807  25.685  26.948  1.00  0.00     0.091 A 
ATOM     68  F   UNL A   1      39.991  25.863  29.184  1.00  0.00    -0.205 F 
ATOM     69  C   UNL A   1      41.388  26.299  25.827  1.00  0.00     0.022 A 
BRANCH  67  70
ATOM     70  S   UNL A   1      40.422  23.936  26.806  1.00  0.00     0.127 S 
ATOM     71  O   UNL A   1      41.305  23.528  25.714  1.00  0.00    -0.237 OA
ATOM     72  O   UNL A   1      40.808  23.429  28.123  1.00  0.00    -0.237 OA
ATOM     73  O   UNL A   1      38.998  23.858  26.517  1.00  0.00    -0.744 OA
ENDBRANCH  67  70
ENDBRANCH  49  63
BRANCH  50  74
ATOM     74  C   UNL A   1      39.351  32.857  36.618  1.00  0.00     0.023 A 
ATOM     75  C   UNL A   1      39.982  34.093  36.864  1.00  0.00     0.012 A 
ATOM     76  C   UNL A   1      38.463  32.337  37.578  1.00  0.00     0.148 A 
ATOM     77  C   UNL A   1      39.761  34.778  38.059  1.00  0.00     0.002 A 
ATOM     78  C   UNL A   1      38.203  33.053  38.741  1.00  0.00     0.091 A 
ATOM     79  F   UNL A   1      37.879  31.156  37.329  1.00  0.00    -0.205 F 
ATOM     80  C   UNL A   1      38.866  34.264  38.992  1.00  0.00     0.022 A 
BRANCH  78  81
ATOM     81  S   UNL A   1      36.967  32.532  39.936  1.00  0.00     0.127 S 
ATOM     82  O   UNL A   1      37.452  31.206  40.308  1.00  0.00    -0.237 OA
ATOM     83  O   UNL A   1      37.105  33.554  40.975  1.00  0.00    -0.237 OA
ATOM     84  O   UNL A   1      35.695  32.565  39.228  1.00  0.00    -0.744 OA
ENDBRANCH  78  81
ENDBRANCH  50  74
BRANCH  62  85
ATOM     85  C   UNL A   1      44.280  28.351  34.574  1.00  0.00     0.023 A 
ATOM     86  C   UNL A   1      45.476  29.093  34.638  1.00  0.00     0.012 A 
ATOM     87  C   UNL A   1      44.206  27.102  35.221  1.00  0.00     0.148 A 
ATOM     88  C   UNL A   1      46.591  28.584  35.303  1.00  0.00     0.002 A 
ATOM     89  C   UNL A   1      45.303  26.625  35.927  1.00  0.00     0.091 A 
ATOM     90  F   UNL A   1      43.064  26.404  35.135  1.00  0.00    -0.205 F 
ATOM     91  C   UNL A   1      46.500  27.357  35.957  1.00  0.00     0.022 A 
BRANCH  89  92
ATOM     92  S   UNL A   1      45.248  25.105  36.883  1.00  0.00     0.127 S 
ATOM     93  O   UNL A   1      45.372  24.091  35.836  1.00  0.00    -0.237 OA
ATOM     94  O   UNL A   1      46.422  25.239  37.745  1.00  0.00    -0.237 OA
ATOM     95  O   UNL A   1      43.974  25.119  37.589  1.00  0.00    -0.744 OA
ENDBRANCH  89  92
ENDBRANCH  62  85
ENDBRANCH  36  37
ENDBRANCH  28  31
ENDBRANCH  26  27
ENDBRANCH  25  26
ENDBRANCH  24  25
ENDBRANCH   1  24
TORSDOF 19
ENDMDL
MODEL 2
REMARK VINA RESULT:     -10.5      1.367      1.712
REMARK SMILES CC(C)(NC(=O)[C@]1(C)CCCO1)C(C)(C)C(=O)NCCCCCCNC(=O)c1ccc(-c2c3nc(c(-c4cccc(S(=O)(=O)[O-])c4F)c4ccc([nH]4)c(-c4cccc(S(=O)(=O)[O-])c4F)c4nc(c(-c5cccc(S(=O)(=O)[O-])c5F)c5ccc2[nH]5)C=C4)C=C3)cc1
REMARK SMILES IDX 21 1 20 2 19 3 18 4 16 5 17 6 13 8 14 9 15 10 2 11 1 12 3 13
REMARK SMILES IDX 4 14 5 15 6 17 7 18 9 19 12 20 8 21 10 22 11 23 22 24 23 25
REMARK SMILES IDX 24 26 25 27 26 28 27 30 28 31 29 32 90 33 30 34 89 35 31 36
REMARK SMILES IDX 32 37 33 38 83 39 34 40 88 41 82 42 84 43 35 44 87 45 81 46
REMARK SMILES IDX 80 47 36 49 68 50 48 51 67 52 49 53 52 54 66 55 85 56 50 57
REMARK SMILES IDX 51 58 65 60 86 61 53 62 37 63 38 64 46 65 39 66 41 67 47 68
REMARK SMILES IDX 40 69 42 70 43 71 44 72 45 73 69 74 70 75 78 76 71 77 73 78
REMARK SMILES IDX 79 79 72 80 74 81 75 82 76 83 77 84 54 85 55 86 63 87 56 88
REMARK SMILES IDX 58 89 64 90 57 91 59 92 60 93 61 94 62 95
REMARK H PARENT 18 7 4 16 25 29 84 48 52 59
REMARK Flexibility Score: inf
ROOT
ATOM      1  C   UNL A   1      33.008  29.656  27.126  1.00  0.00     0.002 C 
ENDROOT
BRANCH   1   2
ATOM      2  C   UNL A   1      34.065  28.935  26.278  1.00  0.00     0.021 C 
BRANCH   2   3
ATOM      3  C   UNL A   1      34.035  27.414  26.359  1.00  0.00     0.116 C 
BRANCH   3   4
ATOM      4  N   UNL A   1      32.681  26.946  26.230  1.00  0.00    -0.356 N 
ATOM      5  C   UNL A   1      31.937  26.416  25.246  1.00  0.00     0.228 C 
ATOM      6  O   UNL A   1      30.733  26.353  25.529  1.00  0.00    -0.274 OA
ATOM      7  H   UNL A   1      32.176  27.037  27.070  1.00  0.00     0.163 HD
BRANCH   5   8
ATOM      8  C   UNL A   1      32.439  26.059  23.838  1.00  0.00     0.066 C 
ATOM      9  C   UNL A   1      33.441  26.987  23.113  1.00  0.00     0.024 C 
ATOM     10  C   UNL A   1      31.146  26.145  22.975  1.00  0.00     0.024 C 
BRANCH   8  11
ATOM     11  C   UNL A   1      33.063  24.586  23.919  1.00  0.00     0.048 C 
ATOM     12  C   UNL A   1      34.612  24.649  24.104  1.00  0.00     0.035 C 
ATOM     13  C   UNL A   1      32.890  23.803  22.576  1.00  0.00     0.035 C 
BRANCH  11  14
ATOM     14  N   UNL A   1      32.571  23.642  25.018  1.00  0.00    -0.348 N 
ATOM     15  C   UNL A   1      32.738  22.472  25.687  1.00  0.00     0.252 C 
ATOM     16  H   UNL A   1      31.783  24.076  25.419  1.00  0.00     0.164 HD
ATOM     17  O   UNL A   1      31.976  22.394  26.672  1.00  0.00    -0.272 OA
BRANCH  15  18
ATOM     18  C   UNL A   1      33.687  21.247  25.387  1.00  0.00     0.143 C 
ATOM     19  C   UNL A   1      33.412  20.654  23.986  1.00  0.00     0.048 C 
ATOM     20  O   UNL A   1      33.491  20.135  26.262  1.00  0.00    -0.365 OA
ATOM     21  C   UNL A   1      35.155  21.650  25.415  1.00  0.00     0.053 C 
ATOM     22  C   UNL A   1      32.400  19.565  24.228  1.00  0.00     0.032 C 
ATOM     23  C   UNL A   1      32.695  19.127  25.640  1.00  0.00     0.162 C 
ENDBRANCH  15  18
ENDBRANCH  11  14
ENDBRANCH   8  11
ENDBRANCH   5   8
ENDBRANCH   3   4
ENDBRANCH   2   3
ENDBRANCH   1   2
BRANCH   1  24
ATOM     24  C   UNL A   1      31.870  30.319  26.349  1.00  0.00     0.002 C 
BRANCH  24  25
ATOM     25  C   UNL A   1      31.616  31.786  26.694  1.00  0.00     0.021 C 
BRANCH  25  26
ATOM     26  C   UNL A   1      32.757  32.484  27.423  1.00  0.00     0.116 C 
BRANCH  26  27
ATOM     27  N   UNL A   1      32.503  33.897  27.646  1.00  0.00    -0.352 N 
ATOM     28  C   UNL A   1      33.125  34.742  28.530  1.00  0.00     0.251 C 
ATOM     29  H   UNL A   1      31.795  34.299  27.091  1.00  0.00     0.163 HD
ATOM     30  O   UNL A   1      32.703  35.883  28.701  1.00  0.00    -0.269 OA
BRANCH  28  31
ATOM     31  C   UNL A   1      34.289  34.253  29.299  1.00  0.00     0.039 A 
ATOM     32  C   UNL A   1      34.066  33.499  30.451  1.00  0.00     0.014 A 
ATOM     33  C   UNL A   1      35.594  34.508  28.861  1.00  0.00     0.014 A 
ATOM     34  C   UNL A   1      35.152  32.954  31.138  1.00  0.00     0.010 A 
ATOM     35  C   UNL A   1      36.667  33.898  29.501  1.00  0.00     0.010 A 
ATOM     36  C   UNL A   1      36.459  33.121  30.651  1.00  0.00    -0.014 A 
BRANCH  36  37
ATOM     37  C   UNL A   1      37.617  32.483  31.330  1.00  0.00     0.031 A 
ATOM     38  C   UNL A   1      38.331  31.325  30.687  1.00  0.00     0.074 A 
ATOM     39  C   UNL A   1      37.980  32.902  32.559  1.00  0.00     0.049 A 
ATOM     40  N   UNL A   1      39.336  30.622  31.142  1.00  0.00    -0.248 NA
ATOM     41  C   UNL A   1      37.836  30.880  29.374  1.00  0.00     0.031 C 
ATOM     42  C   UNL A   1      37.319  33.963  33.321  1.00  0.00     0.029 A 
ATOM     43  N   UNL A   1      38.981  32.470  33.394  1.00  0.00    -0.354 N 
ATOM     44  C   UNL A   1      39.572  29.637  30.191  1.00  0.00     0.074 A 
ATOM     45  C   UNL A   1      38.581  29.807  29.151  1.00  0.00     0.031 C 
ATOM     46  C   UNL A   1      37.935  34.106  34.505  1.00  0.00     0.029 A 
ATOM     47  C   UNL A   1      39.012  33.125  34.602  1.00  0.00     0.049 A 
ATOM     48  H   UNL A   1      39.615  31.758  33.150  1.00  0.00     0.167 HD
ATOM     49  C   UNL A   1      40.543  28.692  30.170  1.00  0.00     0.034 A 
ATOM     50  C   UNL A   1      39.812  32.951  35.674  1.00  0.00     0.034 A 
ATOM     51  C   UNL A   1      41.546  28.547  31.189  1.00  0.00     0.049 A 
ATOM     52  C   UNL A   1      40.899  31.913  35.612  1.00  0.00     0.074 A 
ATOM     53  C   UNL A   1      42.623  27.680  31.218  1.00  0.00     0.029 A 
ATOM     54  N   UNL A   1      41.591  29.278  32.367  1.00  0.00    -0.354 N 
ATOM     55  N   UNL A   1      41.205  31.096  34.635  1.00  0.00    -0.248 NA
ATOM     56  C   UNL A   1      41.775  31.799  36.787  1.00  0.00     0.031 C 
ATOM     57  C   UNL A   1      43.298  27.860  32.429  1.00  0.00     0.029 A 
ATOM     58  C   UNL A   1      42.667  28.871  33.136  1.00  0.00     0.049 A 
ATOM     59  H   UNL A   1      40.952  29.984  32.618  1.00  0.00     0.167 HD
ATOM     60  C   UNL A   1      42.329  30.397  35.060  1.00  0.00     0.074 A 
ATOM     61  C   UNL A   1      42.662  30.903  36.375  1.00  0.00     0.031 C 
ATOM     62  C   UNL A   1      43.016  29.416  34.424  1.00  0.00     0.034 A 
BRANCH  49  63
ATOM     63  C   UNL A   1      40.592  27.765  28.983  1.00  0.00     0.023 A 
ATOM     64  C   UNL A   1      39.616  26.757  28.842  1.00  0.00     0.012 A 
ATOM     65  C   UNL A   1      41.566  27.929  27.977  1.00  0.00     0.148 A 
ATOM     66  C   UNL A   1      39.632  25.901  27.741  1.00  0.00     0.002 A 
ATOM     67  C   UNL A   1      41.544  27.104  26.859  1.00  0.00     0.091 A 
ATOM     68  F   UNL A   1      42.496  28.880  28.137  1.00  0.00    -0.205 F 
ATOM     69  C   UNL A   1      40.587  26.083  26.745  1.00  0.00     0.022 A 
BRANCH  67  70
ATOM     70  S   UNL A   1      42.679  27.309  25.481  1.00  0.00     0.127 S 
ATOM     71  O   UNL A   1      43.951  27.503  26.176  1.00  0.00    -0.237 OA
ATOM     72  O   UNL A   1      42.553  26.028  24.787  1.00  0.00    -0.237 OA
ATOM     73  O   UNL A   1      42.199  28.459  24.730  1.00  0.00    -0.744 OA
ENDBRANCH  67  70
ENDBRANCH  49  63
BRANCH  50  74
ATOM     74  C   UNL A   1      39.647  33.818  36.876  1.00  0.00     0.023 A 
ATOM     75  C   UNL A   1      40.099  35.152  36.838  1.00  0.00     0.012 A 
ATOM     76  C   UNL A   1      39.030  33.335  38.045  1.00  0.00     0.148 A 
ATOM     77  C   UNL A   1      39.971  35.977  37.955  1.00  0.00     0.002 A 
ATOM     78  C   UNL A   1      38.854  34.180  39.135  1.00  0.00     0.091 A 
ATOM     79  F   UNL A   1      38.615  32.060  38.064  1.00  0.00    -0.205 F 
ATOM     80  C   UNL A   1      39.341  35.495  39.099  1.00  0.00     0.022 A 
BRANCH  78  81
ATOM     81  S   UNL A   1      37.937  33.685  40.598  1.00  0.00     0.127 S 
ATOM     82  O   UNL A   1      38.869  32.757  41.234  1.00  0.00    -0.237 OA
ATOM     83  O   UNL A   1      37.768  34.963  41.293  1.00  0.00    -0.237 OA
ATOM     84  O   UNL A   1      36.697  33.100  40.108  1.00  0.00    -0.744 OA
ENDBRANCH  78  81
ENDBRANCH  50  74
BRANCH  62  85
ATOM     85  C   UNL A   1      44.228  28.849  35.116  1.00  0.00     0.023 A 
ATOM     86  C   UNL A   1      45.497  29.421  34.900  1.00  0.00     0.012 A 
ATOM     87  C   UNL A   1      44.095  27.792  36.038  1.00  0.00     0.148 A 
ATOM     88  C   UNL A   1      46.621  28.926  35.562  1.00  0.00     0.002 A 
ATOM     89  C   UNL A   1      45.208  27.339  36.734  1.00  0.00     0.091 A 
ATOM     90  F   UNL A   1      42.882  27.248  36.217  1.00  0.00    -0.205 F 
ATOM     91  C   UNL A   1      46.474  27.894  36.487  1.00  0.00     0.022 A 
BRANCH  89  92
ATOM     92  S   UNL A   1      45.100  26.085  38.015  1.00  0.00     0.127 S 
ATOM     93  O   UNL A   1      44.068  26.640  38.890  1.00  0.00    -0.237 OA
ATOM     94  O   UNL A   1      44.688  24.904  37.257  1.00  0.00    -0.237 OA
ATOM     95  O   UNL A   1      46.430  25.993  38.603  1.00  0.00    -0.744 OA
ENDBRANCH  89  92
ENDBRANCH  62  85
ENDBRANCH  36  37
ENDBRANCH  28  31
ENDBRANCH  26  27
ENDBRANCH  25  26
ENDBRANCH  24  25
ENDBRANCH   1  24
TORSDOF 19
ENDMDL
MODEL 3
REMARK VINA RESULT:     -10.5      5.816     11.391
REMARK SMILES CC(C)(NC(=O)[C@]1(C)CCCO1)C(C)(C)C(=O)NCCCCCCNC(=O)c1ccc(-c2c3nc(c(-c4cccc(S(=O)(=O)[O-])c4F)c4ccc([nH]4)c(-c4cccc(S(=O)(=O)[O-])c4F)c4nc(c(-c5cccc(S(=O)(=O)[O-])c5F)c5ccc2[nH]5)C=C4)C=C3)cc1
REMARK SMILES IDX 21 1 20 2 19 3 18 4 16 5 17 6 13 8 14 9 15 10 2 11 1 12 3 13
REMARK SMILES IDX 4 14 5 15 6 17 7 18 9 19 12 20 8 21 10 22 11 23 22 24 23 25
REMARK SMILES IDX 24 26 25 27 26 28 27 30 28 31 29 32 90 33 30 34 89 35 31 36
REMARK SMILES IDX 32 37 33 38 83 39 34 40 88 41 82 42 84 43 35 44 87 45 81 46
REMARK SMILES IDX 80 47 36 49 68 50 48 51 67 52 49 53 52 54 66 55 85 56 50 57
REMARK SMILES IDX 51 58 65 60 86 61 53 62 37 63 38 64 46 65 39 66 41 67 47 68
REMARK SMILES IDX 40 69 42 70 43 71 44 72 45 73 69 74 70 75 78 76 71 77 73 78
REMARK SMILES IDX 79 79 72 80 74 81 75 82 76 83 77 84 54 85 55 86 63 87 56 88
REMARK SMILES IDX 58 89 64 90 57 91 59 92 60 93 61 94 62 95
REMARK H PARENT 18 7 4 16 25 29 84 48 52 59
REMARK Flexibility Score: inf
ROOT
ATOM      1  C   UNL A   1      37.315  21.648  24.562  1.00  0.00     0.002 C 
ENDROOT
BRANCH   1   2
ATOM      2  C   UNL A   1      37.014  22.604  25.724  1.00  0.00     0.021 C 
BRANCH   2   3
ATOM      3  C   UNL A   1      35.568  23.075  25.819  1.00  0.00     0.116 C 
BRANCH   3   4
ATOM      4  N   UNL A   1      35.178  23.700  24.584  1.00  0.00    -0.356 N 
ATOM      5  C   UNL A   1      34.115  23.634  23.767  1.00  0.00     0.228 C 
ATOM      6  O   UNL A   1      34.299  24.205  22.684  1.00  0.00    -0.274 OA
ATOM      7  H   UNL A   1      35.859  24.333  24.257  1.00  0.00     0.163 HD
BRANCH   5   8
ATOM      8  C   UNL A   1      32.840  22.814  24.023  1.00  0.00     0.066 C 
ATOM      9  C   UNL A   1      32.874  21.607  24.989  1.00  0.00     0.024 C 
ATOM     10  C   UNL A   1      32.547  22.182  22.631  1.00  0.00     0.024 C 
BRANCH   8  11
ATOM     11  C   UNL A   1      31.712  23.839  24.516  1.00  0.00     0.048 C 
ATOM     12  C   UNL A   1      30.816  23.192  25.619  1.00  0.00     0.035 C 
ATOM     13  C   UNL A   1      30.693  24.179  23.377  1.00  0.00     0.035 C 
BRANCH  11  14
ATOM     14  N   UNL A   1      32.149  25.185  25.099  1.00  0.00    -0.348 N 
ATOM     15  C   UNL A   1      32.337  26.515  24.904  1.00  0.00     0.252 C 
ATOM     16  H   UNL A   1      32.410  25.006  26.032  1.00  0.00     0.164 HD
ATOM     17  O   UNL A   1      32.608  27.102  25.970  1.00  0.00    -0.272 OA
BRANCH  15  18
ATOM     18  C   UNL A   1      32.298  27.371  23.577  1.00  0.00     0.143 C 
ATOM     19  C   UNL A   1      31.871  28.829  23.862  1.00  0.00     0.048 C 
ATOM     20  O   UNL A   1      31.329  26.922  22.628  1.00  0.00    -0.365 OA
ATOM     21  C   UNL A   1      33.662  27.433  22.904  1.00  0.00     0.053 C 
ATOM     22  C   UNL A   1      30.376  28.829  23.681  1.00  0.00     0.032 C 
ATOM     23  C   UNL A   1      30.150  27.725  22.679  1.00  0.00     0.162 C 
ENDBRANCH  15  18
ENDBRANCH  11  14
ENDBRANCH   8  11
ENDBRANCH   5   8
ENDBRANCH   3   4
ENDBRANCH   2   3
ENDBRANCH   1   2
BRANCH   1  24
ATOM     24  C   UNL A   1      36.956  20.179  24.797  1.00  0.00     0.002 C 
BRANCH  24  25
ATOM     25  C   UNL A   1      38.146  19.247  25.020  1.00  0.00     0.021 C 
BRANCH  25  26
ATOM     26  C   UNL A   1      39.169  19.739  26.037  1.00  0.00     0.116 C 
BRANCH  26  27
ATOM     27  N   UNL A   1      40.385  18.944  26.043  1.00  0.00    -0.352 N 
ATOM     28  C   UNL A   1      41.680  19.376  26.175  1.00  0.00     0.251 C 
ATOM     29  H   UNL A   1      40.263  17.972  25.939  1.00  0.00     0.163 HD
ATOM     30  O   UNL A   1      42.615  18.593  26.020  1.00  0.00    -0.269 OA
BRANCH  28  31
ATOM     31  C   UNL A   1      41.940  20.800  26.473  1.00  0.00     0.039 A 
ATOM     32  C   UNL A   1      42.270  21.166  27.779  1.00  0.00     0.014 A 
ATOM     33  C   UNL A   1      41.896  21.762  25.457  1.00  0.00     0.014 A 
ATOM     34  C   UNL A   1      42.607  22.491  28.057  1.00  0.00     0.010 A 
ATOM     35  C   UNL A   1      42.309  23.064  25.723  1.00  0.00     0.010 A 
ATOM     36  C   UNL A   1      42.661  23.445  27.027  1.00  0.00    -0.014 A 
BRANCH  36  37
ATOM     37  C   UNL A   1      43.091  24.841  27.297  1.00  0.00     0.031 A 
ATOM     38  C   UNL A   1      42.147  25.815  27.949  1.00  0.00     0.074 A 
ATOM     39  C   UNL A   1      44.309  25.252  26.888  1.00  0.00     0.049 A 
ATOM     40  N   UNL A   1      42.334  27.078  28.233  1.00  0.00    -0.248 NA
ATOM     41  C   UNL A   1      40.811  25.312  28.308  1.00  0.00     0.031 C 
ATOM     42  C   UNL A   1      45.285  24.426  26.174  1.00  0.00     0.029 A 
ATOM     43  N   UNL A   1      44.925  26.474  26.993  1.00  0.00    -0.354 N 
ATOM     44  C   UNL A   1      41.134  27.527  28.770  1.00  0.00     0.074 A 
ATOM     45  C   UNL A   1      40.213  26.413  28.739  1.00  0.00     0.031 C 
ATOM     46  C   UNL A   1      46.378  25.160  25.915  1.00  0.00     0.029 A 
ATOM     47  C   UNL A   1      46.169  26.517  26.410  1.00  0.00     0.049 A 
ATOM     48  H   UNL A   1      44.513  27.247  27.443  1.00  0.00     0.167 HD
ATOM     49  C   UNL A   1      40.833  28.750  29.271  1.00  0.00     0.034 A 
ATOM     50  C   UNL A   1      47.042  27.537  26.280  1.00  0.00     0.034 A 
ATOM     51  C   UNL A   1      41.762  29.845  29.331  1.00  0.00     0.049 A 
ATOM     52  C   UNL A   1      46.693  28.876  26.869  1.00  0.00     0.074 A 
ATOM     53  C   UNL A   1      41.582  31.095  29.897  1.00  0.00     0.029 A 
ATOM     54  N   UNL A   1      43.041  29.830  28.796  1.00  0.00    -0.354 N 
ATOM     55  N   UNL A   1      45.611  29.237  27.515  1.00  0.00    -0.248 NA
ATOM     56  C   UNL A   1      47.700  29.939  26.745  1.00  0.00     0.031 C 
ATOM     57  C   UNL A   1      42.739  31.847  29.672  1.00  0.00     0.029 A 
ATOM     58  C   UNL A   1      43.657  31.052  29.004  1.00  0.00     0.049 A 
ATOM     59  H   UNL A   1      43.452  29.061  28.336  1.00  0.00     0.167 HD
ATOM     60  C   UNL A   1      45.822  30.554  27.906  1.00  0.00     0.074 A 
ATOM     61  C   UNL A   1      47.145  30.920  27.443  1.00  0.00     0.031 C 
ATOM     62  C   UNL A   1      44.991  31.389  28.578  1.00  0.00     0.034 A 
BRANCH  49  63
ATOM     63  C   UNL A   1      39.450  28.955  29.835  1.00  0.00     0.023 A 
ATOM     64  C   UNL A   1      39.154  28.512  31.140  1.00  0.00     0.012 A 
ATOM     65  C   UNL A   1      38.463  29.638  29.096  1.00  0.00     0.148 A 
ATOM     66  C   UNL A   1      37.887  28.711  31.688  1.00  0.00     0.002 A 
ATOM     67  C   UNL A   1      37.219  29.875  29.669  1.00  0.00     0.091 A 
ATOM     68  F   UNL A   1      38.756  30.035  27.850  1.00  0.00    -0.205 F 
ATOM     69  C   UNL A   1      36.925  29.402  30.958  1.00  0.00     0.022 A 
BRANCH  67  70
ATOM     70  S   UNL A   1      35.938  30.828  28.843  1.00  0.00     0.127 S 
ATOM     71  O   UNL A   1      36.720  31.901  28.230  1.00  0.00    -0.237 OA
ATOM     72  O   UNL A   1      35.394  29.854  27.897  1.00  0.00    -0.237 OA
ATOM     73  O   UNL A   1      35.013  31.248  29.885  1.00  0.00    -0.744 OA
ENDBRANCH  67  70
ENDBRANCH  49  63
BRANCH  50  74
ATOM     74  C   UNL A   1      48.354  27.314  25.608  1.00  0.00     0.023 A 
ATOM     75  C   UNL A   1      49.470  26.926  26.374  1.00  0.00     0.012 A 
ATOM     76  C   UNL A   1      48.496  27.465  24.215  1.00  0.00     0.148 A 
ATOM     77  C   UNL A   1      50.712  26.728  25.771  1.00  0.00     0.002 A 
ATOM     78  C   UNL A   1      49.722  27.210  23.613  1.00  0.00     0.091 A 
ATOM     79  F   UNL A   1      47.424  27.843  23.505  1.00  0.00    -0.205 F 
ATOM     80  C   UNL A   1      50.837  26.860  24.391  1.00  0.00     0.022 A 
BRANCH  78  81
ATOM     81  S   UNL A   1      49.941  27.227  21.830  1.00  0.00     0.127 S 
ATOM     82  O   UNL A   1      48.973  26.220  21.401  1.00  0.00    -0.237 OA
ATOM     83  O   UNL A   1      49.585  28.607  21.497  1.00  0.00    -0.237 OA
ATOM     84  O   UNL A   1      51.340  26.896  21.600  1.00  0.00    -0.744 OA
ENDBRANCH  78  81
ENDBRANCH  50  74
BRANCH  62  85
ATOM     85  C   UNL A   1      45.497  32.772  28.897  1.00  0.00     0.023 A 
ATOM     86  C   UNL A   1      46.215  33.005  30.087  1.00  0.00     0.012 A 
ATOM     87  C   UNL A   1      45.320  33.826  27.979  1.00  0.00     0.148 A 
ATOM     88  C   UNL A   1      46.718  34.274  30.374  1.00  0.00     0.002 A 
ATOM     89  C   UNL A   1      45.870  35.074  28.247  1.00  0.00     0.091 A 
ATOM     90  F   UNL A   1      44.619  33.590  26.860  1.00  0.00    -0.205 F 
ATOM     91  C   UNL A   1      46.555  35.304  29.450  1.00  0.00     0.022 A 
BRANCH  89  92
ATOM     92  S   UNL A   1      45.799  36.431  27.072  1.00  0.00     0.127 S 
ATOM     93  O   UNL A   1      44.360  36.678  26.989  1.00  0.00    -0.237 OA
ATOM     94  O   UNL A   1      46.559  37.475  27.760  1.00  0.00    -0.237 OA
ATOM     95  O   UNL A   1      46.418  35.938  25.849  1.00  0.00    -0.744 OA
ENDBRANCH  89  92
ENDBRANCH  62  85
ENDBRANCH  36  37
ENDBRANCH  28  31
ENDBRANCH  26  27
ENDBRANCH  25  26
ENDBRANCH  24  25
ENDBRANCH   1  24
TORSDOF 19
ENDMDL
