MODEL 1
REMARK VINA RESULT:     -13.2      0.000      0.000
REMARK SMILES Cc1ccc(C(=O)NC2CC2)cc1NC(=O)[C@@H]1[C@@H](C(=O)NCCCCCCNC(=O)c2ccc(-c3c4nc(c(-c5cccc(S(=O)(=O)[O-])c5F)c5ccc([nH]5)c(-c5cccc(S(=O)(=O)[O-])c5F)c5nc(c(-c6cccc(S(=O)(=O)[O-])c6F)c6ccc3[nH]6)C=C5)C=C4)cc2)[C@H]2C=C[C@@H]1C2
REMARK SMILES IDX 24 1 23 2 22 3 21 4 19 5 20 6 18 8 17 9 97 10 94 11 96 12
REMARK SMILES IDX 98 13 95 14 15 15 14 16 16 18 13 19 1 20 2 21 3 22 4 23
REMARK SMILES IDX 12 24 5 25 6 26 7 27 8 28 9 30 10 31 11 32 25 33 26 34 27 35
REMARK SMILES IDX 28 36 29 37 30 39 31 40 32 41 93 42 33 43 92 44 34 45 35 46
REMARK SMILES IDX 36 47 86 48 37 49 91 50 85 51 87 52 38 53 90 54 84 55 83 56
REMARK SMILES IDX 39 58 71 59 51 60 70 61 52 62 55 63 69 64 88 65 53 66 54 67
REMARK SMILES IDX 68 69 89 70 56 71 40 72 41 73 49 74 42 75 44 76 50 77 43 78
REMARK SMILES IDX 45 79 46 80 47 81 48 82 72 83 73 84 81 85 74 86 76 87 82 88
REMARK SMILES IDX 75 89 77 90 78 91 79 92 80 93 57 94 58 95 66 96 59 97 61 98
REMARK SMILES IDX 67 99 60 100 62 101 63 102 64 103 65 104
REMARK H PARENT 21 7 14 17 8 29 28 38 87 57 55 68
REMARK Flexibility Score: inf
ROOT
ATOM      1  C   UNL A   1      36.309  22.987  23.801  1.00  0.00     0.002 C 
ENDROOT
BRANCH   1   2
ATOM      2  C   UNL A   1      34.881  23.537  23.894  1.00  0.00     0.021 C 
BRANCH   2   3
ATOM      3  C   UNL A   1      34.682  24.822  24.693  1.00  0.00     0.116 C 
BRANCH   3   4
ATOM      4  N   UNL A   1      34.544  25.987  23.853  1.00  0.00    -0.356 N 
ATOM      5  C   UNL A   1      33.776  27.094  23.978  1.00  0.00     0.224 C 
ATOM      6  O   UNL A   1      33.859  27.910  23.050  1.00  0.00    -0.275 OA
ATOM      7  H   UNL A   1      35.108  25.975  23.047  1.00  0.00     0.163 HD
BRANCH   5   8
ATOM      8  C   UNL A   1      32.778  27.329  25.112  1.00  0.00     0.098 C 
ATOM      9  C   UNL A   1      32.165  28.778  24.934  1.00  0.00     0.099 C 
ATOM     10  C   UNL A   1      32.228  29.369  26.366  1.00  0.00     0.025 C 
ATOM     11  C   UNL A   1      33.235  27.381  26.588  1.00  0.00     0.025 C 
ATOM     12  C   UNL A   1      33.681  29.633  26.700  1.00  0.00    -0.027 C 
ATOM     13  C   UNL A   1      32.045  28.120  27.224  1.00  0.00     0.017 C 
ATOM     14  C   UNL A   1      34.290  28.443  26.797  1.00  0.00    -0.027 C 
BRANCH   9  15
ATOM     15  C   UNL A   1      30.765  28.821  24.349  1.00  0.00     0.228 C 
ATOM     16  N   UNL A   1      30.086  27.677  24.005  1.00  0.00    -0.326 N 
ATOM     17  H   UNL A   1      29.203  27.853  23.608  1.00  0.00     0.169 HD
ATOM     18  O   UNL A   1      30.216  29.894  24.079  1.00  0.00    -0.274 OA
BRANCH  16  19
ATOM     19  C   UNL A   1      30.390  26.300  24.103  1.00  0.00     0.044 A 
ATOM     20  C   UNL A   1      31.058  26.221  21.609  1.00  0.00     0.046 C 
ATOM     21  C   UNL A   1      30.939  25.633  22.992  1.00  0.00    -0.027 A 
ATOM     22  C   UNL A   1      31.386  24.310  23.150  1.00  0.00     0.006 A 
ATOM     23  C   UNL A   1      31.286  23.656  24.379  1.00  0.00     0.014 A 
ATOM     24  C   UNL A   1      30.158  25.561  25.276  1.00  0.00     0.040 A 
ATOM     25  C   UNL A   1      30.652  24.266  25.467  1.00  0.00     0.041 A 
BRANCH  25  26
ATOM     26  C   UNL A   1      30.561  23.464  26.737  1.00  0.00     0.251 C 
ATOM     27  O   UNL A   1      29.498  23.474  27.365  1.00  0.00    -0.269 OA
ATOM     28  N   UNL A   1      31.576  22.678  27.245  1.00  0.00    -0.349 N 
ATOM     29  H   UNL A   1      31.348  22.202  28.077  1.00  0.00     0.164 HD
BRANCH  28  30
ATOM     30  C   UNL A   1      32.890  22.438  26.773  1.00  0.00     0.082 C 
ATOM     31  C   UNL A   1      33.997  22.187  27.759  1.00  0.00     0.027 C 
ATOM     32  C   UNL A   1      33.563  21.097  26.826  1.00  0.00     0.027 C 
ENDBRANCH  28  30
ENDBRANCH  25  26
ENDBRANCH  16  19
ENDBRANCH   9  15
ENDBRANCH   5   8
ENDBRANCH   3   4
ENDBRANCH   2   3
ENDBRANCH   1   2
BRANCH   1  33
ATOM     33  C   UNL A   1      36.576  21.573  24.338  1.00  0.00     0.002 C 
BRANCH  33  34
ATOM     34  C   UNL A   1      37.841  21.358  25.167  1.00  0.00     0.021 C 
BRANCH  34  35
ATOM     35  C   UNL A   1      38.371  22.590  25.882  1.00  0.00     0.116 C 
BRANCH  35  36
ATOM     36  N   UNL A   1      39.716  22.467  26.416  1.00  0.00    -0.352 N 
ATOM     37  C   UNL A   1      40.568  23.476  26.838  1.00  0.00     0.251 C 
ATOM     38  H   UNL A   1      40.068  21.550  26.487  1.00  0.00     0.163 HD
ATOM     39  O   UNL A   1      41.750  23.217  27.045  1.00  0.00    -0.269 OA
BRANCH  37  40
ATOM     40  C   UNL A   1      40.014  24.822  27.140  1.00  0.00     0.039 A 
ATOM     41  C   UNL A   1      40.457  25.905  26.372  1.00  0.00     0.014 A 
ATOM     42  C   UNL A   1      39.268  25.050  28.293  1.00  0.00     0.014 A 
ATOM     43  C   UNL A   1      40.375  27.198  26.888  1.00  0.00     0.010 A 
ATOM     44  C   UNL A   1      39.279  26.306  28.858  1.00  0.00     0.010 A 
ATOM     45  C   UNL A   1      39.884  27.366  28.179  1.00  0.00    -0.014 A 
BRANCH  45  46
ATOM     46  C   UNL A   1      39.942  28.607  28.928  1.00  0.00     0.031 A 
ATOM     47  C   UNL A   1      38.911  29.634  28.715  1.00  0.00     0.074 A 
ATOM     48  C   UNL A   1      40.843  28.740  29.925  1.00  0.00     0.049 A 
ATOM     49  N   UNL A   1      39.083  30.884  28.971  1.00  0.00    -0.248 NA
ATOM     50  C   UNL A   1      37.597  29.322  28.166  1.00  0.00     0.031 C 
ATOM     51  C   UNL A   1      40.806  29.708  31.013  1.00  0.00     0.029 A 
ATOM     52  N   UNL A   1      42.096  28.133  30.044  1.00  0.00    -0.354 N 
ATOM     53  C   UNL A   1      37.851  31.493  28.882  1.00  0.00     0.074 A 
ATOM     54  C   UNL A   1      36.979  30.500  28.297  1.00  0.00     0.031 C 
ATOM     55  C   UNL A   1      42.043  29.837  31.517  1.00  0.00     0.029 A 
ATOM     56  C   UNL A   1      42.936  29.075  30.662  1.00  0.00     0.049 A 
ATOM     57  H   UNL A   1      42.341  27.225  29.752  1.00  0.00     0.167 HD
ATOM     58  C   UNL A   1      37.669  32.710  29.467  1.00  0.00     0.034 A 
ATOM     59  C   UNL A   1      44.105  29.532  30.128  1.00  0.00     0.034 A 
ATOM     60  C   UNL A   1      38.896  33.151  30.141  1.00  0.00     0.049 A 
ATOM     61  C   UNL A   1      44.130  31.039  29.960  1.00  0.00     0.074 A 
ATOM     62  C   UNL A   1      39.317  33.049  31.458  1.00  0.00     0.029 A 
ATOM     63  N   UNL A   1      40.003  33.537  29.400  1.00  0.00    -0.354 N 
ATOM     64  N   UNL A   1      43.091  31.808  30.132  1.00  0.00    -0.248 NA
ATOM     65  C   UNL A   1      45.310  31.797  29.559  1.00  0.00     0.031 C 
ATOM     66  C   UNL A   1      40.701  33.346  31.501  1.00  0.00     0.029 A 
ATOM     67  C   UNL A   1      41.119  33.648  30.216  1.00  0.00     0.049 A 
ATOM     68  H   UNL A   1      39.998  33.707  28.429  1.00  0.00     0.167 HD
ATOM     69  C   UNL A   1      43.388  33.095  29.757  1.00  0.00     0.074 A 
ATOM     70  C   UNL A   1      44.813  33.046  29.480  1.00  0.00     0.031 C 
ATOM     71  C   UNL A   1      42.409  34.052  29.664  1.00  0.00     0.034 A 
BRANCH  58  72
ATOM     72  C   UNL A   1      36.322  33.353  29.743  1.00  0.00     0.023 A 
ATOM     73  C   UNL A   1      35.671  33.977  28.653  1.00  0.00     0.012 A 
ATOM     74  C   UNL A   1      35.660  33.437  30.989  1.00  0.00     0.148 A 
ATOM     75  C   UNL A   1      34.508  34.739  28.801  1.00  0.00     0.002 A 
ATOM     76  C   UNL A   1      34.533  34.252  31.153  1.00  0.00     0.091 A 
ATOM     77  F   UNL A   1      36.064  32.670  32.006  1.00  0.00    -0.205 F 
ATOM     78  C   UNL A   1      33.960  34.910  30.060  1.00  0.00     0.022 A 
BRANCH  76  79
ATOM     79  S   UNL A   1      33.806  34.588  32.766  1.00  0.00     0.127 S 
ATOM     80  O   UNL A   1      32.568  35.286  32.406  1.00  0.00    -0.237 OA
ATOM     81  O   UNL A   1      33.608  33.248  33.311  1.00  0.00    -0.237 OA
ATOM     82  O   UNL A   1      34.768  35.423  33.476  1.00  0.00    -0.744 OA
ENDBRANCH  76  79
ENDBRANCH  58  72
BRANCH  59  83
ATOM     83  C   UNL A   1      44.780  28.545  29.240  1.00  0.00     0.023 A 
ATOM     84  C   UNL A   1      45.211  27.341  29.848  1.00  0.00     0.012 A 
ATOM     85  C   UNL A   1      44.601  28.578  27.847  1.00  0.00     0.148 A 
ATOM     86  C   UNL A   1      45.308  26.162  29.111  1.00  0.00     0.002 A 
ATOM     87  C   UNL A   1      44.697  27.394  27.118  1.00  0.00     0.091 A 
ATOM     88  F   UNL A   1      44.251  29.736  27.272  1.00  0.00    -0.205 F 
ATOM     89  C   UNL A   1      45.008  26.181  27.754  1.00  0.00     0.022 A 
BRANCH  87  90
ATOM     90  S   UNL A   1      44.272  27.335  25.372  1.00  0.00     0.127 S 
ATOM     91  O   UNL A   1      45.499  27.826  24.754  1.00  0.00    -0.237 OA
ATOM     92  O   UNL A   1      44.006  25.911  25.162  1.00  0.00    -0.237 OA
ATOM     93  O   UNL A   1      43.097  28.185  25.249  1.00  0.00    -0.744 OA
ENDBRANCH  87  90
ENDBRANCH  59  83
BRANCH  71  94
ATOM     94  C   UNL A   1      42.538  35.449  29.062  1.00  0.00     0.023 A 
ATOM     95  C   UNL A   1      41.845  35.852  27.906  1.00  0.00     0.012 A 
ATOM     96  C   UNL A   1      43.290  36.465  29.721  1.00  0.00     0.148 A 
ATOM     97  C   UNL A   1      41.914  37.161  27.409  1.00  0.00     0.002 A 
ATOM     98  C   UNL A   1      43.264  37.789  29.287  1.00  0.00     0.091 A 
ATOM     99  F   UNL A   1      44.073  36.155  30.763  1.00  0.00    -0.205 F 
ATOM    100  C   UNL A   1      42.599  38.137  28.114  1.00  0.00     0.022 A 
BRANCH  98 101
ATOM    101  S   UNL A   1      43.954  39.112  30.295  1.00  0.00     0.127 S 
ATOM    102  O   UNL A   1      43.797  38.578  31.645  1.00  0.00    -0.237 OA
ATOM    103  O   UNL A   1      45.339  39.175  29.822  1.00  0.00    -0.237 OA
ATOM    104  O   UNL A   1      43.160  40.289  29.969  1.00  0.00    -0.744 OA
ENDBRANCH  98 101
ENDBRANCH  71  94
ENDBRANCH  45  46
ENDBRANCH  37  40
ENDBRANCH  35  36
ENDBRANCH  34  35
ENDBRANCH  33  34
ENDBRANCH   1  33
TORSDOF 20
ENDMDL
MODEL 2
REMARK VINA RESULT:     -12.7      3.776      9.782
REMARK SMILES Cc1ccc(C(=O)NC2CC2)cc1NC(=O)[C@@H]1[C@@H](C(=O)NCCCCCCNC(=O)c2ccc(-c3c4nc(c(-c5cccc(S(=O)(=O)[O-])c5F)c5ccc([nH]5)c(-c5cccc(S(=O)(=O)[O-])c5F)c5nc(c(-c6cccc(S(=O)(=O)[O-])c6F)c6ccc3[nH]6)C=C5)C=C4)cc2)[C@H]2C=C[C@@H]1C2
REMARK SMILES IDX 24 1 23 2 22 3 21 4 19 5 20 6 18 8 17 9 97 10 94 11 96 12
REMARK SMILES IDX 98 13 95 14 15 15 14 16 16 18 13 19 1 20 2 21 3 22 4 23
REMARK SMILES IDX 12 24 5 25 6 26 7 27 8 28 9 30 10 31 11 32 25 33 26 34 27 35
REMARK SMILES IDX 28 36 29 37 30 39 31 40 32 41 93 42 33 43 92 44 34 45 35 46
REMARK SMILES IDX 36 47 86 48 37 49 91 50 85 51 87 52 38 53 90 54 84 55 83 56
REMARK SMILES IDX 39 58 71 59 51 60 70 61 52 62 55 63 69 64 88 65 53 66 54 67
REMARK SMILES IDX 68 69 89 70 56 71 40 72 41 73 49 74 42 75 44 76 50 77 43 78
REMARK SMILES IDX 45 79 46 80 47 81 48 82 72 83 73 84 81 85 74 86 76 87 82 88
REMARK SMILES IDX 75 89 77 90 78 91 79 92 80 93 57 94 58 95 66 96 59 97 61 98
REMARK SMILES IDX 67 99 60 100 62 101 63 102 64 103 65 104
REMARK H PARENT 21 7 14 17 8 29 28 38 87 57 55 68
REMARK Flexibility Score: inf
ROOT
ATOM      1  C   UNL A   1      33.475  27.936  27.027  1.00  0.00     0.002 C 
ENDROOT
BRANCH   1   2
ATOM      2  C   UNL A   1      32.215  27.221  26.523  1.00  0.00     0.021 C 
BRANCH   2   3
ATOM      3  C   UNL A   1      32.415  25.909  25.771  1.00  0.00     0.116 C 
BRANCH   3   4
ATOM      4  N   UNL A   1      33.791  25.475  25.759  1.00  0.00    -0.356 N 
ATOM      5  C   UNL A   1      34.426  24.536  25.020  1.00  0.00     0.224 C 
ATOM      6  O   UNL A   1      35.626  24.373  25.281  1.00  0.00    -0.275 OA
ATOM      7  H   UNL A   1      34.370  25.945  26.400  1.00  0.00     0.163 HD
BRANCH   5   8
ATOM      8  C   UNL A   1      33.740  23.635  23.993  1.00  0.00     0.098 C 
ATOM      9  C   UNL A   1      32.549  24.451  23.343  1.00  0.00     0.099 C 
ATOM     10  C   UNL A   1      31.373  23.440  23.361  1.00  0.00     0.025 C 
ATOM     11  C   UNL A   1      33.011  22.339  24.420  1.00  0.00     0.025 C 
ATOM     12  C   UNL A   1      30.938  23.254  24.799  1.00  0.00    -0.027 C 
ATOM     13  C   UNL A   1      32.106  22.111  23.197  1.00  0.00     0.017 C 
ATOM     14  C   UNL A   1      31.934  22.628  25.440  1.00  0.00    -0.027 C 
BRANCH   9  15
ATOM     15  C   UNL A   1      32.822  24.999  21.954  1.00  0.00     0.228 C 
ATOM     16  N   UNL A   1      32.442  26.268  21.587  1.00  0.00    -0.326 N 
ATOM     17  H   UNL A   1      32.653  26.481  20.650  1.00  0.00     0.169 HD
ATOM     18  O   UNL A   1      33.322  24.292  21.073  1.00  0.00    -0.274 OA
BRANCH  16  19
ATOM     19  C   UNL A   1      31.812  27.330  22.274  1.00  0.00     0.044 A 
ATOM     20  C   UNL A   1      34.065  28.069  23.297  1.00  0.00     0.046 C 
ATOM     21  C   UNL A   1      32.596  28.239  23.009  1.00  0.00    -0.027 A 
ATOM     22  C   UNL A   1      31.979  29.380  23.552  1.00  0.00     0.006 A 
ATOM     23  C   UNL A   1      30.614  29.614  23.379  1.00  0.00     0.014 A 
ATOM     24  C   UNL A   1      30.418  27.514  22.258  1.00  0.00     0.040 A 
ATOM     25  C   UNL A   1      29.800  28.672  22.739  1.00  0.00     0.041 A 
BRANCH  25  26
ATOM     26  C   UNL A   1      28.335  29.000  22.636  1.00  0.00     0.251 C 
ATOM     27  O   UNL A   1      27.522  28.242  23.174  1.00  0.00    -0.269 OA
ATOM     28  N   UNL A   1      27.821  30.117  22.008  1.00  0.00    -0.349 N 
ATOM     29  H   UNL A   1      26.840  30.193  22.047  1.00  0.00     0.164 HD
BRANCH  28  30
ATOM     30  C   UNL A   1      28.465  31.174  21.319  1.00  0.00     0.082 C 
ATOM     31  C   UNL A   1      27.643  32.149  20.523  1.00  0.00     0.027 C 
ATOM     32  C   UNL A   1      28.388  32.613  21.738  1.00  0.00     0.027 C 
ENDBRANCH  28  30
ENDBRANCH  25  26
ENDBRANCH  16  19
ENDBRANCH   9  15
ENDBRANCH   5   8
ENDBRANCH   3   4
ENDBRANCH   2   3
ENDBRANCH   1   2
BRANCH   1  33
ATOM     33  C   UNL A   1      33.702  29.393  26.594  1.00  0.00     0.002 C 
BRANCH  33  34
ATOM     34  C   UNL A   1      33.325  30.492  27.585  1.00  0.00     0.021 C 
BRANCH  34  35
ATOM     35  C   UNL A   1      34.312  31.644  27.690  1.00  0.00     0.116 C 
BRANCH  35  36
ATOM     36  N   UNL A   1      34.619  32.077  29.042  1.00  0.00    -0.352 N 
ATOM     37  C   UNL A   1      35.410  31.442  29.987  1.00  0.00     0.251 C 
ATOM     38  H   UNL A   1      34.213  32.929  29.323  1.00  0.00     0.163 HD
ATOM     39  O   UNL A   1      35.378  31.827  31.153  1.00  0.00    -0.269 OA
BRANCH  37  40
ATOM     40  C   UNL A   1      36.363  30.387  29.554  1.00  0.00     0.039 A 
ATOM     41  C   UNL A   1      36.671  29.364  30.458  1.00  0.00     0.014 A 
ATOM     42  C   UNL A   1      37.111  30.529  28.389  1.00  0.00     0.014 A 
ATOM     43  C   UNL A   1      37.867  28.660  30.324  1.00  0.00     0.010 A 
ATOM     44  C   UNL A   1      38.342  29.917  28.306  1.00  0.00     0.010 A 
ATOM     45  C   UNL A   1      38.741  29.027  29.306  1.00  0.00    -0.014 A 
BRANCH  45  46
ATOM     46  C   UNL A   1      40.102  28.543  29.175  1.00  0.00     0.031 A 
ATOM     47  C   UNL A   1      40.345  27.123  28.875  1.00  0.00     0.074 A 
ATOM     48  C   UNL A   1      41.124  29.427  29.167  1.00  0.00     0.049 A 
ATOM     49  N   UNL A   1      41.442  26.511  29.156  1.00  0.00    -0.248 NA
ATOM     50  C   UNL A   1      39.341  26.273  28.249  1.00  0.00     0.031 C 
ATOM     51  C   UNL A   1      42.474  29.198  28.670  1.00  0.00     0.029 A 
ATOM     52  N   UNL A   1      41.193  30.673  29.794  1.00  0.00    -0.354 N 
ATOM     53  C   UNL A   1      41.401  25.288  28.523  1.00  0.00     0.074 A 
ATOM     54  C   UNL A   1      40.043  25.155  28.045  1.00  0.00     0.031 C 
ATOM     55  C   UNL A   1      43.295  30.102  29.224  1.00  0.00     0.029 A 
ATOM     56  C   UNL A   1      42.524  30.834  30.213  1.00  0.00     0.049 A 
ATOM     57  H   UNL A   1      40.454  31.312  29.918  1.00  0.00     0.167 HD
ATOM     58  C   UNL A   1      42.562  24.603  28.329  1.00  0.00     0.034 A 
ATOM     59  C   UNL A   1      42.904  31.065  31.503  1.00  0.00     0.034 A 
ATOM     60  C   UNL A   1      43.707  25.363  28.845  1.00  0.00     0.049 A 
ATOM     61  C   UNL A   1      43.866  30.020  32.033  1.00  0.00     0.074 A 
ATOM     62  C   UNL A   1      44.601  26.223  28.227  1.00  0.00     0.029 A 
ATOM     63  N   UNL A   1      43.885  25.519  30.211  1.00  0.00    -0.354 N 
ATOM     64  N   UNL A   1      44.166  28.919  31.403  1.00  0.00    -0.248 NA
ATOM     65  C   UNL A   1      44.544  30.113  33.321  1.00  0.00     0.031 C 
ATOM     66  C   UNL A   1      45.302  26.926  29.237  1.00  0.00     0.029 A 
ATOM     67  C   UNL A   1      44.850  26.482  30.468  1.00  0.00     0.049 A 
ATOM     68  H   UNL A   1      43.395  25.017  30.903  1.00  0.00     0.167 HD
ATOM     69  C   UNL A   1      44.935  28.110  32.201  1.00  0.00     0.074 A 
ATOM     70  C   UNL A   1      45.206  28.941  33.362  1.00  0.00     0.031 C 
ATOM     71  C   UNL A   1      45.221  26.817  31.839  1.00  0.00     0.034 A 
BRANCH  58  72
ATOM     72  C   UNL A   1      42.735  23.430  27.380  1.00  0.00     0.023 A 
ATOM     73  C   UNL A   1      41.951  22.278  27.630  1.00  0.00     0.012 A 
ATOM     74  C   UNL A   1      43.631  23.342  26.291  1.00  0.00     0.148 A 
ATOM     75  C   UNL A   1      42.125  21.079  26.935  1.00  0.00     0.002 A 
ATOM     76  C   UNL A   1      43.854  22.125  25.637  1.00  0.00     0.091 A 
ATOM     77  F   UNL A   1      44.218  24.450  25.826  1.00  0.00    -0.205 F 
ATOM     78  C   UNL A   1      43.106  20.989  25.963  1.00  0.00     0.022 A 
BRANCH  76  79
ATOM     79  S   UNL A   1      45.160  21.904  24.416  1.00  0.00     0.127 S 
ATOM     80  O   UNL A   1      46.365  21.907  25.250  1.00  0.00    -0.237 OA
ATOM     81  O   UNL A   1      44.832  20.606  23.832  1.00  0.00    -0.237 OA
ATOM     82  O   UNL A   1      45.065  23.045  23.513  1.00  0.00    -0.744 OA
ENDBRANCH  76  79
ENDBRANCH  58  72
BRANCH  59  83
ATOM     83  C   UNL A   1      41.879  31.792  32.304  1.00  0.00     0.023 A 
ATOM     84  C   UNL A   1      41.479  33.059  31.813  1.00  0.00     0.012 A 
ATOM     85  C   UNL A   1      41.038  31.112  33.200  1.00  0.00     0.148 A 
ATOM     86  C   UNL A   1      40.206  33.561  32.083  1.00  0.00     0.002 A 
ATOM     87  C   UNL A   1      39.767  31.620  33.462  1.00  0.00     0.091 A 
ATOM     88  F   UNL A   1      41.451  29.943  33.706  1.00  0.00    -0.205 F 
ATOM     89  C   UNL A   1      39.335  32.820  32.872  1.00  0.00     0.022 A 
BRANCH  87  90
ATOM     90  S   UNL A   1      38.571  30.689  34.430  1.00  0.00     0.127 S 
ATOM     91  O   UNL A   1      37.466  31.638  34.520  1.00  0.00    -0.237 OA
ATOM     92  O   UNL A   1      38.315  29.527  33.579  1.00  0.00    -0.237 OA
ATOM     93  O   UNL A   1      39.263  30.377  35.672  1.00  0.00    -0.744 OA
ENDBRANCH  87  90
ENDBRANCH  59  83
BRANCH  71  94
ATOM     94  C   UNL A   1      45.869  25.738  32.703  1.00  0.00     0.023 A 
ATOM     95  C   UNL A   1      47.262  25.618  32.861  1.00  0.00     0.012 A 
ATOM     96  C   UNL A   1      45.076  24.860  33.496  1.00  0.00     0.148 A 
ATOM     97  C   UNL A   1      47.839  24.670  33.719  1.00  0.00     0.002 A 
ATOM     98  C   UNL A   1      45.650  23.999  34.429  1.00  0.00     0.091 A 
ATOM     99  F   UNL A   1      43.746  24.820  33.333  1.00  0.00    -0.205 F 
ATOM    100  C   UNL A   1      47.035  23.880  34.524  1.00  0.00     0.022 A 
BRANCH  98 101
ATOM    101  S   UNL A   1      44.641  23.128  35.638  1.00  0.00     0.127 S 
ATOM    102  O   UNL A   1      44.102  24.228  36.433  1.00  0.00    -0.237 OA
ATOM    103  O   UNL A   1      43.656  22.448  34.793  1.00  0.00    -0.237 OA
ATOM    104  O   UNL A   1      45.560  22.227  36.321  1.00  0.00    -0.744 OA
ENDBRANCH  98 101
ENDBRANCH  71  94
ENDBRANCH  45  46
ENDBRANCH  37  40
ENDBRANCH  35  36
ENDBRANCH  34  35
ENDBRANCH  33  34
ENDBRANCH   1  33
TORSDOF 20
ENDMDL
MODEL 3
REMARK VINA RESULT:     -11.8      4.020      9.886
REMARK SMILES Cc1ccc(C(=O)NC2CC2)cc1NC(=O)[C@@H]1[C@@H](C(=O)NCCCCCCNC(=O)c2ccc(-c3c4nc(c(-c5cccc(S(=O)(=O)[O-])c5F)c5ccc([nH]5)c(-c5cccc(S(=O)(=O)[O-])c5F)c5nc(c(-c6cccc(S(=O)(=O)[O-])c6F)c6ccc3[nH]6)C=C5)C=C4)cc2)[C@H]2C=C[C@@H]1C2
REMARK SMILES IDX 24 1 23 2 22 3 21 4 19 5 20 6 18 8 17 9 97 10 94 11 96 12
REMARK SMILES IDX 98 13 95 14 15 15 14 16 16 18 13 19 1 20 2 21 3 22 4 23
REMARK SMILES IDX 12 24 5 25 6 26 7 27 8 28 9 30 10 31 11 32 25 33 26 34 27 35
REMARK SMILES IDX 28 36 29 37 30 39 31 40 32 41 93 42 33 43 92 44 34 45 35 46
REMARK SMILES IDX 36 47 86 48 37 49 91 50 85 51 87 52 38 53 90 54 84 55 83 56
REMARK SMILES IDX 39 58 71 59 51 60 70 61 52 62 55 63 69 64 88 65 53 66 54 67
REMARK SMILES IDX 68 69 89 70 56 71 40 72 41 73 49 74 42 75 44 76 50 77 43 78
REMARK SMILES IDX 45 79 46 80 47 81 48 82 72 83 73 84 81 85 74 86 76 87 82 88
REMARK SMILES IDX 75 89 77 90 78 91 79 92 80 93 57 94 58 95 66 96 59 97 61 98
REMARK SMILES IDX 67 99 60 100 62 101 63 102 64 103 65 104
REMARK H PARENT 21 7 14 17 8 29 28 38 87 57 55 68
REMARK Flexibility Score: inf
ROOT
ATOM      1  C   UNL A   1      34.730  29.408  27.632  1.00  0.00     0.002 C 
ENDROOT
BRANCH   1   2
ATOM      2  C   UNL A   1      33.513  28.535  27.301  1.00  0.00     0.021 C 
BRANCH   2   3
ATOM      3  C   UNL A   1      33.723  27.399  26.304  1.00  0.00     0.116 C 
BRANCH   3   4
ATOM      4  N   UNL A   1      32.771  26.328  26.468  1.00  0.00    -0.356 N 
ATOM      5  C   UNL A   1      32.881  24.995  26.264  1.00  0.00     0.224 C 
ATOM      6  O   UNL A   1      31.851  24.337  26.462  1.00  0.00    -0.275 OA
ATOM      7  H   UNL A   1      31.886  26.617  26.782  1.00  0.00     0.163 HD
BRANCH   5   8
ATOM      8  C   UNL A   1      34.136  24.304  25.728  1.00  0.00     0.098 C 
ATOM      9  C   UNL A   1      33.707  23.385  24.512  1.00  0.00     0.099 C 
ATOM     10  C   UNL A   1      34.449  22.052  24.794  1.00  0.00     0.025 C 
ATOM     11  C   UNL A   1      34.931  23.298  26.591  1.00  0.00     0.025 C 
ATOM     12  C   UNL A   1      33.793  21.395  25.988  1.00  0.00    -0.027 C 
ATOM     13  C   UNL A   1      35.710  22.545  25.499  1.00  0.00     0.017 C 
ATOM     14  C   UNL A   1      34.051  22.160  27.058  1.00  0.00    -0.027 C 
BRANCH   9  15
ATOM     15  C   UNL A   1      34.021  23.944  23.135  1.00  0.00     0.228 C 
ATOM     16  N   UNL A   1      33.224  24.892  22.539  1.00  0.00    -0.326 N 
ATOM     17  H   UNL A   1      33.526  25.141  21.636  1.00  0.00     0.169 HD
ATOM     18  O   UNL A   1      34.958  23.504  22.463  1.00  0.00    -0.274 OA
BRANCH  16  19
ATOM     19  C   UNL A   1      32.063  25.585  22.951  1.00  0.00     0.044 A 
ATOM     20  C   UNL A   1      30.725  23.378  23.054  1.00  0.00     0.046 C 
ATOM     21  C   UNL A   1      30.906  24.856  23.284  1.00  0.00    -0.027 A 
ATOM     22  C   UNL A   1      29.814  25.540  23.846  1.00  0.00     0.006 A 
ATOM     23  C   UNL A   1      29.860  26.918  24.065  1.00  0.00     0.014 A 
ATOM     24  C   UNL A   1      32.014  26.987  23.036  1.00  0.00     0.040 A 
ATOM     25  C   UNL A   1      30.961  27.674  23.648  1.00  0.00     0.041 A 
BRANCH  25  26
ATOM     26  C   UNL A   1      30.899  29.157  23.895  1.00  0.00     0.251 C 
ATOM     27  O   UNL A   1      31.561  29.627  24.825  1.00  0.00    -0.269 OA
ATOM     28  N   UNL A   1      30.177  30.052  23.131  1.00  0.00    -0.349 N 
ATOM     29  H   UNL A   1      30.258  30.991  23.415  1.00  0.00     0.164 HD
BRANCH  28  30
ATOM     30  C   UNL A   1      29.340  29.850  22.006  1.00  0.00     0.082 C 
ATOM     31  C   UNL A   1      27.853  30.025  22.148  1.00  0.00     0.027 C 
ATOM     32  C   UNL A   1      28.638  30.959  21.278  1.00  0.00     0.027 C 
ENDBRANCH  28  30
ENDBRANCH  25  26
ENDBRANCH  16  19
ENDBRANCH   9  15
ENDBRANCH   5   8
ENDBRANCH   3   4
ENDBRANCH   2   3
ENDBRANCH   1   2
BRANCH   1  33
ATOM     33  C   UNL A   1      34.653  30.908  27.311  1.00  0.00     0.002 C 
BRANCH  33  34
ATOM     34  C   UNL A   1      33.635  31.746  28.083  1.00  0.00     0.021 C 
BRANCH  34  35
ATOM     35  C   UNL A   1      34.082  33.156  28.436  1.00  0.00     0.116 C 
BRANCH  35  36
ATOM     36  N   UNL A   1      34.225  33.424  29.856  1.00  0.00    -0.352 N 
ATOM     37  C   UNL A   1      35.014  32.758  30.780  1.00  0.00     0.251 C 
ATOM     38  H   UNL A   1      33.693  34.175  30.206  1.00  0.00     0.163 HD
ATOM     39  O   UNL A   1      34.843  32.967  31.978  1.00  0.00    -0.269 OA
BRANCH  37  40
ATOM     40  C   UNL A   1      36.125  31.892  30.304  1.00  0.00     0.039 A 
ATOM     41  C   UNL A   1      36.224  30.598  30.828  1.00  0.00     0.014 A 
ATOM     42  C   UNL A   1      37.172  32.416  29.551  1.00  0.00     0.014 A 
ATOM     43  C   UNL A   1      37.453  29.940  30.816  1.00  0.00     0.010 A 
ATOM     44  C   UNL A   1      38.412  31.823  29.628  1.00  0.00     0.010 A 
ATOM     45  C   UNL A   1      38.560  30.614  30.311  1.00  0.00    -0.014 A 
BRANCH  45  46
ATOM     46  C   UNL A   1      39.931  30.152  30.430  1.00  0.00     0.031 A 
ATOM     47  C   UNL A   1      40.376  28.987  29.652  1.00  0.00     0.074 A 
ATOM     48  C   UNL A   1      40.823  30.891  31.126  1.00  0.00     0.049 A 
ATOM     49  N   UNL A   1      41.379  28.248  29.981  1.00  0.00    -0.248 NA
ATOM     50  C   UNL A   1      39.697  28.549  28.439  1.00  0.00     0.031 C 
ATOM     51  C   UNL A   1      42.275  30.817  31.040  1.00  0.00     0.029 A 
ATOM     52  N   UNL A   1      40.583  31.741  32.208  1.00  0.00    -0.354 N 
ATOM     53  C   UNL A   1      41.644  27.420  28.913  1.00  0.00     0.074 A 
ATOM     54  C   UNL A   1      40.522  27.586  28.017  1.00  0.00     0.031 C 
ATOM     55  C   UNL A   1      42.799  31.345  32.156  1.00  0.00     0.029 A 
ATOM     56  C   UNL A   1      41.696  31.627  33.057  1.00  0.00     0.049 A 
ATOM     57  H   UNL A   1      39.790  32.308  32.347  1.00  0.00     0.167 HD
ATOM     58  C   UNL A   1      42.862  26.815  28.829  1.00  0.00     0.034 A 
ATOM     59  C   UNL A   1      41.630  31.259  34.369  1.00  0.00     0.034 A 
ATOM     60  C   UNL A   1      43.717  27.210  29.956  1.00  0.00     0.049 A 
ATOM     61  C   UNL A   1      42.464  30.032  34.683  1.00  0.00     0.074 A 
ATOM     62  C   UNL A   1      44.682  28.196  30.084  1.00  0.00     0.029 A 
ATOM     63  N   UNL A   1      43.443  26.754  31.236  1.00  0.00    -0.354 N 
ATOM     64  N   UNL A   1      43.040  29.292  33.778  1.00  0.00    -0.248 NA
ATOM     65  C   UNL A   1      42.692  29.523  36.031  1.00  0.00     0.031 C 
ATOM     66  C   UNL A   1      44.967  28.356  31.462  1.00  0.00     0.029 A 
ATOM     67  C   UNL A   1      44.192  27.455  32.171  1.00  0.00     0.049 A 
ATOM     68  H   UNL A   1      42.805  26.035  31.452  1.00  0.00     0.167 HD
ATOM     69  C   UNL A   1      43.587  28.174  34.357  1.00  0.00     0.074 A 
ATOM     70  C   UNL A   1      43.407  28.409  35.780  1.00  0.00     0.031 C 
ATOM     71  C   UNL A   1      44.083  27.147  33.594  1.00  0.00     0.034 A 
BRANCH  58  72
ATOM     72  C   UNL A   1      43.425  26.154  27.584  1.00  0.00     0.023 A 
ATOM     73  C   UNL A   1      43.883  27.009  26.552  1.00  0.00     0.012 A 
ATOM     74  C   UNL A   1      43.504  24.769  27.318  1.00  0.00     0.148 A 
ATOM     75  C   UNL A   1      44.275  26.537  25.297  1.00  0.00     0.002 A 
ATOM     76  C   UNL A   1      43.834  24.296  26.042  1.00  0.00     0.091 A 
ATOM     77  F   UNL A   1      43.339  23.893  28.315  1.00  0.00    -0.205 F 
ATOM     78  C   UNL A   1      44.213  25.181  25.027  1.00  0.00     0.022 A 
BRANCH  76  79
ATOM     79  S   UNL A   1      43.706  22.559  25.588  1.00  0.00     0.127 S 
ATOM     80  O   UNL A   1      43.661  22.625  24.125  1.00  0.00    -0.237 OA
ATOM     81  O   UNL A   1      44.941  21.996  26.129  1.00  0.00    -0.237 OA
ATOM     82  O   UNL A   1      42.472  22.073  26.194  1.00  0.00    -0.744 OA
ENDBRANCH  76  79
ENDBRANCH  58  72
BRANCH  59  83
ATOM     83  C   UNL A   1      40.347  31.633  35.028  1.00  0.00     0.023 A 
ATOM     84  C   UNL A   1      39.251  30.762  34.812  1.00  0.00     0.012 A 
ATOM     85  C   UNL A   1      40.322  32.499  36.133  1.00  0.00     0.148 A 
ATOM     86  C   UNL A   1      38.234  30.645  35.758  1.00  0.00     0.002 A 
ATOM     87  C   UNL A   1      39.303  32.374  37.075  1.00  0.00     0.091 A 
ATOM     88  F   UNL A   1      41.334  33.361  36.297  1.00  0.00    -0.205 F 
ATOM     89  C   UNL A   1      38.283  31.421  36.911  1.00  0.00     0.022 A 
BRANCH  87  90
ATOM     90  S   UNL A   1      39.331  33.305  38.613  1.00  0.00     0.127 S 
ATOM     91  O   UNL A   1      38.493  32.477  39.473  1.00  0.00    -0.237 OA
ATOM     92  O   UNL A   1      40.754  33.303  38.955  1.00  0.00    -0.237 OA
ATOM     93  O   UNL A   1      38.806  34.616  38.260  1.00  0.00    -0.744 OA
ENDBRANCH  87  90
ENDBRANCH  59  83
BRANCH  71  94
ATOM     94  C   UNL A   1      44.517  25.765  34.076  1.00  0.00     0.023 A 
ATOM     95  C   UNL A   1      43.644  24.664  34.131  1.00  0.00     0.012 A 
ATOM     96  C   UNL A   1      45.881  25.493  34.387  1.00  0.00     0.148 A 
ATOM     97  C   UNL A   1      44.077  23.382  34.502  1.00  0.00     0.002 A 
ATOM     98  C   UNL A   1      46.326  24.198  34.645  1.00  0.00     0.091 A 
ATOM     99  F   UNL A   1      46.766  26.495  34.472  1.00  0.00    -0.205 F 
ATOM    100  C   UNL A   1      45.422  23.143  34.732  1.00  0.00     0.022 A 
BRANCH  98 101
ATOM    101  S   UNL A   1      48.084  23.816  34.727  1.00  0.00     0.127 S 
ATOM    102  O   UNL A   1      48.076  22.356  34.735  1.00  0.00    -0.237 OA
ATOM    103  O   UNL A   1      48.592  24.415  33.490  1.00  0.00    -0.237 OA
ATOM    104  O   UNL A   1      48.557  24.467  35.941  1.00  0.00    -0.744 OA
ENDBRANCH  98 101
ENDBRANCH  71  94
ENDBRANCH  45  46
ENDBRANCH  37  40
ENDBRANCH  35  36
ENDBRANCH  34  35
ENDBRANCH  33  34
ENDBRANCH   1  33
TORSDOF 20
ENDMDL
