MODEL 1
REMARK VINA RESULT:     -12.1      0.000      0.000
REMARK SMILES O=C(NCCCCCCNC(=O)[C@H]1CC[C@H]2CCCC[C@@H]2[N@H+]1[C@@H]1CCCSC1)c1ccc(-c2c3nc(c(-c4cccc(S(=O)(=O)[O-])c4F)c4ccc([nH]4)c(-c4cccc(S(=O)(=O)[O-])c4F)c4nc(c(-c5cccc(S(=O)(=O)[O-])c5F)c5ccc2[nH]5)C=C4)C=C3)cc1
REMARK SMILES IDX 5 1 4 2 3 3 1 4 2 5 29 7 30 8 91 9 31 10 90 11 32 12 33 13
REMARK SMILES IDX 34 14 84 15 35 16 89 17 83 18 85 19 36 20 88 21 82 22 81 23
REMARK SMILES IDX 37 25 69 26 49 27 68 28 50 29 53 30 67 31 86 32 51 33 52 34
REMARK SMILES IDX 66 36 87 37 54 38 38 39 39 40 47 41 40 42 42 43 48 44 41 45
REMARK SMILES IDX 43 46 44 47 45 48 46 49 70 50 71 51 79 52 72 53 74 54 80 55
REMARK SMILES IDX 73 56 75 57 76 58 77 59 78 60 55 61 56 62 64 63 57 64 59 65
REMARK SMILES IDX 65 66 58 67 60 68 61 69 62 70 63 71 6 72 7 73 8 74 9 75
REMARK SMILES IDX 10 76 11 77 12 79 13 80 14 81 22 82 15 83 21 84 16 86 20 87
REMARK SMILES IDX 17 88 19 89 18 90 23 91 24 92 28 93 25 94 27 95 26 96
REMARK H PARENT 3 6 85 24 53 35 10 78 22 85
REMARK Flexibility Score: inf
ROOT
ATOM      1  C   UNL A   1      31.567  28.504  25.988  1.00  0.00     0.021 C 
ENDROOT
BRANCH   1   2
ATOM      2  C   UNL A   1      32.706  29.479  25.719  1.00  0.00     0.116 C 
BRANCH   2   3
ATOM      3  N   UNL A   1      32.374  30.845  26.073  1.00  0.00    -0.352 N 
ATOM      4  O   UNL A   1      32.474  32.759  27.250  1.00  0.00    -0.269 OA
ATOM      5  C   UNL A   1      32.986  31.683  26.976  1.00  0.00     0.251 C 
ATOM      6  H   UNL A   1      31.599  31.228  25.601  1.00  0.00     0.163 HD
BRANCH   5   7
ATOM      7  C   UNL A   1      34.244  31.260  27.632  1.00  0.00     0.039 A 
ATOM      8  C   UNL A   1      34.463  29.922  27.974  1.00  0.00     0.014 A 
ATOM      9  C   UNL A   1      35.218  32.222  27.910  1.00  0.00     0.014 A 
ATOM     10  C   UNL A   1      35.586  29.573  28.717  1.00  0.00     0.010 A 
ATOM     11  C   UNL A   1      36.386  31.853  28.583  1.00  0.00     0.010 A 
ATOM     12  C   UNL A   1      36.564  30.533  29.025  1.00  0.00    -0.014 A 
BRANCH  12  13
ATOM     13  C   UNL A   1      37.788  30.125  29.759  1.00  0.00     0.031 A 
ATOM     14  C   UNL A   1      38.055  30.603  31.161  1.00  0.00     0.074 A 
ATOM     15  C   UNL A   1      38.673  29.316  29.143  1.00  0.00     0.049 A 
ATOM     16  N   UNL A   1      39.059  30.317  31.949  1.00  0.00    -0.248 NA
ATOM     17  C   UNL A   1      37.077  31.530  31.751  1.00  0.00     0.031 C 
ATOM     18  C   UNL A   1      38.544  28.824  27.769  1.00  0.00     0.029 A 
ATOM     19  N   UNL A   1      39.848  28.765  29.584  1.00  0.00    -0.354 N 
ATOM     20  C   UNL A   1      38.862  31.060  33.107  1.00  0.00     0.074 A 
ATOM     21  C   UNL A   1      37.643  31.817  32.917  1.00  0.00     0.031 C 
ATOM     22  C   UNL A   1      39.581  28.020  27.491  1.00  0.00     0.029 A 
ATOM     23  C   UNL A   1      40.472  27.978  28.645  1.00  0.00     0.049 A 
ATOM     24  H   UNL A   1      40.211  28.919  30.486  1.00  0.00     0.167 HD
ATOM     25  C   UNL A   1      39.620  31.098  34.230  1.00  0.00     0.034 A 
ATOM     26  C   UNL A   1      41.634  27.300  28.701  1.00  0.00     0.034 A 
ATOM     27  C   UNL A   1      40.810  30.313  34.429  1.00  0.00     0.049 A 
ATOM     28  C   UNL A   1      42.434  27.334  29.971  1.00  0.00     0.074 A 
ATOM     29  C   UNL A   1      41.604  30.222  35.559  1.00  0.00     0.029 A 
ATOM     30  N   UNL A   1      41.385  29.489  33.472  1.00  0.00    -0.354 N 
ATOM     31  N   UNL A   1      42.158  27.935  31.103  1.00  0.00    -0.248 NA
ATOM     32  C   UNL A   1      43.690  26.574  29.982  1.00  0.00     0.031 C 
ATOM     33  C   UNL A   1      42.670  29.360  35.278  1.00  0.00     0.029 A 
ATOM     34  C   UNL A   1      42.527  28.894  33.981  1.00  0.00     0.049 A 
ATOM     35  H   UNL A   1      41.032  29.348  32.563  1.00  0.00     0.167 HD
ATOM     36  C   UNL A   1      43.187  27.597  31.973  1.00  0.00     0.074 A 
ATOM     37  C   UNL A   1      44.082  26.723  31.240  1.00  0.00     0.031 C 
ATOM     38  C   UNL A   1      43.380  27.985  33.258  1.00  0.00     0.034 A 
BRANCH  25  39
ATOM     39  C   UNL A   1      39.166  31.998  35.352  1.00  0.00     0.023 A 
ATOM     40  C   UNL A   1      38.234  31.522  36.297  1.00  0.00     0.012 A 
ATOM     41  C   UNL A   1      39.698  33.293  35.503  1.00  0.00     0.148 A 
ATOM     42  C   UNL A   1      37.812  32.332  37.351  1.00  0.00     0.002 A 
ATOM     43  C   UNL A   1      39.304  34.081  36.580  1.00  0.00     0.091 A 
ATOM     44  F   UNL A   1      40.566  33.741  34.584  1.00  0.00    -0.205 F 
ATOM     45  C   UNL A   1      38.353  33.606  37.497  1.00  0.00     0.022 A 
BRANCH  43  46
ATOM     46  S   UNL A   1      40.008  35.705  36.891  1.00  0.00     0.127 S 
ATOM     47  O   UNL A   1      41.430  35.390  37.019  1.00  0.00    -0.237 OA
ATOM     48  O   UNL A   1      39.653  36.437  35.674  1.00  0.00    -0.237 OA
ATOM     49  O   UNL A   1      39.356  36.193  38.098  1.00  0.00    -0.744 OA
ENDBRANCH  43  46
ENDBRANCH  25  39
BRANCH  26  50
ATOM     50  C   UNL A   1      42.060  26.475  27.537  1.00  0.00     0.023 A 
ATOM     51  C   UNL A   1      42.886  27.052  26.552  1.00  0.00     0.012 A 
ATOM     52  C   UNL A   1      41.708  25.116  27.432  1.00  0.00     0.148 A 
ATOM     53  C   UNL A   1      43.338  26.293  25.472  1.00  0.00     0.002 A 
ATOM     54  C   UNL A   1      42.208  24.352  26.385  1.00  0.00     0.091 A 
ATOM     55  F   UNL A   1      40.912  24.592  28.375  1.00  0.00    -0.205 F 
ATOM     56  C   UNL A   1      43.010  24.942  25.395  1.00  0.00     0.022 A 
BRANCH  54  57
ATOM     57  S   UNL A   1      41.954  22.576  26.281  1.00  0.00     0.127 S 
ATOM     58  O   UNL A   1      42.659  22.246  25.045  1.00  0.00    -0.237 OA
ATOM     59  O   UNL A   1      42.604  22.107  27.505  1.00  0.00    -0.237 OA
ATOM     60  O   UNL A   1      40.510  22.388  26.257  1.00  0.00    -0.744 OA
ENDBRANCH  54  57
ENDBRANCH  26  50
BRANCH  38  61
ATOM     61  C   UNL A   1      44.587  27.439  33.973  1.00  0.00     0.023 A 
ATOM     62  C   UNL A   1      45.803  28.152  33.944  1.00  0.00     0.012 A 
ATOM     63  C   UNL A   1      44.499  26.251  34.724  1.00  0.00     0.148 A 
ATOM     64  C   UNL A   1      46.920  27.671  34.626  1.00  0.00     0.002 A 
ATOM     65  C   UNL A   1      45.603  25.804  35.440  1.00  0.00     0.091 A 
ATOM     66  F   UNL A   1      43.341  25.574  34.719  1.00  0.00    -0.205 F 
ATOM     67  C   UNL A   1      46.818  26.507  35.383  1.00  0.00     0.022 A 
BRANCH  65  68
ATOM     68  S   UNL A   1      45.527  24.366  36.514  1.00  0.00     0.127 S 
ATOM     69  O   UNL A   1      45.282  23.290  35.556  1.00  0.00    -0.237 OA
ATOM     70  O   UNL A   1      46.860  24.354  37.118  1.00  0.00    -0.237 OA
ATOM     71  O   UNL A   1      44.444  24.631  37.454  1.00  0.00    -0.744 OA
ENDBRANCH  65  68
ENDBRANCH  38  61
ENDBRANCH  12  13
ENDBRANCH   5   7
ENDBRANCH   2   3
ENDBRANCH   1   2
BRANCH   1  72
ATOM     72  C   UNL A   1      31.849  27.040  25.643  1.00  0.00     0.002 C 
BRANCH  72  73
ATOM     73  C   UNL A   1      30.917  26.393  24.614  1.00  0.00     0.002 C 
BRANCH  73  74
ATOM     74  C   UNL A   1      31.577  25.462  23.598  1.00  0.00     0.021 C 
BRANCH  74  75
ATOM     75  C   UNL A   1      30.790  24.208  23.239  1.00  0.00     0.116 C 
BRANCH  75  76
ATOM     76  N   UNL A   1      30.278  23.531  24.408  1.00  0.00    -0.351 N 
ATOM     77  C   UNL A   1      30.868  22.957  25.486  1.00  0.00     0.278 C 
ATOM     78  H   UNL A   1      29.295  23.477  24.426  1.00  0.00     0.163 HD
ATOM     79  O   UNL A   1      30.079  22.428  26.286  1.00  0.00    -0.268 OA
BRANCH  77  80
ATOM     80  C   UNL A   1      32.396  22.960  25.801  1.00  0.00     0.274 C 
ATOM     81  C   UNL A   1      32.916  22.864  27.242  1.00  0.00     0.076 C 
ATOM     82  N   UNL A   1      33.142  22.089  24.851  1.00  0.00    -0.319 N 
ATOM     83  C   UNL A   1      34.441  22.819  27.361  1.00  0.00     0.016 C 
ATOM     84  C   UNL A   1      34.606  22.273  24.907  1.00  0.00     0.188 C 
ATOM     85  H   UNL A   1      32.884  22.451  23.933  1.00  0.00     0.349 HD
ATOM     86  C   UNL A   1      35.099  23.199  26.047  1.00  0.00     0.048 C 
ATOM     87  C   UNL A   1      35.130  22.872  23.587  1.00  0.00     0.065 C 
ATOM     88  C   UNL A   1      36.626  23.137  26.126  1.00  0.00     0.010 C 
ATOM     89  C   UNL A   1      36.662  22.948  23.588  1.00  0.00     0.006 C 
ATOM     90  C   UNL A   1      37.237  23.647  24.823  1.00  0.00     0.001 C 
BRANCH  82  91
ATOM     91  C   UNL A   1      32.655  20.687  24.716  1.00  0.00     0.194 C 
ATOM     92  C   UNL A   1      33.233  19.707  25.761  1.00  0.00     0.067 C 
ATOM     93  C   UNL A   1      32.859  20.165  23.272  1.00  0.00     0.134 C 
ATOM     94  C   UNL A   1      32.679  18.286  25.660  1.00  0.00     0.017 C 
ATOM     95  S   UNL A   1      32.154  18.510  22.976  1.00  0.00    -0.156 SA
ATOM     96  C   UNL A   1      32.970  17.622  24.327  1.00  0.00     0.070 C 
ENDBRANCH  82  91
ENDBRANCH  77  80
ENDBRANCH  75  76
ENDBRANCH  74  75
ENDBRANCH  73  74
ENDBRANCH  72  73
ENDBRANCH   1  72
TORSDOF 17
ENDMDL
MODEL 2
REMARK VINA RESULT:     -12.0      5.116     10.128
REMARK SMILES O=C(NCCCCCCNC(=O)[C@H]1CC[C@H]2CCCC[C@@H]2[N@H+]1[C@@H]1CCCSC1)c1ccc(-c2c3nc(c(-c4cccc(S(=O)(=O)[O-])c4F)c4ccc([nH]4)c(-c4cccc(S(=O)(=O)[O-])c4F)c4nc(c(-c5cccc(S(=O)(=O)[O-])c5F)c5ccc2[nH]5)C=C4)C=C3)cc1
REMARK SMILES IDX 5 1 4 2 3 3 1 4 2 5 29 7 30 8 91 9 31 10 90 11 32 12 33 13
REMARK SMILES IDX 34 14 84 15 35 16 89 17 83 18 85 19 36 20 88 21 82 22 81 23
REMARK SMILES IDX 37 25 69 26 49 27 68 28 50 29 53 30 67 31 86 32 51 33 52 34
REMARK SMILES IDX 66 36 87 37 54 38 38 39 39 40 47 41 40 42 42 43 48 44 41 45
REMARK SMILES IDX 43 46 44 47 45 48 46 49 70 50 71 51 79 52 72 53 74 54 80 55
REMARK SMILES IDX 73 56 75 57 76 58 77 59 78 60 55 61 56 62 64 63 57 64 59 65
REMARK SMILES IDX 65 66 58 67 60 68 61 69 62 70 63 71 6 72 7 73 8 74 9 75
REMARK SMILES IDX 10 76 11 77 12 79 13 80 14 81 22 82 15 83 21 84 16 86 20 87
REMARK SMILES IDX 17 88 19 89 18 90 23 91 24 92 28 93 25 94 27 95 26 96
REMARK H PARENT 3 6 85 24 53 35 10 78 22 85
REMARK Flexibility Score: inf
ROOT
ATOM      1  C   UNL A   1      36.271  22.648  24.030  1.00  0.00     0.021 C 
ENDROOT
BRANCH   1   2
ATOM      2  C   UNL A   1      36.721  22.505  25.478  1.00  0.00     0.116 C 
BRANCH   2   3
ATOM      3  N   UNL A   1      37.680  21.435  25.668  1.00  0.00    -0.352 N 
ATOM      4  O   UNL A   1      39.691  20.504  26.056  1.00  0.00    -0.269 OA
ATOM      5  C   UNL A   1      38.985  21.501  26.098  1.00  0.00     0.251 C 
ATOM      6  H   UNL A   1      37.351  20.531  25.458  1.00  0.00     0.163 HD
BRANCH   5   7
ATOM      7  C   UNL A   1      39.534  22.791  26.576  1.00  0.00     0.039 A 
ATOM      8  C   UNL A   1      39.117  24.003  26.018  1.00  0.00     0.014 A 
ATOM      9  C   UNL A   1      40.484  22.782  27.601  1.00  0.00     0.014 A 
ATOM     10  C   UNL A   1      39.750  25.187  26.382  1.00  0.00     0.010 A 
ATOM     11  C   UNL A   1      41.058  23.983  28.025  1.00  0.00     0.010 A 
ATOM     12  C   UNL A   1      40.724  25.192  27.395  1.00  0.00    -0.014 A 
BRANCH  12  13
ATOM     13  C   UNL A   1      41.337  26.476  27.818  1.00  0.00     0.031 A 
ATOM     14  C   UNL A   1      42.768  26.804  27.489  1.00  0.00     0.074 A 
ATOM     15  C   UNL A   1      40.588  27.353  28.515  1.00  0.00     0.049 A 
ATOM     16  N   UNL A   1      43.444  27.891  27.757  1.00  0.00    -0.248 NA
ATOM     17  C   UNL A   1      43.546  25.778  26.776  1.00  0.00     0.031 C 
ATOM     18  C   UNL A   1      39.201  27.127  28.931  1.00  0.00     0.029 A 
ATOM     19  N   UNL A   1      40.878  28.604  28.995  1.00  0.00    -0.354 N 
ATOM     20  C   UNL A   1      44.734  27.666  27.293  1.00  0.00     0.074 A 
ATOM     21  C   UNL A   1      44.750  26.334  26.728  1.00  0.00     0.031 C 
ATOM     22  C   UNL A   1      38.753  28.214  29.576  1.00  0.00     0.029 A 
ATOM     23  C   UNL A   1      39.830  29.193  29.663  1.00  0.00     0.049 A 
ATOM     24  H   UNL A   1      41.754  29.038  28.874  1.00  0.00     0.167 HD
ATOM     25  C   UNL A   1      45.804  28.498  27.322  1.00  0.00     0.034 A 
ATOM     26  C   UNL A   1      39.745  30.385  30.281  1.00  0.00     0.034 A 
ATOM     27  C   UNL A   1      45.773  29.836  27.849  1.00  0.00     0.049 A 
ATOM     28  C   UNL A   1      40.935  31.299  30.267  1.00  0.00     0.074 A 
ATOM     29  C   UNL A   1      46.782  30.785  27.855  1.00  0.00     0.029 A 
ATOM     30  N   UNL A   1      44.679  30.416  28.475  1.00  0.00    -0.354 N 
ATOM     31  N   UNL A   1      42.104  31.120  29.701  1.00  0.00    -0.248 NA
ATOM     32  C   UNL A   1      40.787  32.590  30.951  1.00  0.00     0.031 C 
ATOM     33  C   UNL A   1      46.303  31.930  28.503  1.00  0.00     0.029 A 
ATOM     34  C   UNL A   1      44.989  31.704  28.879  1.00  0.00     0.049 A 
ATOM     35  H   UNL A   1      43.808  29.976  28.612  1.00  0.00     0.167 HD
ATOM     36  C   UNL A   1      42.820  32.289  29.928  1.00  0.00     0.074 A 
ATOM     37  C   UNL A   1      41.944  33.175  30.670  1.00  0.00     0.031 C 
ATOM     38  C   UNL A   1      44.090  32.595  29.568  1.00  0.00     0.034 A 
BRANCH  25  39
ATOM     39  C   UNL A   1      47.100  27.995  26.735  1.00  0.00     0.023 A 
ATOM     40  C   UNL A   1      48.097  27.475  27.585  1.00  0.00     0.012 A 
ATOM     41  C   UNL A   1      47.310  27.986  25.342  1.00  0.00     0.148 A 
ATOM     42  C   UNL A   1      49.296  26.989  27.063  1.00  0.00     0.002 A 
ATOM     43  C   UNL A   1      48.491  27.463  24.825  1.00  0.00     0.091 A 
ATOM     44  F   UNL A   1      46.363  28.505  24.547  1.00  0.00    -0.205 F 
ATOM     45  C   UNL A   1      49.488  26.976  25.684  1.00  0.00     0.022 A 
BRANCH  43  46
ATOM     46  S   UNL A   1      48.791  27.333  23.058  1.00  0.00     0.127 S 
ATOM     47  O   UNL A   1      50.245  27.479  22.994  1.00  0.00    -0.237 OA
ATOM     48  O   UNL A   1      48.301  25.987  22.757  1.00  0.00    -0.237 OA
ATOM     49  O   UNL A   1      48.020  28.405  22.446  1.00  0.00    -0.744 OA
ENDBRANCH  43  46
ENDBRANCH  25  39
BRANCH  26  50
ATOM     50  C   UNL A   1      38.454  30.802  30.897  1.00  0.00     0.023 A 
ATOM     51  C   UNL A   1      38.242  30.572  32.270  1.00  0.00     0.012 A 
ATOM     52  C   UNL A   1      37.469  31.477  30.151  1.00  0.00     0.148 A 
ATOM     53  C   UNL A   1      37.061  30.990  32.885  1.00  0.00     0.002 A 
ATOM     54  C   UNL A   1      36.322  31.941  30.782  1.00  0.00     0.091 A 
ATOM     55  F   UNL A   1      37.688  31.676  28.843  1.00  0.00    -0.205 F 
ATOM     56  C   UNL A   1      36.108  31.684  32.145  1.00  0.00     0.022 A 
BRANCH  54  57
ATOM     57  S   UNL A   1      35.106  32.964  29.943  1.00  0.00     0.127 S 
ATOM     58  O   UNL A   1      35.947  34.003  29.354  1.00  0.00    -0.237 OA
ATOM     59  O   UNL A   1      34.529  32.021  28.984  1.00  0.00    -0.237 OA
ATOM     60  O   UNL A   1      34.184  33.407  30.980  1.00  0.00    -0.744 OA
ENDBRANCH  54  57
ENDBRANCH  26  50
BRANCH  38  61
ATOM     61  C   UNL A   1      44.604  33.962  29.935  1.00  0.00     0.023 A 
ATOM     62  C   UNL A   1      45.317  34.145  31.138  1.00  0.00     0.012 A 
ATOM     63  C   UNL A   1      44.435  35.051  29.059  1.00  0.00     0.148 A 
ATOM     64  C   UNL A   1      45.822  35.399  31.476  1.00  0.00     0.002 A 
ATOM     65  C   UNL A   1      44.983  36.287  29.380  1.00  0.00     0.091 A 
ATOM     66  F   UNL A   1      43.733  34.863  27.931  1.00  0.00    -0.205 F 
ATOM     67  C   UNL A   1      45.668  36.466  30.593  1.00  0.00     0.022 A 
BRANCH  65  68
ATOM     68  S   UNL A   1      44.910  37.685  28.255  1.00  0.00     0.127 S 
ATOM     69  O   UNL A   1      45.741  38.669  28.947  1.00  0.00    -0.237 OA
ATOM     70  O   UNL A   1      45.504  37.137  27.034  1.00  0.00    -0.237 OA
ATOM     71  O   UNL A   1      43.499  38.025  28.135  1.00  0.00    -0.744 OA
ENDBRANCH  65  68
ENDBRANCH  38  61
ENDBRANCH  12  13
ENDBRANCH   5   7
ENDBRANCH   2   3
ENDBRANCH   1   2
BRANCH   1  72
ATOM     72  C   UNL A   1      35.196  23.705  23.769  1.00  0.00     0.002 C 
BRANCH  72  73
ATOM     73  C   UNL A   1      33.849  23.492  24.467  1.00  0.00     0.002 C 
BRANCH  73  74
ATOM     74  C   UNL A   1      32.761  22.812  23.639  1.00  0.00     0.021 C 
BRANCH  74  75
ATOM     75  C   UNL A   1      31.469  23.601  23.467  1.00  0.00     0.116 C 
BRANCH  75  76
ATOM     76  N   UNL A   1      31.461  24.376  22.248  1.00  0.00    -0.351 N 
ATOM     77  C   UNL A   1      31.826  25.648  21.951  1.00  0.00     0.278 C 
ATOM     78  H   UNL A   1      31.119  23.876  21.471  1.00  0.00     0.163 HD
ATOM     79  O   UNL A   1      31.632  25.978  20.770  1.00  0.00    -0.268 OA
BRANCH  77  80
ATOM     80  C   UNL A   1      32.489  26.662  22.934  1.00  0.00     0.274 C 
ATOM     81  C   UNL A   1      33.628  27.586  22.481  1.00  0.00     0.076 C 
ATOM     82  N   UNL A   1      31.464  27.359  23.759  1.00  0.00    -0.319 N 
ATOM     83  C   UNL A   1      34.118  28.558  23.557  1.00  0.00     0.016 C 
ATOM     84  C   UNL A   1      32.033  28.108  24.898  1.00  0.00     0.188 C 
ATOM     85  H   UNL A   1      30.947  26.599  24.199  1.00  0.00     0.349 HD
ATOM     86  C   UNL A   1      33.581  28.171  24.922  1.00  0.00     0.048 C 
ATOM     87  C   UNL A   1      31.590  27.482  26.235  1.00  0.00     0.065 C 
ATOM     88  C   UNL A   1      34.032  29.140  26.018  1.00  0.00     0.010 C 
ATOM     89  C   UNL A   1      32.071  28.327  27.422  1.00  0.00     0.006 C 
ATOM     90  C   UNL A   1      33.570  28.636  27.383  1.00  0.00     0.001 C 
BRANCH  82  91
ATOM     91  C   UNL A   1      30.356  28.024  23.017  1.00  0.00     0.194 C 
ATOM     92  C   UNL A   1      30.629  29.498  22.647  1.00  0.00     0.067 C 
ATOM     93  C   UNL A   1      29.010  27.865  23.769  1.00  0.00     0.134 C 
ATOM     94  C   UNL A   1      29.517  30.155  21.829  1.00  0.00     0.017 C 
ATOM     95  S   UNL A   1      27.572  28.517  22.859  1.00  0.00    -0.156 SA
ATOM     96  C   UNL A   1      28.183  30.193  22.550  1.00  0.00     0.070 C 
ENDBRANCH  82  91
ENDBRANCH  77  80
ENDBRANCH  75  76
ENDBRANCH  74  75
ENDBRANCH  73  74
ENDBRANCH  72  73
ENDBRANCH   1  72
TORSDOF 17
ENDMDL
MODEL 3
REMARK VINA RESULT:     -12.0      4.807     10.171
REMARK SMILES O=C(NCCCCCCNC(=O)[C@H]1CC[C@H]2CCCC[C@@H]2[N@H+]1[C@@H]1CCCSC1)c1ccc(-c2c3nc(c(-c4cccc(S(=O)(=O)[O-])c4F)c4ccc([nH]4)c(-c4cccc(S(=O)(=O)[O-])c4F)c4nc(c(-c5cccc(S(=O)(=O)[O-])c5F)c5ccc2[nH]5)C=C4)C=C3)cc1
REMARK SMILES IDX 5 1 4 2 3 3 1 4 2 5 29 7 30 8 91 9 31 10 90 11 32 12 33 13
REMARK SMILES IDX 34 14 84 15 35 16 89 17 83 18 85 19 36 20 88 21 82 22 81 23
REMARK SMILES IDX 37 25 69 26 49 27 68 28 50 29 53 30 67 31 86 32 51 33 52 34
REMARK SMILES IDX 66 36 87 37 54 38 38 39 39 40 47 41 40 42 42 43 48 44 41 45
REMARK SMILES IDX 43 46 44 47 45 48 46 49 70 50 71 51 79 52 72 53 74 54 80 55
REMARK SMILES IDX 73 56 75 57 76 58 77 59 78 60 55 61 56 62 64 63 57 64 59 65
REMARK SMILES IDX 65 66 58 67 60 68 61 69 62 70 63 71 6 72 7 73 8 74 9 75
REMARK SMILES IDX 10 76 11 77 12 79 13 80 14 81 22 82 15 83 21 84 16 86 20 87
REMARK SMILES IDX 17 88 19 89 18 90 23 91 24 92 28 93 25 94 27 95 26 96
REMARK H PARENT 3 6 85 24 53 35 10 78 22 85
REMARK Flexibility Score: inf
ROOT
ATOM      1  C   UNL A   1      34.898  21.500  26.023  1.00  0.00     0.021 C 
ENDROOT
BRANCH   1   2
ATOM      2  C   UNL A   1      36.300  22.014  25.721  1.00  0.00     0.116 C 
BRANCH   2   3
ATOM      3  N   UNL A   1      37.293  20.959  25.694  1.00  0.00    -0.352 N 
ATOM      4  O   UNL A   1      39.354  20.057  25.703  1.00  0.00    -0.269 OA
ATOM      5  C   UNL A   1      38.649  21.033  25.913  1.00  0.00     0.251 C 
ATOM      6  H   UNL A   1      36.948  20.059  25.489  1.00  0.00     0.163 HD
BRANCH   5   7
ATOM      7  C   UNL A   1      39.248  22.308  26.370  1.00  0.00     0.039 A 
ATOM      8  C   UNL A   1      38.774  23.536  25.900  1.00  0.00     0.014 A 
ATOM      9  C   UNL A   1      40.304  22.269  27.284  1.00  0.00     0.014 A 
ATOM     10  C   UNL A   1      39.443  24.710  26.231  1.00  0.00     0.010 A 
ATOM     11  C   UNL A   1      40.923  23.457  27.681  1.00  0.00     0.010 A 
ATOM     12  C   UNL A   1      40.522  24.685  27.131  1.00  0.00    -0.014 A 
BRANCH  12  13
ATOM     13  C   UNL A   1      41.179  25.957  27.525  1.00  0.00     0.031 A 
ATOM     14  C   UNL A   1      42.590  26.271  27.104  1.00  0.00     0.074 A 
ATOM     15  C   UNL A   1      40.490  26.834  28.280  1.00  0.00     0.049 A 
ATOM     16  N   UNL A   1      43.296  27.346  27.338  1.00  0.00    -0.248 NA
ATOM     17  C   UNL A   1      43.304  25.243  26.330  1.00  0.00     0.031 C 
ATOM     18  C   UNL A   1      39.131  26.620  28.786  1.00  0.00     0.029 A 
ATOM     19  N   UNL A   1      40.828  28.076  28.753  1.00  0.00    -0.354 N 
ATOM     20  C   UNL A   1      44.549  27.110  26.786  1.00  0.00     0.074 A 
ATOM     21  C   UNL A   1      44.509  25.784  26.207  1.00  0.00     0.031 C 
ATOM     22  C   UNL A   1      38.742  27.705  29.471  1.00  0.00     0.029 A 
ATOM     23  C   UNL A   1      39.835  28.670  29.496  1.00  0.00     0.049 A 
ATOM     24  H   UNL A   1      41.700  28.501  28.578  1.00  0.00     0.167 HD
ATOM     25  C   UNL A   1      45.630  27.928  26.752  1.00  0.00     0.034 A 
ATOM     26  C   UNL A   1      39.807  29.856  30.131  1.00  0.00     0.034 A 
ATOM     27  C   UNL A   1      45.651  29.261  27.295  1.00  0.00     0.049 A 
ATOM     28  C   UNL A   1      41.006  30.755  30.047  1.00  0.00     0.074 A 
ATOM     29  C   UNL A   1      46.670  30.197  27.243  1.00  0.00     0.029 A 
ATOM     30  N   UNL A   1      44.609  29.847  27.998  1.00  0.00    -0.354 N 
ATOM     31  N   UNL A   1      42.132  30.569  29.401  1.00  0.00    -0.248 NA
ATOM     32  C   UNL A   1      40.921  32.040  30.753  1.00  0.00     0.031 C 
ATOM     33  C   UNL A   1      46.251  31.340  27.933  1.00  0.00     0.029 A 
ATOM     34  C   UNL A   1      44.962  31.126  28.394  1.00  0.00     0.049 A 
ATOM     35  H   UNL A   1      43.744  29.416  28.189  1.00  0.00     0.167 HD
ATOM     36  C   UNL A   1      42.876  31.726  29.593  1.00  0.00     0.074 A 
ATOM     37  C   UNL A   1      42.063  32.614  30.401  1.00  0.00     0.031 C 
ATOM     38  C   UNL A   1      44.124  32.020  29.152  1.00  0.00     0.034 A 
BRANCH  25  39
ATOM     39  C   UNL A   1      46.876  27.416  26.074  1.00  0.00     0.023 A 
ATOM     40  C   UNL A   1      47.076  27.662  24.700  1.00  0.00     0.012 A 
ATOM     41  C   UNL A   1      47.873  26.739  26.804  1.00  0.00     0.148 A 
ATOM     42  C   UNL A   1      48.228  27.211  24.056  1.00  0.00     0.002 A 
ATOM     43  C   UNL A   1      49.038  26.328  26.164  1.00  0.00     0.091 A 
ATOM     44  F   UNL A   1      47.659  26.492  28.104  1.00  0.00    -0.205 F 
ATOM     45  C   UNL A   1      49.211  26.553  24.789  1.00  0.00     0.022 A 
BRANCH  43  46
ATOM     46  S   UNL A   1      50.392  25.542  27.047  1.00  0.00     0.127 S 
ATOM     47  O   UNL A   1      49.752  24.328  27.549  1.00  0.00    -0.237 OA
ATOM     48  O   UNL A   1      51.370  25.319  25.980  1.00  0.00    -0.237 OA
ATOM     49  O   UNL A   1      50.813  26.501  28.058  1.00  0.00    -0.744 OA
ENDBRANCH  43  46
ENDBRANCH  25  39
BRANCH  26  50
ATOM     50  C   UNL A   1      38.566  30.282  30.836  1.00  0.00     0.023 A 
ATOM     51  C   UNL A   1      38.420  29.991  32.207  1.00  0.00     0.012 A 
ATOM     52  C   UNL A   1      37.566  31.023  30.179  1.00  0.00     0.148 A 
ATOM     53  C   UNL A   1      37.289  30.414  32.906  1.00  0.00     0.002 A 
ATOM     54  C   UNL A   1      36.470  31.490  30.894  1.00  0.00     0.091 A 
ATOM     55  F   UNL A   1      37.720  31.279  28.872  1.00  0.00    -0.205 F 
ATOM     56  C   UNL A   1      36.322  31.173  32.254  1.00  0.00     0.022 A 
BRANCH  54  57
ATOM     57  S   UNL A   1      35.246  32.591  30.173  1.00  0.00     0.127 S 
ATOM     58  O   UNL A   1      34.746  31.792  29.058  1.00  0.00    -0.237 OA
ATOM     59  O   UNL A   1      34.305  32.762  31.281  1.00  0.00    -0.237 OA
ATOM     60  O   UNL A   1      35.973  33.801  29.810  1.00  0.00    -0.744 OA
ENDBRANCH  54  57
ENDBRANCH  26  50
BRANCH  38  61
ATOM     61  C   UNL A   1      44.679  33.376  29.498  1.00  0.00     0.023 A 
ATOM     62  C   UNL A   1      45.383  33.560  30.705  1.00  0.00     0.012 A 
ATOM     63  C   UNL A   1      44.556  34.453  28.598  1.00  0.00     0.148 A 
ATOM     64  C   UNL A   1      45.927  34.803  31.025  1.00  0.00     0.002 A 
ATOM     65  C   UNL A   1      45.142  35.676  28.902  1.00  0.00     0.091 A 
ATOM     66  F   UNL A   1      43.862  34.265  27.466  1.00  0.00    -0.205 F 
ATOM     67  C   UNL A   1      45.818  35.856  30.120  1.00  0.00     0.022 A 
BRANCH  65  68
ATOM     68  S   UNL A   1      45.129  37.053  27.749  1.00  0.00     0.127 S 
ATOM     69  O   UNL A   1      45.853  36.494  26.608  1.00  0.00    -0.237 OA
ATOM     70  O   UNL A   1      43.698  37.259  27.521  1.00  0.00    -0.237 OA
ATOM     71  O   UNL A   1      45.792  38.153  28.437  1.00  0.00    -0.744 OA
ENDBRANCH  65  68
ENDBRANCH  38  61
ENDBRANCH  12  13
ENDBRANCH   5   7
ENDBRANCH   2   3
ENDBRANCH   1   2
BRANCH   1  72
ATOM     72  C   UNL A   1      34.300  21.944  27.360  1.00  0.00     0.002 C 
BRANCH  72  73
ATOM     73  C   UNL A   1      33.026  22.792  27.286  1.00  0.00     0.002 C 
BRANCH  73  74
ATOM     74  C   UNL A   1      33.052  23.963  26.306  1.00  0.00     0.021 C 
BRANCH  74  75
ATOM     75  C   UNL A   1      32.197  23.799  25.055  1.00  0.00     0.116 C 
BRANCH  75  76
ATOM     76  N   UNL A   1      32.787  24.439  23.903  1.00  0.00    -0.351 N 
ATOM     77  C   UNL A   1      32.359  25.405  23.052  1.00  0.00     0.278 C 
ATOM     78  H   UNL A   1      33.690  24.105  23.692  1.00  0.00     0.163 HD
ATOM     79  O   UNL A   1      33.152  25.673  22.134  1.00  0.00    -0.268 OA
BRANCH  77  80
ATOM     80  C   UNL A   1      31.022  26.200  23.170  1.00  0.00     0.274 C 
ATOM     81  C   UNL A   1      29.763  25.562  23.773  1.00  0.00     0.076 C 
ATOM     82  N   UNL A   1      31.264  27.588  23.654  1.00  0.00    -0.319 N 
ATOM     83  C   UNL A   1      28.561  26.506  23.867  1.00  0.00     0.016 C 
ATOM     84  C   UNL A   1      30.093  28.475  23.511  1.00  0.00     0.188 C 
ATOM     85  H   UNL A   1      31.939  27.964  22.989  1.00  0.00     0.349 HD
ATOM     86  C   UNL A   1      28.795  27.764  23.052  1.00  0.00     0.048 C 
ATOM     87  C   UNL A   1      30.377  29.591  22.487  1.00  0.00     0.065 C 
ATOM     88  C   UNL A   1      27.620  28.741  23.147  1.00  0.00     0.010 C 
ATOM     89  C   UNL A   1      29.214  30.590  22.426  1.00  0.00     0.006 C 
ATOM     90  C   UNL A   1      27.851  29.927  22.213  1.00  0.00     0.001 C 
BRANCH  82  91
ATOM     91  C   UNL A   1      32.047  27.723  24.915  1.00  0.00     0.194 C 
ATOM     92  C   UNL A   1      31.192  27.983  26.173  1.00  0.00     0.067 C 
ATOM     93  C   UNL A   1      33.170  28.779  24.760  1.00  0.00     0.134 C 
ATOM     94  C   UNL A   1      31.994  28.055  27.472  1.00  0.00     0.017 C 
ATOM     95  S   UNL A   1      34.276  28.902  26.204  1.00  0.00    -0.156 SA
ATOM     96  C   UNL A   1      33.022  29.172  27.483  1.00  0.00     0.070 C 
ENDBRANCH  82  91
ENDBRANCH  77  80
ENDBRANCH  75  76
ENDBRANCH  74  75
ENDBRANCH  73  74
ENDBRANCH  72  73
ENDBRANCH   1  72
TORSDOF 17
ENDMDL
