MODEL 1
REMARK VINA RESULT:     -10.3      0.000      0.000
REMARK SMILES O=CN[C@@H](CCS[C@@H]1CCO[C@]2(CCOC2)C1)C(=O)NCCCCCCNC(=O)c1ccc(-c2c3nc(c(-c4cccc(S(=O)(=O)[O-])c4F)c4ccc([nH]4)c(-c4cccc(S(=O)(=O)[O-])c4F)c4nc(c(-c5cccc(S(=O)(=O)[O-])c5F)c5ccc2[nH]5)C=C4)C=C3)cc1
REMARK SMILES IDX 23 1 22 2 21 3 20 4 18 5 19 6 4 8 3 9 1 10 2 11 5 13 6 14
REMARK SMILES IDX 7 15 8 16 9 17 17 18 10 19 12 20 11 21 13 22 16 23 14 24
REMARK SMILES IDX 15 25 24 26 25 27 26 28 27 29 28 30 29 32 30 33 31 34 92 35
REMARK SMILES IDX 32 36 91 37 33 38 34 39 35 40 85 41 36 42 90 43 84 44 86 45
REMARK SMILES IDX 37 46 89 47 83 48 82 49 38 51 70 52 50 53 69 54 51 55 54 56
REMARK SMILES IDX 68 57 87 58 52 59 53 60 67 62 88 63 55 64 39 65 40 66 48 67
REMARK SMILES IDX 41 68 43 69 49 70 42 71 44 72 45 73 46 74 47 75 71 76 72 77
REMARK SMILES IDX 80 78 73 79 75 80 81 81 74 82 76 83 77 84 78 85 79 86 56 87
REMARK SMILES IDX 57 88 65 89 58 90 60 91 66 92 59 93 61 94 62 95 63 96 64 97
REMARK H PARENT 20 7 3 12 27 31 86 50 54 61
REMARK Flexibility Score: inf
ROOT
ATOM      1  C   UNL A   1      37.753  23.681  25.796  1.00  0.00     0.002 C 
ENDROOT
BRANCH   1   2
ATOM      2  C   UNL A   1      36.294  23.374  26.155  1.00  0.00     0.021 C 
BRANCH   2   3
ATOM      3  C   UNL A   1      35.835  21.929  26.044  1.00  0.00     0.116 C 
BRANCH   3   4
ATOM      4  N   UNL A   1      34.808  21.621  27.017  1.00  0.00    -0.354 N 
ATOM      5  C   UNL A   1      33.491  21.934  26.907  1.00  0.00     0.242 C 
ATOM      6  O   UNL A   1      32.924  22.355  27.924  1.00  0.00    -0.273 OA
ATOM      7  H   UNL A   1      35.090  21.143  27.830  1.00  0.00     0.163 HD
BRANCH   5   8
ATOM      8  C   UNL A   1      32.769  21.991  25.567  1.00  0.00     0.171 C 
BRANCH   8   9
ATOM      9  N   UNL A   1      32.000  20.747  25.573  1.00  0.00    -0.347 N 
ATOM     10  O   UNL A   1      32.161  18.483  25.343  1.00  0.00    -0.279 OA
ATOM     11  C   UNL A   1      32.524  19.600  25.019  1.00  0.00     0.337 C 
ATOM     12  H   UNL A   1      31.101  20.730  25.975  1.00  0.00     0.164 HD
ENDBRANCH   8   9
BRANCH   8  13
ATOM     13  C   UNL A   1      31.977  23.258  25.212  1.00  0.00     0.046 C 
BRANCH  13  14
ATOM     14  C   UNL A   1      32.058  24.530  26.090  1.00  0.00     0.072 C 
BRANCH  14  15
ATOM     15  S   UNL A   1      31.067  26.015  25.704  1.00  0.00    -0.158 SA
BRANCH  15  16
ATOM     16  C   UNL A   1      32.234  27.469  25.645  1.00  0.00     0.052 C 
ATOM     17  C   UNL A   1      31.479  28.804  25.480  1.00  0.00     0.043 C 
ATOM     18  C   UNL A   1      33.202  27.445  24.464  1.00  0.00     0.052 C 
ATOM     19  C   UNL A   1      30.972  29.046  24.048  1.00  0.00     0.162 C 
ATOM     20  C   UNL A   1      32.564  27.555  23.076  1.00  0.00     0.095 C 
ATOM     21  O   UNL A   1      31.973  28.858  23.033  1.00  0.00    -0.372 OA
ATOM     22  C   UNL A   1      31.587  26.496  22.578  1.00  0.00     0.066 C 
ATOM     23  C   UNL A   1      33.668  27.347  22.016  1.00  0.00     0.195 C 
ATOM     24  C   UNL A   1      32.468  25.352  22.150  1.00  0.00     0.163 C 
ATOM     25  O   UNL A   1      33.652  25.955  21.623  1.00  0.00    -0.378 OA
ENDBRANCH  15  16
ENDBRANCH  14  15
ENDBRANCH  13  14
ENDBRANCH   8  13
ENDBRANCH   5   8
ENDBRANCH   3   4
ENDBRANCH   2   3
ENDBRANCH   1   2
BRANCH   1  26
ATOM     26  C   UNL A   1      38.865  22.802  26.376  1.00  0.00     0.002 C 
BRANCH  26  27
ATOM     27  C   UNL A   1      39.117  21.446  25.721  1.00  0.00     0.021 C 
BRANCH  27  28
ATOM     28  C   UNL A   1      39.632  20.341  26.631  1.00  0.00     0.116 C 
BRANCH  28  29
ATOM     29  N   UNL A   1      40.701  19.544  26.062  1.00  0.00    -0.352 N 
ATOM     30  C   UNL A   1      42.021  19.900  25.897  1.00  0.00     0.251 C 
ATOM     31  H   UNL A   1      40.454  18.641  25.757  1.00  0.00     0.163 HD
ATOM     32  O   UNL A   1      42.803  19.130  25.348  1.00  0.00    -0.269 OA
BRANCH  30  33
ATOM     33  C   UNL A   1      42.479  21.240  26.339  1.00  0.00     0.039 A 
ATOM     34  C   UNL A   1      42.638  22.242  25.379  1.00  0.00     0.014 A 
ATOM     35  C   UNL A   1      42.705  21.526  27.689  1.00  0.00     0.014 A 
ATOM     36  C   UNL A   1      42.957  23.542  25.779  1.00  0.00     0.010 A 
ATOM     37  C   UNL A   1      42.944  22.839  28.092  1.00  0.00     0.010 A 
ATOM     38  C   UNL A   1      43.076  23.862  27.142  1.00  0.00    -0.014 A 
BRANCH  38  39
ATOM     39  C   UNL A   1      43.315  25.265  27.576  1.00  0.00     0.031 A 
ATOM     40  C   UNL A   1      44.702  25.852  27.554  1.00  0.00     0.074 A 
ATOM     41  C   UNL A   1      42.287  25.995  28.051  1.00  0.00     0.049 A 
ATOM     42  N   UNL A   1      45.085  27.065  27.860  1.00  0.00    -0.248 NA
ATOM     43  C   UNL A   1      45.805  24.958  27.167  1.00  0.00     0.031 C 
ATOM     44  C   UNL A   1      40.917  25.510  28.231  1.00  0.00     0.029 A 
ATOM     45  N   UNL A   1      42.236  27.297  28.486  1.00  0.00    -0.354 N 
ATOM     46  C   UNL A   1      46.469  27.072  27.730  1.00  0.00     0.074 A 
ATOM     47  C   UNL A   1      46.863  25.731  27.357  1.00  0.00     0.031 C 
ATOM     48  C   UNL A   1      40.158  26.503  28.721  1.00  0.00     0.029 A 
ATOM     49  C   UNL A   1      40.986  27.690  28.905  1.00  0.00     0.049 A 
ATOM     50  H   UNL A   1      43.020  27.892  28.498  1.00  0.00     0.167 HD
ATOM     51  C   UNL A   1      47.331  28.107  27.871  1.00  0.00     0.034 A 
ATOM     52  C   UNL A   1      40.551  28.877  29.374  1.00  0.00     0.034 A 
ATOM     53  C   UNL A   1      46.933  29.451  28.194  1.00  0.00     0.049 A 
ATOM     54  C   UNL A   1      41.514  30.032  29.442  1.00  0.00     0.074 A 
ATOM     55  C   UNL A   1      47.716  30.590  28.257  1.00  0.00     0.029 A 
ATOM     56  N   UNL A   1      45.641  29.837  28.514  1.00  0.00    -0.354 N 
ATOM     57  N   UNL A   1      42.786  30.065  29.127  1.00  0.00    -0.248 NA
ATOM     58  C   UNL A   1      40.971  31.324  29.885  1.00  0.00     0.031 C 
ATOM     59  C   UNL A   1      46.899  31.662  28.635  1.00  0.00     0.029 A 
ATOM     60  C   UNL A   1      45.605  31.195  28.785  1.00  0.00     0.049 A 
ATOM     61  H   UNL A   1      44.863  29.235  28.545  1.00  0.00     0.167 HD
ATOM     62  C   UNL A   1      43.190  31.383  29.307  1.00  0.00     0.074 A 
ATOM     63  C   UNL A   1      42.018  32.123  29.726  1.00  0.00     0.031 C 
ATOM     64  C   UNL A   1      44.423  31.928  29.160  1.00  0.00     0.034 A 
BRANCH  51  65
ATOM     65  C   UNL A   1      48.792  27.841  27.610  1.00  0.00     0.023 A 
ATOM     66  C   UNL A   1      49.629  27.460  28.679  1.00  0.00     0.012 A 
ATOM     67  C   UNL A   1      49.325  27.910  26.308  1.00  0.00     0.148 A 
ATOM     68  C   UNL A   1      50.979  27.185  28.465  1.00  0.00     0.002 A 
ATOM     69  C   UNL A   1      50.663  27.592  26.095  1.00  0.00     0.091 A 
ATOM     70  F   UNL A   1      48.521  28.296  25.307  1.00  0.00    -0.205 F 
ATOM     71  C   UNL A   1      51.492  27.241  27.173  1.00  0.00     0.022 A 
BRANCH  69  72
ATOM     72  S   UNL A   1      51.402  27.558  24.458  1.00  0.00     0.127 S 
ATOM     73  O   UNL A   1      50.464  26.704  23.730  1.00  0.00    -0.237 OA
ATOM     74  O   UNL A   1      51.365  28.970  24.075  1.00  0.00    -0.237 OA
ATOM     75  O   UNL A   1      52.740  27.012  24.633  1.00  0.00    -0.744 OA
ENDBRANCH  69  72
ENDBRANCH  51  65
BRANCH  52  76
ATOM     76  C   UNL A   1      39.115  29.055  29.731  1.00  0.00     0.023 A 
ATOM     77  C   UNL A   1      38.692  28.795  31.049  1.00  0.00     0.012 A 
ATOM     78  C   UNL A   1      38.175  29.509  28.786  1.00  0.00     0.148 A 
ATOM     79  C   UNL A   1      37.354  28.952  31.411  1.00  0.00     0.002 A 
ATOM     80  C   UNL A   1      36.856  29.720  29.168  1.00  0.00     0.091 A 
ATOM     81  F   UNL A   1      38.594  29.739  27.533  1.00  0.00    -0.205 F 
ATOM     82  C   UNL A   1      36.438  29.425  30.475  1.00  0.00     0.022 A 
BRANCH  80  83
ATOM     83  S   UNL A   1      35.646  30.460  28.065  1.00  0.00     0.127 S 
ATOM     84  O   UNL A   1      36.340  31.667  27.624  1.00  0.00    -0.237 OA
ATOM     85  O   UNL A   1      35.494  29.426  27.040  1.00  0.00    -0.237 OA
ATOM     86  O   UNL A   1      34.456  30.671  28.878  1.00  0.00    -0.744 OA
ENDBRANCH  80  83
ENDBRANCH  52  76
BRANCH  64  87
ATOM     87  C   UNL A   1      44.567  33.401  29.442  1.00  0.00     0.023 A 
ATOM     88  C   UNL A   1      44.882  33.835  30.745  1.00  0.00     0.012 A 
ATOM     89  C   UNL A   1      44.439  34.353  28.410  1.00  0.00     0.148 A 
ATOM     90  C   UNL A   1      45.026  35.193  31.027  1.00  0.00     0.002 A 
ATOM     91  C   UNL A   1      44.632  35.701  28.688  1.00  0.00     0.091 A 
ATOM     92  F   UNL A   1      44.118  33.926  27.180  1.00  0.00    -0.205 F 
ATOM     93  C   UNL A   1      44.911  36.124  29.997  1.00  0.00     0.022 A 
BRANCH  91  94
ATOM     94  S   UNL A   1      44.595  36.955  27.403  1.00  0.00     0.127 S 
ATOM     95  O   UNL A   1      43.239  36.803  26.876  1.00  0.00    -0.237 OA
ATOM     96  O   UNL A   1      44.820  38.188  28.158  1.00  0.00    -0.237 OA
ATOM     97  O   UNL A   1      45.671  36.610  26.483  1.00  0.00    -0.744 OA
ENDBRANCH  91  94
ENDBRANCH  64  87
ENDBRANCH  38  39
ENDBRANCH  30  33
ENDBRANCH  28  29
ENDBRANCH  27  28
ENDBRANCH  26  27
ENDBRANCH   1  26
TORSDOF 21
ENDMDL
MODEL 2
REMARK VINA RESULT:     -10.2      1.664      7.588
REMARK SMILES O=CN[C@@H](CCS[C@@H]1CCO[C@]2(CCOC2)C1)C(=O)NCCCCCCNC(=O)c1ccc(-c2c3nc(c(-c4cccc(S(=O)(=O)[O-])c4F)c4ccc([nH]4)c(-c4cccc(S(=O)(=O)[O-])c4F)c4nc(c(-c5cccc(S(=O)(=O)[O-])c5F)c5ccc2[nH]5)C=C4)C=C3)cc1
REMARK SMILES IDX 23 1 22 2 21 3 20 4 18 5 19 6 4 8 3 9 1 10 2 11 5 13 6 14
REMARK SMILES IDX 7 15 8 16 9 17 17 18 10 19 12 20 11 21 13 22 16 23 14 24
REMARK SMILES IDX 15 25 24 26 25 27 26 28 27 29 28 30 29 32 30 33 31 34 92 35
REMARK SMILES IDX 32 36 91 37 33 38 34 39 35 40 85 41 36 42 90 43 84 44 86 45
REMARK SMILES IDX 37 46 89 47 83 48 82 49 38 51 70 52 50 53 69 54 51 55 54 56
REMARK SMILES IDX 68 57 87 58 52 59 53 60 67 62 88 63 55 64 39 65 40 66 48 67
REMARK SMILES IDX 41 68 43 69 49 70 42 71 44 72 45 73 46 74 47 75 71 76 72 77
REMARK SMILES IDX 80 78 73 79 75 80 81 81 74 82 76 83 77 84 78 85 79 86 56 87
REMARK SMILES IDX 57 88 65 89 58 90 60 91 66 92 59 93 61 94 62 95 63 96 64 97
REMARK H PARENT 20 7 3 12 27 31 86 50 54 61
REMARK Flexibility Score: inf
ROOT
ATOM      1  C   UNL A   1      37.079  22.029  25.046  1.00  0.00     0.002 C 
ENDROOT
BRANCH   1   2
ATOM      2  C   UNL A   1      35.786  22.757  24.657  1.00  0.00     0.021 C 
BRANCH   2   3
ATOM      3  C   UNL A   1      34.530  22.422  25.444  1.00  0.00     0.116 C 
BRANCH   3   4
ATOM      4  N   UNL A   1      33.808  21.317  24.849  1.00  0.00    -0.354 N 
ATOM      5  C   UNL A   1      32.460  21.156  24.852  1.00  0.00     0.242 C 
ATOM      6  O   UNL A   1      32.027  20.017  25.069  1.00  0.00    -0.273 OA
ATOM      7  H   UNL A   1      34.343  20.621  24.403  1.00  0.00     0.163 HD
BRANCH   5   8
ATOM      8  C   UNL A   1      31.492  22.333  24.817  1.00  0.00     0.171 C 
BRANCH   8   9
ATOM      9  N   UNL A   1      30.789  22.197  26.093  1.00  0.00    -0.347 N 
ATOM     10  O   UNL A   1      29.528  23.320  27.627  1.00  0.00    -0.279 OA
ATOM     11  C   UNL A   1      30.440  23.315  26.819  1.00  0.00     0.337 C 
ATOM     12  H   UNL A   1      30.566  21.302  26.435  1.00  0.00     0.164 HD
ENDBRANCH   8   9
BRANCH   8  13
ATOM     13  C   UNL A   1      32.047  23.732  24.512  1.00  0.00     0.046 C 
BRANCH  13  14
ATOM     14  C   UNL A   1      32.195  24.239  23.057  1.00  0.00     0.072 C 
BRANCH  14  15
ATOM     15  S   UNL A   1      32.023  26.010  22.646  1.00  0.00    -0.158 SA
BRANCH  15  16
ATOM     16  C   UNL A   1      30.466  26.627  23.468  1.00  0.00     0.052 C 
ATOM     17  C   UNL A   1      29.900  27.875  22.759  1.00  0.00     0.043 C 
ATOM     18  C   UNL A   1      30.660  27.081  24.913  1.00  0.00     0.052 C 
ATOM     19  C   UNL A   1      30.679  29.164  23.077  1.00  0.00     0.162 C 
ATOM     20  C   UNL A   1      31.571  28.296  25.115  1.00  0.00     0.095 C 
ATOM     21  O   UNL A   1      30.894  29.386  24.481  1.00  0.00    -0.372 OA
ATOM     22  C   UNL A   1      33.038  28.250  24.702  1.00  0.00     0.066 C 
ATOM     23  C   UNL A   1      31.778  28.500  26.631  1.00  0.00     0.195 C 
ATOM     24  C   UNL A   1      33.710  27.484  25.810  1.00  0.00     0.163 C 
ATOM     25  O   UNL A   1      33.013  27.844  27.004  1.00  0.00    -0.378 OA
ENDBRANCH  15  16
ENDBRANCH  14  15
ENDBRANCH  13  14
ENDBRANCH   8  13
ENDBRANCH   5   8
ENDBRANCH   3   4
ENDBRANCH   2   3
ENDBRANCH   1   2
BRANCH   1  26
ATOM     26  C   UNL A   1      37.131  20.502  24.957  1.00  0.00     0.002 C 
BRANCH  26  27
ATOM     27  C   UNL A   1      38.503  19.838  24.873  1.00  0.00     0.021 C 
BRANCH  27  28
ATOM     28  C   UNL A   1      39.208  19.574  26.196  1.00  0.00     0.116 C 
BRANCH  28  29
ATOM     29  N   UNL A   1      40.464  18.860  26.075  1.00  0.00    -0.352 N 
ATOM     30  C   UNL A   1      41.738  19.378  26.157  1.00  0.00     0.251 C 
ATOM     31  H   UNL A   1      40.399  17.890  25.916  1.00  0.00     0.163 HD
ATOM     32  O   UNL A   1      42.710  18.651  25.982  1.00  0.00    -0.269 OA
BRANCH  30  33
ATOM     33  C   UNL A   1      41.924  20.828  26.404  1.00  0.00     0.039 A 
ATOM     34  C   UNL A   1      42.290  21.246  27.686  1.00  0.00     0.014 A 
ATOM     35  C   UNL A   1      41.786  21.768  25.377  1.00  0.00     0.014 A 
ATOM     36  C   UNL A   1      42.582  22.592  27.919  1.00  0.00     0.010 A 
ATOM     37  C   UNL A   1      42.155  23.095  25.593  1.00  0.00     0.010 A 
ATOM     38  C   UNL A   1      42.554  23.524  26.867  1.00  0.00    -0.014 A 
BRANCH  38  39
ATOM     39  C   UNL A   1      42.962  24.937  27.092  1.00  0.00     0.031 A 
ATOM     40  C   UNL A   1      42.033  25.909  27.769  1.00  0.00     0.074 A 
ATOM     41  C   UNL A   1      44.153  25.363  26.627  1.00  0.00     0.049 A 
ATOM     42  N   UNL A   1      42.239  27.163  28.078  1.00  0.00    -0.248 NA
ATOM     43  C   UNL A   1      40.689  25.422  28.119  1.00  0.00     0.031 C 
ATOM     44  C   UNL A   1      45.099  24.554  25.856  1.00  0.00     0.029 A 
ATOM     45  N   UNL A   1      44.767  26.588  26.720  1.00  0.00    -0.354 N 
ATOM     46  C   UNL A   1      41.050  27.621  28.631  1.00  0.00     0.074 A 
ATOM     47  C   UNL A   1      40.110  26.522  28.577  1.00  0.00     0.031 C 
ATOM     48  C   UNL A   1      46.178  25.296  25.561  1.00  0.00     0.029 A 
ATOM     49  C   UNL A   1      45.999  26.637  26.108  1.00  0.00     0.049 A 
ATOM     50  H   UNL A   1      44.364  27.359  27.181  1.00  0.00     0.167 HD
ATOM     51  C   UNL A   1      40.772  28.833  29.169  1.00  0.00     0.034 A 
ATOM     52  C   UNL A   1      46.888  27.645  26.008  1.00  0.00     0.034 A 
ATOM     53  C   UNL A   1      41.722  29.909  29.266  1.00  0.00     0.049 A 
ATOM     54  C   UNL A   1      46.589  28.954  26.686  1.00  0.00     0.074 A 
ATOM     55  C   UNL A   1      41.572  31.137  29.886  1.00  0.00     0.029 A 
ATOM     56  N   UNL A   1      42.997  29.889  28.724  1.00  0.00    -0.354 N 
ATOM     57  N   UNL A   1      45.529  29.303  27.375  1.00  0.00    -0.248 NA
ATOM     58  C   UNL A   1      47.626  29.993  26.613  1.00  0.00     0.031 C 
ATOM     59  C   UNL A   1      42.751  31.868  29.701  1.00  0.00     0.029 A 
ATOM     60  C   UNL A   1      43.642  31.086  28.986  1.00  0.00     0.049 A 
ATOM     61  H   UNL A   1      43.387  29.135  28.225  1.00  0.00     0.167 HD
ATOM     62  C   UNL A   1      45.782  30.588  27.840  1.00  0.00     0.074 A 
ATOM     63  C   UNL A   1      47.110  30.942  27.382  1.00  0.00     0.031 C 
ATOM     64  C   UNL A   1      44.980  31.410  28.561  1.00  0.00     0.034 A 
BRANCH  51  65
ATOM     65  C   UNL A   1      39.400  29.039  29.759  1.00  0.00     0.023 A 
ATOM     66  C   UNL A   1      39.112  28.526  31.040  1.00  0.00     0.012 A 
ATOM     67  C   UNL A   1      38.418  29.784  29.078  1.00  0.00     0.148 A 
ATOM     68  C   UNL A   1      37.859  28.720  31.621  1.00  0.00     0.002 A 
ATOM     69  C   UNL A   1      37.185  30.011  29.682  1.00  0.00     0.091 A 
ATOM     70  F   UNL A   1      38.700  30.246  27.851  1.00  0.00    -0.205 F 
ATOM     71  C   UNL A   1      36.901  29.471  30.947  1.00  0.00     0.022 A 
BRANCH  69  72
ATOM     72  S   UNL A   1      35.910  31.031  28.931  1.00  0.00     0.127 S 
ATOM     73  O   UNL A   1      35.162  31.478  30.105  1.00  0.00    -0.237 OA
ATOM     74  O   UNL A   1      36.699  32.076  28.277  1.00  0.00    -0.237 OA
ATOM     75  O   UNL A   1      35.184  30.159  28.020  1.00  0.00    -0.744 OA
ENDBRANCH  69  72
ENDBRANCH  51  65
BRANCH  52  76
ATOM     76  C   UNL A   1      48.187  27.423  25.309  1.00  0.00     0.023 A 
ATOM     77  C   UNL A   1      49.305  26.989  26.047  1.00  0.00     0.012 A 
ATOM     78  C   UNL A   1      48.312  27.608  23.919  1.00  0.00     0.148 A 
ATOM     79  C   UNL A   1      50.533  26.774  25.420  1.00  0.00     0.002 A 
ATOM     80  C   UNL A   1      49.522  27.337  23.291  1.00  0.00     0.091 A 
ATOM     81  F   UNL A   1      47.241  28.035  23.235  1.00  0.00    -0.205 F 
ATOM     82  C   UNL A   1      50.639  26.937  24.041  1.00  0.00     0.022 A 
BRANCH  80  83
ATOM     83  S   UNL A   1      49.705  27.383  21.504  1.00  0.00     0.127 S 
ATOM     84  O   UNL A   1      51.067  26.887  21.329  1.00  0.00    -0.237 OA
ATOM     85  O   UNL A   1      48.652  26.466  21.066  1.00  0.00    -0.237 OA
ATOM     86  O   UNL A   1      49.479  28.772  21.126  1.00  0.00    -0.744 OA
ENDBRANCH  80  83
ENDBRANCH  52  76
BRANCH  64  87
ATOM     87  C   UNL A   1      45.522  32.771  28.914  1.00  0.00     0.023 A 
ATOM     88  C   UNL A   1      46.188  32.960  30.142  1.00  0.00     0.012 A 
ATOM     89  C   UNL A   1      45.416  33.850  28.014  1.00  0.00     0.148 A 
ATOM     90  C   UNL A   1      46.702  34.209  30.486  1.00  0.00     0.002 A 
ATOM     91  C   UNL A   1      45.973  35.079  28.343  1.00  0.00     0.091 A 
ATOM     92  F   UNL A   1      44.761  33.660  26.859  1.00  0.00    -0.205 F 
ATOM     93  C   UNL A   1      46.604  35.266  29.584  1.00  0.00     0.022 A 
BRANCH  91  94
ATOM     94  S   UNL A   1      45.973  36.464  27.199  1.00  0.00     0.127 S 
ATOM     95  O   UNL A   1      46.660  37.494  27.976  1.00  0.00    -0.237 OA
ATOM     96  O   UNL A   1      46.741  35.939  26.068  1.00  0.00    -0.237 OA
ATOM     97  O   UNL A   1      44.573  36.729  26.899  1.00  0.00    -0.744 OA
ENDBRANCH  91  94
ENDBRANCH  64  87
ENDBRANCH  38  39
ENDBRANCH  30  33
ENDBRANCH  28  29
ENDBRANCH  27  28
ENDBRANCH  26  27
ENDBRANCH   1  26
TORSDOF 21
ENDMDL
MODEL 3
REMARK VINA RESULT:     -10.1      2.076      3.104
REMARK SMILES O=CN[C@@H](CCS[C@@H]1CCO[C@]2(CCOC2)C1)C(=O)NCCCCCCNC(=O)c1ccc(-c2c3nc(c(-c4cccc(S(=O)(=O)[O-])c4F)c4ccc([nH]4)c(-c4cccc(S(=O)(=O)[O-])c4F)c4nc(c(-c5cccc(S(=O)(=O)[O-])c5F)c5ccc2[nH]5)C=C4)C=C3)cc1
REMARK SMILES IDX 23 1 22 2 21 3 20 4 18 5 19 6 4 8 3 9 1 10 2 11 5 13 6 14
REMARK SMILES IDX 7 15 8 16 9 17 17 18 10 19 12 20 11 21 13 22 16 23 14 24
REMARK SMILES IDX 15 25 24 26 25 27 26 28 27 29 28 30 29 32 30 33 31 34 92 35
REMARK SMILES IDX 32 36 91 37 33 38 34 39 35 40 85 41 36 42 90 43 84 44 86 45
REMARK SMILES IDX 37 46 89 47 83 48 82 49 38 51 70 52 50 53 69 54 51 55 54 56
REMARK SMILES IDX 68 57 87 58 52 59 53 60 67 62 88 63 55 64 39 65 40 66 48 67
REMARK SMILES IDX 41 68 43 69 49 70 42 71 44 72 45 73 46 74 47 75 71 76 72 77
REMARK SMILES IDX 80 78 73 79 75 80 81 81 74 82 76 83 77 84 78 85 79 86 56 87
REMARK SMILES IDX 57 88 65 89 58 90 60 91 66 92 59 93 61 94 62 95 63 96 64 97
REMARK H PARENT 20 7 3 12 27 31 86 50 54 61
REMARK Flexibility Score: inf
ROOT
ATOM      1  C   UNL A   1      34.988  20.258  24.329  1.00  0.00     0.002 C 
ENDROOT
BRANCH   1   2
ATOM      2  C   UNL A   1      34.164  19.119  24.942  1.00  0.00     0.021 C 
BRANCH   2   3
ATOM      3  C   UNL A   1      32.906  19.498  25.708  1.00  0.00     0.116 C 
BRANCH   3   4
ATOM      4  N   UNL A   1      33.216  20.273  26.890  1.00  0.00    -0.354 N 
ATOM      5  C   UNL A   1      33.401  21.618  26.931  1.00  0.00     0.242 C 
ATOM      6  O   UNL A   1      34.331  22.040  27.630  1.00  0.00    -0.273 OA
ATOM      7  H   UNL A   1      33.301  19.782  27.738  1.00  0.00     0.163 HD
BRANCH   5   8
ATOM      8  C   UNL A   1      32.665  22.577  26.003  1.00  0.00     0.171 C 
BRANCH   8   9
ATOM      9  N   UNL A   1      31.707  23.213  26.907  1.00  0.00    -0.347 N 
ATOM     10  O   UNL A   1      29.537  23.173  27.611  1.00  0.00    -0.279 OA
ATOM     11  C   UNL A   1      30.352  23.050  26.714  1.00  0.00     0.337 C 
ATOM     12  H   UNL A   1      32.032  23.761  27.657  1.00  0.00     0.164 HD
ENDBRANCH   8   9
BRANCH   8  13
ATOM     13  C   UNL A   1      33.491  23.537  25.133  1.00  0.00     0.046 C 
BRANCH  13  14
ATOM     14  C   UNL A   1      33.359  25.072  25.280  1.00  0.00     0.072 C 
BRANCH  14  15
ATOM     15  S   UNL A   1      32.525  26.080  24.006  1.00  0.00    -0.158 SA
BRANCH  15  16
ATOM     16  C   UNL A   1      30.952  26.745  24.758  1.00  0.00     0.052 C 
ATOM     17  C   UNL A   1      30.206  27.684  23.788  1.00  0.00     0.043 C 
ATOM     18  C   UNL A   1      31.169  27.600  26.004  1.00  0.00     0.052 C 
ATOM     19  C   UNL A   1      30.843  29.080  23.678  1.00  0.00     0.162 C 
ATOM     20  C   UNL A   1      31.939  28.906  25.792  1.00  0.00     0.095 C 
ATOM     21  O   UNL A   1      31.105  29.705  24.947  1.00  0.00    -0.372 OA
ATOM     22  C   UNL A   1      33.377  28.893  25.286  1.00  0.00     0.066 C 
ATOM     23  C   UNL A   1      32.202  29.545  27.174  1.00  0.00     0.195 C 
ATOM     24  C   UNL A   1      34.194  28.536  26.499  1.00  0.00     0.163 C 
ATOM     25  O   UNL A   1      33.523  29.144  27.606  1.00  0.00    -0.378 OA
ENDBRANCH  15  16
ENDBRANCH  14  15
ENDBRANCH  13  14
ENDBRANCH   8  13
ENDBRANCH   5   8
ENDBRANCH   3   4
ENDBRANCH   2   3
ENDBRANCH   1   2
BRANCH   1  26
ATOM     26  C   UNL A   1      36.320  20.647  24.976  1.00  0.00     0.002 C 
BRANCH  26  27
ATOM     27  C   UNL A   1      36.849  22.057  24.726  1.00  0.00     0.021 C 
BRANCH  27  28
ATOM     28  C   UNL A   1      37.880  22.577  25.717  1.00  0.00     0.116 C 
BRANCH  28  29
ATOM     29  N   UNL A   1      39.097  21.793  25.785  1.00  0.00    -0.352 N 
ATOM     30  C   UNL A   1      40.322  22.179  26.286  1.00  0.00     0.251 C 
ATOM     31  H   UNL A   1      39.044  20.876  25.430  1.00  0.00     0.163 HD
ATOM     32  O   UNL A   1      41.280  21.415  26.227  1.00  0.00    -0.269 OA
BRANCH  30  33
ATOM     33  C   UNL A   1      40.486  23.542  26.847  1.00  0.00     0.039 A 
ATOM     34  C   UNL A   1      40.984  23.675  28.144  1.00  0.00     0.014 A 
ATOM     35  C   UNL A   1      40.197  24.683  26.090  1.00  0.00     0.014 A 
ATOM     36  C   UNL A   1      41.256  24.947  28.656  1.00  0.00     0.010 A 
ATOM     37  C   UNL A   1      40.543  25.944  26.572  1.00  0.00     0.010 A 
ATOM     38  C   UNL A   1      41.074  26.092  27.861  1.00  0.00    -0.014 A 
BRANCH  38  39
ATOM     39  C   UNL A   1      41.457  27.437  28.368  1.00  0.00     0.031 A 
ATOM     40  C   UNL A   1      42.902  27.858  28.422  1.00  0.00     0.074 A 
ATOM     41  C   UNL A   1      40.502  28.263  28.840  1.00  0.00     0.049 A 
ATOM     42  N   UNL A   1      43.411  29.002  28.798  1.00  0.00    -0.248 NA
ATOM     43  C   UNL A   1      43.909  26.856  28.033  1.00  0.00     0.031 C 
ATOM     44  C   UNL A   1      39.079  27.936  28.949  1.00  0.00     0.029 A 
ATOM     45  N   UNL A   1      40.585  29.542  29.334  1.00  0.00    -0.354 N 
ATOM     46  C   UNL A   1      44.790  28.852  28.717  1.00  0.00     0.074 A 
ATOM     47  C   UNL A   1      45.041  27.491  28.296  1.00  0.00     0.031 C 
ATOM     48  C   UNL A   1      38.421  28.990  29.458  1.00  0.00     0.029 A 
ATOM     49  C   UNL A   1      39.373  30.062  29.726  1.00  0.00     0.049 A 
ATOM     50  H   UNL A   1      41.432  30.039  29.401  1.00  0.00     0.167 HD
ATOM     51  C   UNL A   1      45.761  29.772  28.936  1.00  0.00     0.034 A 
ATOM     52  C   UNL A   1      39.061  31.271  30.235  1.00  0.00     0.034 A 
ATOM     53  C   UNL A   1      45.508  31.138  29.307  1.00  0.00     0.049 A 
ATOM     54  C   UNL A   1      40.148  32.300  30.390  1.00  0.00     0.074 A 
ATOM     55  C   UNL A   1      46.415  32.174  29.451  1.00  0.00     0.029 A 
ATOM     56  N   UNL A   1      44.258  31.660  29.599  1.00  0.00    -0.354 N 
ATOM     57  N   UNL A   1      41.427  32.197  30.122  1.00  0.00    -0.248 NA
ATOM     58  C   UNL A   1      39.742  33.628  30.874  1.00  0.00     0.031 C 
ATOM     59  C   UNL A   1      45.714  33.317  29.850  1.00  0.00     0.029 A 
ATOM     60  C   UNL A   1      44.369  33.000  29.932  1.00  0.00     0.049 A 
ATOM     61  H   UNL A   1      43.415  31.153  29.575  1.00  0.00     0.167 HD
ATOM     62  C   UNL A   1      41.974  33.449  30.377  1.00  0.00     0.074 A 
ATOM     63  C   UNL A   1      40.879  34.304  30.789  1.00  0.00     0.031 C 
ATOM     64  C   UNL A   1      43.266  33.850  30.299  1.00  0.00     0.034 A 
BRANCH  51  65
ATOM     65  C   UNL A   1      47.190  29.347  28.714  1.00  0.00     0.023 A 
ATOM     66  C   UNL A   1      48.029  29.130  29.827  1.00  0.00     0.012 A 
ATOM     67  C   UNL A   1      47.687  29.106  27.419  1.00  0.00     0.148 A 
ATOM     68  C   UNL A   1      49.349  28.714  29.655  1.00  0.00     0.002 A 
ATOM     69  C   UNL A   1      48.992  28.649  27.257  1.00  0.00     0.091 A 
ATOM     70  F   UNL A   1      46.883  29.338  26.371  1.00  0.00    -0.205 F 
ATOM     71  C   UNL A   1      49.826  28.464  28.371  1.00  0.00     0.022 A 
BRANCH  69  72
ATOM     72  S   UNL A   1      49.677  28.224  25.651  1.00  0.00     0.127 S 
ATOM     73  O   UNL A   1      50.217  26.889  25.907  1.00  0.00    -0.237 OA
ATOM     74  O   UNL A   1      48.490  28.247  24.795  1.00  0.00    -0.237 OA
ATOM     75  O   UNL A   1      50.662  29.251  25.350  1.00  0.00    -0.744 OA
ENDBRANCH  69  72
ENDBRANCH  51  65
BRANCH  52  76
ATOM     76  C   UNL A   1      37.642  31.602  30.549  1.00  0.00     0.023 A 
ATOM     77  C   UNL A   1      37.127  31.301  31.825  1.00  0.00     0.012 A 
ATOM     78  C   UNL A   1      36.812  32.239  29.607  1.00  0.00     0.148 A 
ATOM     79  C   UNL A   1      35.803  31.599  32.147  1.00  0.00     0.002 A 
ATOM     80  C   UNL A   1      35.511  32.586  29.953  1.00  0.00     0.091 A 
ATOM     81  F   UNL A   1      37.315  32.506  28.394  1.00  0.00    -0.205 F 
ATOM     82  C   UNL A   1      34.998  32.250  31.216  1.00  0.00     0.022 A 
BRANCH  80  83
ATOM     83  S   UNL A   1      34.455  33.552  28.866  1.00  0.00     0.127 S 
ATOM     84  O   UNL A   1      33.996  32.541  27.918  1.00  0.00    -0.237 OA
ATOM     85  O   UNL A   1      33.432  34.041  29.791  1.00  0.00    -0.237 OA
ATOM     86  O   UNL A   1      35.311  34.596  28.320  1.00  0.00    -0.744 OA
ENDBRANCH  80  83
ENDBRANCH  52  76
BRANCH  64  87
ATOM     87  C   UNL A   1      43.569  35.283  30.654  1.00  0.00     0.023 A 
ATOM     88  C   UNL A   1      43.996  35.604  31.959  1.00  0.00     0.012 A 
ATOM     89  C   UNL A   1      43.479  36.305  29.688  1.00  0.00     0.148 A 
ATOM     90  C   UNL A   1      44.287  36.922  32.307  1.00  0.00     0.002 A 
ATOM     91  C   UNL A   1      43.818  37.609  30.029  1.00  0.00     0.091 A 
ATOM     92  F   UNL A   1      43.051  35.987  28.457  1.00  0.00    -0.205 F 
ATOM     93  C   UNL A   1      44.208  37.922  31.341  1.00  0.00     0.022 A 
BRANCH  91  94
ATOM     94  S   UNL A   1      43.833  38.938  28.821  1.00  0.00     0.127 S 
ATOM     95  O   UNL A   1      42.416  39.052  28.483  1.00  0.00    -0.237 OA
ATOM     96  O   UNL A   1      44.369  40.060  29.593  1.00  0.00    -0.237 OA
ATOM     97  O   UNL A   1      44.703  38.483  27.744  1.00  0.00    -0.744 OA
ENDBRANCH  91  94
ENDBRANCH  64  87
ENDBRANCH  38  39
ENDBRANCH  30  33
ENDBRANCH  28  29
ENDBRANCH  27  28
ENDBRANCH  26  27
ENDBRANCH   1  26
TORSDOF 21
ENDMDL
