MODEL 1
REMARK VINA RESULT:     -11.2      0.000      0.000
REMARK SMILES CCOc1ccc(NC(=O)CC2(CC(=O)NCCCCCCNC(=O)c3ccc(-c4c5nc(c(-c6cccc(S(=O)(=O)[O-])c6F)c6ccc([nH]6)c(-c6cccc(S(=O)(=O)[O-])c6F)c6nc(c(-c7cccc(S(=O)(=O)[O-])c7F)c7ccc4[nH]7)C=C6)C=C5)cc3)CCCCC2)cc1
REMARK SMILES IDX 18 1 17 2 16 3 14 4 15 5 13 7 12 8 89 9 93 10 90 11 92 12
REMARK SMILES IDX 91 13 11 14 9 15 8 16 10 18 7 19 4 20 5 21 95 22 6 23 94 24
REMARK SMILES IDX 3 25 2 26 1 27 19 28 20 29 21 30 22 31 23 32 24 33 25 35
REMARK SMILES IDX 26 36 27 37 88 38 28 39 87 40 29 41 30 42 31 43 81 44 32 45
REMARK SMILES IDX 86 46 80 47 82 48 33 49 85 50 79 51 78 52 34 54 66 55 46 56
REMARK SMILES IDX 65 57 47 58 50 59 64 60 83 61 48 62 49 63 63 65 84 66 51 67
REMARK SMILES IDX 35 68 36 69 44 70 37 71 39 72 45 73 38 74 40 75 41 76 42 77
REMARK SMILES IDX 43 78 67 79 68 80 76 81 69 82 71 83 77 84 70 85 72 86 73 87
REMARK SMILES IDX 74 88 75 89 52 90 53 91 61 92 54 93 56 94 62 95 55 96 57 97
REMARK SMILES IDX 58 98 59 99 60 100
REMARK H PARENT 16 6 8 17 23 34 82 53 50 64
REMARK Flexibility Score: inf
ROOT
ATOM      1  C   UNL A   1      31.065  29.833  24.478  1.00  0.00     0.021 C 
ENDROOT
BRANCH   1   2
ATOM      2  C   UNL A   1      29.757  29.431  23.485  1.00  0.00     0.116 C 
BRANCH   2   3
ATOM      3  N   UNL A   1      30.239  28.404  22.546  1.00  0.00    -0.356 N 
ATOM      4  C   UNL A   1      30.950  27.272  22.818  1.00  0.00     0.220 C 
ATOM      5  O   UNL A   1      31.654  26.799  21.921  1.00  0.00    -0.275 OA
ATOM      6  H   UNL A   1      30.021  28.556  21.599  1.00  0.00     0.163 HD
BRANCH   4   7
ATOM      7  C   UNL A   1      30.803  26.565  24.162  1.00  0.00     0.107 C 
BRANCH   7   8
ATOM      8  C   UNL A   1      31.919  25.613  24.762  1.00  0.00    -0.012 C 
ATOM      9  C   UNL A   1      31.834  25.789  26.322  1.00  0.00     0.008 C 
ATOM     10  C   UNL A   1      33.379  26.036  24.527  1.00  0.00     0.008 C 
ATOM     11  C   UNL A   1      32.223  27.230  26.779  1.00  0.00     0.001 C 
ATOM     12  C   UNL A   1      33.726  27.482  24.774  1.00  0.00     0.001 C 
ATOM     13  C   UNL A   1      33.577  27.731  26.255  1.00  0.00     0.000 C 
BRANCH   8  14
ATOM     14  C   UNL A   1      31.736  24.128  24.261  1.00  0.00     0.108 C 
BRANCH  14  15
ATOM     15  C   UNL A   1      31.524  23.000  25.305  1.00  0.00     0.224 C 
ATOM     16  N   UNL A   1      32.559  22.299  25.896  1.00  0.00    -0.326 N 
ATOM     17  H   UNL A   1      32.286  21.700  26.629  1.00  0.00     0.169 HD
ATOM     18  O   UNL A   1      30.371  22.712  25.648  1.00  0.00    -0.275 OA
BRANCH  16  19
ATOM     19  C   UNL A   1      33.941  22.303  25.617  1.00  0.00     0.041 A 
ATOM     20  C   UNL A   1      37.542  22.063  25.608  1.00  0.00     0.119 A 
ATOM     21  C   UNL A   1      36.740  23.533  26.242  1.00  0.00     0.048 A 
ATOM     22  C   UNL A   1      36.541  20.653  25.011  1.00  0.00     0.048 A 
ATOM     23  C   UNL A   1      34.936  23.666  26.197  1.00  0.00     0.030 A 
ATOM     24  C   UNL A   1      34.742  20.818  24.934  1.00  0.00     0.030 A 
BRANCH  20  25
ATOM     25  O   UNL A   1      38.894  21.988  25.384  1.00  0.00    -0.494 OA
BRANCH  25  26
ATOM     26  C   UNL A   1      39.707  21.791  26.551  1.00  0.00     0.226 C 
ATOM     27  C   UNL A   1      40.962  20.944  26.343  1.00  0.00     0.049 C 
ENDBRANCH  25  26
ENDBRANCH  20  25
ENDBRANCH  16  19
ENDBRANCH  14  15
ENDBRANCH   8  14
ENDBRANCH   7   8
ENDBRANCH   4   7
ENDBRANCH   2   3
ENDBRANCH   1   2
BRANCH   1  28
ATOM     28  C   UNL A   1      31.379  30.827  26.401  1.00  0.00     0.002 C 
BRANCH  28  29
ATOM     29  C   UNL A   1      32.711  31.769  27.026  1.00  0.00     0.002 C 
BRANCH  29  30
ATOM     30  C   UNL A   1      32.492  33.221  27.433  1.00  0.00     0.021 C 
BRANCH  30  31
ATOM     31  C   UNL A   1      33.658  33.743  28.236  1.00  0.00     0.116 C 
BRANCH  31  32
ATOM     32  N   UNL A   1      33.239  34.862  29.104  1.00  0.00    -0.352 N 
ATOM     33  C   UNL A   1      33.321  34.958  30.476  1.00  0.00     0.251 C 
ATOM     34  H   UNL A   1      32.853  35.641  28.642  1.00  0.00     0.163 HD
ATOM     35  O   UNL A   1      32.557  35.665  31.121  1.00  0.00    -0.269 OA
BRANCH  33  36
ATOM     36  C   UNL A   1      34.403  34.204  31.123  1.00  0.00     0.039 A 
ATOM     37  C   UNL A   1      34.189  33.016  31.819  1.00  0.00     0.014 A 
ATOM     38  C   UNL A   1      35.687  34.698  30.922  1.00  0.00     0.014 A 
ATOM     39  C   UNL A   1      35.303  32.298  32.259  1.00  0.00     0.010 A 
ATOM     40  C   UNL A   1      36.758  33.868  31.121  1.00  0.00     0.010 A 
ATOM     41  C   UNL A   1      36.592  32.713  31.885  1.00  0.00    -0.014 A 
BRANCH  41  42
ATOM     42  C   UNL A   1      37.832  32.060  32.346  1.00  0.00     0.031 A 
ATOM     43  C   UNL A   1      38.479  32.569  33.616  1.00  0.00     0.074 A 
ATOM     44  C   UNL A   1      38.436  31.146  31.566  1.00  0.00     0.049 A 
ATOM     45  N   UNL A   1      39.644  32.272  34.122  1.00  0.00    -0.248 NA
ATOM     46  C   UNL A   1      37.767  33.626  34.367  1.00  0.00     0.031 C 
ATOM     47  C   UNL A   1      37.964  30.697  30.253  1.00  0.00     0.029 A 
ATOM     48  N   UNL A   1      39.595  30.447  31.758  1.00  0.00    -0.354 N 
ATOM     49  C   UNL A   1      39.824  33.153  35.183  1.00  0.00     0.074 A 
ATOM     50  C   UNL A   1      38.709  34.064  35.183  1.00  0.00     0.031 C 
ATOM     51  C   UNL A   1      38.806  29.767  29.777  1.00  0.00     0.029 A 
ATOM     52  C   UNL A   1      39.890  29.579  30.736  1.00  0.00     0.049 A 
ATOM     53  H   UNL A   1      40.164  30.555  32.555  1.00  0.00     0.167 HD
ATOM     54  C   UNL A   1      40.796  33.160  36.122  1.00  0.00     0.034 A 
ATOM     55  C   UNL A   1      40.919  28.721  30.607  1.00  0.00     0.034 A 
ATOM     56  C   UNL A   1      41.822  32.163  36.167  1.00  0.00     0.049 A 
ATOM     57  C   UNL A   1      41.910  28.640  31.735  1.00  0.00     0.074 A 
ATOM     58  C   UNL A   1      42.782  31.953  37.136  1.00  0.00     0.029 A 
ATOM     59  N   UNL A   1      42.003  31.191  35.194  1.00  0.00    -0.354 N 
ATOM     60  N   UNL A   1      41.976  29.364  32.828  1.00  0.00    -0.248 NA
ATOM     61  C   UNL A   1      42.938  27.597  31.641  1.00  0.00     0.031 C 
ATOM     62  C   UNL A   1      43.563  30.866  36.733  1.00  0.00     0.029 A 
ATOM     63  C   UNL A   1      43.064  30.378  35.533  1.00  0.00     0.049 A 
ATOM     64  H   UNL A   1      41.455  31.096  34.381  1.00  0.00     0.167 HD
ATOM     65  C   UNL A   1      43.026  28.843  33.570  1.00  0.00     0.074 A 
ATOM     66  C   UNL A   1      43.556  27.729  32.808  1.00  0.00     0.031 C 
ATOM     67  C   UNL A   1      43.522  29.250  34.765  1.00  0.00     0.034 A 
BRANCH  54  68
ATOM     68  C   UNL A   1      40.737  34.221  37.191  1.00  0.00     0.023 A 
ATOM     69  C   UNL A   1      41.407  35.451  37.010  1.00  0.00     0.012 A 
ATOM     70  C   UNL A   1      40.009  34.005  38.376  1.00  0.00     0.148 A 
ATOM     71  C   UNL A   1      41.406  36.420  38.011  1.00  0.00     0.002 A 
ATOM     72  C   UNL A   1      39.962  35.001  39.345  1.00  0.00     0.091 A 
ATOM     73  F   UNL A   1      39.399  32.824  38.547  1.00  0.00    -0.205 F 
ATOM     74  C   UNL A   1      40.675  36.200  39.173  1.00  0.00     0.022 A 
BRANCH  72  75
ATOM     75  S   UNL A   1      38.975  34.853  40.838  1.00  0.00     0.127 S 
ATOM     76  O   UNL A   1      38.587  36.243  41.074  1.00  0.00    -0.237 OA
ATOM     77  O   UNL A   1      37.886  33.982  40.396  1.00  0.00    -0.237 OA
ATOM     78  O   UNL A   1      39.852  34.270  41.844  1.00  0.00    -0.744 OA
ENDBRANCH  72  75
ENDBRANCH  54  68
BRANCH  55  79
ATOM     79  C   UNL A   1      40.985  27.814  29.428  1.00  0.00     0.023 A 
ATOM     80  C   UNL A   1      40.137  26.690  29.370  1.00  0.00     0.012 A 
ATOM     81  C   UNL A   1      41.830  28.091  28.338  1.00  0.00     0.148 A 
ATOM     82  C   UNL A   1      40.156  25.839  28.263  1.00  0.00     0.002 A 
ATOM     83  C   UNL A   1      41.805  27.272  27.215  1.00  0.00     0.091 A 
ATOM     84  F   UNL A   1      42.628  29.166  28.411  1.00  0.00    -0.205 F 
ATOM     85  C   UNL A   1      40.981  26.135  27.181  1.00  0.00     0.022 A 
BRANCH  83  86
ATOM     86  S   UNL A   1      42.730  27.653  25.722  1.00  0.00     0.127 S 
ATOM     87  O   UNL A   1      42.228  28.983  25.391  1.00  0.00    -0.237 OA
ATOM     88  O   UNL A   1      44.111  27.618  26.207  1.00  0.00    -0.237 OA
ATOM     89  O   UNL A   1      42.400  26.597  24.774  1.00  0.00    -0.744 OA
ENDBRANCH  83  86
ENDBRANCH  55  79
BRANCH  67  90
ATOM     90  C   UNL A   1      44.661  28.461  35.343  1.00  0.00     0.023 A 
ATOM     91  C   UNL A   1      45.988  28.863  35.100  1.00  0.00     0.012 A 
ATOM     92  C   UNL A   1      44.405  27.383  36.211  1.00  0.00     0.148 A 
ATOM     93  C   UNL A   1      47.049  28.178  35.690  1.00  0.00     0.002 A 
ATOM     94  C   UNL A   1      45.462  26.744  36.839  1.00  0.00     0.091 A 
ATOM     95  F   UNL A   1      43.131  27.013  36.414  1.00  0.00    -0.205 F 
ATOM     96  C   UNL A   1      46.786  27.130  36.569  1.00  0.00     0.022 A 
BRANCH  94  97
ATOM     97  S   UNL A   1      45.210  25.462  38.070  1.00  0.00     0.127 S 
ATOM     98  O   UNL A   1      44.630  24.389  37.267  1.00  0.00    -0.237 OA
ATOM     99  O   UNL A   1      46.573  25.208  38.536  1.00  0.00    -0.237 OA
ATOM    100  O   UNL A   1      44.326  26.038  39.075  1.00  0.00    -0.744 OA
ENDBRANCH  94  97
ENDBRANCH  67  90
ENDBRANCH  41  42
ENDBRANCH  33  36
ENDBRANCH  31  32
ENDBRANCH  30  31
ENDBRANCH  29  30
ENDBRANCH  28  29
ENDBRANCH   1  28
TORSDOF 22
ENDMDL
MODEL 2
REMARK VINA RESULT:     -11.0      1.666      7.820
REMARK SMILES CCOc1ccc(NC(=O)CC2(CC(=O)NCCCCCCNC(=O)c3ccc(-c4c5nc(c(-c6cccc(S(=O)(=O)[O-])c6F)c6ccc([nH]6)c(-c6cccc(S(=O)(=O)[O-])c6F)c6nc(c(-c7cccc(S(=O)(=O)[O-])c7F)c7ccc4[nH]7)C=C6)C=C5)cc3)CCCCC2)cc1
REMARK SMILES IDX 18 1 17 2 16 3 14 4 15 5 13 7 12 8 89 9 93 10 90 11 92 12
REMARK SMILES IDX 91 13 11 14 9 15 8 16 10 18 7 19 4 20 5 21 95 22 6 23 94 24
REMARK SMILES IDX 3 25 2 26 1 27 19 28 20 29 21 30 22 31 23 32 24 33 25 35
REMARK SMILES IDX 26 36 27 37 88 38 28 39 87 40 29 41 30 42 31 43 81 44 32 45
REMARK SMILES IDX 86 46 80 47 82 48 33 49 85 50 79 51 78 52 34 54 66 55 46 56
REMARK SMILES IDX 65 57 47 58 50 59 64 60 83 61 48 62 49 63 63 65 84 66 51 67
REMARK SMILES IDX 35 68 36 69 44 70 37 71 39 72 45 73 38 74 40 75 41 76 42 77
REMARK SMILES IDX 43 78 67 79 68 80 76 81 69 82 71 83 77 84 70 85 72 86 73 87
REMARK SMILES IDX 74 88 75 89 52 90 53 91 61 92 54 93 56 94 62 95 55 96 57 97
REMARK SMILES IDX 58 98 59 99 60 100
REMARK H PARENT 16 6 8 17 23 34 82 53 50 64
REMARK Flexibility Score: inf
ROOT
ATOM      1  C   UNL A   1      34.657  29.146  27.309  1.00  0.00     0.021 C 
ENDROOT
BRANCH   1   2
ATOM      2  C   UNL A   1      33.099  29.009  26.669  1.00  0.00     0.116 C 
BRANCH   2   3
ATOM      3  N   UNL A   1      33.155  29.551  25.301  1.00  0.00    -0.356 N 
ATOM      4  C   UNL A   1      32.805  28.942  24.131  1.00  0.00     0.220 C 
ATOM      5  O   UNL A   1      33.339  29.334  23.090  1.00  0.00    -0.275 OA
ATOM      6  H   UNL A   1      33.490  30.473  25.220  1.00  0.00     0.163 HD
BRANCH   4   7
ATOM      7  C   UNL A   1      31.717  27.872  24.106  1.00  0.00     0.107 C 
BRANCH   7   8
ATOM      8  C   UNL A   1      32.009  26.340  24.390  1.00  0.00    -0.012 C 
ATOM      9  C   UNL A   1      33.494  26.098  23.934  1.00  0.00     0.008 C 
ATOM     10  C   UNL A   1      31.286  25.326  23.488  1.00  0.00     0.008 C 
ATOM     11  C   UNL A   1      33.679  26.281  22.394  1.00  0.00     0.001 C 
ATOM     12  C   UNL A   1      31.286  25.599  22.006  1.00  0.00     0.001 C 
ATOM     13  C   UNL A   1      32.710  25.465  21.526  1.00  0.00     0.000 C 
BRANCH   8  14
ATOM     14  C   UNL A   1      31.721  25.972  25.898  1.00  0.00     0.108 C 
BRANCH  14  15
ATOM     15  C   UNL A   1      30.544  25.019  26.231  1.00  0.00     0.224 C 
ATOM     16  N   UNL A   1      30.692  23.659  26.435  1.00  0.00    -0.326 N 
ATOM     17  H   UNL A   1      29.884  23.200  26.760  1.00  0.00     0.169 HD
ATOM     18  O   UNL A   1      29.406  25.491  26.338  1.00  0.00    -0.275 OA
BRANCH  16  19
ATOM     19  C   UNL A   1      31.815  22.826  26.252  1.00  0.00     0.041 A 
ATOM     20  C   UNL A   1      34.990  21.301  25.464  1.00  0.00     0.119 A 
ATOM     21  C   UNL A   1      33.684  21.346  24.239  1.00  0.00     0.048 A 
ATOM     22  C   UNL A   1      34.741  22.074  27.103  1.00  0.00     0.048 A 
ATOM     23  C   UNL A   1      32.079  22.068  24.659  1.00  0.00     0.030 A 
ATOM     24  C   UNL A   1      33.118  22.754  27.521  1.00  0.00     0.030 A 
BRANCH  20  25
ATOM     25  O   UNL A   1      36.136  20.564  25.307  1.00  0.00    -0.494 OA
BRANCH  25  26
ATOM     26  C   UNL A   1      37.224  21.237  24.656  1.00  0.00     0.226 C 
ATOM     27  C   UNL A   1      37.124  22.761  24.613  1.00  0.00     0.049 C 
ENDBRANCH  25  26
ENDBRANCH  20  25
ENDBRANCH  16  19
ENDBRANCH  14  15
ENDBRANCH   8  14
ENDBRANCH   7   8
ENDBRANCH   4   7
ENDBRANCH   2   3
ENDBRANCH   1   2
BRANCH   1  28
ATOM     28  C   UNL A   1      35.897  30.711  28.203  1.00  0.00     0.002 C 
BRANCH  28  29
ATOM     29  C   UNL A   1      35.844  32.454  28.087  1.00  0.00     0.002 C 
BRANCH  29  30
ATOM     30  C   UNL A   1      34.504  33.170  27.981  1.00  0.00     0.021 C 
BRANCH  30  31
ATOM     31  C   UNL A   1      34.678  34.666  28.059  1.00  0.00     0.116 C 
BRANCH  31  32
ATOM     32  N   UNL A   1      33.680  35.265  28.969  1.00  0.00    -0.352 N 
ATOM     33  C   UNL A   1      33.363  34.891  30.256  1.00  0.00     0.251 C 
ATOM     34  H   UNL A   1      33.179  36.032  28.609  1.00  0.00     0.163 HD
ATOM     35  O   UNL A   1      32.259  35.110  30.739  1.00  0.00    -0.269 OA
BRANCH  33  36
ATOM     36  C   UNL A   1      34.434  34.258  31.038  1.00  0.00     0.039 A 
ATOM     37  C   UNL A   1      34.368  32.942  31.488  1.00  0.00     0.014 A 
ATOM     38  C   UNL A   1      35.576  35.027  31.230  1.00  0.00     0.014 A 
ATOM     39  C   UNL A   1      35.503  32.389  32.085  1.00  0.00     0.010 A 
ATOM     40  C   UNL A   1      36.748  34.404  31.569  1.00  0.00     0.010 A 
ATOM     41  C   UNL A   1      36.705  33.116  32.100  1.00  0.00    -0.014 A 
BRANCH  41  42
ATOM     42  C   UNL A   1      37.940  32.646  32.757  1.00  0.00     0.031 A 
ATOM     43  C   UNL A   1      38.844  31.704  31.992  1.00  0.00     0.074 A 
ATOM     44  C   UNL A   1      38.160  32.935  34.052  1.00  0.00     0.049 A 
ATOM     45  N   UNL A   1      39.881  31.034  32.413  1.00  0.00    -0.248 NA
ATOM     46  C   UNL A   1      38.477  31.395  30.592  1.00  0.00     0.031 C 
ATOM     47  C   UNL A   1      37.270  33.716  34.916  1.00  0.00     0.029 A 
ATOM     48  N   UNL A   1      39.195  32.582  34.873  1.00  0.00    -0.354 N 
ATOM     49  C   UNL A   1      40.224  30.184  31.367  1.00  0.00     0.074 A 
ATOM     50  C   UNL A   1      39.229  30.339  30.338  1.00  0.00     0.031 C 
ATOM     51  C   UNL A   1      37.821  33.816  36.137  1.00  0.00     0.029 A 
ATOM     52  C   UNL A   1      39.081  33.082  36.146  1.00  0.00     0.049 A 
ATOM     53  H   UNL A   1      39.950  32.022  34.578  1.00  0.00     0.167 HD
ATOM     54  C   UNL A   1      41.314  29.396  31.240  1.00  0.00     0.034 A 
ATOM     55  C   UNL A   1      39.918  32.965  37.194  1.00  0.00     0.034 A 
ATOM     56  C   UNL A   1      42.350  29.359  32.227  1.00  0.00     0.049 A 
ATOM     57  C   UNL A   1      41.199  32.204  36.986  1.00  0.00     0.074 A 
ATOM     58  C   UNL A   1      43.576  28.728  32.172  1.00  0.00     0.029 A 
ATOM     59  N   UNL A   1      42.278  30.008  33.451  1.00  0.00    -0.354 N 
ATOM     60  N   UNL A   1      41.602  31.542  35.927  1.00  0.00    -0.248 NA
ATOM     61  C   UNL A   1      42.163  32.213  38.093  1.00  0.00     0.031 C 
ATOM     62  C   UNL A   1      44.236  28.973  33.380  1.00  0.00     0.029 A 
ATOM     63  C   UNL A   1      43.436  29.789  34.168  1.00  0.00     0.049 A 
ATOM     64  H   UNL A   1      41.514  30.545  33.763  1.00  0.00     0.167 HD
ATOM     65  C   UNL A   1      42.878  31.086  36.222  1.00  0.00     0.074 A 
ATOM     66  C   UNL A   1      43.188  31.565  37.556  1.00  0.00     0.031 C 
ATOM     67  C   UNL A   1      43.718  30.329  35.473  1.00  0.00     0.034 A 
BRANCH  54  68
ATOM     68  C   UNL A   1      41.459  28.589  29.975  1.00  0.00     0.023 A 
ATOM     69  C   UNL A   1      40.820  27.335  29.855  1.00  0.00     0.012 A 
ATOM     70  C   UNL A   1      42.222  29.075  28.897  1.00  0.00     0.148 A 
ATOM     71  C   UNL A   1      40.987  26.554  28.713  1.00  0.00     0.002 A 
ATOM     72  C   UNL A   1      42.335  28.317  27.737  1.00  0.00     0.091 A 
ATOM     73  F   UNL A   1      42.844  30.254  29.034  1.00  0.00    -0.205 F 
ATOM     74  C   UNL A   1      41.735  27.049  27.650  1.00  0.00     0.022 A 
BRANCH  72  75
ATOM     75  S   UNL A   1      43.201  28.904  26.278  1.00  0.00     0.127 S 
ATOM     76  O   UNL A   1      44.329  27.976  26.211  1.00  0.00    -0.237 OA
ATOM     77  O   UNL A   1      42.195  28.718  25.233  1.00  0.00    -0.237 OA
ATOM     78  O   UNL A   1      43.550  30.292  26.548  1.00  0.00    -0.744 OA
ENDBRANCH  72  75
ENDBRANCH  54  68
BRANCH  55  79
ATOM     79  C   UNL A   1      39.614  33.670  38.469  1.00  0.00     0.023 A 
ATOM     80  C   UNL A   1      40.223  34.913  38.736  1.00  0.00     0.012 A 
ATOM     81  C   UNL A   1      38.681  33.154  39.387  1.00  0.00     0.148 A 
ATOM     82  C   UNL A   1      39.933  35.611  39.910  1.00  0.00     0.002 A 
ATOM     83  C   UNL A   1      38.354  33.880  40.527  1.00  0.00     0.091 A 
ATOM     84  F   UNL A   1      38.111  31.972  39.114  1.00  0.00    -0.205 F 
ATOM     85  C   UNL A   1      38.992  35.101  40.800  1.00  0.00     0.022 A 
BRANCH  83  86
ATOM     86  S   UNL A   1      37.054  33.368  41.657  1.00  0.00     0.127 S 
ATOM     87  O   UNL A   1      36.881  34.564  42.476  1.00  0.00    -0.237 OA
ATOM     88  O   UNL A   1      35.951  33.085  40.737  1.00  0.00    -0.237 OA
ATOM     89  O   UNL A   1      37.574  32.196  42.348  1.00  0.00    -0.744 OA
ENDBRANCH  83  86
ENDBRANCH  55  79
BRANCH  67  90
ATOM     90  C   UNL A   1      45.066  30.014  36.053  1.00  0.00     0.023 A 
ATOM     91  C   UNL A   1      46.150  30.882  35.826  1.00  0.00     0.012 A 
ATOM     92  C   UNL A   1      45.225  28.906  36.909  1.00  0.00     0.148 A 
ATOM     93  C   UNL A   1      47.386  30.634  36.419  1.00  0.00     0.002 A 
ATOM     94  C   UNL A   1      46.441  28.698  37.540  1.00  0.00     0.091 A 
ATOM     95  F   UNL A   1      44.179  28.087  37.096  1.00  0.00    -0.205 F 
ATOM     96  C   UNL A   1      47.527  29.552  37.285  1.00  0.00     0.022 A 
BRANCH  94  97
ATOM     97  S   UNL A   1      46.677  27.399  38.756  1.00  0.00     0.127 S 
ATOM     98  O   UNL A   1      48.077  27.591  39.127  1.00  0.00    -0.237 OA
ATOM     99  O   UNL A   1      45.714  27.768  39.793  1.00  0.00    -0.237 OA
ATOM    100  O   UNL A   1      46.378  26.149  38.072  1.00  0.00    -0.744 OA
ENDBRANCH  94  97
ENDBRANCH  67  90
ENDBRANCH  41  42
ENDBRANCH  33  36
ENDBRANCH  31  32
ENDBRANCH  30  31
ENDBRANCH  29  30
ENDBRANCH  28  29
ENDBRANCH   1  28
TORSDOF 22
ENDMDL
MODEL 3
REMARK VINA RESULT:     -10.9      1.808      2.518
REMARK SMILES CCOc1ccc(NC(=O)CC2(CC(=O)NCCCCCCNC(=O)c3ccc(-c4c5nc(c(-c6cccc(S(=O)(=O)[O-])c6F)c6ccc([nH]6)c(-c6cccc(S(=O)(=O)[O-])c6F)c6nc(c(-c7cccc(S(=O)(=O)[O-])c7F)c7ccc4[nH]7)C=C6)C=C5)cc3)CCCCC2)cc1
REMARK SMILES IDX 18 1 17 2 16 3 14 4 15 5 13 7 12 8 89 9 93 10 90 11 92 12
REMARK SMILES IDX 91 13 11 14 9 15 8 16 10 18 7 19 4 20 5 21 95 22 6 23 94 24
REMARK SMILES IDX 3 25 2 26 1 27 19 28 20 29 21 30 22 31 23 32 24 33 25 35
REMARK SMILES IDX 26 36 27 37 88 38 28 39 87 40 29 41 30 42 31 43 81 44 32 45
REMARK SMILES IDX 86 46 80 47 82 48 33 49 85 50 79 51 78 52 34 54 66 55 46 56
REMARK SMILES IDX 65 57 47 58 50 59 64 60 83 61 48 62 49 63 63 65 84 66 51 67
REMARK SMILES IDX 35 68 36 69 44 70 37 71 39 72 45 73 38 74 40 75 41 76 42 77
REMARK SMILES IDX 43 78 67 79 68 80 76 81 69 82 71 83 77 84 70 85 72 86 73 87
REMARK SMILES IDX 74 88 75 89 52 90 53 91 61 92 54 93 56 94 62 95 55 96 57 97
REMARK SMILES IDX 58 98 59 99 60 100
REMARK H PARENT 16 6 8 17 23 34 82 53 50 64
REMARK Flexibility Score: inf
ROOT
ATOM      1  C   UNL A   1      34.419  29.362  27.353  1.00  0.00     0.021 C 
ENDROOT
BRANCH   1   2
ATOM      2  C   UNL A   1      32.955  29.238  26.518  1.00  0.00     0.116 C 
BRANCH   2   3
ATOM      3  N   UNL A   1      33.221  29.664  25.133  1.00  0.00    -0.356 N 
ATOM      4  C   UNL A   1      32.945  29.000  23.973  1.00  0.00     0.220 C 
ATOM      5  O   UNL A   1      33.631  29.257  22.981  1.00  0.00    -0.275 OA
ATOM      6  H   UNL A   1      33.655  30.541  25.031  1.00  0.00     0.163 HD
BRANCH   4   7
ATOM      7  C   UNL A   1      31.763  28.038  23.890  1.00  0.00     0.107 C 
BRANCH   7   8
ATOM      8  C   UNL A   1      31.878  26.499  24.251  1.00  0.00    -0.012 C 
ATOM      9  C   UNL A   1      33.394  26.128  24.056  1.00  0.00     0.008 C 
ATOM     10  C   UNL A   1      31.234  25.513  23.262  1.00  0.00     0.008 C 
ATOM     11  C   UNL A   1      33.845  26.243  22.566  1.00  0.00     0.001 C 
ATOM     12  C   UNL A   1      31.502  25.734  21.796  1.00  0.00     0.001 C 
ATOM     13  C   UNL A   1      32.971  25.474  21.565  1.00  0.00     0.000 C 
BRANCH   8  14
ATOM     14  C   UNL A   1      31.316  26.206  25.697  1.00  0.00     0.108 C 
BRANCH  14  15
ATOM     15  C   UNL A   1      30.120  25.232  25.858  1.00  0.00     0.224 C 
ATOM     16  N   UNL A   1      30.262  23.868  26.043  1.00  0.00    -0.326 N 
ATOM     17  H   UNL A   1      29.427  23.391  26.254  1.00  0.00     0.169 HD
ATOM     18  O   UNL A   1      28.970  25.688  25.839  1.00  0.00    -0.275 OA
BRANCH  16  19
ATOM     19  C   UNL A   1      31.410  23.052  25.975  1.00  0.00     0.041 A 
ATOM     20  C   UNL A   1      34.670  21.576  25.508  1.00  0.00     0.119 A 
ATOM     21  C   UNL A   1      33.490  21.595  24.162  1.00  0.00     0.048 A 
ATOM     22  C   UNL A   1      34.250  22.352  27.111  1.00  0.00     0.048 A 
ATOM     23  C   UNL A   1      31.840  22.292  24.419  1.00  0.00     0.030 A 
ATOM     24  C   UNL A   1      32.584  23.006  27.365  1.00  0.00     0.030 A 
BRANCH  20  25
ATOM     25  O   UNL A   1      35.837  20.857  25.468  1.00  0.00    -0.494 OA
BRANCH  25  26
ATOM     26  C   UNL A   1      37.045  21.627  25.553  1.00  0.00     0.226 C 
ATOM     27  C   UNL A   1      38.329  20.881  25.190  1.00  0.00     0.049 C 
ENDBRANCH  25  26
ENDBRANCH  20  25
ENDBRANCH  16  19
ENDBRANCH  14  15
ENDBRANCH   8  14
ENDBRANCH   7   8
ENDBRANCH   4   7
ENDBRANCH   2   3
ENDBRANCH   1   2
BRANCH   1  28
ATOM     28  C   UNL A   1      35.593  30.935  28.319  1.00  0.00     0.002 C 
BRANCH  28  29
ATOM     29  C   UNL A   1      35.639  32.666  28.092  1.00  0.00     0.002 C 
BRANCH  29  30
ATOM     30  C   UNL A   1      34.367  33.490  28.252  1.00  0.00     0.021 C 
BRANCH  30  31
ATOM     31  C   UNL A   1      34.686  34.948  28.475  1.00  0.00     0.116 C 
BRANCH  31  32
ATOM     32  N   UNL A   1      33.870  35.503  29.573  1.00  0.00    -0.352 N 
ATOM     33  C   UNL A   1      33.665  34.986  30.833  1.00  0.00     0.251 C 
ATOM     34  H   UNL A   1      33.414  36.354  29.378  1.00  0.00     0.163 HD
ATOM     35  O   UNL A   1      32.654  35.235  31.476  1.00  0.00    -0.269 OA
BRANCH  33  36
ATOM     36  C   UNL A   1      34.746  34.158  31.385  1.00  0.00     0.039 A 
ATOM     37  C   UNL A   1      34.554  32.847  31.812  1.00  0.00     0.014 A 
ATOM     38  C   UNL A   1      36.012  34.733  31.375  1.00  0.00     0.014 A 
ATOM     39  C   UNL A   1      35.676  32.097  32.173  1.00  0.00     0.010 A 
ATOM     40  C   UNL A   1      37.111  33.922  31.474  1.00  0.00     0.010 A 
ATOM     41  C   UNL A   1      36.961  32.630  31.977  1.00  0.00    -0.014 A 
BRANCH  41  42
ATOM     42  C   UNL A   1      38.205  31.945  32.379  1.00  0.00     0.031 A 
ATOM     43  C   UNL A   1      38.895  32.401  33.645  1.00  0.00     0.074 A 
ATOM     44  C   UNL A   1      38.772  31.050  31.551  1.00  0.00     0.049 A 
ATOM     45  N   UNL A   1      40.070  32.072  34.107  1.00  0.00    -0.248 NA
ATOM     46  C   UNL A   1      38.220  33.441  34.453  1.00  0.00     0.031 C 
ATOM     47  C   UNL A   1      38.256  30.652  30.239  1.00  0.00     0.029 A 
ATOM     48  N   UNL A   1      39.926  30.329  31.686  1.00  0.00    -0.354 N 
ATOM     49  C   UNL A   1      40.294  32.914  35.191  1.00  0.00     0.074 A 
ATOM     50  C   UNL A   1      39.192  33.840  35.255  1.00  0.00     0.031 C 
ATOM     51  C   UNL A   1      39.071  29.727  29.707  1.00  0.00     0.029 A 
ATOM     52  C   UNL A   1      40.178  29.493  30.627  1.00  0.00     0.049 A 
ATOM     53  H   UNL A   1      40.519  30.403  32.469  1.00  0.00     0.167 HD
ATOM     54  C   UNL A   1      41.292  32.876  36.101  1.00  0.00     0.034 A 
ATOM     55  C   UNL A   1      41.191  28.626  30.438  1.00  0.00     0.034 A 
ATOM     56  C   UNL A   1      42.305  31.865  36.082  1.00  0.00     0.049 A 
ATOM     57  C   UNL A   1      42.213  28.493  31.533  1.00  0.00     0.074 A 
ATOM     58  C   UNL A   1      43.289  31.608  37.015  1.00  0.00     0.029 A 
ATOM     59  N   UNL A   1      42.443  30.924  35.072  1.00  0.00    -0.354 N 
ATOM     60  N   UNL A   1      42.321  29.179  32.648  1.00  0.00    -0.248 NA
ATOM     61  C   UNL A   1      43.223  27.441  31.374  1.00  0.00     0.031 C 
ATOM     62  C   UNL A   1      44.043  30.526  36.552  1.00  0.00     0.029 A 
ATOM     63  C   UNL A   1      43.501  30.086  35.352  1.00  0.00     0.049 A 
ATOM     64  H   UNL A   1      41.871  30.864  34.273  1.00  0.00     0.167 HD
ATOM     65  C   UNL A   1      43.385  28.619  33.341  1.00  0.00     0.074 A 
ATOM     66  C   UNL A   1      43.877  27.524  32.526  1.00  0.00     0.031 C 
ATOM     67  C   UNL A   1      43.922  28.978  34.534  1.00  0.00     0.034 A 
BRANCH  54  68
ATOM     68  C   UNL A   1      41.279  33.901  37.207  1.00  0.00     0.023 A 
ATOM     69  C   UNL A   1      42.059  35.074  37.097  1.00  0.00     0.012 A 
ATOM     70  C   UNL A   1      40.488  33.708  38.354  1.00  0.00     0.148 A 
ATOM     71  C   UNL A   1      42.098  36.004  38.134  1.00  0.00     0.002 A 
ATOM     72  C   UNL A   1      40.485  34.671  39.357  1.00  0.00     0.091 A 
ATOM     73  F   UNL A   1      39.773  32.579  38.456  1.00  0.00    -0.205 F 
ATOM     74  C   UNL A   1      41.304  35.809  39.258  1.00  0.00     0.022 A 
BRANCH  72  75
ATOM     75  S   UNL A   1      39.429  34.557  40.805  1.00  0.00     0.127 S 
ATOM     76  O   UNL A   1      40.414  34.456  41.881  1.00  0.00    -0.237 OA
ATOM     77  O   UNL A   1      38.708  35.829  40.755  1.00  0.00    -0.237 OA
ATOM     78  O   UNL A   1      38.599  33.378  40.606  1.00  0.00    -0.744 OA
ENDBRANCH  72  75
ENDBRANCH  54  68
BRANCH  55  79
ATOM     79  C   UNL A   1      41.210  27.758  29.229  1.00  0.00     0.023 A 
ATOM     80  C   UNL A   1      40.362  26.634  29.169  1.00  0.00     0.012 A 
ATOM     81  C   UNL A   1      42.009  28.074  28.114  1.00  0.00     0.148 A 
ATOM     82  C   UNL A   1      40.337  25.821  28.034  1.00  0.00     0.002 A 
ATOM     83  C   UNL A   1      41.939  27.292  26.966  1.00  0.00     0.091 A 
ATOM     84  F   UNL A   1      42.807  29.148  28.191  1.00  0.00    -0.205 F 
ATOM     85  C   UNL A   1      41.116  26.155  26.930  1.00  0.00     0.022 A 
BRANCH  83  86
ATOM     86  S   UNL A   1      42.800  27.726  25.451  1.00  0.00     0.127 S 
ATOM     87  O   UNL A   1      42.647  26.508  24.660  1.00  0.00    -0.237 OA
ATOM     88  O   UNL A   1      42.021  28.871  24.978  1.00  0.00    -0.237 OA
ATOM     89  O   UNL A   1      44.162  28.053  25.852  1.00  0.00    -0.744 OA
ENDBRANCH  83  86
ENDBRANCH  55  79
BRANCH  67  90
ATOM     90  C   UNL A   1      45.065  28.155  35.051  1.00  0.00     0.023 A 
ATOM     91  C   UNL A   1      44.813  27.028  35.855  1.00  0.00     0.012 A 
ATOM     92  C   UNL A   1      46.383  28.448  34.651  1.00  0.00     0.148 A 
ATOM     93  C   UNL A   1      45.864  26.220  36.282  1.00  0.00     0.002 A 
ATOM     94  C   UNL A   1      47.417  27.606  35.032  1.00  0.00     0.091 A 
ATOM     95  F   UNL A   1      46.597  29.537  33.897  1.00  0.00    -0.205 F 
ATOM     96  C   UNL A   1      47.161  26.500  35.860  1.00  0.00     0.022 A 
BRANCH  94  97
ATOM     97  S   UNL A   1      49.097  27.827  34.441  1.00  0.00     0.127 S 
ATOM     98  O   UNL A   1      49.770  26.667  35.021  1.00  0.00    -0.237 OA
ATOM     99  O   UNL A   1      48.924  27.770  32.989  1.00  0.00    -0.237 OA
ATOM    100  O   UNL A   1      49.534  29.121  34.947  1.00  0.00    -0.744 OA
ENDBRANCH  94  97
ENDBRANCH  67  90
ENDBRANCH  41  42
ENDBRANCH  33  36
ENDBRANCH  31  32
ENDBRANCH  30  31
ENDBRANCH  29  30
ENDBRANCH  28  29
ENDBRANCH   1  28
TORSDOF 22
ENDMDL
