MODEL 1
REMARK VINA RESULT:     -12.7      0.000      0.000
REMARK SMILES C[C@@H]1Cc2ccccc2N1S(=O)(=O)c1c[nH]c(C(=O)NCCCCCCNC(=O)c2ccc(-c3c4nc(c(-c5cccc(S(=O)(=O)[O-])c5F)c5ccc([nH]5)c(-c5cccc(S(=O)(=O)[O-])c5F)c5nc(c(-c6cccc(S(=O)(=O)[O-])c6F)c6ccc3[nH]6)C=C5)C=C4)cc2)c1
REMARK SMILES IDX 24 1 23 2 22 3 21 4 20 5 18 6 19 7 17 9 14 10 15 11 93 12
REMARK SMILES IDX 16 13 11 15 12 16 13 17 10 18 1 19 2 20 3 21 4 22 9 23 5 24
REMARK SMILES IDX 8 25 6 26 7 27 25 28 26 29 27 30 28 31 29 33 30 34 31 35
REMARK SMILES IDX 92 36 32 37 91 38 33 39 34 40 35 41 85 42 36 43 90 44 84 45
REMARK SMILES IDX 86 46 37 47 89 48 83 49 82 50 38 52 70 53 50 54 69 55 51 56
REMARK SMILES IDX 54 57 68 58 87 59 52 60 53 61 67 63 88 64 55 65 39 66 40 67
REMARK SMILES IDX 48 68 41 69 43 70 49 71 42 72 44 73 45 74 46 75 47 76 71 77
REMARK SMILES IDX 72 78 80 79 73 80 75 81 81 82 74 83 76 84 77 85 78 86 79 87
REMARK SMILES IDX 56 88 57 89 65 90 58 91 60 92 66 93 59 94 61 95 62 96 63 97
REMARK SMILES IDX 64 98
REMARK H PARENT 20 8 16 14 27 32 86 51 54 62
REMARK Flexibility Score: inf
ROOT
ATOM      1  C   UNL A   1      31.568  30.597  26.140  1.00  0.00     0.002 C 
ENDROOT
BRANCH   1   2
ATOM      2  C   UNL A   1      31.034  30.119  24.784  1.00  0.00     0.002 C 
BRANCH   2   3
ATOM      3  C   UNL A   1      31.554  28.743  24.344  1.00  0.00     0.021 C 
BRANCH   3   4
ATOM      4  C   UNL A   1      31.176  28.406  22.903  1.00  0.00     0.116 C 
BRANCH   4   5
ATOM      5  N   UNL A   1      32.285  27.759  22.233  1.00  0.00    -0.351 N 
ATOM      6  C   UNL A   1      32.775  26.487  22.285  1.00  0.00     0.267 C 
ATOM      7  O   UNL A   1      33.724  26.227  21.540  1.00  0.00    -0.268 OA
ATOM      8  H   UNL A   1      32.780  28.351  21.621  1.00  0.00     0.163 HD
BRANCH   6   9
ATOM      9  C   UNL A   1      32.230  25.470  23.158  1.00  0.00     0.105 A 
ATOM     10  C   UNL A   1      31.688  23.872  24.682  1.00  0.00     0.106 A 
ATOM     11  C   UNL A   1      30.772  23.806  23.656  1.00  0.00     0.105 A 
ATOM     12  C   UNL A   1      32.591  24.927  24.381  1.00  0.00     0.055 A 
ATOM     13  N   UNL A   1      31.110  24.765  22.746  1.00  0.00    -0.356 N 
ATOM     14  H   UNL A   1      30.623  24.934  21.908  1.00  0.00     0.166 HD
BRANCH  10  15
ATOM     15  S   UNL A   1      31.839  22.793  26.019  1.00  0.00     0.266 S 
ATOM     16  O   UNL A   1      30.696  21.892  25.877  1.00  0.00    -0.201 OA
ATOM     17  O   UNL A   1      31.965  23.655  27.159  1.00  0.00    -0.201 OA
BRANCH  15  18
ATOM     18  N   UNL A   1      33.268  21.869  25.898  1.00  0.00    -0.263 N 
ATOM     19  C   UNL A   1      32.649  19.475  25.632  1.00  0.00     0.032 C 
ATOM     20  C   UNL A   1      33.140  20.723  24.916  1.00  0.00     0.101 C 
ATOM     21  C   UNL A   1      34.539  20.529  24.291  1.00  0.00     0.063 C 
ATOM     22  C   UNL A   1      35.280  21.746  24.738  1.00  0.00    -0.021 A 
ATOM     23  C   UNL A   1      34.532  22.495  25.639  1.00  0.00     0.055 A 
ATOM     24  C   UNL A   1      36.588  22.089  24.415  1.00  0.00     0.006 A 
ATOM     25  C   UNL A   1      35.130  23.551  26.308  1.00  0.00     0.027 A 
ATOM     26  C   UNL A   1      37.162  23.200  25.035  1.00  0.00     0.000 A 
ATOM     27  C   UNL A   1      36.437  23.923  25.986  1.00  0.00     0.002 A 
ENDBRANCH  15  18
ENDBRANCH  10  15
ENDBRANCH   6   9
ENDBRANCH   4   5
ENDBRANCH   3   4
ENDBRANCH   2   3
ENDBRANCH   1   2
BRANCH   1  28
ATOM     28  C   UNL A   1      31.287  32.066  26.452  1.00  0.00     0.021 C 
BRANCH  28  29
ATOM     29  C   UNL A   1      32.509  32.836  26.958  1.00  0.00     0.116 C 
BRANCH  29  30
ATOM     30  N   UNL A   1      32.217  34.099  27.614  1.00  0.00    -0.352 N 
ATOM     31  C   UNL A   1      32.930  34.885  28.490  1.00  0.00     0.251 C 
ATOM     32  H   UNL A   1      31.333  34.466  27.385  1.00  0.00     0.163 HD
ATOM     33  O   UNL A   1      32.462  35.985  28.781  1.00  0.00    -0.269 OA
BRANCH  31  34
ATOM     34  C   UNL A   1      34.144  34.387  29.183  1.00  0.00     0.039 A 
ATOM     35  C   UNL A   1      35.432  34.592  28.694  1.00  0.00     0.014 A 
ATOM     36  C   UNL A   1      33.956  33.588  30.322  1.00  0.00     0.014 A 
ATOM     37  C   UNL A   1      36.473  33.813  29.158  1.00  0.00     0.010 A 
ATOM     38  C   UNL A   1      35.021  32.866  30.856  1.00  0.00     0.010 A 
ATOM     39  C   UNL A   1      36.260  32.931  30.224  1.00  0.00    -0.014 A 
BRANCH  39  40
ATOM     40  C   UNL A   1      37.469  32.290  30.773  1.00  0.00     0.031 A 
ATOM     41  C   UNL A   1      37.788  31.041  29.907  1.00  0.00     0.074 A 
ATOM     42  C   UNL A   1      37.947  32.797  31.957  1.00  0.00     0.049 A 
ATOM     43  N   UNL A   1      38.086  29.829  30.266  1.00  0.00    -0.248 NA
ATOM     44  C   UNL A   1      37.531  31.096  28.435  1.00  0.00     0.031 C 
ATOM     45  C   UNL A   1      37.492  34.054  32.602  1.00  0.00     0.029 A 
ATOM     46  N   UNL A   1      38.900  32.384  32.870  1.00  0.00    -0.354 N 
ATOM     47  C   UNL A   1      38.303  29.077  29.084  1.00  0.00     0.074 A 
ATOM     48  C   UNL A   1      37.762  29.850  28.012  1.00  0.00     0.031 C 
ATOM     49  C   UNL A   1      38.081  34.234  33.808  1.00  0.00     0.029 A 
ATOM     50  C   UNL A   1      38.984  33.130  34.079  1.00  0.00     0.049 A 
ATOM     51  H   UNL A   1      39.489  31.615  32.692  1.00  0.00     0.167 HD
ATOM     52  C   UNL A   1      39.079  27.950  29.053  1.00  0.00     0.034 A 
ATOM     53  C   UNL A   1      39.686  32.835  35.227  1.00  0.00     0.034 A 
ATOM     54  C   UNL A   1      39.601  27.723  30.360  1.00  0.00     0.049 A 
ATOM     55  C   UNL A   1      40.458  31.629  34.896  1.00  0.00     0.074 A 
ATOM     56  C   UNL A   1      39.025  27.280  31.521  1.00  0.00     0.029 A 
ATOM     57  N   UNL A   1      40.760  28.411  30.642  1.00  0.00    -0.354 N 
ATOM     58  N   UNL A   1      41.451  31.589  34.059  1.00  0.00    -0.248 NA
ATOM     59  C   UNL A   1      39.973  30.339  35.404  1.00  0.00     0.031 C 
ATOM     60  C   UNL A   1      39.568  28.160  32.479  1.00  0.00     0.029 A 
ATOM     61  C   UNL A   1      40.654  28.855  31.931  1.00  0.00     0.049 A 
ATOM     62  H   UNL A   1      41.520  28.554  30.032  1.00  0.00     0.167 HD
ATOM     63  C   UNL A   1      41.430  30.277  33.661  1.00  0.00     0.074 A 
ATOM     64  C   UNL A   1      40.761  29.530  34.706  1.00  0.00     0.031 C 
ATOM     65  C   UNL A   1      41.464  29.971  32.339  1.00  0.00     0.034 A 
BRANCH  52  66
ATOM     66  C   UNL A   1      39.712  27.130  27.954  1.00  0.00     0.023 A 
ATOM     67  C   UNL A   1      39.418  25.734  27.987  1.00  0.00     0.012 A 
ATOM     68  C   UNL A   1      40.790  27.541  27.155  1.00  0.00     0.148 A 
ATOM     69  C   UNL A   1      40.238  24.782  27.386  1.00  0.00     0.002 A 
ATOM     70  C   UNL A   1      41.584  26.583  26.515  1.00  0.00     0.091 A 
ATOM     71  F   UNL A   1      41.098  28.839  27.087  1.00  0.00    -0.205 F 
ATOM     72  C   UNL A   1      41.336  25.209  26.663  1.00  0.00     0.022 A 
BRANCH  70  73
ATOM     73  S   UNL A   1      43.004  27.011  25.503  1.00  0.00     0.127 S 
ATOM     74  O   UNL A   1      42.436  28.001  24.591  1.00  0.00    -0.237 OA
ATOM     75  O   UNL A   1      43.926  27.562  26.499  1.00  0.00    -0.237 OA
ATOM     76  O   UNL A   1      43.454  25.762  24.904  1.00  0.00    -0.744 OA
ENDBRANCH  70  73
ENDBRANCH  52  66
BRANCH  53  77
ATOM     77  C   UNL A   1      39.709  33.275  36.686  1.00  0.00     0.023 A 
ATOM     78  C   UNL A   1      40.423  34.382  37.165  1.00  0.00     0.012 A 
ATOM     79  C   UNL A   1      38.848  32.639  37.643  1.00  0.00     0.148 A 
ATOM     80  C   UNL A   1      40.197  34.897  38.460  1.00  0.00     0.002 A 
ATOM     81  C   UNL A   1      38.531  33.222  38.868  1.00  0.00     0.091 A 
ATOM     82  F   UNL A   1      38.324  31.439  37.368  1.00  0.00    -0.205 F 
ATOM     83  C   UNL A   1      39.214  34.356  39.288  1.00  0.00     0.022 A 
BRANCH  81  84
ATOM     84  S   UNL A   1      37.135  32.657  39.872  1.00  0.00     0.127 S 
ATOM     85  O   UNL A   1      37.062  33.677  40.916  1.00  0.00    -0.237 OA
ATOM     86  O   UNL A   1      36.044  32.698  38.899  1.00  0.00    -0.237 OA
ATOM     87  O   UNL A   1      37.485  31.324  40.346  1.00  0.00    -0.744 OA
ENDBRANCH  81  84
ENDBRANCH  53  77
BRANCH  65  88
ATOM     88  C   UNL A   1      42.158  30.994  31.444  1.00  0.00     0.023 A 
ATOM     89  C   UNL A   1      41.311  31.866  30.735  1.00  0.00     0.012 A 
ATOM     90  C   UNL A   1      43.547  31.088  31.176  1.00  0.00     0.148 A 
ATOM     91  C   UNL A   1      41.808  32.788  29.809  1.00  0.00     0.002 A 
ATOM     92  C   UNL A   1      44.047  31.989  30.225  1.00  0.00     0.091 A 
ATOM     93  F   UNL A   1      44.382  30.295  31.843  1.00  0.00    -0.205 F 
ATOM     94  C   UNL A   1      43.172  32.850  29.551  1.00  0.00     0.022 A 
BRANCH  92  95
ATOM     95  S   UNL A   1      45.783  32.075  29.719  1.00  0.00     0.127 S 
ATOM     96  O   UNL A   1      45.976  30.789  29.042  1.00  0.00    -0.237 OA
ATOM     97  O   UNL A   1      45.788  33.225  28.818  1.00  0.00    -0.237 OA
ATOM     98  O   UNL A   1      46.568  32.230  30.939  1.00  0.00    -0.744 OA
ENDBRANCH  92  95
ENDBRANCH  65  88
ENDBRANCH  39  40
ENDBRANCH  31  34
ENDBRANCH  29  30
ENDBRANCH  28  29
ENDBRANCH   1  28
TORSDOF 18
ENDMDL
MODEL 2
REMARK VINA RESULT:     -12.6      4.544     10.887
REMARK SMILES C[C@@H]1Cc2ccccc2N1S(=O)(=O)c1c[nH]c(C(=O)NCCCCCCNC(=O)c2ccc(-c3c4nc(c(-c5cccc(S(=O)(=O)[O-])c5F)c5ccc([nH]5)c(-c5cccc(S(=O)(=O)[O-])c5F)c5nc(c(-c6cccc(S(=O)(=O)[O-])c6F)c6ccc3[nH]6)C=C5)C=C4)cc2)c1
REMARK SMILES IDX 24 1 23 2 22 3 21 4 20 5 18 6 19 7 17 9 14 10 15 11 93 12
REMARK SMILES IDX 16 13 11 15 12 16 13 17 10 18 1 19 2 20 3 21 4 22 9 23 5 24
REMARK SMILES IDX 8 25 6 26 7 27 25 28 26 29 27 30 28 31 29 33 30 34 31 35
REMARK SMILES IDX 92 36 32 37 91 38 33 39 34 40 35 41 85 42 36 43 90 44 84 45
REMARK SMILES IDX 86 46 37 47 89 48 83 49 82 50 38 52 70 53 50 54 69 55 51 56
REMARK SMILES IDX 54 57 68 58 87 59 52 60 53 61 67 63 88 64 55 65 39 66 40 67
REMARK SMILES IDX 48 68 41 69 43 70 49 71 42 72 44 73 45 74 46 75 47 76 71 77
REMARK SMILES IDX 72 78 80 79 73 80 75 81 81 82 74 83 76 84 77 85 78 86 79 87
REMARK SMILES IDX 56 88 57 89 65 90 58 91 60 92 66 93 59 94 61 95 62 96 63 97
REMARK SMILES IDX 64 98
REMARK H PARENT 20 8 16 14 27 32 86 51 54 62
REMARK Flexibility Score: inf
ROOT
ATOM      1  C   UNL A   1      38.742  22.092  26.101  1.00  0.00     0.002 C 
ENDROOT
BRANCH   1   2
ATOM      2  C   UNL A   1      37.327  22.556  25.733  1.00  0.00     0.002 C 
BRANCH   2   3
ATOM      3  C   UNL A   1      36.265  21.448  25.765  1.00  0.00     0.021 C 
BRANCH   3   4
ATOM      4  C   UNL A   1      35.029  21.794  24.937  1.00  0.00     0.116 C 
BRANCH   4   5
ATOM      5  N   UNL A   1      34.054  20.728  25.024  1.00  0.00    -0.351 N 
ATOM      6  C   UNL A   1      32.692  20.732  25.103  1.00  0.00     0.267 C 
ATOM      7  O   UNL A   1      32.133  19.632  25.116  1.00  0.00    -0.268 OA
ATOM      8  H   UNL A   1      34.449  19.827  25.026  1.00  0.00     0.163 HD
BRANCH   6   9
ATOM      9  C   UNL A   1      31.913  21.949  25.167  1.00  0.00     0.105 A 
ATOM     10  C   UNL A   1      30.847  23.949  24.970  1.00  0.00     0.106 A 
ATOM     11  C   UNL A   1      30.737  23.539  26.280  1.00  0.00     0.105 A 
ATOM     12  C   UNL A   1      31.565  22.945  24.267  1.00  0.00     0.055 A 
ATOM     13  N   UNL A   1      31.384  22.342  26.388  1.00  0.00    -0.356 N 
ATOM     14  H   UNL A   1      31.466  21.826  27.222  1.00  0.00     0.166 HD
BRANCH  10  15
ATOM     15  S   UNL A   1      30.354  25.462  24.304  1.00  0.00     0.266 S 
ATOM     16  O   UNL A   1      29.276  25.902  25.188  1.00  0.00    -0.201 OA
ATOM     17  O   UNL A   1      30.108  25.177  22.920  1.00  0.00    -0.201 OA
BRANCH  15  18
ATOM     18  N   UNL A   1      31.618  26.605  24.389  1.00  0.00    -0.263 N 
ATOM     19  C   UNL A   1      32.907  26.527  22.264  1.00  0.00     0.032 C 
ATOM     20  C   UNL A   1      31.868  27.296  23.065  1.00  0.00     0.101 C 
ATOM     21  C   UNL A   1      32.332  28.729  23.404  1.00  0.00     0.063 C 
ATOM     22  C   UNL A   1      32.037  28.843  24.863  1.00  0.00    -0.021 A 
ATOM     23  C   UNL A   1      31.621  27.627  25.395  1.00  0.00     0.055 A 
ATOM     24  C   UNL A   1      32.230  29.961  25.667  1.00  0.00     0.006 A 
ATOM     25  C   UNL A   1      31.490  27.494  26.768  1.00  0.00     0.027 A 
ATOM     26  C   UNL A   1      32.024  29.841  27.042  1.00  0.00     0.000 A 
ATOM     27  C   UNL A   1      31.663  28.608  27.591  1.00  0.00     0.002 A 
ENDBRANCH  15  18
ENDBRANCH  10  15
ENDBRANCH   6   9
ENDBRANCH   4   5
ENDBRANCH   3   4
ENDBRANCH   2   3
ENDBRANCH   1   2
BRANCH   1  28
ATOM     28  C   UNL A   1      39.249  20.897  25.296  1.00  0.00     0.021 C 
BRANCH  28  29
ATOM     29  C   UNL A   1      39.420  19.621  26.123  1.00  0.00     0.116 C 
BRANCH  29  30
ATOM     30  N   UNL A   1      40.605  18.838  25.816  1.00  0.00    -0.352 N 
ATOM     31  C   UNL A   1      41.948  19.051  26.032  1.00  0.00     0.251 C 
ATOM     32  H   UNL A   1      40.409  17.987  25.362  1.00  0.00     0.163 HD
ATOM     33  O   UNL A   1      42.721  18.131  25.767  1.00  0.00    -0.269 OA
BRANCH  31  34
ATOM     34  C   UNL A   1      42.479  20.378  26.429  1.00  0.00     0.039 A 
ATOM     35  C   UNL A   1      42.448  20.843  27.741  1.00  0.00     0.014 A 
ATOM     36  C   UNL A   1      42.934  21.225  25.405  1.00  0.00     0.014 A 
ATOM     37  C   UNL A   1      42.606  22.192  27.994  1.00  0.00     0.010 A 
ATOM     38  C   UNL A   1      43.185  22.569  25.667  1.00  0.00     0.010 A 
ATOM     39  C   UNL A   1      42.951  23.059  26.950  1.00  0.00    -0.014 A 
BRANCH  39  40
ATOM     40  C   UNL A   1      43.286  24.437  27.350  1.00  0.00     0.031 A 
ATOM     41  C   UNL A   1      41.959  25.193  27.634  1.00  0.00     0.074 A 
ATOM     42  C   UNL A   1      44.607  24.802  27.244  1.00  0.00     0.049 A 
ATOM     43  N   UNL A   1      41.569  26.369  27.246  1.00  0.00    -0.248 NA
ATOM     44  C   UNL A   1      40.824  24.451  28.261  1.00  0.00     0.031 C 
ATOM     45  C   UNL A   1      45.736  23.876  26.979  1.00  0.00     0.029 A 
ATOM     46  N   UNL A   1      45.287  26.002  27.330  1.00  0.00    -0.354 N 
ATOM     47  C   UNL A   1      40.281  26.591  27.798  1.00  0.00     0.074 A 
ATOM     48  C   UNL A   1      39.808  25.319  28.238  1.00  0.00     0.031 C 
ATOM     49  C   UNL A   1      46.903  24.549  26.832  1.00  0.00     0.029 A 
ATOM     50  C   UNL A   1      46.669  25.973  26.991  1.00  0.00     0.049 A 
ATOM     51  H   UNL A   1      44.839  26.833  27.609  1.00  0.00     0.167 HD
ATOM     52  C   UNL A   1      39.773  27.844  28.016  1.00  0.00     0.034 A 
ATOM     53  C   UNL A   1      47.532  27.028  26.798  1.00  0.00     0.034 A 
ATOM     54  C   UNL A   1      40.751  28.805  27.622  1.00  0.00     0.049 A 
ATOM     55  C   UNL A   1      46.751  28.222  27.149  1.00  0.00     0.074 A 
ATOM     56  C   UNL A   1      41.200  29.214  26.395  1.00  0.00     0.029 A 
ATOM     57  N   UNL A   1      41.682  29.105  28.590  1.00  0.00    -0.354 N 
ATOM     58  N   UNL A   1      46.358  28.525  28.351  1.00  0.00    -0.248 NA
ATOM     59  C   UNL A   1      46.220  29.046  26.056  1.00  0.00     0.031 C 
ATOM     60  C   UNL A   1      42.596  29.266  26.590  1.00  0.00     0.029 A 
ATOM     61  C   UNL A   1      42.891  29.207  27.959  1.00  0.00     0.049 A 
ATOM     62  H   UNL A   1      41.511  29.224  29.552  1.00  0.00     0.167 HD
ATOM     63  C   UNL A   1      45.255  29.300  28.098  1.00  0.00     0.074 A 
ATOM     64  C   UNL A   1      45.410  29.829  26.758  1.00  0.00     0.031 C 
ATOM     65  C   UNL A   1      44.087  29.044  28.741  1.00  0.00     0.034 A 
BRANCH  52  66
ATOM     66  C   UNL A   1      38.615  28.392  28.816  1.00  0.00     0.023 A 
ATOM     67  C   UNL A   1      37.665  29.153  28.070  1.00  0.00     0.012 A 
ATOM     68  C   UNL A   1      38.581  28.512  30.213  1.00  0.00     0.148 A 
ATOM     69  C   UNL A   1      36.829  30.095  28.665  1.00  0.00     0.002 A 
ATOM     70  C   UNL A   1      37.706  29.427  30.809  1.00  0.00     0.091 A 
ATOM     71  F   UNL A   1      39.447  27.813  30.953  1.00  0.00    -0.205 F 
ATOM     72  C   UNL A   1      36.864  30.244  30.039  1.00  0.00     0.022 A 
BRANCH  70  73
ATOM     73  S   UNL A   1      37.615  29.676  32.586  1.00  0.00     0.127 S 
ATOM     74  O   UNL A   1      37.373  28.318  33.067  1.00  0.00    -0.237 OA
ATOM     75  O   UNL A   1      38.952  30.195  32.883  1.00  0.00    -0.237 OA
ATOM     76  O   UNL A   1      36.543  30.638  32.797  1.00  0.00    -0.744 OA
ENDBRANCH  70  73
ENDBRANCH  52  66
BRANCH  53  77
ATOM     77  C   UNL A   1      48.900  27.274  26.170  1.00  0.00     0.023 A 
ATOM     78  C   UNL A   1      50.117  27.115  26.846  1.00  0.00     0.012 A 
ATOM     79  C   UNL A   1      49.008  27.545  24.764  1.00  0.00     0.148 A 
ATOM     80  C   UNL A   1      51.346  27.096  26.150  1.00  0.00     0.002 A 
ATOM     81  C   UNL A   1      50.203  27.396  24.064  1.00  0.00     0.091 A 
ATOM     82  F   UNL A   1      47.932  27.960  24.085  1.00  0.00    -0.205 F 
ATOM     83  C   UNL A   1      51.386  27.177  24.759  1.00  0.00     0.022 A 
BRANCH  81  84
ATOM     84  S   UNL A   1      50.256  27.306  22.257  1.00  0.00     0.127 S 
ATOM     85  O   UNL A   1      50.013  28.693  21.864  1.00  0.00    -0.237 OA
ATOM     86  O   UNL A   1      51.623  26.837  22.031  1.00  0.00    -0.237 OA
ATOM     87  O   UNL A   1      49.212  26.370  21.863  1.00  0.00    -0.744 OA
ENDBRANCH  81  84
ENDBRANCH  53  77
BRANCH  65  88
ATOM     88  C   UNL A   1      44.220  28.389  30.113  1.00  0.00     0.023 A 
ATOM     89  C   UNL A   1      43.941  27.010  30.166  1.00  0.00     0.012 A 
ATOM     90  C   UNL A   1      44.491  29.039  31.343  1.00  0.00     0.148 A 
ATOM     91  C   UNL A   1      43.932  26.306  31.373  1.00  0.00     0.002 A 
ATOM     92  C   UNL A   1      44.452  28.341  32.559  1.00  0.00     0.091 A 
ATOM     93  F   UNL A   1      44.782  30.337  31.330  1.00  0.00    -0.205 F 
ATOM     94  C   UNL A   1      44.185  26.968  32.568  1.00  0.00     0.022 A 
BRANCH  92  95
ATOM     95  S   UNL A   1      44.644  29.119  34.184  1.00  0.00     0.127 S 
ATOM     96  O   UNL A   1      44.377  28.004  35.097  1.00  0.00    -0.237 OA
ATOM     97  O   UNL A   1      46.042  29.543  34.161  1.00  0.00    -0.237 OA
ATOM     98  O   UNL A   1      43.662  30.195  34.251  1.00  0.00    -0.744 OA
ENDBRANCH  92  95
ENDBRANCH  65  88
ENDBRANCH  39  40
ENDBRANCH  31  34
ENDBRANCH  29  30
ENDBRANCH  28  29
ENDBRANCH   1  28
TORSDOF 18
ENDMDL
MODEL 3
REMARK VINA RESULT:     -12.6      1.641      2.044
REMARK SMILES C[C@@H]1Cc2ccccc2N1S(=O)(=O)c1c[nH]c(C(=O)NCCCCCCNC(=O)c2ccc(-c3c4nc(c(-c5cccc(S(=O)(=O)[O-])c5F)c5ccc([nH]5)c(-c5cccc(S(=O)(=O)[O-])c5F)c5nc(c(-c6cccc(S(=O)(=O)[O-])c6F)c6ccc3[nH]6)C=C5)C=C4)cc2)c1
REMARK SMILES IDX 24 1 23 2 22 3 21 4 20 5 18 6 19 7 17 9 14 10 15 11 93 12
REMARK SMILES IDX 16 13 11 15 12 16 13 17 10 18 1 19 2 20 3 21 4 22 9 23 5 24
REMARK SMILES IDX 8 25 6 26 7 27 25 28 26 29 27 30 28 31 29 33 30 34 31 35
REMARK SMILES IDX 92 36 32 37 91 38 33 39 34 40 35 41 85 42 36 43 90 44 84 45
REMARK SMILES IDX 86 46 37 47 89 48 83 49 82 50 38 52 70 53 50 54 69 55 51 56
REMARK SMILES IDX 54 57 68 58 87 59 52 60 53 61 67 63 88 64 55 65 39 66 40 67
REMARK SMILES IDX 48 68 41 69 43 70 49 71 42 72 44 73 45 74 46 75 47 76 71 77
REMARK SMILES IDX 72 78 80 79 73 80 75 81 81 82 74 83 76 84 77 85 78 86 79 87
REMARK SMILES IDX 56 88 57 89 65 90 58 91 60 92 66 93 59 94 61 95 62 96 63 97
REMARK SMILES IDX 64 98
REMARK H PARENT 20 8 16 14 27 32 86 51 54 62
REMARK Flexibility Score: inf
ROOT
ATOM      1  C   UNL A   1      31.527  30.650  26.531  1.00  0.00     0.002 C 
ENDROOT
BRANCH   1   2
ATOM      2  C   UNL A   1      32.895  30.410  27.182  1.00  0.00     0.002 C 
BRANCH   2   3
ATOM      3  C   UNL A   1      33.340  28.941  27.208  1.00  0.00     0.021 C 
BRANCH   3   4
ATOM      4  C   UNL A   1      34.361  28.616  26.120  1.00  0.00     0.116 C 
BRANCH   4   5
ATOM      5  N   UNL A   1      33.888  29.083  24.834  1.00  0.00    -0.351 N 
ATOM      6  C   UNL A   1      33.267  28.450  23.797  1.00  0.00     0.267 C 
ATOM      7  O   UNL A   1      32.940  29.150  22.835  1.00  0.00    -0.268 OA
ATOM      8  H   UNL A   1      34.044  30.042  24.677  1.00  0.00     0.163 HD
BRANCH   6   9
ATOM      9  C   UNL A   1      32.989  27.031  23.797  1.00  0.00     0.105 A 
ATOM     10  C   UNL A   1      32.833  24.771  23.590  1.00  0.00     0.106 A 
ATOM     11  C   UNL A   1      31.613  25.241  24.022  1.00  0.00     0.105 A 
ATOM     12  C   UNL A   1      33.703  25.888  23.468  1.00  0.00     0.055 A 
ATOM     13  N   UNL A   1      31.717  26.597  24.136  1.00  0.00    -0.356 N 
ATOM     14  H   UNL A   1      30.985  27.189  24.423  1.00  0.00     0.166 HD
BRANCH  10  15
ATOM     15  S   UNL A   1      33.226  23.157  23.124  1.00  0.00     0.266 S 
ATOM     16  O   UNL A   1      34.220  23.327  22.066  1.00  0.00    -0.201 OA
ATOM     17  O   UNL A   1      31.956  22.545  22.857  1.00  0.00    -0.201 OA
BRANCH  15  18
ATOM     18  N   UNL A   1      33.956  22.311  24.414  1.00  0.00    -0.263 N 
ATOM     19  C   UNL A   1      32.449  20.458  25.105  1.00  0.00     0.032 C 
ATOM     20  C   UNL A   1      33.714  20.818  24.342  1.00  0.00     0.101 C 
ATOM     21  C   UNL A   1      34.970  20.146  24.938  1.00  0.00     0.063 C 
ATOM     22  C   UNL A   1      35.942  21.275  25.036  1.00  0.00    -0.021 A 
ATOM     23  C   UNL A   1      35.345  22.490  24.721  1.00  0.00     0.055 A 
ATOM     24  C   UNL A   1      37.259  21.203  25.478  1.00  0.00     0.006 A 
ATOM     25  C   UNL A   1      36.040  23.669  24.944  1.00  0.00     0.027 A 
ATOM     26  C   UNL A   1      37.980  22.389  25.629  1.00  0.00     0.000 A 
ATOM     27  C   UNL A   1      37.368  23.618  25.372  1.00  0.00     0.002 A 
ENDBRANCH  15  18
ENDBRANCH  10  15
ENDBRANCH   6   9
ENDBRANCH   4   5
ENDBRANCH   3   4
ENDBRANCH   2   3
ENDBRANCH   1   2
BRANCH   1  28
ATOM     28  C   UNL A   1      31.049  32.101  26.572  1.00  0.00     0.021 C 
BRANCH  28  29
ATOM     29  C   UNL A   1      32.183  33.128  26.552  1.00  0.00     0.116 C 
BRANCH  29  30
ATOM     30  N   UNL A   1      32.070  34.195  27.531  1.00  0.00    -0.352 N 
ATOM     31  C   UNL A   1      32.924  34.668  28.501  1.00  0.00     0.251 C 
ATOM     32  H   UNL A   1      31.211  34.675  27.493  1.00  0.00     0.163 HD
ATOM     33  O   UNL A   1      32.592  35.686  29.106  1.00  0.00    -0.269 OA
BRANCH  31  34
ATOM     34  C   UNL A   1      34.132  33.915  28.919  1.00  0.00     0.039 A 
ATOM     35  C   UNL A   1      34.072  32.753  29.684  1.00  0.00     0.014 A 
ATOM     36  C   UNL A   1      35.382  34.474  28.609  1.00  0.00     0.014 A 
ATOM     37  C   UNL A   1      35.199  32.309  30.346  1.00  0.00     0.010 A 
ATOM     38  C   UNL A   1      36.540  33.977  29.200  1.00  0.00     0.010 A 
ATOM     39  C   UNL A   1      36.429  32.938  30.122  1.00  0.00    -0.014 A 
BRANCH  39  40
ATOM     40  C   UNL A   1      37.603  32.276  30.720  1.00  0.00     0.031 A 
ATOM     41  C   UNL A   1      37.913  31.001  29.888  1.00  0.00     0.074 A 
ATOM     42  C   UNL A   1      38.060  32.793  31.908  1.00  0.00     0.049 A 
ATOM     43  N   UNL A   1      38.167  29.789  30.279  1.00  0.00    -0.248 NA
ATOM     44  C   UNL A   1      37.702  31.034  28.408  1.00  0.00     0.031 C 
ATOM     45  C   UNL A   1      37.620  34.074  32.514  1.00  0.00     0.029 A 
ATOM     46  N   UNL A   1      38.973  32.373  32.856  1.00  0.00    -0.354 N 
ATOM     47  C   UNL A   1      38.398  29.008  29.118  1.00  0.00     0.074 A 
ATOM     48  C   UNL A   1      37.911  29.774  28.016  1.00  0.00     0.031 C 
ATOM     49  C   UNL A   1      38.178  34.262  33.734  1.00  0.00     0.029 A 
ATOM     50  C   UNL A   1      39.042  33.140  34.053  1.00  0.00     0.049 A 
ATOM     51  H   UNL A   1      39.545  31.585  32.711  1.00  0.00     0.167 HD
ATOM     52  C   UNL A   1      39.143  27.860  29.132  1.00  0.00     0.034 A 
ATOM     53  C   UNL A   1      39.701  32.850  35.227  1.00  0.00     0.034 A 
ATOM     54  C   UNL A   1      39.620  27.645  30.459  1.00  0.00     0.049 A 
ATOM     55  C   UNL A   1      40.449  31.616  34.943  1.00  0.00     0.074 A 
ATOM     56  C   UNL A   1      38.997  27.241  31.610  1.00  0.00     0.029 A 
ATOM     57  N   UNL A   1      40.788  28.307  30.762  1.00  0.00    -0.354 N 
ATOM     58  N   UNL A   1      41.465  31.532  34.137  1.00  0.00    -0.248 NA
ATOM     59  C   UNL A   1      39.914  30.351  35.461  1.00  0.00     0.031 C 
ATOM     60  C   UNL A   1      39.535  28.125  32.567  1.00  0.00     0.029 A 
ATOM     61  C   UNL A   1      40.656  28.780  32.039  1.00  0.00     0.049 A 
ATOM     62  H   UNL A   1      41.569  28.418  30.173  1.00  0.00     0.167 HD
ATOM     63  C   UNL A   1      41.419  30.214  33.764  1.00  0.00     0.074 A 
ATOM     64  C   UNL A   1      40.700  29.507  34.803  1.00  0.00     0.031 C 
ATOM     65  C   UNL A   1      41.485  29.881  32.450  1.00  0.00     0.034 A 
BRANCH  52  66
ATOM     66  C   UNL A   1      39.786  27.001  28.069  1.00  0.00     0.023 A 
ATOM     67  C   UNL A   1      39.573  25.597  28.208  1.00  0.00     0.012 A 
ATOM     68  C   UNL A   1      40.812  27.414  27.205  1.00  0.00     0.148 A 
ATOM     69  C   UNL A   1      40.427  24.652  27.643  1.00  0.00     0.002 A 
ATOM     70  C   UNL A   1      41.638  26.459  26.603  1.00  0.00     0.091 A 
ATOM     71  F   UNL A   1      41.043  28.720  27.038  1.00  0.00    -0.205 F 
ATOM     72  C   UNL A   1      41.474  25.088  26.852  1.00  0.00     0.022 A 
BRANCH  70  73
ATOM     73  S   UNL A   1      42.998  26.893  25.513  1.00  0.00     0.127 S 
ATOM     74  O   UNL A   1      43.328  25.601  24.916  1.00  0.00    -0.237 OA
ATOM     75  O   UNL A   1      42.356  27.837  24.596  1.00  0.00    -0.237 OA
ATOM     76  O   UNL A   1      44.015  27.490  26.367  1.00  0.00    -0.744 OA
ENDBRANCH  70  73
ENDBRANCH  52  66
BRANCH  53  77
ATOM     77  C   UNL A   1      39.692  33.318  36.678  1.00  0.00     0.023 A 
ATOM     78  C   UNL A   1      38.533  33.648  37.392  1.00  0.00     0.012 A 
ATOM     79  C   UNL A   1      40.904  33.298  37.448  1.00  0.00     0.148 A 
ATOM     80  C   UNL A   1      38.558  33.815  38.795  1.00  0.00     0.002 A 
ATOM     81  C   UNL A   1      40.906  33.334  38.841  1.00  0.00     0.091 A 
ATOM     82  F   UNL A   1      42.086  33.247  36.822  1.00  0.00    -0.205 F 
ATOM     83  C   UNL A   1      39.727  33.602  39.524  1.00  0.00     0.022 A 
BRANCH  81  84
ATOM     84  S   UNL A   1      42.361  32.875  39.814  1.00  0.00     0.127 S 
ATOM     85  O   UNL A   1      42.647  31.523  39.336  1.00  0.00    -0.237 OA
ATOM     86  O   UNL A   1      43.324  33.890  39.391  1.00  0.00    -0.237 OA
ATOM     87  O   UNL A   1      41.959  32.953  41.213  1.00  0.00    -0.744 OA
ENDBRANCH  81  84
ENDBRANCH  53  77
BRANCH  65  88
ATOM     88  C   UNL A   1      42.233  30.867  31.557  1.00  0.00     0.023 A 
ATOM     89  C   UNL A   1      41.431  31.734  30.790  1.00  0.00     0.012 A 
ATOM     90  C   UNL A   1      43.633  30.929  31.344  1.00  0.00     0.148 A 
ATOM     91  C   UNL A   1      41.981  32.620  29.861  1.00  0.00     0.002 A 
ATOM     92  C   UNL A   1      44.187  31.796  30.390  1.00  0.00     0.091 A 
ATOM     93  F   UNL A   1      44.425  30.141  32.065  1.00  0.00    -0.205 F 
ATOM     94  C   UNL A   1      43.356  32.652  29.658  1.00  0.00     0.022 A 
BRANCH  92  95
ATOM     95  S   UNL A   1      45.944  31.838  29.954  1.00  0.00     0.127 S 
ATOM     96  O   UNL A   1      46.094  30.625  29.143  1.00  0.00    -0.237 OA
ATOM     97  O   UNL A   1      46.044  33.078  29.187  1.00  0.00    -0.237 OA
ATOM     98  O   UNL A   1      46.687  31.813  31.208  1.00  0.00    -0.744 OA
ENDBRANCH  92  95
ENDBRANCH  65  88
ENDBRANCH  39  40
ENDBRANCH  31  34
ENDBRANCH  29  30
ENDBRANCH  28  29
ENDBRANCH   1  28
TORSDOF 18
ENDMDL
