MODEL 1
REMARK VINA RESULT:     -10.7      0.000      0.000
REMARK SMILES CC(C)[C@@H]([NH2+][C@@H]1CSCC(C)(C)C1)C(=O)NCCCCCCNC(=O)c1ccc(-c2c3nc(c(-c4cccc(S(=O)(=O)[O-])c4F)c4ccc([nH]4)c(-c4cccc(S(=O)(=O)[O-])c4F)c4nc(c(-c5cccc(S(=O)(=O)[O-])c5F)c5ccc2[nH]5)C=C4)C=C3)cc1
REMARK SMILES IDX 20 1 19 2 18 3 17 4 16 5 14 6 15 7 4 9 2 10 1 11 3 12 5 13
REMARK SMILES IDX 6 16 7 17 13 18 8 19 10 20 9 21 11 22 12 23 21 24 22 25
REMARK SMILES IDX 23 26 24 27 25 29 26 30 27 31 88 32 28 33 87 34 29 35 30 36
REMARK SMILES IDX 31 37 81 38 32 39 86 40 80 41 82 42 33 43 85 44 79 45 78 46
REMARK SMILES IDX 34 48 66 49 46 50 65 51 47 52 50 53 64 54 83 55 48 56 49 57
REMARK SMILES IDX 63 59 84 60 51 61 35 62 36 63 44 64 37 65 39 66 45 67 38 68
REMARK SMILES IDX 40 69 41 70 42 71 43 72 67 73 68 74 76 75 69 76 71 77 77 78
REMARK SMILES IDX 70 79 72 80 73 81 74 82 75 83 52 84 53 85 61 86 54 87 56 88
REMARK SMILES IDX 62 89 55 90 57 91 58 92 59 93 60 94
REMARK H PARENT 16 8 5 14 5 15 23 28 82 47 50 58
REMARK Flexibility Score: inf
ROOT
ATOM      1  C   UNL A   1      31.568  30.633  26.069  1.00  0.00     0.002 C 
ENDROOT
BRANCH   1   2
ATOM      2  C   UNL A   1      32.068  29.558  27.045  1.00  0.00     0.002 C 
BRANCH   2   3
ATOM      3  C   UNL A   1      33.409  28.919  26.673  1.00  0.00     0.021 C 
BRANCH   3   4
ATOM      4  C   UNL A   1      33.321  27.409  26.502  1.00  0.00     0.116 C 
BRANCH   4   5
ATOM      5  N   UNL A   1      31.990  26.903  26.756  1.00  0.00    -0.351 N 
ATOM      6  C   UNL A   1      31.130  26.274  25.901  1.00  0.00     0.278 C 
ATOM      7  O   UNL A   1      30.071  25.831  26.360  1.00  0.00    -0.268 OA
ATOM      8  H   UNL A   1      31.657  27.030  27.673  1.00  0.00     0.163 HD
BRANCH   6   9
ATOM      9  C   UNL A   1      31.417  26.186  24.380  1.00  0.00     0.275 C 
BRANCH   9  10
ATOM     10  C   UNL A   1      31.417  27.635  23.780  1.00  0.00     0.051 C 
ATOM     11  C   UNL A   1      32.194  27.740  22.466  1.00  0.00     0.014 C 
ATOM     12  C   UNL A   1      29.991  28.168  23.557  1.00  0.00     0.014 C 
ENDBRANCH   9  10
BRANCH   9  13
ATOM     13  N   UNL A   1      32.668  25.427  24.109  1.00  0.00    -0.333 N 
ATOM     14  H   UNL A   1      33.132  25.282  25.005  1.00  0.00     0.347 HD
ATOM     15  H   UNL A   1      33.171  26.003  23.434  1.00  0.00     0.347 HD
BRANCH  13  16
ATOM     16  C   UNL A   1      32.558  24.104  23.452  1.00  0.00     0.193 C 
ATOM     17  C   UNL A   1      31.607  23.046  24.033  1.00  0.00     0.134 C 
ATOM     18  C   UNL A   1      33.957  23.443  23.296  1.00  0.00     0.073 C 
ATOM     19  S   UNL A   1      32.019  22.483  25.707  1.00  0.00    -0.155 SA
ATOM     20  C   UNL A   1      34.694  23.047  24.602  1.00  0.00    -0.021 C 
ATOM     21  C   UNL A   1      33.816  22.259  25.607  1.00  0.00     0.076 C 
ATOM     22  C   UNL A   1      35.354  24.287  25.239  1.00  0.00     0.012 C 
ATOM     23  C   UNL A   1      35.886  22.116  24.260  1.00  0.00     0.012 C 
ENDBRANCH  13  16
ENDBRANCH   9  13
ENDBRANCH   6   9
ENDBRANCH   4   5
ENDBRANCH   3   4
ENDBRANCH   2   3
ENDBRANCH   1   2
BRANCH   1  24
ATOM     24  C   UNL A   1      31.410  32.035  26.663  1.00  0.00     0.021 C 
BRANCH  24  25
ATOM     25  C   UNL A   1      32.683  32.617  27.263  1.00  0.00     0.116 C 
BRANCH  25  26
ATOM     26  N   UNL A   1      32.533  34.020  27.614  1.00  0.00    -0.352 N 
ATOM     27  C   UNL A   1      33.167  34.745  28.590  1.00  0.00     0.251 C 
ATOM     28  H   UNL A   1      31.882  34.521  27.073  1.00  0.00     0.163 HD
ATOM     29  O   UNL A   1      32.783  35.876  28.860  1.00  0.00    -0.269 OA
BRANCH  27  30
ATOM     30  C   UNL A   1      34.307  34.150  29.320  1.00  0.00     0.039 A 
ATOM     31  C   UNL A   1      34.047  33.257  30.363  1.00  0.00     0.014 A 
ATOM     32  C   UNL A   1      35.623  34.483  28.989  1.00  0.00     0.014 A 
ATOM     33  C   UNL A   1      35.111  32.676  31.055  1.00  0.00     0.010 A 
ATOM     34  C   UNL A   1      36.680  33.838  29.622  1.00  0.00     0.010 A 
ATOM     35  C   UNL A   1      36.437  32.948  30.677  1.00  0.00    -0.014 A 
BRANCH  35  36
ATOM     36  C   UNL A   1      37.582  32.342  31.401  1.00  0.00     0.031 A 
ATOM     37  C   UNL A   1      38.346  31.203  30.777  1.00  0.00     0.074 A 
ATOM     38  C   UNL A   1      37.894  32.770  32.640  1.00  0.00     0.049 A 
ATOM     39  N   UNL A   1      39.340  30.509  31.267  1.00  0.00    -0.248 NA
ATOM     40  C   UNL A   1      37.920  30.768  29.435  1.00  0.00     0.031 C 
ATOM     41  C   UNL A   1      37.187  33.819  33.377  1.00  0.00     0.029 A 
ATOM     42  N   UNL A   1      38.876  32.360  33.507  1.00  0.00    -0.354 N 
ATOM     43  C   UNL A   1      39.633  29.540  30.315  1.00  0.00     0.074 A 
ATOM     44  C   UNL A   1      38.685  29.705  29.237  1.00  0.00     0.031 C 
ATOM     45  C   UNL A   1      37.764  33.979  34.579  1.00  0.00     0.029 A 
ATOM     46  C   UNL A   1      38.858  33.022  34.713  1.00  0.00     0.049 A 
ATOM     47  H   UNL A   1      39.531  31.659  33.286  1.00  0.00     0.167 HD
ATOM     48  C   UNL A   1      40.625  28.619  30.318  1.00  0.00     0.034 A 
ATOM     49  C   UNL A   1      39.633  32.869  35.804  1.00  0.00     0.034 A 
ATOM     50  C   UNL A   1      41.591  28.485  31.374  1.00  0.00     0.049 A 
ATOM     51  C   UNL A   1      40.744  31.853  35.771  1.00  0.00     0.074 A 
ATOM     52  C   UNL A   1      42.676  27.629  31.446  1.00  0.00     0.029 A 
ATOM     53  N   UNL A   1      41.587  29.225  32.547  1.00  0.00    -0.354 N 
ATOM     54  N   UNL A   1      41.090  31.036  34.804  1.00  0.00    -0.248 NA
ATOM     55  C   UNL A   1      41.596  31.761  36.965  1.00  0.00     0.031 C 
ATOM     56  C   UNL A   1      43.311  27.833  32.674  1.00  0.00     0.029 A 
ATOM     57  C   UNL A   1      42.647  28.844  33.349  1.00  0.00     0.049 A 
ATOM     58  H   UNL A   1      40.927  29.919  32.774  1.00  0.00     0.167 HD
ATOM     59  C   UNL A   1      42.227  30.375  35.253  1.00  0.00     0.074 A 
ATOM     60  C   UNL A   1      42.518  30.895  36.573  1.00  0.00     0.031 C 
ATOM     61  C   UNL A   1      42.959  29.416  34.634  1.00  0.00     0.034 A 
BRANCH  48  62
ATOM     62  C   UNL A   1      40.746  27.714  29.119  1.00  0.00     0.023 A 
ATOM     63  C   UNL A   1      39.932  26.564  29.028  1.00  0.00     0.012 A 
ATOM     64  C   UNL A   1      41.620  28.024  28.059  1.00  0.00     0.148 A 
ATOM     65  C   UNL A   1      40.013  25.720  27.923  1.00  0.00     0.002 A 
ATOM     66  C   UNL A   1      41.658  27.205  26.937  1.00  0.00     0.091 A 
ATOM     67  F   UNL A   1      42.399  29.109  28.171  1.00  0.00    -0.205 F 
ATOM     68  C   UNL A   1      40.868  26.046  26.873  1.00  0.00     0.022 A 
BRANCH  66  69
ATOM     69  S   UNL A   1      42.662  27.580  25.496  1.00  0.00     0.127 S 
ATOM     70  O   UNL A   1      42.427  26.403  24.659  1.00  0.00    -0.237 OA
ATOM     71  O   UNL A   1      42.044  28.811  25.004  1.00  0.00    -0.237 OA
ATOM     72  O   UNL A   1      44.026  27.734  25.981  1.00  0.00    -0.744 OA
ENDBRANCH  66  69
ENDBRANCH  48  62
BRANCH  49  73
ATOM     73  C   UNL A   1      39.433  33.739  36.998  1.00  0.00     0.023 A 
ATOM     74  C   UNL A   1      39.875  35.077  36.963  1.00  0.00     0.012 A 
ATOM     75  C   UNL A   1      38.808  33.254  38.162  1.00  0.00     0.148 A 
ATOM     76  C   UNL A   1      39.741  35.900  38.081  1.00  0.00     0.002 A 
ATOM     77  C   UNL A   1      38.626  34.097  39.252  1.00  0.00     0.091 A 
ATOM     78  F   UNL A   1      38.399  31.978  38.179  1.00  0.00    -0.205 F 
ATOM     79  C   UNL A   1      39.111  35.414  39.222  1.00  0.00     0.022 A 
BRANCH  77  80
ATOM     80  S   UNL A   1      37.715  33.596  40.716  1.00  0.00     0.127 S 
ATOM     81  O   UNL A   1      37.679  34.836  41.486  1.00  0.00    -0.237 OA
ATOM     82  O   UNL A   1      36.431  33.185  40.146  1.00  0.00    -0.237 OA
ATOM     83  O   UNL A   1      38.484  32.508  41.306  1.00  0.00    -0.744 OA
ENDBRANCH  77  80
ENDBRANCH  49  73
BRANCH  61  84
ATOM     84  C   UNL A   1      44.190  28.909  35.339  1.00  0.00     0.023 A 
ATOM     85  C   UNL A   1      45.441  29.512  35.107  1.00  0.00     0.012 A 
ATOM     86  C   UNL A   1      44.085  27.875  36.291  1.00  0.00     0.148 A 
ATOM     87  C   UNL A   1      46.578  29.068  35.783  1.00  0.00     0.002 A 
ATOM     88  C   UNL A   1      45.211  27.475  37.001  1.00  0.00     0.091 A 
ATOM     89  F   UNL A   1      42.889  27.301  36.485  1.00  0.00    -0.205 F 
ATOM     90  C   UNL A   1      46.460  28.060  36.738  1.00  0.00     0.022 A 
BRANCH  88  91
ATOM     91  S   UNL A   1      45.135  26.259  38.320  1.00  0.00     0.127 S 
ATOM     92  O   UNL A   1      44.533  25.115  37.636  1.00  0.00    -0.237 OA
ATOM     93  O   UNL A   1      46.546  26.089  38.666  1.00  0.00    -0.237 OA
ATOM     94  O   UNL A   1      44.323  26.856  39.372  1.00  0.00    -0.744 OA
ENDBRANCH  88  91
ENDBRANCH  61  84
ENDBRANCH  35  36
ENDBRANCH  27  30
ENDBRANCH  25  26
ENDBRANCH  24  25
ENDBRANCH   1  24
TORSDOF 19
ENDMDL
MODEL 2
REMARK VINA RESULT:     -10.6      5.746      8.824
REMARK SMILES CC(C)[C@@H]([NH2+][C@@H]1CSCC(C)(C)C1)C(=O)NCCCCCCNC(=O)c1ccc(-c2c3nc(c(-c4cccc(S(=O)(=O)[O-])c4F)c4ccc([nH]4)c(-c4cccc(S(=O)(=O)[O-])c4F)c4nc(c(-c5cccc(S(=O)(=O)[O-])c5F)c5ccc2[nH]5)C=C4)C=C3)cc1
REMARK SMILES IDX 20 1 19 2 18 3 17 4 16 5 14 6 15 7 4 9 2 10 1 11 3 12 5 13
REMARK SMILES IDX 6 16 7 17 13 18 8 19 10 20 9 21 11 22 12 23 21 24 22 25
REMARK SMILES IDX 23 26 24 27 25 29 26 30 27 31 88 32 28 33 87 34 29 35 30 36
REMARK SMILES IDX 31 37 81 38 32 39 86 40 80 41 82 42 33 43 85 44 79 45 78 46
REMARK SMILES IDX 34 48 66 49 46 50 65 51 47 52 50 53 64 54 83 55 48 56 49 57
REMARK SMILES IDX 63 59 84 60 51 61 35 62 36 63 44 64 37 65 39 66 45 67 38 68
REMARK SMILES IDX 40 69 41 70 42 71 43 72 67 73 68 74 76 75 69 76 71 77 77 78
REMARK SMILES IDX 70 79 72 80 73 81 74 82 75 83 52 84 53 85 61 86 54 87 56 88
REMARK SMILES IDX 62 89 55 90 57 91 58 92 59 93 60 94
REMARK H PARENT 16 8 5 14 5 15 23 28 82 47 50 58
REMARK Flexibility Score: inf
ROOT
ATOM      1  C   UNL A   1      35.031  23.018  26.558  1.00  0.00     0.002 C 
ENDROOT
BRANCH   1   2
ATOM      2  C   UNL A   1      33.710  22.851  27.324  1.00  0.00     0.002 C 
BRANCH   2   3
ATOM      3  C   UNL A   1      32.577  22.200  26.527  1.00  0.00     0.021 C 
BRANCH   3   4
ATOM      4  C   UNL A   1      31.275  22.987  26.592  1.00  0.00     0.116 C 
BRANCH   4   5
ATOM      5  N   UNL A   1      30.618  23.070  25.306  1.00  0.00    -0.351 N 
ATOM      6  C   UNL A   1      31.061  23.642  24.148  1.00  0.00     0.278 C 
ATOM      7  O   UNL A   1      30.373  23.507  23.129  1.00  0.00    -0.268 OA
ATOM      8  H   UNL A   1      29.727  22.655  25.259  1.00  0.00     0.163 HD
BRANCH   6   9
ATOM      9  C   UNL A   1      32.342  24.514  24.111  1.00  0.00     0.275 C 
BRANCH   9  10
ATOM     10  C   UNL A   1      33.324  23.928  23.038  1.00  0.00     0.051 C 
ATOM     11  C   UNL A   1      34.784  24.312  23.287  1.00  0.00     0.014 C 
ATOM     12  C   UNL A   1      33.224  22.395  22.940  1.00  0.00     0.014 C 
ENDBRANCH   9  10
BRANCH   9  13
ATOM     13  N   UNL A   1      32.014  25.950  23.899  1.00  0.00    -0.333 N 
ATOM     14  H   UNL A   1      31.999  26.110  22.891  1.00  0.00     0.347 HD
ATOM     15  H   UNL A   1      32.732  26.453  24.420  1.00  0.00     0.347 HD
BRANCH  13  16
ATOM     16  C   UNL A   1      30.737  26.466  24.443  1.00  0.00     0.193 C 
ATOM     17  C   UNL A   1      30.042  27.650  23.752  1.00  0.00     0.134 C 
ATOM     18  C   UNL A   1      30.876  26.819  25.951  1.00  0.00     0.073 C 
ATOM     19  S   UNL A   1      30.985  29.200  23.758  1.00  0.00    -0.155 SA
ATOM     20  C   UNL A   1      31.829  27.990  26.311  1.00  0.00    -0.021 C 
ATOM     21  C   UNL A   1      31.607  29.267  25.461  1.00  0.00     0.076 C 
ATOM     22  C   UNL A   1      33.295  27.512  26.289  1.00  0.00     0.012 C 
ATOM     23  C   UNL A   1      31.589  28.415  27.784  1.00  0.00     0.012 C 
ENDBRANCH  13  16
ENDBRANCH   9  13
ENDBRANCH   6   9
ENDBRANCH   4   5
ENDBRANCH   3   4
ENDBRANCH   2   3
ENDBRANCH   1   2
BRANCH   1  24
ATOM     24  C   UNL A   1      35.567  21.749  25.891  1.00  0.00     0.021 C 
BRANCH  24  25
ATOM     25  C   UNL A   1      36.944  21.899  25.257  1.00  0.00     0.116 C 
BRANCH  25  26
ATOM     26  N   UNL A   1      37.845  20.825  25.641  1.00  0.00    -0.352 N 
ATOM     27  C   UNL A   1      39.138  20.894  26.093  1.00  0.00     0.251 C 
ATOM     28  H   UNL A   1      37.473  19.917  25.564  1.00  0.00     0.163 HD
ATOM     29  O   UNL A   1      39.805  19.873  26.199  1.00  0.00    -0.269 OA
BRANCH  27  30
ATOM     30  C   UNL A   1      39.721  22.207  26.442  1.00  0.00     0.039 A 
ATOM     31  C   UNL A   1      39.180  23.359  25.867  1.00  0.00     0.014 A 
ATOM     32  C   UNL A   1      40.806  22.299  27.318  1.00  0.00     0.014 A 
ATOM     33  C   UNL A   1      39.711  24.609  26.195  1.00  0.00     0.010 A 
ATOM     34  C   UNL A   1      41.275  23.549  27.709  1.00  0.00     0.010 A 
ATOM     35  C   UNL A   1      40.750  24.714  27.133  1.00  0.00    -0.014 A 
BRANCH  35  36
ATOM     36  C   UNL A   1      41.330  26.032  27.494  1.00  0.00     0.031 A 
ATOM     37  C   UNL A   1      42.741  26.368  27.086  1.00  0.00     0.074 A 
ATOM     38  C   UNL A   1      40.614  26.898  28.238  1.00  0.00     0.049 A 
ATOM     39  N   UNL A   1      43.442  27.440  27.346  1.00  0.00    -0.248 NA
ATOM     40  C   UNL A   1      43.471  25.354  26.305  1.00  0.00     0.031 C 
ATOM     41  C   UNL A   1      39.263  26.660  28.749  1.00  0.00     0.029 A 
ATOM     42  N   UNL A   1      40.933  28.146  28.712  1.00  0.00    -0.354 N 
ATOM     43  C   UNL A   1      44.698  27.217  26.795  1.00  0.00     0.074 A 
ATOM     44  C   UNL A   1      44.679  25.889  26.225  1.00  0.00     0.031 C 
ATOM     45  C   UNL A   1      38.864  27.731  29.455  1.00  0.00     0.029 A 
ATOM     46  C   UNL A   1      39.941  28.715  29.476  1.00  0.00     0.049 A 
ATOM     47  H   UNL A   1      41.790  28.592  28.522  1.00  0.00     0.167 HD
ATOM     48  C   UNL A   1      45.761  28.053  26.736  1.00  0.00     0.034 A 
ATOM     49  C   UNL A   1      39.908  29.895  30.125  1.00  0.00     0.034 A 
ATOM     50  C   UNL A   1      45.762  29.387  27.270  1.00  0.00     0.049 A 
ATOM     51  C   UNL A   1      41.095  30.816  30.023  1.00  0.00     0.074 A 
ATOM     52  C   UNL A   1      46.763  30.340  27.206  1.00  0.00     0.029 A 
ATOM     53  N   UNL A   1      44.711  29.957  27.972  1.00  0.00    -0.354 N 
ATOM     54  N   UNL A   1      42.225  30.640  29.381  1.00  0.00    -0.248 NA
ATOM     55  C   UNL A   1      40.989  32.115  30.702  1.00  0.00     0.031 C 
ATOM     56  C   UNL A   1      46.327  31.477  27.893  1.00  0.00     0.029 A 
ATOM     57  C   UNL A   1      45.039  31.247  28.349  1.00  0.00     0.049 A 
ATOM     58  H   UNL A   1      43.857  29.510  28.173  1.00  0.00     0.167 HD
ATOM     59  C   UNL A   1      42.941  31.822  29.535  1.00  0.00     0.074 A 
ATOM     60  C   UNL A   1      42.110  32.711  30.322  1.00  0.00     0.031 C 
ATOM     61  C   UNL A   1      44.176  32.140  29.078  1.00  0.00     0.034 A 
BRANCH  48  62
ATOM     62  C   UNL A   1      46.998  27.566  26.026  1.00  0.00     0.023 A 
ATOM     63  C   UNL A   1      47.950  26.798  26.730  1.00  0.00     0.012 A 
ATOM     64  C   UNL A   1      47.196  27.818  24.654  1.00  0.00     0.148 A 
ATOM     65  C   UNL A   1      49.094  26.322  26.093  1.00  0.00     0.002 A 
ATOM     66  C   UNL A   1      48.314  27.297  24.014  1.00  0.00     0.091 A 
ATOM     67  F   UNL A   1      46.291  28.564  24.006  1.00  0.00    -0.205 F 
ATOM     68  C   UNL A   1      49.270  26.562  24.733  1.00  0.00     0.022 A 
BRANCH  66  69
ATOM     69  S   UNL A   1      48.592  27.478  22.248  1.00  0.00     0.127 S 
ATOM     70  O   UNL A   1      49.794  28.311  22.224  1.00  0.00    -0.237 OA
ATOM     71  O   UNL A   1      48.803  26.093  21.828  1.00  0.00    -0.237 OA
ATOM     72  O   UNL A   1      47.392  28.102  21.712  1.00  0.00    -0.744 OA
ENDBRANCH  66  69
ENDBRANCH  48  62
BRANCH  49  73
ATOM     73  C   UNL A   1      38.688  30.308  30.876  1.00  0.00     0.023 A 
ATOM     74  C   UNL A   1      38.549  29.938  32.229  1.00  0.00     0.012 A 
ATOM     75  C   UNL A   1      37.670  31.063  30.264  1.00  0.00     0.148 A 
ATOM     76  C   UNL A   1      37.399  30.272  32.944  1.00  0.00     0.002 A 
ATOM     77  C   UNL A   1      36.552  31.442  30.999  1.00  0.00     0.091 A 
ATOM     78  F   UNL A   1      37.818  31.402  28.976  1.00  0.00    -0.205 F 
ATOM     79  C   UNL A   1      36.404  31.029  32.332  1.00  0.00     0.022 A 
BRANCH  77  80
ATOM     80  S   UNL A   1      35.282  32.522  30.332  1.00  0.00     0.127 S 
ATOM     81  O   UNL A   1      34.782  31.738  29.205  1.00  0.00    -0.237 OA
ATOM     82  O   UNL A   1      34.359  32.636  31.462  1.00  0.00    -0.237 OA
ATOM     83  O   UNL A   1      35.962  33.763  29.986  1.00  0.00    -0.744 OA
ENDBRANCH  77  80
ENDBRANCH  49  73
BRANCH  61  84
ATOM     84  C   UNL A   1      44.688  33.531  29.351  1.00  0.00     0.023 A 
ATOM     85  C   UNL A   1      45.338  33.823  30.566  1.00  0.00     0.012 A 
ATOM     86  C   UNL A   1      44.583  34.531  28.364  1.00  0.00     0.148 A 
ATOM     87  C   UNL A   1      45.842  35.101  30.810  1.00  0.00     0.002 A 
ATOM     88  C   UNL A   1      45.137  35.784  28.591  1.00  0.00     0.091 A 
ATOM     89  F   UNL A   1      43.945  34.238  27.221  1.00  0.00    -0.205 F 
ATOM     90  C   UNL A   1      45.753  36.075  29.818  1.00  0.00     0.022 A 
BRANCH  88  91
ATOM     91  S   UNL A   1      45.161  37.068  27.335  1.00  0.00     0.127 S 
ATOM     92  O   UNL A   1      43.738  37.216  27.033  1.00  0.00    -0.237 OA
ATOM     93  O   UNL A   1      45.753  38.195  28.056  1.00  0.00    -0.237 OA
ATOM     94  O   UNL A   1      45.980  36.551  26.246  1.00  0.00    -0.744 OA
ENDBRANCH  88  91
ENDBRANCH  61  84
ENDBRANCH  35  36
ENDBRANCH  27  30
ENDBRANCH  25  26
ENDBRANCH  24  25
ENDBRANCH   1  24
TORSDOF 19
ENDMDL
MODEL 3
REMARK VINA RESULT:     -10.5      5.853     11.949
REMARK SMILES CC(C)[C@@H]([NH2+][C@@H]1CSCC(C)(C)C1)C(=O)NCCCCCCNC(=O)c1ccc(-c2c3nc(c(-c4cccc(S(=O)(=O)[O-])c4F)c4ccc([nH]4)c(-c4cccc(S(=O)(=O)[O-])c4F)c4nc(c(-c5cccc(S(=O)(=O)[O-])c5F)c5ccc2[nH]5)C=C4)C=C3)cc1
REMARK SMILES IDX 20 1 19 2 18 3 17 4 16 5 14 6 15 7 4 9 2 10 1 11 3 12 5 13
REMARK SMILES IDX 6 16 7 17 13 18 8 19 10 20 9 21 11 22 12 23 21 24 22 25
REMARK SMILES IDX 23 26 24 27 25 29 26 30 27 31 88 32 28 33 87 34 29 35 30 36
REMARK SMILES IDX 31 37 81 38 32 39 86 40 80 41 82 42 33 43 85 44 79 45 78 46
REMARK SMILES IDX 34 48 66 49 46 50 65 51 47 52 50 53 64 54 83 55 48 56 49 57
REMARK SMILES IDX 63 59 84 60 51 61 35 62 36 63 44 64 37 65 39 66 45 67 38 68
REMARK SMILES IDX 40 69 41 70 42 71 43 72 67 73 68 74 76 75 69 76 71 77 77 78
REMARK SMILES IDX 70 79 72 80 73 81 74 82 75 83 52 84 53 85 61 86 54 87 56 88
REMARK SMILES IDX 62 89 55 90 57 91 58 92 59 93 60 94
REMARK H PARENT 16 8 5 14 5 15 23 28 82 47 50 58
REMARK Flexibility Score: inf
ROOT
ATOM      1  C   UNL A   1      36.900  20.466  24.993  1.00  0.00     0.002 C 
ENDROOT
BRANCH   1   2
ATOM      2  C   UNL A   1      37.050  21.805  24.254  1.00  0.00     0.002 C 
BRANCH   2   3
ATOM      3  C   UNL A   1      36.972  23.048  25.144  1.00  0.00     0.021 C 
BRANCH   3   4
ATOM      4  C   UNL A   1      35.776  23.933  24.825  1.00  0.00     0.116 C 
BRANCH   4   5
ATOM      5  N   UNL A   1      35.201  23.637  23.531  1.00  0.00    -0.351 N 
ATOM      6  C   UNL A   1      33.946  23.905  23.064  1.00  0.00     0.278 C 
ATOM      7  O   UNL A   1      33.699  23.652  21.879  1.00  0.00    -0.268 OA
ATOM      8  H   UNL A   1      35.799  23.176  22.899  1.00  0.00     0.163 HD
BRANCH   6   9
ATOM      9  C   UNL A   1      32.827  24.432  23.998  1.00  0.00     0.275 C 
BRANCH   9  10
ATOM     10  C   UNL A   1      32.679  23.451  25.213  1.00  0.00     0.051 C 
ATOM     11  C   UNL A   1      32.195  24.145  26.488  1.00  0.00     0.014 C 
ATOM     12  C   UNL A   1      31.733  22.279  24.896  1.00  0.00     0.014 C 
ENDBRANCH   9  10
BRANCH   9  13
ATOM     13  N   UNL A   1      33.076  25.843  24.397  1.00  0.00    -0.333 N 
ATOM     14  H   UNL A   1      33.979  25.868  24.872  1.00  0.00     0.347 HD
ATOM     15  H   UNL A   1      32.266  26.091  24.967  1.00  0.00     0.347 HD
BRANCH  13  16
ATOM     16  C   UNL A   1      33.110  26.878  23.339  1.00  0.00     0.193 C 
ATOM     17  C   UNL A   1      33.749  28.244  23.633  1.00  0.00     0.134 C 
ATOM     18  C   UNL A   1      31.687  27.138  22.768  1.00  0.00     0.073 C 
ATOM     19  S   UNL A   1      32.924  29.211  24.928  1.00  0.00    -0.155 SA
ATOM     20  C   UNL A   1      30.649  27.762  23.736  1.00  0.00    -0.021 C 
ATOM     21  C   UNL A   1      31.171  29.000  24.509  1.00  0.00     0.076 C 
ATOM     22  C   UNL A   1      30.073  26.680  24.672  1.00  0.00     0.012 C 
ATOM     23  C   UNL A   1      29.421  28.256  22.926  1.00  0.00     0.012 C 
ENDBRANCH  13  16
ENDBRANCH   9  13
ENDBRANCH   6   9
ENDBRANCH   4   5
ENDBRANCH   3   4
ENDBRANCH   2   3
ENDBRANCH   1   2
BRANCH   1  24
ATOM     24  C   UNL A   1      38.141  19.570  24.986  1.00  0.00     0.021 C 
BRANCH  24  25
ATOM     25  C   UNL A   1      39.329  20.127  25.759  1.00  0.00     0.116 C 
BRANCH  25  26
ATOM     26  N   UNL A   1      40.391  19.147  25.915  1.00  0.00    -0.352 N 
ATOM     27  C   UNL A   1      41.737  19.342  26.094  1.00  0.00     0.251 C 
ATOM     28  H   UNL A   1      40.102  18.206  25.888  1.00  0.00     0.163 HD
ATOM     29  O   UNL A   1      42.508  18.393  26.027  1.00  0.00    -0.269 OA
BRANCH  27  30
ATOM     30  C   UNL A   1      42.250  20.703  26.357  1.00  0.00     0.039 A 
ATOM     31  C   UNL A   1      42.466  21.098  27.679  1.00  0.00     0.014 A 
ATOM     32  C   UNL A   1      42.499  21.591  25.307  1.00  0.00     0.014 A 
ATOM     33  C   UNL A   1      42.963  22.376  27.946  1.00  0.00     0.010 A 
ATOM     34  C   UNL A   1      43.073  22.830  25.570  1.00  0.00     0.010 A 
ATOM     35  C   UNL A   1      43.287  23.245  26.892  1.00  0.00    -0.014 A 
BRANCH  35  36
ATOM     36  C   UNL A   1      43.813  24.608  27.154  1.00  0.00     0.031 A 
ATOM     37  C   UNL A   1      42.898  25.673  27.700  1.00  0.00     0.074 A 
ATOM     38  C   UNL A   1      45.091  24.905  26.844  1.00  0.00     0.049 A 
ATOM     39  N   UNL A   1      43.151  26.931  27.948  1.00  0.00    -0.248 NA
ATOM     40  C   UNL A   1      41.506  25.279  27.979  1.00  0.00     0.031 C 
ATOM     41  C   UNL A   1      46.055  23.978  26.248  1.00  0.00     0.029 A 
ATOM     42  N   UNL A   1      45.791  26.078  26.967  1.00  0.00    -0.354 N 
ATOM     43  C   UNL A   1      41.951  27.484  28.376  1.00  0.00     0.074 A 
ATOM     44  C   UNL A   1      40.957  26.437  28.312  1.00  0.00     0.031 C 
ATOM     45  C   UNL A   1      47.225  24.614  26.069  1.00  0.00     0.029 A 
ATOM     46  C   UNL A   1      47.084  26.000  26.503  1.00  0.00     0.049 A 
ATOM     47  H   UNL A   1      45.405  26.898  27.352  1.00  0.00     0.167 HD
ATOM     48  C   UNL A   1      41.703  28.740  28.818  1.00  0.00     0.034 A 
ATOM     49  C   UNL A   1      48.044  26.942  26.431  1.00  0.00     0.034 A 
ATOM     50  C   UNL A   1      42.703  29.766  28.917  1.00  0.00     0.049 A 
ATOM     51  C   UNL A   1      47.749  28.324  26.951  1.00  0.00     0.074 A 
ATOM     52  C   UNL A   1      42.573  31.051  29.412  1.00  0.00     0.029 A 
ATOM     53  N   UNL A   1      44.021  29.627  28.508  1.00  0.00    -0.354 N 
ATOM     54  N   UNL A   1      46.642  28.790  27.479  1.00  0.00    -0.248 NA
ATOM     55  C   UNL A   1      48.845  29.301  26.901  1.00  0.00     0.031 C 
ATOM     56  C   UNL A   1      43.805  31.698  29.278  1.00  0.00     0.029 A 
ATOM     57  C   UNL A   1      44.714  30.802  28.737  1.00  0.00     0.049 A 
ATOM     58  H   UNL A   1      44.407  28.812  28.113  1.00  0.00     0.167 HD
ATOM     59  C   UNL A   1      46.925  30.093  27.870  1.00  0.00     0.074 A 
ATOM     60  C   UNL A   1      48.311  30.338  27.529  1.00  0.00     0.031 C 
ATOM     61  C   UNL A   1      46.110  31.009  28.449  1.00  0.00     0.034 A 
BRANCH  48  62
ATOM     62  C   UNL A   1      40.302  29.060  29.274  1.00  0.00     0.023 A 
ATOM     63  C   UNL A   1      39.342  29.486  28.332  1.00  0.00     0.012 A 
ATOM     64  C   UNL A   1      39.919  28.887  30.619  1.00  0.00     0.148 A 
ATOM     65  C   UNL A   1      38.036  29.773  28.726  1.00  0.00     0.002 A 
ATOM     66  C   UNL A   1      38.602  29.126  30.994  1.00  0.00     0.091 A 
ATOM     67  F   UNL A   1      40.848  28.499  31.503  1.00  0.00    -0.205 F 
ATOM     68  C   UNL A   1      37.664  29.582  30.054  1.00  0.00     0.022 A 
BRANCH  66  69
ATOM     69  S   UNL A   1      38.000  28.832  32.661  1.00  0.00     0.127 S 
ATOM     70  O   UNL A   1      36.630  29.337  32.572  1.00  0.00    -0.237 OA
ATOM     71  O   UNL A   1      38.107  27.377  32.772  1.00  0.00    -0.237 OA
ATOM     72  O   UNL A   1      38.881  29.578  33.547  1.00  0.00    -0.744 OA
ENDBRANCH  66  69
ENDBRANCH  48  62
BRANCH  49  73
ATOM     73  C   UNL A   1      49.397  26.600  25.906  1.00  0.00     0.023 A 
ATOM     74  C   UNL A   1      50.272  25.826  26.693  1.00  0.00     0.012 A 
ATOM     75  C   UNL A   1      49.821  27.033  24.635  1.00  0.00     0.148 A 
ATOM     76  C   UNL A   1      51.559  25.529  26.246  1.00  0.00     0.002 A 
ATOM     77  C   UNL A   1      51.084  26.685  24.171  1.00  0.00     0.091 A 
ATOM     78  F   UNL A   1      48.977  27.773  23.902  1.00  0.00    -0.205 F 
ATOM     79  C   UNL A   1      51.963  25.951  24.983  1.00  0.00     0.022 A 
BRANCH  77  80
ATOM     80  S   UNL A   1      51.642  27.078  22.510  1.00  0.00     0.127 S 
ATOM     81  O   UNL A   1      50.483  26.696  21.706  1.00  0.00    -0.237 OA
ATOM     82  O   UNL A   1      51.880  28.519  22.604  1.00  0.00    -0.237 OA
ATOM     83  O   UNL A   1      52.845  26.284  22.301  1.00  0.00    -0.744 OA
ENDBRANCH  77  80
ENDBRANCH  49  73
BRANCH  61  84
ATOM     84  C   UNL A   1      46.705  32.342  28.819  1.00  0.00     0.023 A 
ATOM     85  C   UNL A   1      47.300  32.529  30.082  1.00  0.00     0.012 A 
ATOM     86  C   UNL A   1      46.735  33.391  27.878  1.00  0.00     0.148 A 
ATOM     87  C   UNL A   1      47.882  33.752  30.417  1.00  0.00     0.002 A 
ATOM     88  C   UNL A   1      47.365  34.587  28.198  1.00  0.00     0.091 A 
ATOM     89  F   UNL A   1      46.147  33.200  26.688  1.00  0.00    -0.205 F 
ATOM     90  C   UNL A   1      47.926  34.774  29.472  1.00  0.00     0.022 A 
BRANCH  88  91
ATOM     91  S   UNL A   1      47.561  35.920  27.011  1.00  0.00     0.127 S 
ATOM     92  O   UNL A   1      48.312  36.904  27.789  1.00  0.00    -0.237 OA
ATOM     93  O   UNL A   1      48.325  35.273  25.943  1.00  0.00    -0.237 OA
ATOM     94  O   UNL A   1      46.213  36.321  26.630  1.00  0.00    -0.744 OA
ENDBRANCH  88  91
ENDBRANCH  61  84
ENDBRANCH  35  36
ENDBRANCH  27  30
ENDBRANCH  25  26
ENDBRANCH  24  25
ENDBRANCH   1  24
TORSDOF 19
ENDMDL
