MODEL 1
REMARK VINA RESULT:     -12.6      0.000      0.000
REMARK SMILES O=C(NCCCCCCNC(=O)[C@@H]1c2[nH]cnc2CCN1C(=O)CCCc1c[nH]c2ccccc12)c1ccc(-c2c3nc(c(-c4cccc(S(=O)(=O)[O-])c4F)c4ccc([nH]4)c(-c4cccc(S(=O)(=O)[O-])c4F)c4nc(c(-c5cccc(S(=O)(=O)[O-])c5F)c5ccc2[nH]5)C=C4)C=C3)cc1
REMARK SMILES IDX 7 1 6 2 5 3 4 4 3 5 1 6 2 7 36 9 37 10 98 11 38 12 97 13
REMARK SMILES IDX 39 14 40 15 41 16 91 17 42 18 96 19 90 20 92 21 43 22 95 23
REMARK SMILES IDX 89 24 88 25 44 27 76 28 56 29 75 30 57 31 60 32 74 33 93 34
REMARK SMILES IDX 58 35 59 36 73 38 94 39 61 40 45 41 46 42 54 43 47 44 49 45
REMARK SMILES IDX 55 46 48 47 50 48 51 49 52 50 53 51 77 52 78 53 86 54 79 55
REMARK SMILES IDX 81 56 87 57 80 58 82 59 83 60 84 61 85 62 62 63 63 64 71 65
REMARK SMILES IDX 64 66 66 67 72 68 65 69 67 70 68 71 69 72 70 73 8 74 9 75
REMARK SMILES IDX 10 76 11 77 12 79 13 80 14 81 21 82 15 83 18 84 20 85 16 86
REMARK SMILES IDX 17 88 19 89 22 90 23 91 24 92 25 93 26 94 27 95 28 96 35 97
REMARK SMILES IDX 29 98 30 99 34 100 31 102 33 103 32 104
REMARK H PARENT 3 8 92 26 60 37 10 78 15 87 29 101
REMARK Flexibility Score: inf
ROOT
ATOM      1  C   UNL A   1      33.304  27.909  26.479  1.00  0.00     0.002 C 
ENDROOT
BRANCH   1   2
ATOM      2  C   UNL A   1      32.145  28.876  26.754  1.00  0.00     0.002 C 
BRANCH   2   3
ATOM      3  C   UNL A   1      32.549  30.350  26.872  1.00  0.00     0.021 C 
BRANCH   3   4
ATOM      4  C   UNL A   1      34.038  30.564  27.138  1.00  0.00     0.116 C 
BRANCH   4   5
ATOM      5  N   UNL A   1      34.327  31.703  27.984  1.00  0.00    -0.352 N 
ATOM      6  O   UNL A   1      35.321  33.174  29.301  1.00  0.00    -0.269 OA
ATOM      7  C   UNL A   1      35.406  32.081  28.736  1.00  0.00     0.251 C 
ATOM      8  H   UNL A   1      33.583  32.346  28.028  1.00  0.00     0.163 HD
BRANCH   7   9
ATOM      9  C   UNL A   1      36.607  31.237  28.963  1.00  0.00     0.039 A 
ATOM     10  C   UNL A   1      36.613  29.841  29.018  1.00  0.00     0.014 A 
ATOM     11  C   UNL A   1      37.822  31.926  29.121  1.00  0.00     0.014 A 
ATOM     12  C   UNL A   1      37.783  29.154  29.320  1.00  0.00     0.010 A 
ATOM     13  C   UNL A   1      39.001  31.244  29.398  1.00  0.00     0.010 A 
ATOM     14  C   UNL A   1      38.971  29.858  29.525  1.00  0.00    -0.014 A 
BRANCH  14  15
ATOM     15  C   UNL A   1      40.203  29.092  29.683  1.00  0.00     0.031 A 
ATOM     16  C   UNL A   1      40.536  28.754  31.096  1.00  0.00     0.074 A 
ATOM     17  C   UNL A   1      40.903  28.590  28.647  1.00  0.00     0.049 A 
ATOM     18  N   UNL A   1      41.570  29.122  31.782  1.00  0.00    -0.248 NA
ATOM     19  C   UNL A   1      39.531  28.020  31.881  1.00  0.00     0.031 C 
ATOM     20  C   UNL A   1      40.517  28.579  27.234  1.00  0.00     0.029 A 
ATOM     21  N   UNL A   1      42.044  27.842  28.662  1.00  0.00    -0.354 N 
ATOM     22  C   UNL A   1      41.451  28.482  33.018  1.00  0.00     0.074 A 
ATOM     23  C   UNL A   1      40.108  27.973  33.082  1.00  0.00     0.031 C 
ATOM     24  C   UNL A   1      41.258  27.656  26.581  1.00  0.00     0.029 A 
ATOM     25  C   UNL A   1      42.247  27.110  27.495  1.00  0.00     0.049 A 
ATOM     26  H   UNL A   1      42.667  27.823  29.425  1.00  0.00     0.167 HD
ATOM     27  C   UNL A   1      42.536  28.221  33.798  1.00  0.00     0.034 A 
ATOM     28  C   UNL A   1      43.100  26.069  27.328  1.00  0.00     0.034 A 
ATOM     29  C   UNL A   1      43.686  28.973  33.377  1.00  0.00     0.049 A 
ATOM     30  C   UNL A   1      44.107  26.135  28.410  1.00  0.00     0.074 A 
ATOM     31  C   UNL A   1      44.001  30.311  33.256  1.00  0.00     0.029 A 
ATOM     32  N   UNL A   1      44.641  28.292  32.664  1.00  0.00    -0.354 N 
ATOM     33  N   UNL A   1      45.005  27.073  28.503  1.00  0.00    -0.248 NA
ATOM     34  C   UNL A   1      43.861  25.376  29.624  1.00  0.00     0.031 C 
ATOM     35  C   UNL A   1      44.831  30.387  32.100  1.00  0.00     0.029 A 
ATOM     36  C   UNL A   1      45.016  29.088  31.620  1.00  0.00     0.049 A 
ATOM     37  H   UNL A   1      44.990  27.394  32.867  1.00  0.00     0.167 HD
ATOM     38  C   UNL A   1      45.090  27.329  29.864  1.00  0.00     0.074 A 
ATOM     39  C   UNL A   1      44.458  26.179  30.507  1.00  0.00     0.031 C 
ATOM     40  C   UNL A   1      45.396  28.576  30.323  1.00  0.00     0.034 A 
BRANCH  27  41
ATOM     41  C   UNL A   1      42.694  27.021  34.711  1.00  0.00     0.023 A 
ATOM     42  C   UNL A   1      42.444  27.223  36.089  1.00  0.00     0.012 A 
ATOM     43  C   UNL A   1      43.351  25.823  34.350  1.00  0.00     0.148 A 
ATOM     44  C   UNL A   1      42.889  26.319  37.059  1.00  0.00     0.002 A 
ATOM     45  C   UNL A   1      43.722  24.890  35.311  1.00  0.00     0.091 A 
ATOM     46  F   UNL A   1      43.744  25.629  33.088  1.00  0.00    -0.205 F 
ATOM     47  C   UNL A   1      43.527  25.149  36.671  1.00  0.00     0.022 A 
BRANCH  45  48
ATOM     48  S   UNL A   1      44.510  23.336  34.870  1.00  0.00     0.127 S 
ATOM     49  O   UNL A   1      44.743  22.742  36.182  1.00  0.00    -0.237 OA
ATOM     50  O   UNL A   1      43.469  22.692  34.071  1.00  0.00    -0.237 OA
ATOM     51  O   UNL A   1      45.702  23.706  34.112  1.00  0.00    -0.744 OA
ENDBRANCH  45  48
ENDBRANCH  27  41
BRANCH  28  52
ATOM     52  C   UNL A   1      42.971  24.867  26.469  1.00  0.00     0.023 A 
ATOM     53  C   UNL A   1      43.990  24.554  25.546  1.00  0.00     0.012 A 
ATOM     54  C   UNL A   1      42.003  23.878  26.753  1.00  0.00     0.148 A 
ATOM     55  C   UNL A   1      44.060  23.289  24.948  1.00  0.00     0.002 A 
ATOM     56  C   UNL A   1      42.072  22.626  26.150  1.00  0.00     0.091 A 
ATOM     57  F   UNL A   1      41.073  24.133  27.682  1.00  0.00    -0.205 F 
ATOM     58  C   UNL A   1      43.106  22.323  25.256  1.00  0.00     0.022 A 
BRANCH  56  59
ATOM     59  S   UNL A   1      40.893  21.320  26.523  1.00  0.00     0.127 S 
ATOM     60  O   UNL A   1      39.656  21.859  25.955  1.00  0.00    -0.237 OA
ATOM     61  O   UNL A   1      41.458  20.187  25.797  1.00  0.00    -0.237 OA
ATOM     62  O   UNL A   1      40.880  21.199  27.975  1.00  0.00    -0.744 OA
ENDBRANCH  56  59
ENDBRANCH  28  52
BRANCH  40  63
ATOM     63  C   UNL A   1      45.924  29.589  29.340  1.00  0.00     0.023 A 
ATOM     64  C   UNL A   1      47.291  29.684  29.010  1.00  0.00     0.012 A 
ATOM     65  C   UNL A   1      44.990  30.337  28.604  1.00  0.00     0.148 A 
ATOM     66  C   UNL A   1      47.719  30.526  27.981  1.00  0.00     0.002 A 
ATOM     67  C   UNL A   1      45.414  31.133  27.549  1.00  0.00     0.091 A 
ATOM     68  F   UNL A   1      43.693  30.231  28.930  1.00  0.00    -0.205 F 
ATOM     69  C   UNL A   1      46.779  31.239  27.241  1.00  0.00     0.022 A 
BRANCH  67  70
ATOM     70  S   UNL A   1      44.241  31.962  26.475  1.00  0.00     0.127 S 
ATOM     71  O   UNL A   1      45.096  32.421  25.383  1.00  0.00    -0.237 OA
ATOM     72  O   UNL A   1      43.321  30.880  26.120  1.00  0.00    -0.237 OA
ATOM     73  O   UNL A   1      43.634  33.014  27.283  1.00  0.00    -0.744 OA
ENDBRANCH  67  70
ENDBRANCH  40  63
ENDBRANCH  14  15
ENDBRANCH   7   9
ENDBRANCH   4   5
ENDBRANCH   3   4
ENDBRANCH   2   3
ENDBRANCH   1   2
BRANCH   1  74
ATOM     74  C   UNL A   1      32.869  26.499  26.061  1.00  0.00     0.021 C 
BRANCH  74  75
ATOM     75  C   UNL A   1      34.044  25.532  25.905  1.00  0.00     0.116 C 
BRANCH  75  76
ATOM     76  N   UNL A   1      34.289  25.277  24.497  1.00  0.00    -0.354 N 
ATOM     77  C   UNL A   1      34.418  24.063  23.866  1.00  0.00     0.249 C 
ATOM     78  H   UNL A   1      34.373  26.072  23.922  1.00  0.00     0.163 HD
ATOM     79  O   UNL A   1      34.966  24.025  22.761  1.00  0.00    -0.272 OA
BRANCH  77  80
ATOM     80  C   UNL A   1      33.985  22.802  24.644  1.00  0.00     0.223 C 
ATOM     81  C   UNL A   1      34.971  21.684  24.641  1.00  0.00     0.071 A 
ATOM     82  N   UNL A   1      32.626  22.225  24.459  1.00  0.00    -0.325 N 
ATOM     83  N   UNL A   1      36.330  21.750  24.562  1.00  0.00    -0.346 N 
ATOM     84  C   UNL A   1      34.684  20.365  24.896  1.00  0.00     0.066 A 
ATOM     85  C   UNL A   1      32.365  21.079  25.348  1.00  0.00     0.127 C 
ATOM     86  C   UNL A   1      36.801  20.489  24.820  1.00  0.00     0.197 A 
ATOM     87  H   UNL A   1      36.869  22.549  24.359  1.00  0.00     0.167 HD
ATOM     88  N   UNL A   1      35.824  19.625  25.017  1.00  0.00    -0.242 NA
ATOM     89  C   UNL A   1      33.296  19.872  25.055  1.00  0.00     0.080 C 
BRANCH  82  90
ATOM     90  C   UNL A   1      31.873  22.551  23.337  1.00  0.00     0.223 C 
ATOM     91  O   UNL A   1      32.150  22.103  22.221  1.00  0.00    -0.275 OA
BRANCH  90  92
ATOM     92  C   UNL A   1      30.765  23.607  23.415  1.00  0.00     0.100 C 
BRANCH  92  93
ATOM     93  C   UNL A   1      31.089  25.047  23.059  1.00  0.00     0.015 C 
BRANCH  93  94
ATOM     94  C   UNL A   1      30.259  26.162  23.673  1.00  0.00     0.038 C 
BRANCH  94  95
ATOM     95  C   UNL A   1      30.369  27.608  23.226  1.00  0.00    -0.023 A 
ATOM     96  C   UNL A   1      31.606  28.132  22.876  1.00  0.00     0.087 A 
ATOM     97  C   UNL A   1      29.403  28.649  22.889  1.00  0.00     0.003 A 
ATOM     98  N   UNL A   1      31.422  29.293  22.190  1.00  0.00    -0.361 N 
ATOM     99  C   UNL A   1      30.088  29.595  22.116  1.00  0.00     0.046 A 
ATOM    100  C   UNL A   1      28.018  28.903  23.064  1.00  0.00     0.010 A 
ATOM    101  H   UNL A   1      32.144  29.838  21.801  1.00  0.00     0.166 HD
ATOM    102  C   UNL A   1      29.459  30.649  21.435  1.00  0.00     0.026 A 
ATOM    103  C   UNL A   1      27.393  30.022  22.494  1.00  0.00     0.001 A 
ATOM    104  C   UNL A   1      28.101  30.862  21.655  1.00  0.00     0.002 A 
ENDBRANCH  94  95
ENDBRANCH  93  94
ENDBRANCH  92  93
ENDBRANCH  90  92
ENDBRANCH  82  90
ENDBRANCH  77  80
ENDBRANCH  75  76
ENDBRANCH  74  75
ENDBRANCH   1  74
TORSDOF 21
ENDMDL
MODEL 2
REMARK VINA RESULT:     -12.5      3.011      9.206
REMARK SMILES O=C(NCCCCCCNC(=O)[C@@H]1c2[nH]cnc2CCN1C(=O)CCCc1c[nH]c2ccccc12)c1ccc(-c2c3nc(c(-c4cccc(S(=O)(=O)[O-])c4F)c4ccc([nH]4)c(-c4cccc(S(=O)(=O)[O-])c4F)c4nc(c(-c5cccc(S(=O)(=O)[O-])c5F)c5ccc2[nH]5)C=C4)C=C3)cc1
REMARK SMILES IDX 7 1 6 2 5 3 4 4 3 5 1 6 2 7 36 9 37 10 98 11 38 12 97 13
REMARK SMILES IDX 39 14 40 15 41 16 91 17 42 18 96 19 90 20 92 21 43 22 95 23
REMARK SMILES IDX 89 24 88 25 44 27 76 28 56 29 75 30 57 31 60 32 74 33 93 34
REMARK SMILES IDX 58 35 59 36 73 38 94 39 61 40 45 41 46 42 54 43 47 44 49 45
REMARK SMILES IDX 55 46 48 47 50 48 51 49 52 50 53 51 77 52 78 53 86 54 79 55
REMARK SMILES IDX 81 56 87 57 80 58 82 59 83 60 84 61 85 62 62 63 63 64 71 65
REMARK SMILES IDX 64 66 66 67 72 68 65 69 67 70 68 71 69 72 70 73 8 74 9 75
REMARK SMILES IDX 10 76 11 77 12 79 13 80 14 81 21 82 15 83 18 84 20 85 16 86
REMARK SMILES IDX 17 88 19 89 22 90 23 91 24 92 25 93 26 94 27 95 28 96 35 97
REMARK SMILES IDX 29 98 30 99 34 100 31 102 33 103 32 104
REMARK H PARENT 3 8 92 26 60 37 10 78 15 87 29 101
REMARK Flexibility Score: inf
ROOT
ATOM      1  C   UNL A   1      36.523  22.824  24.457  1.00  0.00     0.002 C 
ENDROOT
BRANCH   1   2
ATOM      2  C   UNL A   1      37.616  23.052  25.509  1.00  0.00     0.002 C 
BRANCH   2   3
ATOM      3  C   UNL A   1      38.520  21.843  25.773  1.00  0.00     0.021 C 
BRANCH   3   4
ATOM      4  C   UNL A   1      39.658  22.124  26.753  1.00  0.00     0.116 C 
BRANCH   4   5
ATOM      5  N   UNL A   1      40.961  22.220  26.130  1.00  0.00    -0.352 N 
ATOM      6  O   UNL A   1      43.005  22.843  25.563  1.00  0.00    -0.269 OA
ATOM      7  C   UNL A   1      41.992  23.115  26.213  1.00  0.00     0.251 C 
ATOM      8  H   UNL A   1      41.145  21.478  25.510  1.00  0.00     0.163 HD
BRANCH   7   9
ATOM      9  C   UNL A   1      41.932  24.397  26.962  1.00  0.00     0.039 A 
ATOM     10  C   UNL A   1      42.740  24.734  28.050  1.00  0.00     0.014 A 
ATOM     11  C   UNL A   1      40.982  25.330  26.508  1.00  0.00     0.014 A 
ATOM     12  C   UNL A   1      42.541  25.930  28.729  1.00  0.00     0.010 A 
ATOM     13  C   UNL A   1      40.796  26.539  27.167  1.00  0.00     0.010 A 
ATOM     14  C   UNL A   1      41.558  26.823  28.296  1.00  0.00    -0.014 A 
BRANCH  14  15
ATOM     15  C   UNL A   1      41.490  28.130  28.940  1.00  0.00     0.031 A 
ATOM     16  C   UNL A   1      42.457  29.129  28.402  1.00  0.00     0.074 A 
ATOM     17  C   UNL A   1      40.537  28.471  29.831  1.00  0.00     0.049 A 
ATOM     18  N   UNL A   1      43.429  29.714  29.025  1.00  0.00    -0.248 NA
ATOM     19  C   UNL A   1      42.416  29.415  26.960  1.00  0.00     0.031 C 
ATOM     20  C   UNL A   1      39.352  27.696  30.205  1.00  0.00     0.029 A 
ATOM     21  N   UNL A   1      40.350  29.657  30.478  1.00  0.00    -0.354 N 
ATOM     22  C   UNL A   1      43.984  30.608  28.105  1.00  0.00     0.074 A 
ATOM     23  C   UNL A   1      43.444  30.253  26.821  1.00  0.00     0.031 C 
ATOM     24  C   UNL A   1      38.457  28.519  30.797  1.00  0.00     0.029 A 
ATOM     25  C   UNL A   1      39.054  29.834  30.954  1.00  0.00     0.049 A 
ATOM     26  H   UNL A   1      41.064  30.325  30.599  1.00  0.00     0.167 HD
ATOM     27  C   UNL A   1      44.666  31.716  28.504  1.00  0.00     0.034 A 
ATOM     28  C   UNL A   1      38.489  30.999  31.357  1.00  0.00     0.034 A 
ATOM     29  C   UNL A   1      45.032  31.643  29.892  1.00  0.00     0.049 A 
ATOM     30  C   UNL A   1      39.583  31.947  31.660  1.00  0.00     0.074 A 
ATOM     31  C   UNL A   1      45.799  30.798  30.668  1.00  0.00     0.029 A 
ATOM     32  N   UNL A   1      44.279  32.385  30.767  1.00  0.00    -0.354 N 
ATOM     33  N   UNL A   1      40.405  31.805  32.661  1.00  0.00    -0.248 NA
ATOM     34  C   UNL A   1      40.023  32.849  30.609  1.00  0.00     0.031 C 
ATOM     35  C   UNL A   1      45.124  30.744  31.923  1.00  0.00     0.029 A 
ATOM     36  C   UNL A   1      44.021  31.598  31.853  1.00  0.00     0.049 A 
ATOM     37  H   UNL A   1      43.979  33.314  30.636  1.00  0.00     0.167 HD
ATOM     38  C   UNL A   1      41.631  32.213  32.156  1.00  0.00     0.074 A 
ATOM     39  C   UNL A   1      41.312  32.953  30.936  1.00  0.00     0.031 C 
ATOM     40  C   UNL A   1      42.793  31.662  32.611  1.00  0.00     0.034 A 
BRANCH  27  41
ATOM     41  C   UNL A   1      44.697  33.041  27.770  1.00  0.00     0.023 A 
ATOM     42  C   UNL A   1      45.903  33.389  27.117  1.00  0.00     0.012 A 
ATOM     43  C   UNL A   1      43.743  34.070  27.937  1.00  0.00     0.148 A 
ATOM     44  C   UNL A   1      46.176  34.702  26.721  1.00  0.00     0.002 A 
ATOM     45  C   UNL A   1      43.986  35.358  27.471  1.00  0.00     0.091 A 
ATOM     46  F   UNL A   1      42.644  33.853  28.664  1.00  0.00    -0.205 F 
ATOM     47  C   UNL A   1      45.216  35.688  26.896  1.00  0.00     0.022 A 
BRANCH  45  48
ATOM     48  S   UNL A   1      42.766  36.668  27.626  1.00  0.00     0.127 S 
ATOM     49  O   UNL A   1      43.380  37.734  26.843  1.00  0.00    -0.237 OA
ATOM     50  O   UNL A   1      41.588  36.050  27.020  1.00  0.00    -0.237 OA
ATOM     51  O   UNL A   1      42.639  36.915  29.059  1.00  0.00    -0.744 OA
ENDBRANCH  45  48
ENDBRANCH  27  41
BRANCH  28  52
ATOM     52  C   UNL A   1      37.082  31.455  31.254  1.00  0.00     0.023 A 
ATOM     53  C   UNL A   1      36.389  31.855  32.415  1.00  0.00     0.012 A 
ATOM     54  C   UNL A   1      36.517  31.773  29.999  1.00  0.00     0.148 A 
ATOM     55  C   UNL A   1      35.189  32.573  32.330  1.00  0.00     0.002 A 
ATOM     56  C   UNL A   1      35.320  32.480  29.919  1.00  0.00     0.091 A 
ATOM     57  F   UNL A   1      37.198  31.467  28.888  1.00  0.00    -0.205 F 
ATOM     58  C   UNL A   1      34.660  32.892  31.083  1.00  0.00     0.022 A 
BRANCH  56  59
ATOM     59  S   UNL A   1      34.594  32.953  28.344  1.00  0.00     0.127 S 
ATOM     60  O   UNL A   1      33.595  33.940  28.756  1.00  0.00    -0.237 OA
ATOM     61  O   UNL A   1      35.744  33.505  27.635  1.00  0.00    -0.237 OA
ATOM     62  O   UNL A   1      34.031  31.732  27.783  1.00  0.00    -0.744 OA
ENDBRANCH  56  59
ENDBRANCH  28  52
BRANCH  40  63
ATOM     63  C   UNL A   1      42.743  30.827  33.864  1.00  0.00     0.023 A 
ATOM     64  C   UNL A   1      42.827  31.390  35.154  1.00  0.00     0.012 A 
ATOM     65  C   UNL A   1      42.424  29.465  33.733  1.00  0.00     0.148 A 
ATOM     66  C   UNL A   1      42.620  30.604  36.290  1.00  0.00     0.002 A 
ATOM     67  C   UNL A   1      42.168  28.700  34.862  1.00  0.00     0.091 A 
ATOM     68  F   UNL A   1      42.345  28.947  32.498  1.00  0.00    -0.205 F 
ATOM     69  C   UNL A   1      42.276  29.262  36.144  1.00  0.00     0.022 A 
BRANCH  67  70
ATOM     70  S   UNL A   1      41.586  27.008  34.731  1.00  0.00     0.127 S 
ATOM     71  O   UNL A   1      40.452  27.145  33.820  1.00  0.00    -0.237 OA
ATOM     72  O   UNL A   1      42.748  26.320  34.166  1.00  0.00    -0.237 OA
ATOM     73  O   UNL A   1      41.255  26.593  36.089  1.00  0.00    -0.744 OA
ENDBRANCH  67  70
ENDBRANCH  40  63
ENDBRANCH  14  15
ENDBRANCH   7   9
ENDBRANCH   4   5
ENDBRANCH   3   4
ENDBRANCH   2   3
ENDBRANCH   1   2
BRANCH   1  74
ATOM     74  C   UNL A   1      35.095  22.805  25.017  1.00  0.00     0.021 C 
BRANCH  74  75
ATOM     75  C   UNL A   1      34.905  23.755  26.201  1.00  0.00     0.116 C 
BRANCH  75  76
ATOM     76  N   UNL A   1      33.497  23.837  26.547  1.00  0.00    -0.354 N 
ATOM     77  C   UNL A   1      32.566  24.740  26.095  1.00  0.00     0.249 C 
ATOM     78  H   UNL A   1      33.168  23.161  27.183  1.00  0.00     0.163 HD
ATOM     79  O   UNL A   1      31.526  24.892  26.742  1.00  0.00    -0.272 OA
BRANCH  77  80
ATOM     80  C   UNL A   1      32.941  25.606  24.874  1.00  0.00     0.223 C 
ATOM     81  C   UNL A   1      33.023  27.072  25.136  1.00  0.00     0.071 A 
ATOM     82  N   UNL A   1      32.267  25.404  23.563  1.00  0.00    -0.325 N 
ATOM     83  N   UNL A   1      33.357  27.711  26.293  1.00  0.00    -0.346 N 
ATOM     84  C   UNL A   1      32.940  28.059  24.184  1.00  0.00     0.066 A 
ATOM     85  C   UNL A   1      32.819  26.260  22.498  1.00  0.00     0.127 C 
ATOM     86  C   UNL A   1      33.507  29.037  25.980  1.00  0.00     0.197 A 
ATOM     87  H   UNL A   1      33.468  27.300  27.180  1.00  0.00     0.167 HD
ATOM     88  N   UNL A   1      33.251  29.280  24.709  1.00  0.00    -0.242 NA
ATOM     89  C   UNL A   1      32.595  27.772  22.772  1.00  0.00     0.080 C 
BRANCH  82  90
ATOM     90  C   UNL A   1      31.053  24.731  23.496  1.00  0.00     0.223 C 
ATOM     91  O   UNL A   1      29.978  25.325  23.613  1.00  0.00    -0.275 OA
BRANCH  90  92
ATOM     92  C   UNL A   1      31.008  23.200  23.433  1.00  0.00     0.100 C 
BRANCH  92  93
ATOM     93  C   UNL A   1      32.237  22.442  22.967  1.00  0.00     0.015 C 
BRANCH  93  94
ATOM     94  C   UNL A   1      32.172  20.928  22.859  1.00  0.00     0.038 C 
BRANCH  94  95
ATOM     95  C   UNL A   1      32.644  20.004  23.967  1.00  0.00    -0.023 A 
ATOM     96  C   UNL A   1      32.544  20.407  25.292  1.00  0.00     0.087 A 
ATOM     97  C   UNL A   1      33.075  18.611  24.022  1.00  0.00     0.003 A 
ATOM     98  N   UNL A   1      32.685  19.322  26.101  1.00  0.00    -0.361 N 
ATOM     99  C   UNL A   1      32.935  18.201  25.353  1.00  0.00     0.046 A 
ATOM    100  C   UNL A   1      33.503  17.600  23.122  1.00  0.00     0.010 A 
ATOM    101  H   UNL A   1      32.618  19.339  27.083  1.00  0.00     0.166 HD
ATOM    102  C   UNL A   1      33.063  16.870  25.777  1.00  0.00     0.026 A 
ATOM    103  C   UNL A   1      33.758  16.289  23.550  1.00  0.00     0.001 A 
ATOM    104  C   UNL A   1      33.500  15.920  24.857  1.00  0.00     0.002 A 
ENDBRANCH  94  95
ENDBRANCH  93  94
ENDBRANCH  92  93
ENDBRANCH  90  92
ENDBRANCH  82  90
ENDBRANCH  77  80
ENDBRANCH  75  76
ENDBRANCH  74  75
ENDBRANCH   1  74
TORSDOF 21
ENDMDL
MODEL 3
REMARK VINA RESULT:     -12.4      3.006      8.017
REMARK SMILES O=C(NCCCCCCNC(=O)[C@@H]1c2[nH]cnc2CCN1C(=O)CCCc1c[nH]c2ccccc12)c1ccc(-c2c3nc(c(-c4cccc(S(=O)(=O)[O-])c4F)c4ccc([nH]4)c(-c4cccc(S(=O)(=O)[O-])c4F)c4nc(c(-c5cccc(S(=O)(=O)[O-])c5F)c5ccc2[nH]5)C=C4)C=C3)cc1
REMARK SMILES IDX 7 1 6 2 5 3 4 4 3 5 1 6 2 7 36 9 37 10 98 11 38 12 97 13
REMARK SMILES IDX 39 14 40 15 41 16 91 17 42 18 96 19 90 20 92 21 43 22 95 23
REMARK SMILES IDX 89 24 88 25 44 27 76 28 56 29 75 30 57 31 60 32 74 33 93 34
REMARK SMILES IDX 58 35 59 36 73 38 94 39 61 40 45 41 46 42 54 43 47 44 49 45
REMARK SMILES IDX 55 46 48 47 50 48 51 49 52 50 53 51 77 52 78 53 86 54 79 55
REMARK SMILES IDX 81 56 87 57 80 58 82 59 83 60 84 61 85 62 62 63 63 64 71 65
REMARK SMILES IDX 64 66 66 67 72 68 65 69 67 70 68 71 69 72 70 73 8 74 9 75
REMARK SMILES IDX 10 76 11 77 12 79 13 80 14 81 21 82 15 83 18 84 20 85 16 86
REMARK SMILES IDX 17 88 19 89 22 90 23 91 24 92 25 93 26 94 27 95 28 96 35 97
REMARK SMILES IDX 29 98 30 99 34 100 31 102 33 103 32 104
REMARK H PARENT 3 8 92 26 60 37 10 78 15 87 29 101
REMARK Flexibility Score: inf
ROOT
ATOM      1  C   UNL A   1      34.763  23.544  23.230  1.00  0.00     0.002 C 
ENDROOT
BRANCH   1   2
ATOM      2  C   UNL A   1      36.059  23.242  23.995  1.00  0.00     0.002 C 
BRANCH   2   3
ATOM      3  C   UNL A   1      36.599  21.819  23.813  1.00  0.00     0.021 C 
BRANCH   3   4
ATOM      4  C   UNL A   1      36.717  21.031  25.116  1.00  0.00     0.116 C 
BRANCH   4   5
ATOM      5  N   UNL A   1      37.733  20.000  25.091  1.00  0.00    -0.352 N 
ATOM      6  O   UNL A   1      39.567  18.815  25.435  1.00  0.00    -0.269 OA
ATOM      7  C   UNL A   1      38.991  19.891  25.615  1.00  0.00     0.251 C 
ATOM      8  H   UNL A   1      37.457  19.202  24.584  1.00  0.00     0.163 HD
BRANCH   7   9
ATOM      9  C   UNL A   1      39.712  20.994  26.302  1.00  0.00     0.039 A 
ATOM     10  C   UNL A   1      40.723  20.828  27.251  1.00  0.00     0.014 A 
ATOM     11  C   UNL A   1      39.330  22.298  25.940  1.00  0.00     0.014 A 
ATOM     12  C   UNL A   1      41.272  21.931  27.894  1.00  0.00     0.010 A 
ATOM     13  C   UNL A   1      39.893  23.407  26.560  1.00  0.00     0.010 A 
ATOM     14  C   UNL A   1      40.844  23.218  27.559  1.00  0.00    -0.014 A 
BRANCH  14  15
ATOM     15  C   UNL A   1      41.556  24.350  28.142  1.00  0.00     0.031 A 
ATOM     16  C   UNL A   1      40.730  25.582  28.289  1.00  0.00     0.074 A 
ATOM     17  C   UNL A   1      42.799  24.261  28.655  1.00  0.00     0.049 A 
ATOM     18  N   UNL A   1      40.907  26.733  27.725  1.00  0.00    -0.248 NA
ATOM     19  C   UNL A   1      39.481  25.483  29.060  1.00  0.00     0.031 C 
ATOM     20  C   UNL A   1      43.592  23.047  28.859  1.00  0.00     0.029 A 
ATOM     21  N   UNL A   1      43.556  25.230  29.246  1.00  0.00    -0.354 N 
ATOM     22  C   UNL A   1      39.914  27.566  28.244  1.00  0.00     0.074 A 
ATOM     23  C   UNL A   1      38.973  26.706  28.910  1.00  0.00     0.031 C 
ATOM     24  C   UNL A   1      44.582  23.310  29.742  1.00  0.00     0.029 A 
ATOM     25  C   UNL A   1      44.566  24.727  30.062  1.00  0.00     0.049 A 
ATOM     26  H   UNL A   1      43.405  26.193  29.108  1.00  0.00     0.167 HD
ATOM     27  C   UNL A   1      40.060  28.919  28.284  1.00  0.00     0.034 A 
ATOM     28  C   UNL A   1      45.270  25.412  30.998  1.00  0.00     0.034 A 
ATOM     29  C   UNL A   1      41.135  29.362  27.439  1.00  0.00     0.049 A 
ATOM     30  C   UNL A   1      45.137  26.853  30.694  1.00  0.00     0.074 A 
ATOM     31  C   UNL A   1      41.424  29.295  26.091  1.00  0.00     0.029 A 
ATOM     32  N   UNL A   1      42.309  29.702  28.063  1.00  0.00    -0.354 N 
ATOM     33  N   UNL A   1      45.660  27.421  29.645  1.00  0.00    -0.248 NA
ATOM     34  C   UNL A   1      44.076  27.599  31.351  1.00  0.00     0.031 C 
ATOM     35  C   UNL A   1      42.837  29.128  26.030  1.00  0.00     0.029 A 
ATOM     36  C   UNL A   1      43.330  29.158  27.337  1.00  0.00     0.049 A 
ATOM     37  H   UNL A   1      42.399  30.239  28.884  1.00  0.00     0.167 HD
ATOM     38  C   UNL A   1      44.702  28.340  29.242  1.00  0.00     0.074 A 
ATOM     39  C   UNL A   1      43.811  28.489  30.392  1.00  0.00     0.031 C 
ATOM     40  C   UNL A   1      44.553  28.665  27.926  1.00  0.00     0.034 A 
BRANCH  27  41
ATOM     41  C   UNL A   1      39.497  29.833  29.354  1.00  0.00     0.023 A 
ATOM     42  C   UNL A   1      39.983  29.658  30.672  1.00  0.00     0.012 A 
ATOM     43  C   UNL A   1      38.333  30.620  29.203  1.00  0.00     0.148 A 
ATOM     44  C   UNL A   1      39.307  30.174  31.782  1.00  0.00     0.002 A 
ATOM     45  C   UNL A   1      37.708  31.196  30.303  1.00  0.00     0.091 A 
ATOM     46  F   UNL A   1      37.739  30.714  28.011  1.00  0.00    -0.205 F 
ATOM     47  C   UNL A   1      38.169  30.947  31.598  1.00  0.00     0.022 A 
BRANCH  45  48
ATOM     48  S   UNL A   1      36.258  32.244  30.128  1.00  0.00     0.127 S 
ATOM     49  O   UNL A   1      35.731  32.246  31.488  1.00  0.00    -0.237 OA
ATOM     50  O   UNL A   1      36.854  33.505  29.689  1.00  0.00    -0.237 OA
ATOM     51  O   UNL A   1      35.428  31.594  29.118  1.00  0.00    -0.744 OA
ENDBRANCH  45  48
ENDBRANCH  27  41
BRANCH  28  52
ATOM     52  C   UNL A   1      45.833  24.946  32.288  1.00  0.00     0.023 A 
ATOM     53  C   UNL A   1      47.021  25.523  32.782  1.00  0.00     0.012 A 
ATOM     54  C   UNL A   1      45.063  24.152  33.167  1.00  0.00     0.148 A 
ATOM     55  C   UNL A   1      47.413  25.341  34.114  1.00  0.00     0.002 A 
ATOM     56  C   UNL A   1      45.461  23.968  34.488  1.00  0.00     0.091 A 
ATOM     57  F   UNL A   1      43.895  23.659  32.736  1.00  0.00    -0.205 F 
ATOM     58  C   UNL A   1      46.630  24.571  34.969  1.00  0.00     0.022 A 
BRANCH  56  59
ATOM     59  S   UNL A   1      44.483  23.012  35.655  1.00  0.00     0.127 S 
ATOM     60  O   UNL A   1      43.197  23.710  35.615  1.00  0.00    -0.237 OA
ATOM     61  O   UNL A   1      44.481  21.690  35.036  1.00  0.00    -0.237 OA
ATOM     62  O   UNL A   1      45.178  23.112  36.932  1.00  0.00    -0.744 OA
ENDBRANCH  56  59
ENDBRANCH  28  52
BRANCH  40  63
ATOM     63  C   UNL A   1      45.628  28.237  26.961  1.00  0.00     0.023 A 
ATOM     64  C   UNL A   1      46.795  28.998  26.741  1.00  0.00     0.012 A 
ATOM     65  C   UNL A   1      45.535  26.952  26.402  1.00  0.00     0.148 A 
ATOM     66  C   UNL A   1      47.838  28.493  25.960  1.00  0.00     0.002 A 
ATOM     67  C   UNL A   1      46.595  26.434  25.670  1.00  0.00     0.091 A 
ATOM     68  F   UNL A   1      44.419  26.242  26.625  1.00  0.00    -0.205 F 
ATOM     69  C   UNL A   1      47.744  27.206  25.437  1.00  0.00     0.022 A 
BRANCH  67  70
ATOM     70  S   UNL A   1      46.588  24.736  25.092  1.00  0.00     0.127 S 
ATOM     71  O   UNL A   1      45.218  24.583  24.607  1.00  0.00    -0.237 OA
ATOM     72  O   UNL A   1      47.611  24.758  24.044  1.00  0.00    -0.237 OA
ATOM     73  O   UNL A   1      46.942  23.919  26.247  1.00  0.00    -0.744 OA
ENDBRANCH  67  70
ENDBRANCH  40  63
ENDBRANCH  14  15
ENDBRANCH   7   9
ENDBRANCH   4   5
ENDBRANCH   3   4
ENDBRANCH   2   3
ENDBRANCH   1   2
BRANCH   1  74
ATOM     74  C   UNL A   1      33.988  24.762  23.750  1.00  0.00     0.021 C 
BRANCH  74  75
ATOM     75  C   UNL A   1      33.585  25.733  22.639  1.00  0.00     0.116 C 
BRANCH  75  76
ATOM     76  N   UNL A   1      33.776  27.101  23.087  1.00  0.00    -0.354 N 
ATOM     77  C   UNL A   1      32.849  28.115  23.129  1.00  0.00     0.249 C 
ATOM     78  H   UNL A   1      34.681  27.332  23.398  1.00  0.00     0.163 HD
ATOM     79  O   UNL A   1      33.249  29.280  23.194  1.00  0.00    -0.272 OA
BRANCH  77  80
ATOM     80  C   UNL A   1      31.363  27.734  22.960  1.00  0.00     0.223 C 
ATOM     81  C   UNL A   1      30.481  28.827  22.460  1.00  0.00     0.071 A 
ATOM     82  N   UNL A   1      30.638  27.005  24.035  1.00  0.00    -0.325 N 
ATOM     83  N   UNL A   1      30.800  29.871  21.643  1.00  0.00    -0.346 N 
ATOM     84  C   UNL A   1      29.115  28.879  22.601  1.00  0.00     0.066 A 
ATOM     85  C   UNL A   1      29.258  26.653  23.658  1.00  0.00     0.127 C 
ATOM     86  C   UNL A   1      29.619  30.471  21.291  1.00  0.00     0.197 A 
ATOM     87  H   UNL A   1      31.704  30.141  21.361  1.00  0.00     0.167 HD
ATOM     88  N   UNL A   1      28.580  29.897  21.865  1.00  0.00    -0.242 NA
ATOM     89  C   UNL A   1      28.366  27.902  23.424  1.00  0.00     0.080 C 
BRANCH  82  90
ATOM     90  C   UNL A   1      31.137  26.992  25.332  1.00  0.00     0.223 C 
ATOM     91  O   UNL A   1      31.292  28.033  25.975  1.00  0.00    -0.275 OA
BRANCH  90  92
ATOM     92  C   UNL A   1      31.665  25.695  25.956  1.00  0.00     0.100 C 
BRANCH  92  93
ATOM     93  C   UNL A   1      30.694  24.564  26.245  1.00  0.00     0.015 C 
BRANCH  93  94
ATOM     94  C   UNL A   1      31.146  23.413  27.128  1.00  0.00     0.038 C 
BRANCH  94  95
ATOM     95  C   UNL A   1      32.179  22.395  26.684  1.00  0.00    -0.023 A 
ATOM     96  C   UNL A   1      33.105  21.905  27.597  1.00  0.00     0.087 A 
ATOM     97  C   UNL A   1      32.381  21.605  25.474  1.00  0.00     0.003 A 
ATOM     98  N   UNL A   1      33.680  20.781  27.090  1.00  0.00    -0.361 N 
ATOM     99  C   UNL A   1      33.205  20.531  25.830  1.00  0.00     0.046 A 
ATOM    100  C   UNL A   1      31.929  21.597  24.128  1.00  0.00     0.010 A 
ATOM    101  H   UNL A   1      34.344  20.227  27.562  1.00  0.00     0.166 HD
ATOM    102  C   UNL A   1      33.471  19.439  24.989  1.00  0.00     0.026 A 
ATOM    103  C   UNL A   1      32.287  20.578  23.234  1.00  0.00     0.001 A 
ATOM    104  C   UNL A   1      33.016  19.489  23.674  1.00  0.00     0.002 A 
ENDBRANCH  94  95
ENDBRANCH  93  94
ENDBRANCH  92  93
ENDBRANCH  90  92
ENDBRANCH  82  90
ENDBRANCH  77  80
ENDBRANCH  75  76
ENDBRANCH  74  75
ENDBRANCH   1  74
TORSDOF 21
ENDMDL
