MODEL 1
REMARK VINA RESULT:     -12.8      0.000      0.000
REMARK SMILES Cc1cccc(-c2cc(C(=O)NCCCCCCNC(=O)c3ccc(-c4c5nc(c(-c6cccc(S(=O)(=O)[O-])c6F)c6ccc([nH]6)c(-c6cccc(S(=O)(=O)[O-])c6F)c6nc(c(-c7cccc(S(=O)(=O)[O-])c7F)c7ccc4[nH]7)C=C6)C=C5)cc3)ccn2)c1
REMARK SMILES IDX 16 1 15 2 14 3 13 4 12 5 10 6 11 7 9 9 7 10 8 11 87 12 86 13
REMARK SMILES IDX 85 14 6 15 1 16 2 17 3 18 88 19 4 20 5 21 17 22 18 23 19 24
REMARK SMILES IDX 20 25 21 27 22 28 23 29 84 30 24 31 83 32 25 33 26 34 27 35
REMARK SMILES IDX 77 36 28 37 82 38 76 39 78 40 29 41 81 42 75 43 74 44 30 46
REMARK SMILES IDX 62 47 42 48 61 49 43 50 46 51 60 52 79 53 44 54 45 55 59 57
REMARK SMILES IDX 80 58 47 59 31 60 32 61 40 62 33 63 35 64 41 65 34 66 36 67
REMARK SMILES IDX 37 68 38 69 39 70 63 71 64 72 72 73 65 74 67 75 73 76 66 77
REMARK SMILES IDX 68 78 69 79 70 80 71 81 48 82 49 83 57 84 50 85 52 86 58 87
REMARK SMILES IDX 51 88 53 89 54 90 55 91 56 92
REMARK H PARENT 12 8 19 26 78 45 46 56
REMARK Flexibility Score: inf
ROOT
ATOM      1  C   UNL A   1      36.649  22.399  23.562  1.00  0.00     0.002 C 
ENDROOT
BRANCH   1   2
ATOM      2  C   UNL A   1      35.745  23.523  24.100  1.00  0.00     0.002 C 
BRANCH   2   3
ATOM      3  C   UNL A   1      34.516  23.875  23.246  1.00  0.00     0.021 C 
BRANCH   3   4
ATOM      4  C   UNL A   1      33.965  25.282  23.495  1.00  0.00     0.116 C 
BRANCH   4   5
ATOM      5  N   UNL A   1      32.544  25.238  23.795  1.00  0.00    -0.352 N 
ATOM      6  C   UNL A   1      31.751  24.348  24.470  1.00  0.00     0.251 C 
ATOM      7  O   UNL A   1      30.564  24.643  24.616  1.00  0.00    -0.269 OA
ATOM      8  H   UNL A   1      32.047  26.010  23.438  1.00  0.00     0.163 HD
BRANCH   6   9
ATOM      9  C   UNL A   1      32.251  23.091  25.091  1.00  0.00     0.043 A 
ATOM     10  C   UNL A   1      32.800  20.757  25.129  1.00  0.00     0.071 A 
ATOM     11  C   UNL A   1      32.165  21.832  24.511  1.00  0.00     0.042 A 
ATOM     12  N   UNL A   1      33.392  20.854  26.342  1.00  0.00    -0.256 NA
ATOM     13  C   UNL A   1      33.378  22.064  26.937  1.00  0.00     0.112 A 
ATOM     14  C   UNL A   1      32.848  23.199  26.351  1.00  0.00     0.034 A 
BRANCH  10  15
ATOM     15  C   UNL A   1      32.967  19.486  24.419  1.00  0.00     0.000 A 
ATOM     16  C   UNL A   1      34.895  16.216  24.900  1.00  0.00     0.044 C 
ATOM     17  C   UNL A   1      34.013  17.272  24.303  1.00  0.00    -0.050 A 
ATOM     18  C   UNL A   1      33.417  17.071  23.056  1.00  0.00     0.003 A 
ATOM     19  C   UNL A   1      33.781  18.479  24.975  1.00  0.00     0.013 A 
ATOM     20  C   UNL A   1      32.592  18.050  22.499  1.00  0.00     0.001 A 
ATOM     21  C   UNL A   1      32.361  19.248  23.180  1.00  0.00     0.010 A 
ENDBRANCH  10  15
ENDBRANCH   6   9
ENDBRANCH   4   5
ENDBRANCH   3   4
ENDBRANCH   2   3
ENDBRANCH   1   2
BRANCH   1  22
ATOM     22  C   UNL A   1      37.405  21.587  24.616  1.00  0.00     0.021 C 
BRANCH  22  23
ATOM     23  C   UNL A   1      37.960  22.428  25.758  1.00  0.00     0.116 C 
BRANCH  23  24
ATOM     24  N   UNL A   1      39.375  22.202  26.010  1.00  0.00    -0.352 N 
ATOM     25  C   UNL A   1      40.362  23.111  26.352  1.00  0.00     0.251 C 
ATOM     26  H   UNL A   1      39.675  21.269  25.924  1.00  0.00     0.163 HD
ATOM     27  O   UNL A   1      41.533  22.742  26.372  1.00  0.00    -0.269 OA
BRANCH  25  28
ATOM     28  C   UNL A   1      39.978  24.472  26.791  1.00  0.00     0.039 A 
ATOM     29  C   UNL A   1      40.575  25.570  26.158  1.00  0.00     0.014 A 
ATOM     30  C   UNL A   1      39.214  24.658  27.940  1.00  0.00     0.014 A 
ATOM     31  C   UNL A   1      40.613  26.804  26.807  1.00  0.00     0.010 A 
ATOM     32  C   UNL A   1      39.326  25.848  28.626  1.00  0.00     0.010 A 
ATOM     33  C   UNL A   1      40.081  26.898  28.090  1.00  0.00    -0.014 A 
BRANCH  33  34
ATOM     34  C   UNL A   1      40.296  28.010  29.003  1.00  0.00     0.031 A 
ATOM     35  C   UNL A   1      39.445  29.211  28.919  1.00  0.00     0.074 A 
ATOM     36  C   UNL A   1      41.134  27.852  30.052  1.00  0.00     0.049 A 
ATOM     37  N   UNL A   1      39.669  30.298  29.575  1.00  0.00    -0.248 NA
ATOM     38  C   UNL A   1      38.282  29.292  28.049  1.00  0.00     0.031 C 
ATOM     39  C   UNL A   1      41.183  28.650  31.273  1.00  0.00     0.029 A 
ATOM     40  N   UNL A   1      42.292  27.073  30.112  1.00  0.00    -0.354 N 
ATOM     41  C   UNL A   1      38.559  31.100  29.452  1.00  0.00     0.074 A 
ATOM     42  C   UNL A   1      37.775  30.472  28.416  1.00  0.00     0.031 C 
ATOM     43  C   UNL A   1      42.417  28.565  31.789  1.00  0.00     0.029 A 
ATOM     44  C   UNL A   1      43.229  27.847  30.824  1.00  0.00     0.049 A 
ATOM     45  H   UNL A   1      42.426  26.173  29.735  1.00  0.00     0.167 HD
ATOM     46  C   UNL A   1      38.401  32.123  30.343  1.00  0.00     0.034 A 
ATOM     47  C   UNL A   1      44.398  28.293  30.280  1.00  0.00     0.034 A 
ATOM     48  C   UNL A   1      39.621  32.313  31.150  1.00  0.00     0.049 A 
ATOM     49  C   UNL A   1      44.549  29.811  30.303  1.00  0.00     0.074 A 
ATOM     50  C   UNL A   1      40.000  32.059  32.459  1.00  0.00     0.029 A 
ATOM     51  N   UNL A   1      40.786  32.658  30.485  1.00  0.00    -0.354 N 
ATOM     52  N   UNL A   1      43.706  30.639  30.861  1.00  0.00    -0.248 NA
ATOM     53  C   UNL A   1      45.629  30.520  29.615  1.00  0.00     0.031 C 
ATOM     54  C   UNL A   1      41.412  32.257  32.563  1.00  0.00     0.029 A 
ATOM     55  C   UNL A   1      41.884  32.649  31.324  1.00  0.00     0.049 A 
ATOM     56  H   UNL A   1      40.827  32.883  29.528  1.00  0.00     0.167 HD
ATOM     57  C   UNL A   1      44.007  31.929  30.490  1.00  0.00     0.074 A 
ATOM     58  C   UNL A   1      45.250  31.803  29.749  1.00  0.00     0.031 C 
ATOM     59  C   UNL A   1      43.178  32.990  30.750  1.00  0.00     0.034 A 
BRANCH  46  60
ATOM     60  C   UNL A   1      37.097  32.848  30.652  1.00  0.00     0.023 A 
ATOM     61  C   UNL A   1      36.633  32.808  31.988  1.00  0.00     0.012 A 
ATOM     62  C   UNL A   1      36.240  33.499  29.735  1.00  0.00     0.148 A 
ATOM     63  C   UNL A   1      35.375  33.291  32.370  1.00  0.00     0.002 A 
ATOM     64  C   UNL A   1      34.965  33.941  30.099  1.00  0.00     0.091 A 
ATOM     65  F   UNL A   1      36.657  33.763  28.500  1.00  0.00    -0.205 F 
ATOM     66  C   UNL A   1      34.526  33.834  31.419  1.00  0.00     0.022 A 
BRANCH  64  67
ATOM     67  S   UNL A   1      33.793  34.604  28.899  1.00  0.00     0.127 S 
ATOM     68  O   UNL A   1      32.659  34.966  29.752  1.00  0.00    -0.237 OA
ATOM     69  O   UNL A   1      34.522  35.743  28.343  1.00  0.00    -0.237 OA
ATOM     70  O   UNL A   1      33.511  33.528  27.957  1.00  0.00    -0.744 OA
ENDBRANCH  64  67
ENDBRANCH  46  60
BRANCH  47  71
ATOM     71  C   UNL A   1      44.954  27.368  29.247  1.00  0.00     0.023 A 
ATOM     72  C   UNL A   1      45.395  26.100  29.702  1.00  0.00     0.012 A 
ATOM     73  C   UNL A   1      44.719  27.544  27.872  1.00  0.00     0.148 A 
ATOM     74  C   UNL A   1      45.472  25.008  28.836  1.00  0.00     0.002 A 
ATOM     75  C   UNL A   1      44.817  26.451  27.010  1.00  0.00     0.091 A 
ATOM     76  F   UNL A   1      44.326  28.747  27.437  1.00  0.00    -0.205 F 
ATOM     77  C   UNL A   1      45.153  25.177  27.496  1.00  0.00     0.022 A 
BRANCH  75  78
ATOM     78  S   UNL A   1      44.401  26.585  25.266  1.00  0.00     0.127 S 
ATOM     79  O   UNL A   1      45.719  26.769  24.667  1.00  0.00    -0.237 OA
ATOM     80  O   UNL A   1      43.773  25.292  24.995  1.00  0.00    -0.237 OA
ATOM     81  O   UNL A   1      43.490  27.717  25.187  1.00  0.00    -0.744 OA
ENDBRANCH  75  78
ENDBRANCH  47  71
BRANCH  59  82
ATOM     82  C   UNL A   1      43.485  34.446  30.407  1.00  0.00     0.023 A 
ATOM     83  C   UNL A   1      43.606  35.423  31.413  1.00  0.00     0.012 A 
ATOM     84  C   UNL A   1      43.546  34.915  29.063  1.00  0.00     0.148 A 
ATOM     85  C   UNL A   1      43.875  36.766  31.115  1.00  0.00     0.002 A 
ATOM     86  C   UNL A   1      43.768  36.258  28.768  1.00  0.00     0.091 A 
ATOM     87  F   UNL A   1      43.374  34.064  28.049  1.00  0.00    -0.205 F 
ATOM     88  C   UNL A   1      43.962  37.183  29.792  1.00  0.00     0.022 A 
BRANCH  86  89
ATOM     89  S   UNL A   1      43.772  36.892  27.082  1.00  0.00     0.127 S 
ATOM     90  O   UNL A   1      44.815  36.072  26.464  1.00  0.00    -0.237 OA
ATOM     91  O   UNL A   1      42.411  36.581  26.640  1.00  0.00    -0.237 OA
ATOM     92  O   UNL A   1      44.073  38.312  27.177  1.00  0.00    -0.744 OA
ENDBRANCH  86  89
ENDBRANCH  59  82
ENDBRANCH  33  34
ENDBRANCH  25  28
ENDBRANCH  23  24
ENDBRANCH  22  23
ENDBRANCH   1  22
TORSDOF 17
ENDMDL
MODEL 2
REMARK VINA RESULT:     -12.8      2.045      4.061
REMARK SMILES Cc1cccc(-c2cc(C(=O)NCCCCCCNC(=O)c3ccc(-c4c5nc(c(-c6cccc(S(=O)(=O)[O-])c6F)c6ccc([nH]6)c(-c6cccc(S(=O)(=O)[O-])c6F)c6nc(c(-c7cccc(S(=O)(=O)[O-])c7F)c7ccc4[nH]7)C=C6)C=C5)cc3)ccn2)c1
REMARK SMILES IDX 16 1 15 2 14 3 13 4 12 5 10 6 11 7 9 9 7 10 8 11 87 12 86 13
REMARK SMILES IDX 85 14 6 15 1 16 2 17 3 18 88 19 4 20 5 21 17 22 18 23 19 24
REMARK SMILES IDX 20 25 21 27 22 28 23 29 84 30 24 31 83 32 25 33 26 34 27 35
REMARK SMILES IDX 77 36 28 37 82 38 76 39 78 40 29 41 81 42 75 43 74 44 30 46
REMARK SMILES IDX 62 47 42 48 61 49 43 50 46 51 60 52 79 53 44 54 45 55 59 57
REMARK SMILES IDX 80 58 47 59 31 60 32 61 40 62 33 63 35 64 41 65 34 66 36 67
REMARK SMILES IDX 37 68 38 69 39 70 63 71 64 72 72 73 65 74 67 75 73 76 66 77
REMARK SMILES IDX 68 78 69 79 70 80 71 81 48 82 49 83 57 84 50 85 52 86 58 87
REMARK SMILES IDX 51 88 53 89 54 90 55 91 56 92
REMARK H PARENT 12 8 19 26 78 45 46 56
REMARK Flexibility Score: inf
ROOT
ATOM      1  C   UNL A   1      35.864  21.161  25.482  1.00  0.00     0.002 C 
ENDROOT
BRANCH   1   2
ATOM      2  C   UNL A   1      34.775  21.693  24.533  1.00  0.00     0.002 C 
BRANCH   2   3
ATOM      3  C   UNL A   1      34.928  23.152  24.071  1.00  0.00     0.021 C 
BRANCH   3   4
ATOM      4  C   UNL A   1      34.902  24.174  25.210  1.00  0.00     0.116 C 
BRANCH   4   5
ATOM      5  N   UNL A   1      33.671  24.071  25.973  1.00  0.00    -0.352 N 
ATOM      6  C   UNL A   1      32.605  24.911  26.160  1.00  0.00     0.251 C 
ATOM      7  O   UNL A   1      31.659  24.489  26.826  1.00  0.00    -0.269 OA
ATOM      8  H   UNL A   1      33.584  23.218  26.458  1.00  0.00     0.163 HD
BRANCH   6   9
ATOM      9  C   UNL A   1      32.496  26.266  25.552  1.00  0.00     0.043 A 
ATOM     10  C   UNL A   1      31.371  28.046  24.404  1.00  0.00     0.071 A 
ATOM     11  C   UNL A   1      31.419  26.709  24.795  1.00  0.00     0.042 A 
ATOM     12  N   UNL A   1      32.391  28.909  24.620  1.00  0.00    -0.256 NA
ATOM     13  C   UNL A   1      33.472  28.433  25.270  1.00  0.00     0.112 A 
ATOM     14  C   UNL A   1      33.561  27.146  25.768  1.00  0.00     0.034 A 
BRANCH  10  15
ATOM     15  C   UNL A   1      30.139  28.613  23.850  1.00  0.00     0.000 A 
ATOM     16  C   UNL A   1      28.614  32.083  23.327  1.00  0.00     0.044 C 
ATOM     17  C   UNL A   1      28.786  30.594  23.345  1.00  0.00    -0.050 A 
ATOM     18  C   UNL A   1      27.756  29.760  22.901  1.00  0.00     0.003 A 
ATOM     19  C   UNL A   1      29.970  30.011  23.814  1.00  0.00     0.013 A 
ATOM     20  C   UNL A   1      27.914  28.373  22.911  1.00  0.00     0.001 A 
ATOM     21  C   UNL A   1      29.102  27.802  23.376  1.00  0.00     0.010 A 
ENDBRANCH  10  15
ENDBRANCH   6   9
ENDBRANCH   4   5
ENDBRANCH   3   4
ENDBRANCH   2   3
ENDBRANCH   1   2
BRANCH   1  22
ATOM     22  C   UNL A   1      37.309  21.352  25.016  1.00  0.00     0.021 C 
BRANCH  22  23
ATOM     23  C   UNL A   1      38.017  22.528  25.676  1.00  0.00     0.116 C 
BRANCH  23  24
ATOM     24  N   UNL A   1      39.416  22.267  25.980  1.00  0.00    -0.352 N 
ATOM     25  C   UNL A   1      40.413  23.152  26.354  1.00  0.00     0.251 C 
ATOM     26  H   UNL A   1      39.693  21.325  25.909  1.00  0.00     0.163 HD
ATOM     27  O   UNL A   1      41.572  22.752  26.419  1.00  0.00    -0.269 OA
BRANCH  25  28
ATOM     28  C   UNL A   1      40.049  24.524  26.774  1.00  0.00     0.039 A 
ATOM     29  C   UNL A   1      40.712  25.602  26.173  1.00  0.00     0.014 A 
ATOM     30  C   UNL A   1      39.234  24.734  27.882  1.00  0.00     0.014 A 
ATOM     31  C   UNL A   1      40.755  26.835  26.823  1.00  0.00     0.010 A 
ATOM     32  C   UNL A   1      39.347  25.921  28.574  1.00  0.00     0.010 A 
ATOM     33  C   UNL A   1      40.161  26.947  28.078  1.00  0.00    -0.014 A 
BRANCH  33  34
ATOM     34  C   UNL A   1      40.363  28.053  29.001  1.00  0.00     0.031 A 
ATOM     35  C   UNL A   1      39.508  29.251  28.919  1.00  0.00     0.074 A 
ATOM     36  C   UNL A   1      41.192  27.889  30.056  1.00  0.00     0.049 A 
ATOM     37  N   UNL A   1      39.722  30.333  29.586  1.00  0.00    -0.248 NA
ATOM     38  C   UNL A   1      38.353  29.334  28.039  1.00  0.00     0.031 C 
ATOM     39  C   UNL A   1      41.227  28.678  31.285  1.00  0.00     0.029 A 
ATOM     40  N   UNL A   1      42.352  27.114  30.121  1.00  0.00    -0.354 N 
ATOM     41  C   UNL A   1      38.610  31.132  29.459  1.00  0.00     0.074 A 
ATOM     42  C   UNL A   1      37.838  30.509  28.410  1.00  0.00     0.031 C 
ATOM     43  C   UNL A   1      42.456  28.594  31.811  1.00  0.00     0.029 A 
ATOM     44  C   UNL A   1      43.280  27.887  30.847  1.00  0.00     0.049 A 
ATOM     45  H   UNL A   1      42.493  26.218  29.739  1.00  0.00     0.167 HD
ATOM     46  C   UNL A   1      38.439  32.147  30.356  1.00  0.00     0.034 A 
ATOM     47  C   UNL A   1      44.452  28.342  30.318  1.00  0.00     0.034 A 
ATOM     48  C   UNL A   1      39.651  32.336  31.176  1.00  0.00     0.049 A 
ATOM     49  C   UNL A   1      44.596  29.860  30.354  1.00  0.00     0.074 A 
ATOM     50  C   UNL A   1      40.019  32.073  32.486  1.00  0.00     0.029 A 
ATOM     51  N   UNL A   1      40.821  32.691  30.524  1.00  0.00    -0.354 N 
ATOM     52  N   UNL A   1      43.745  30.680  30.911  1.00  0.00    -0.248 NA
ATOM     53  C   UNL A   1      45.680  30.578  29.681  1.00  0.00     0.031 C 
ATOM     54  C   UNL A   1      41.430  32.276  32.604  1.00  0.00     0.029 A 
ATOM     55  C   UNL A   1      41.911  32.679  31.373  1.00  0.00     0.049 A 
ATOM     56  H   UNL A   1      40.869  32.924  29.569  1.00  0.00     0.167 HD
ATOM     57  C   UNL A   1      44.044  31.975  30.552  1.00  0.00     0.074 A 
ATOM     58  C   UNL A   1      45.294  31.859  29.822  1.00  0.00     0.031 C 
ATOM     59  C   UNL A   1      43.209  33.031  30.813  1.00  0.00     0.034 A 
BRANCH  46  60
ATOM     60  C   UNL A   1      37.129  32.865  30.659  1.00  0.00     0.023 A 
ATOM     61  C   UNL A   1      36.666  32.832  31.995  1.00  0.00     0.012 A 
ATOM     62  C   UNL A   1      36.268  33.501  29.735  1.00  0.00     0.148 A 
ATOM     63  C   UNL A   1      35.403  33.309  32.372  1.00  0.00     0.002 A 
ATOM     64  C   UNL A   1      34.989  33.937  30.096  1.00  0.00     0.091 A 
ATOM     65  F   UNL A   1      36.682  33.758  28.499  1.00  0.00    -0.205 F 
ATOM     66  C   UNL A   1      34.551  33.837  31.416  1.00  0.00     0.022 A 
BRANCH  64  67
ATOM     67  S   UNL A   1      33.812  34.580  28.890  1.00  0.00     0.127 S 
ATOM     68  O   UNL A   1      33.622  33.426  28.008  1.00  0.00    -0.237 OA
ATOM     69  O   UNL A   1      32.656  34.906  29.722  1.00  0.00    -0.237 OA
ATOM     70  O   UNL A   1      34.457  35.720  28.249  1.00  0.00    -0.744 OA
ENDBRANCH  64  67
ENDBRANCH  46  60
BRANCH  47  71
ATOM     71  C   UNL A   1      45.021  27.426  29.283  1.00  0.00     0.023 A 
ATOM     72  C   UNL A   1      45.483  26.165  29.736  1.00  0.00     0.012 A 
ATOM     73  C   UNL A   1      44.782  27.601  27.909  1.00  0.00     0.148 A 
ATOM     74  C   UNL A   1      45.575  25.076  28.868  1.00  0.00     0.002 A 
ATOM     75  C   UNL A   1      44.895  26.511  27.045  1.00  0.00     0.091 A 
ATOM     76  F   UNL A   1      44.369  28.799  27.476  1.00  0.00    -0.205 F 
ATOM     77  C   UNL A   1      45.251  25.242  27.528  1.00  0.00     0.022 A 
BRANCH  75  78
ATOM     78  S   UNL A   1      44.475  26.640  25.301  1.00  0.00     0.127 S 
ATOM     79  O   UNL A   1      43.704  27.879  25.280  1.00  0.00    -0.237 OA
ATOM     80  O   UNL A   1      45.791  26.720  24.668  1.00  0.00    -0.237 OA
ATOM     81  O   UNL A   1      43.744  25.418  25.004  1.00  0.00    -0.744 OA
ENDBRANCH  75  78
ENDBRANCH  47  71
BRANCH  59  82
ATOM     82  C   UNL A   1      43.513  34.489  30.484  1.00  0.00     0.023 A 
ATOM     83  C   UNL A   1      43.646  35.455  31.501  1.00  0.00     0.012 A 
ATOM     84  C   UNL A   1      43.559  34.975  29.146  1.00  0.00     0.148 A 
ATOM     85  C   UNL A   1      43.913  36.801  31.215  1.00  0.00     0.002 A 
ATOM     86  C   UNL A   1      43.778  36.321  28.864  1.00  0.00     0.091 A 
ATOM     87  F   UNL A   1      43.376  34.137  28.123  1.00  0.00    -0.205 F 
ATOM     88  C   UNL A   1      43.985  37.234  29.897  1.00  0.00     0.022 A 
BRANCH  86  89
ATOM     89  S   UNL A   1      43.765  36.976  27.185  1.00  0.00     0.127 S 
ATOM     90  O   UNL A   1      42.453  36.534  26.711  1.00  0.00    -0.237 OA
ATOM     91  O   UNL A   1      43.873  38.416  27.424  1.00  0.00    -0.237 OA
ATOM     92  O   UNL A   1      44.905  36.383  26.503  1.00  0.00    -0.744 OA
ENDBRANCH  86  89
ENDBRANCH  59  82
ENDBRANCH  33  34
ENDBRANCH  25  28
ENDBRANCH  23  24
ENDBRANCH  22  23
ENDBRANCH   1  22
TORSDOF 17
ENDMDL
MODEL 3
REMARK VINA RESULT:     -12.7      1.622      3.797
REMARK SMILES Cc1cccc(-c2cc(C(=O)NCCCCCCNC(=O)c3ccc(-c4c5nc(c(-c6cccc(S(=O)(=O)[O-])c6F)c6ccc([nH]6)c(-c6cccc(S(=O)(=O)[O-])c6F)c6nc(c(-c7cccc(S(=O)(=O)[O-])c7F)c7ccc4[nH]7)C=C6)C=C5)cc3)ccn2)c1
REMARK SMILES IDX 16 1 15 2 14 3 13 4 12 5 10 6 11 7 9 9 7 10 8 11 87 12 86 13
REMARK SMILES IDX 85 14 6 15 1 16 2 17 3 18 88 19 4 20 5 21 17 22 18 23 19 24
REMARK SMILES IDX 20 25 21 27 22 28 23 29 84 30 24 31 83 32 25 33 26 34 27 35
REMARK SMILES IDX 77 36 28 37 82 38 76 39 78 40 29 41 81 42 75 43 74 44 30 46
REMARK SMILES IDX 62 47 42 48 61 49 43 50 46 51 60 52 79 53 44 54 45 55 59 57
REMARK SMILES IDX 80 58 47 59 31 60 32 61 40 62 33 63 35 64 41 65 34 66 36 67
REMARK SMILES IDX 37 68 38 69 39 70 63 71 64 72 72 73 65 74 67 75 73 76 66 77
REMARK SMILES IDX 68 78 69 79 70 80 71 81 48 82 49 83 57 84 50 85 52 86 58 87
REMARK SMILES IDX 51 88 53 89 54 90 55 91 56 92
REMARK H PARENT 12 8 19 26 78 45 46 56
REMARK Flexibility Score: inf
ROOT
ATOM      1  C   UNL A   1      35.818  21.395  24.649  1.00  0.00     0.002 C 
ENDROOT
BRANCH   1   2
ATOM      2  C   UNL A   1      34.727  22.273  24.012  1.00  0.00     0.002 C 
BRANCH   2   3
ATOM      3  C   UNL A   1      33.285  21.748  24.112  1.00  0.00     0.021 C 
BRANCH   3   4
ATOM      4  C   UNL A   1      32.435  22.018  22.868  1.00  0.00     0.116 C 
BRANCH   4   5
ATOM      5  N   UNL A   1      32.993  23.103  22.081  1.00  0.00    -0.352 N 
ATOM      6  C   UNL A   1      32.921  24.469  22.175  1.00  0.00     0.251 C 
ATOM      7  O   UNL A   1      33.585  25.128  21.374  1.00  0.00    -0.269 OA
ATOM      8  H   UNL A   1      33.538  22.794  21.322  1.00  0.00     0.163 HD
BRANCH   6   9
ATOM      9  C   UNL A   1      32.150  25.192  23.222  1.00  0.00     0.043 A 
ATOM     10  C   UNL A   1      31.853  26.791  24.985  1.00  0.00     0.071 A 
ATOM     11  C   UNL A   1      32.702  26.066  24.151  1.00  0.00     0.042 A 
ATOM     12  N   UNL A   1      30.516  26.591  25.024  1.00  0.00    -0.256 NA
ATOM     13  C   UNL A   1      30.009  25.665  24.184  1.00  0.00     0.112 A 
ATOM     14  C   UNL A   1      30.770  24.968  23.264  1.00  0.00     0.034 A 
BRANCH  10  15
ATOM     15  C   UNL A   1      32.371  27.911  25.776  1.00  0.00     0.000 A 
ATOM     16  C   UNL A   1      31.430  31.557  26.458  1.00  0.00     0.044 C 
ATOM     17  C   UNL A   1      32.169  30.252  26.476  1.00  0.00    -0.050 A 
ATOM     18  C   UNL A   1      33.368  30.130  27.182  1.00  0.00     0.003 A 
ATOM     19  C   UNL A   1      31.680  29.139  25.780  1.00  0.00     0.013 A 
ATOM     20  C   UNL A   1      34.056  28.915  27.205  1.00  0.00     0.001 A 
ATOM     21  C   UNL A   1      33.557  27.809  26.512  1.00  0.00     0.010 A 
ENDBRANCH  10  15
ENDBRANCH   6   9
ENDBRANCH   4   5
ENDBRANCH   3   4
ENDBRANCH   2   3
ENDBRANCH   1   2
BRANCH   1  22
ATOM     22  C   UNL A   1      36.643  22.051  25.758  1.00  0.00     0.021 C 
BRANCH  22  23
ATOM     23  C   UNL A   1      37.877  22.787  25.252  1.00  0.00     0.116 C 
BRANCH  23  24
ATOM     24  N   UNL A   1      39.111  22.359  25.892  1.00  0.00    -0.352 N 
ATOM     25  C   UNL A   1      40.067  23.114  26.551  1.00  0.00     0.251 C 
ATOM     26  H   UNL A   1      39.294  21.393  25.851  1.00  0.00     0.163 HD
ATOM     27  O   UNL A   1      41.118  22.580  26.892  1.00  0.00    -0.269 OA
BRANCH  25  28
ATOM     28  C   UNL A   1      39.757  24.512  26.927  1.00  0.00     0.039 A 
ATOM     29  C   UNL A   1      40.483  25.543  26.315  1.00  0.00     0.014 A 
ATOM     30  C   UNL A   1      38.927  24.789  28.009  1.00  0.00     0.014 A 
ATOM     31  C   UNL A   1      40.568  26.789  26.936  1.00  0.00     0.010 A 
ATOM     32  C   UNL A   1      39.079  25.987  28.673  1.00  0.00     0.010 A 
ATOM     33  C   UNL A   1      39.951  26.961  28.172  1.00  0.00    -0.014 A 
BRANCH  33  34
ATOM     34  C   UNL A   1      40.182  28.081  29.071  1.00  0.00     0.031 A 
ATOM     35  C   UNL A   1      39.357  29.297  28.967  1.00  0.00     0.074 A 
ATOM     36  C   UNL A   1      41.010  27.919  30.128  1.00  0.00     0.049 A 
ATOM     37  N   UNL A   1      39.599  30.387  29.610  1.00  0.00    -0.248 NA
ATOM     38  C   UNL A   1      38.201  29.390  28.088  1.00  0.00     0.031 C 
ATOM     39  C   UNL A   1      41.068  28.731  31.339  1.00  0.00     0.029 A 
ATOM     40  N   UNL A   1      42.152  27.117  30.206  1.00  0.00    -0.354 N 
ATOM     41  C   UNL A   1      38.506  31.211  29.469  1.00  0.00     0.074 A 
ATOM     42  C   UNL A   1      37.716  30.585  28.436  1.00  0.00     0.031 C 
ATOM     43  C   UNL A   1      42.296  28.628  31.865  1.00  0.00     0.029 A 
ATOM     44  C   UNL A   1      43.100  27.881  30.914  1.00  0.00     0.049 A 
ATOM     45  H   UNL A   1      42.270  26.210  29.842  1.00  0.00     0.167 HD
ATOM     46  C   UNL A   1      38.363  32.248  30.346  1.00  0.00     0.034 A 
ATOM     47  C   UNL A   1      44.281  28.297  30.372  1.00  0.00     0.034 A 
ATOM     48  C   UNL A   1      39.582  32.423  31.159  1.00  0.00     0.049 A 
ATOM     49  C   UNL A   1      44.463  29.811  30.376  1.00  0.00     0.074 A 
ATOM     50  C   UNL A   1      39.947  32.179  32.473  1.00  0.00     0.029 A 
ATOM     51  N   UNL A   1      40.758  32.736  30.497  1.00  0.00    -0.354 N 
ATOM     52  N   UNL A   1      43.633  30.664  30.918  1.00  0.00    -0.248 NA
ATOM     53  C   UNL A   1      45.561  30.489  29.686  1.00  0.00     0.031 C 
ATOM     54  C   UNL A   1      41.362  32.350  32.584  1.00  0.00     0.029 A 
ATOM     55  C   UNL A   1      41.850  32.716  31.344  1.00  0.00     0.049 A 
ATOM     56  H   UNL A   1      40.809  32.948  29.537  1.00  0.00     0.167 HD
ATOM     57  C   UNL A   1      43.963  31.942  30.533  1.00  0.00     0.074 A 
ATOM     58  C   UNL A   1      45.208  31.781  29.801  1.00  0.00     0.031 C 
ATOM     59  C   UNL A   1      43.155  33.024  30.773  1.00  0.00     0.034 A 
BRANCH  46  60
ATOM     60  C   UNL A   1      37.072  33.003  30.637  1.00  0.00     0.023 A 
ATOM     61  C   UNL A   1      36.626  33.032  31.980  1.00  0.00     0.012 A 
ATOM     62  C   UNL A   1      36.211  33.621  29.701  1.00  0.00     0.148 A 
ATOM     63  C   UNL A   1      35.379  33.549  32.354  1.00  0.00     0.002 A 
ATOM     64  C   UNL A   1      34.946  34.096  30.060  1.00  0.00     0.091 A 
ATOM     65  F   UNL A   1      36.614  33.820  28.450  1.00  0.00    -0.205 F 
ATOM     66  C   UNL A   1      34.524  34.056  31.389  1.00  0.00     0.022 A 
BRANCH  64  67
ATOM     67  S   UNL A   1      33.766  34.715  28.845  1.00  0.00     0.127 S 
ATOM     68  O   UNL A   1      32.580  34.956  29.671  1.00  0.00    -0.237 OA
ATOM     69  O   UNL A   1      34.423  35.927  28.358  1.00  0.00    -0.237 OA
ATOM     70  O   UNL A   1      33.598  33.659  27.855  1.00  0.00    -0.744 OA
ENDBRANCH  64  67
ENDBRANCH  46  60
BRANCH  47  71
ATOM     71  C   UNL A   1      44.825  27.347  29.355  1.00  0.00     0.023 A 
ATOM     72  C   UNL A   1      45.178  26.054  29.818  1.00  0.00     0.012 A 
ATOM     73  C   UNL A   1      44.653  27.542  27.973  1.00  0.00     0.148 A 
ATOM     74  C   UNL A   1      45.228  24.964  28.948  1.00  0.00     0.002 A 
ATOM     75  C   UNL A   1      44.723  26.450  27.108  1.00  0.00     0.091 A 
ATOM     76  F   UNL A   1      44.344  28.767  27.532  1.00  0.00    -0.205 F 
ATOM     77  C   UNL A   1      44.970  25.157  27.598  1.00  0.00     0.022 A 
BRANCH  75  78
ATOM     78  S   UNL A   1      44.383  26.614  25.350  1.00  0.00     0.127 S 
ATOM     79  O   UNL A   1      44.123  25.229  24.974  1.00  0.00    -0.237 OA
ATOM     80  O   UNL A   1      43.211  27.489  25.340  1.00  0.00    -0.237 OA
ATOM     81  O   UNL A   1      45.584  27.221  24.795  1.00  0.00    -0.744 OA
ENDBRANCH  75  78
ENDBRANCH  47  71
BRANCH  59  82
ATOM     82  C   UNL A   1      43.493  34.468  30.414  1.00  0.00     0.023 A 
ATOM     83  C   UNL A   1      43.635  35.454  31.408  1.00  0.00     0.012 A 
ATOM     84  C   UNL A   1      43.564  34.920  29.065  1.00  0.00     0.148 A 
ATOM     85  C   UNL A   1      43.934  36.787  31.095  1.00  0.00     0.002 A 
ATOM     86  C   UNL A   1      43.815  36.254  28.754  1.00  0.00     0.091 A 
ATOM     87  F   UNL A   1      43.374  34.062  28.060  1.00  0.00    -0.205 F 
ATOM     88  C   UNL A   1      44.029  37.187  29.768  1.00  0.00     0.022 A 
BRANCH  86  89
ATOM     89  S   UNL A   1      43.833  36.869  27.060  1.00  0.00     0.127 S 
ATOM     90  O   UNL A   1      44.877  36.038  26.460  1.00  0.00    -0.237 OA
ATOM     91  O   UNL A   1      42.475  36.557  26.613  1.00  0.00    -0.237 OA
ATOM     92  O   UNL A   1      44.138  38.289  27.141  1.00  0.00    -0.744 OA
ENDBRANCH  86  89
ENDBRANCH  59  82
ENDBRANCH  33  34
ENDBRANCH  25  28
ENDBRANCH  23  24
ENDBRANCH  22  23
ENDBRANCH   1  22
TORSDOF 17
ENDMDL
