MODEL 1
REMARK VINA RESULT:      -9.8      0.000      0.000
REMARK SMILES CC1(C)[C@H](C#N)C(SCC(=O)NCCCCCCNC(=O)c2ccc(-c3c4nc(c(-c5cccc(S(=O)(=O)[O-])c5F)c5ccc([nH]5)c(-c5cccc(S(=O)(=O)[O-])c5F)c5nc(c(-c6cccc(S(=O)(=O)[O-])c6F)c6ccc3[nH]6)C=C5)C=C4)cc2)=NC(=O)[C@@H]1C#N
REMARK SMILES IDX 15 1 14 2 13 3 12 4 10 5 11 6 9 8 8 9 7 10 1 11 2 12 3 13
REMARK SMILES IDX 4 14 88 15 86 16 85 17 87 18 5 19 6 20 89 21 90 22 16 23
REMARK SMILES IDX 17 24 18 25 19 26 20 27 21 29 22 30 23 31 84 32 24 33 83 34
REMARK SMILES IDX 25 35 26 36 27 37 77 38 28 39 82 40 76 41 78 42 29 43 81 44
REMARK SMILES IDX 75 45 74 46 30 48 62 49 42 50 61 51 43 52 46 53 60 54 79 55
REMARK SMILES IDX 44 56 45 57 59 59 80 60 47 61 31 62 32 63 40 64 33 65 35 66
REMARK SMILES IDX 41 67 34 68 36 69 37 70 38 71 39 72 63 73 64 74 72 75 65 76
REMARK SMILES IDX 67 77 73 78 66 79 68 80 69 81 70 82 71 83 48 84 49 85 57 86
REMARK SMILES IDX 50 87 52 88 58 89 51 90 53 91 54 92 55 93 56 94
REMARK H PARENT 12 7 19 28 78 47 46 58
REMARK Flexibility Score: inf
ROOT
ATOM      1  C   UNL A   1      35.590  33.352  28.875  1.00  0.00     0.002 C 
ENDROOT
BRANCH   1   2
ATOM      2  C   UNL A   1      35.096  31.899  28.937  1.00  0.00     0.021 C 
BRANCH   2   3
ATOM      3  C   UNL A   1      34.534  31.395  27.605  1.00  0.00     0.116 C 
BRANCH   3   4
ATOM      4  N   UNL A   1      33.335  30.608  27.829  1.00  0.00    -0.355 N 
ATOM      5  C   UNL A   1      32.762  29.636  27.066  1.00  0.00     0.230 C 
ATOM      6  O   UNL A   1      31.715  29.132  27.481  1.00  0.00    -0.274 OA
ATOM      7  H   UNL A   1      32.860  30.810  28.667  1.00  0.00     0.163 HD
BRANCH   5   8
ATOM      8  C   UNL A   1      33.448  29.118  25.820  1.00  0.00     0.176 C 
BRANCH   8   9
ATOM      9  S   UNL A   1      32.322  28.584  24.515  1.00  0.00    -0.099 SA
BRANCH   9  10
ATOM     10  C   UNL A   1      32.913  26.989  24.060  1.00  0.00     0.095 C 
ATOM     11  C   UNL A   1      35.216  24.525  25.380  1.00  0.00     0.015 C 
ATOM     12  C   UNL A   1      33.757  24.650  24.866  1.00  0.00     0.012 C 
ATOM     13  C   UNL A   1      33.000  23.522  25.666  1.00  0.00     0.015 C 
ATOM     14  C   UNL A   1      33.257  26.107  25.233  1.00  0.00     0.156 C 
ATOM     15  C   UNL A   1      33.746  24.342  23.330  1.00  0.00     0.191 C 
ATOM     16  C   UNL A   1      33.398  25.462  22.368  1.00  0.00     0.264 C 
ATOM     17  N   UNL A   1      32.975  26.678  22.819  1.00  0.00    -0.209 NA
ATOM     18  O   UNL A   1      33.506  25.257  21.161  1.00  0.00    -0.271 OA
BRANCH  14  19
ATOM     19  C   UNL A   1      31.948  25.946  25.990  1.00  0.00     0.073 C 
ATOM     20  N   UNL A   1      30.863  25.812  26.619  1.00  0.00    -0.198 NA
ENDBRANCH  14  19
BRANCH  15  21
ATOM     21  C   UNL A   1      32.912  23.183  22.946  1.00  0.00     0.076 C 
ATOM     22  N   UNL A   1      32.248  22.261  22.697  1.00  0.00    -0.197 NA
ENDBRANCH  15  21
ENDBRANCH   9  10
ENDBRANCH   8   9
ENDBRANCH   5   8
ENDBRANCH   3   4
ENDBRANCH   2   3
ENDBRANCH   1   2
BRANCH   1  23
ATOM     23  C   UNL A   1      34.741  34.273  27.993  1.00  0.00     0.002 C 
BRANCH  23  24
ATOM     24  C   UNL A   1      34.050  35.408  28.748  1.00  0.00     0.021 C 
BRANCH  24  25
ATOM     25  C   UNL A   1      32.865  34.953  29.590  1.00  0.00     0.116 C 
BRANCH  25  26
ATOM     26  N   UNL A   1      32.648  35.825  30.737  1.00  0.00    -0.352 N 
ATOM     27  C   UNL A   1      33.242  35.769  31.975  1.00  0.00     0.251 C 
ATOM     28  H   UNL A   1      31.991  36.547  30.608  1.00  0.00     0.163 HD
ATOM     29  O   UNL A   1      32.814  36.441  32.907  1.00  0.00    -0.269 OA
BRANCH  27  30
ATOM     30  C   UNL A   1      34.397  34.870  32.161  1.00  0.00     0.039 A 
ATOM     31  C   UNL A   1      35.685  35.336  31.886  1.00  0.00     0.014 A 
ATOM     32  C   UNL A   1      34.197  33.589  32.681  1.00  0.00     0.014 A 
ATOM     33  C   UNL A   1      36.784  34.538  32.207  1.00  0.00     0.010 A 
ATOM     34  C   UNL A   1      35.292  32.838  33.080  1.00  0.00     0.010 A 
ATOM     35  C   UNL A   1      36.597  33.302  32.846  1.00  0.00    -0.014 A 
BRANCH  35  36
ATOM     36  C   UNL A   1      37.736  32.458  33.287  1.00  0.00     0.031 A 
ATOM     37  C   UNL A   1      38.476  32.815  34.546  1.00  0.00     0.074 A 
ATOM     38  C   UNL A   1      38.181  31.460  32.499  1.00  0.00     0.049 A 
ATOM     39  N   UNL A   1      39.578  32.307  35.030  1.00  0.00    -0.248 NA
ATOM     40  C   UNL A   1      37.918  33.916  35.351  1.00  0.00     0.031 C 
ATOM     41  C   UNL A   1      37.573  31.042  31.235  1.00  0.00     0.029 A 
ATOM     42  N   UNL A   1      39.272  30.638  32.631  1.00  0.00    -0.354 N 
ATOM     43  C   UNL A   1      39.875  33.055  36.161  1.00  0.00     0.074 A 
ATOM     44  C   UNL A   1      38.854  34.074  36.274  1.00  0.00     0.031 C 
ATOM     45  C   UNL A   1      38.293  30.037  30.712  1.00  0.00     0.029 A 
ATOM     46  C   UNL A   1      39.442  29.775  31.573  1.00  0.00     0.049 A 
ATOM     47  H   UNL A   1      39.876  30.663  33.408  1.00  0.00     0.167 HD
ATOM     48  C   UNL A   1      40.895  32.901  37.037  1.00  0.00     0.034 A 
ATOM     49  C   UNL A   1      40.423  28.888  31.316  1.00  0.00     0.034 A 
ATOM     50  C   UNL A   1      41.894  31.875  36.928  1.00  0.00     0.049 A 
ATOM     51  C   UNL A   1      41.561  28.748  32.293  1.00  0.00     0.074 A 
ATOM     52  C   UNL A   1      42.922  31.580  37.805  1.00  0.00     0.029 A 
ATOM     53  N   UNL A   1      42.009  30.992  35.864  1.00  0.00    -0.354 N 
ATOM     54  N   UNL A   1      41.757  29.380  33.424  1.00  0.00    -0.248 NA
ATOM     55  C   UNL A   1      42.597  27.757  31.971  1.00  0.00     0.031 C 
ATOM     56  C   UNL A   1      43.693  30.559  37.242  1.00  0.00     0.029 A 
ATOM     57  C   UNL A   1      43.107  30.171  36.048  1.00  0.00     0.049 A 
ATOM     58  H   UNL A   1      41.398  30.955  35.093  1.00  0.00     0.167 HD
ATOM     59  C   UNL A   1      42.908  28.825  33.976  1.00  0.00     0.074 A 
ATOM     60  C   UNL A   1      43.365  27.809  33.051  1.00  0.00     0.031 C 
ATOM     61  C   UNL A   1      43.524  29.129  35.144  1.00  0.00     0.034 A 
BRANCH  48  62
ATOM     62  C   UNL A   1      40.976  33.870  38.189  1.00  0.00     0.023 A 
ATOM     63  C   UNL A   1      41.834  34.987  38.119  1.00  0.00     0.012 A 
ATOM     64  C   UNL A   1      40.188  33.679  39.341  1.00  0.00     0.148 A 
ATOM     65  C   UNL A   1      41.952  35.862  39.199  1.00  0.00     0.002 A 
ATOM     66  C   UNL A   1      40.268  34.587  40.389  1.00  0.00     0.091 A 
ATOM     67  F   UNL A   1      39.390  32.603  39.401  1.00  0.00    -0.205 F 
ATOM     68  C   UNL A   1      41.164  35.667  40.329  1.00  0.00     0.022 A 
BRANCH  66  69
ATOM     69  S   UNL A   1      39.232  34.469  41.850  1.00  0.00     0.127 S 
ATOM     70  O   UNL A   1      39.667  35.636  42.615  1.00  0.00    -0.237 OA
ATOM     71  O   UNL A   1      37.888  34.577  41.282  1.00  0.00    -0.237 OA
ATOM     72  O   UNL A   1      39.534  33.178  42.453  1.00  0.00    -0.744 OA
ENDBRANCH  66  69
ENDBRANCH  48  62
BRANCH  49  73
ATOM     73  C   UNL A   1      40.345  28.017  30.110  1.00  0.00     0.023 A 
ATOM     74  C   UNL A   1      39.418  26.955  30.090  1.00  0.00     0.012 A 
ATOM     75  C   UNL A   1      41.156  28.242  28.981  1.00  0.00     0.148 A 
ATOM     76  C   UNL A   1      39.323  26.114  28.981  1.00  0.00     0.002 A 
ATOM     77  C   UNL A   1      41.018  27.434  27.858  1.00  0.00     0.091 A 
ATOM     78  F   UNL A   1      42.030  29.256  29.021  1.00  0.00    -0.205 F 
ATOM     79  C   UNL A   1      40.115  26.358  27.863  1.00  0.00     0.022 A 
BRANCH  77  80
ATOM     80  S   UNL A   1      41.909  27.738  26.329  1.00  0.00     0.127 S 
ATOM     81  O   UNL A   1      43.293  27.520  26.740  1.00  0.00    -0.237 OA
ATOM     82  O   UNL A   1      41.354  26.708  25.452  1.00  0.00    -0.237 OA
ATOM     83  O   UNL A   1      41.579  29.104  25.943  1.00  0.00    -0.744 OA
ENDBRANCH  77  80
ENDBRANCH  49  73
BRANCH  61  84
ATOM     84  C   UNL A   1      44.724  28.313  35.549  1.00  0.00     0.023 A 
ATOM     85  C   UNL A   1      46.025  28.748  35.235  1.00  0.00     0.012 A 
ATOM     86  C   UNL A   1      44.551  27.164  36.348  1.00  0.00     0.148 A 
ATOM     87  C   UNL A   1      47.136  28.040  35.697  1.00  0.00     0.002 A 
ATOM     88  C   UNL A   1      45.660  26.499  36.851  1.00  0.00     0.091 A 
ATOM     89  F   UNL A   1      43.302  26.760  36.619  1.00  0.00    -0.205 F 
ATOM     90  C   UNL A   1      46.954  26.928  36.516  1.00  0.00     0.022 A 
BRANCH  88  91
ATOM     91  S   UNL A   1      45.523  25.125  37.999  1.00  0.00     0.127 S 
ATOM     92  O   UNL A   1      46.928  24.801  38.244  1.00  0.00    -0.237 OA
ATOM     93  O   UNL A   1      44.831  25.740  39.131  1.00  0.00    -0.237 OA
ATOM     94  O   UNL A   1      44.763  24.092  37.308  1.00  0.00    -0.744 OA
ENDBRANCH  88  91
ENDBRANCH  61  84
ENDBRANCH  35  36
ENDBRANCH  27  30
ENDBRANCH  25  26
ENDBRANCH  24  25
ENDBRANCH  23  24
ENDBRANCH   1  23
TORSDOF 20
ENDMDL
MODEL 2
REMARK VINA RESULT:      -9.6      6.972     10.672
REMARK SMILES CC1(C)[C@H](C#N)C(SCC(=O)NCCCCCCNC(=O)c2ccc(-c3c4nc(c(-c5cccc(S(=O)(=O)[O-])c5F)c5ccc([nH]5)c(-c5cccc(S(=O)(=O)[O-])c5F)c5nc(c(-c6cccc(S(=O)(=O)[O-])c6F)c6ccc3[nH]6)C=C5)C=C4)cc2)=NC(=O)[C@@H]1C#N
REMARK SMILES IDX 15 1 14 2 13 3 12 4 10 5 11 6 9 8 8 9 7 10 1 11 2 12 3 13
REMARK SMILES IDX 4 14 88 15 86 16 85 17 87 18 5 19 6 20 89 21 90 22 16 23
REMARK SMILES IDX 17 24 18 25 19 26 20 27 21 29 22 30 23 31 84 32 24 33 83 34
REMARK SMILES IDX 25 35 26 36 27 37 77 38 28 39 82 40 76 41 78 42 29 43 81 44
REMARK SMILES IDX 75 45 74 46 30 48 62 49 42 50 61 51 43 52 46 53 60 54 79 55
REMARK SMILES IDX 44 56 45 57 59 59 80 60 47 61 31 62 32 63 40 64 33 65 35 66
REMARK SMILES IDX 41 67 34 68 36 69 37 70 38 71 39 72 63 73 64 74 72 75 65 76
REMARK SMILES IDX 67 77 73 78 66 79 68 80 69 81 70 82 71 83 48 84 49 85 57 86
REMARK SMILES IDX 50 87 52 88 58 89 51 90 53 91 54 92 55 93 56 94
REMARK H PARENT 12 7 19 28 78 47 46 58
REMARK Flexibility Score: inf
ROOT
ATOM      1  C   UNL A   1      36.159  23.431  24.863  1.00  0.00     0.002 C 
ENDROOT
BRANCH   1   2
ATOM      2  C   UNL A   1      34.662  23.345  24.533  1.00  0.00     0.021 C 
BRANCH   2   3
ATOM      3  C   UNL A   1      33.777  24.064  25.554  1.00  0.00     0.116 C 
BRANCH   3   4
ATOM      4  N   UNL A   1      32.702  23.192  25.993  1.00  0.00    -0.355 N 
ATOM      5  C   UNL A   1      31.464  22.983  25.466  1.00  0.00     0.230 C 
ATOM      6  O   UNL A   1      30.722  22.192  26.054  1.00  0.00    -0.274 OA
ATOM      7  H   UNL A   1      32.901  22.667  26.802  1.00  0.00     0.163 HD
BRANCH   5   8
ATOM      8  C   UNL A   1      31.063  23.610  24.147  1.00  0.00     0.176 C 
BRANCH   8   9
ATOM      9  S   UNL A   1      29.937  25.011  24.299  1.00  0.00    -0.099 SA
BRANCH   9  10
ATOM     10  C   UNL A   1      30.922  26.282  25.017  1.00  0.00     0.095 C 
ATOM     11  C   UNL A   1      34.280  27.585  24.636  1.00  0.00     0.015 C 
ATOM     12  C   UNL A   1      32.803  28.062  24.665  1.00  0.00     0.012 C 
ATOM     13  C   UNL A   1      32.825  29.342  23.745  1.00  0.00     0.015 C 
ATOM     14  C   UNL A   1      31.922  26.889  24.068  1.00  0.00     0.156 C 
ATOM     15  C   UNL A   1      32.437  28.445  26.139  1.00  0.00     0.191 C 
ATOM     16  C   UNL A   1      31.405  27.607  26.871  1.00  0.00     0.264 C 
ATOM     17  N   UNL A   1      30.710  26.622  26.235  1.00  0.00    -0.209 NA
ATOM     18  O   UNL A   1      31.205  27.831  28.064  1.00  0.00    -0.271 OA
BRANCH  14  19
ATOM     19  C   UNL A   1      31.080  27.493  22.955  1.00  0.00     0.073 C 
ATOM     20  N   UNL A   1      30.381  27.993  22.033  1.00  0.00    -0.198 NA
ENDBRANCH  14  19
BRANCH  15  21
ATOM     21  C   UNL A   1      32.036  29.858  26.321  1.00  0.00     0.076 C 
ATOM     22  N   UNL A   1      31.773  30.983  26.451  1.00  0.00    -0.197 NA
ENDBRANCH  15  21
ENDBRANCH   9  10
ENDBRANCH   8   9
ENDBRANCH   5   8
ENDBRANCH   3   4
ENDBRANCH   2   3
ENDBRANCH   1   2
BRANCH   1  23
ATOM     23  C   UNL A   1      37.029  22.398  24.139  1.00  0.00     0.002 C 
BRANCH  23  24
ATOM     24  C   UNL A   1      37.317  21.136  24.951  1.00  0.00     0.021 C 
BRANCH  24  25
ATOM     25  C   UNL A   1      38.476  21.285  25.926  1.00  0.00     0.116 C 
BRANCH  25  26
ATOM     26  N   UNL A   1      39.338  20.110  25.929  1.00  0.00    -0.352 N 
ATOM     27  C   UNL A   1      40.705  20.056  26.048  1.00  0.00     0.251 C 
ATOM     28  H   UNL A   1      38.880  19.243  25.835  1.00  0.00     0.163 HD
ATOM     29  O   UNL A   1      41.314  19.013  25.829  1.00  0.00    -0.269 OA
BRANCH  27  30
ATOM     30  C   UNL A   1      41.428  21.285  26.427  1.00  0.00     0.039 A 
ATOM     31  C   UNL A   1      41.986  22.091  25.431  1.00  0.00     0.014 A 
ATOM     32  C   UNL A   1      41.479  21.669  27.769  1.00  0.00     0.014 A 
ATOM     33  C   UNL A   1      42.533  23.327  25.779  1.00  0.00     0.010 A 
ATOM     34  C   UNL A   1      41.943  22.934  28.098  1.00  0.00     0.010 A 
ATOM     35  C   UNL A   1      42.477  23.776  27.108  1.00  0.00    -0.014 A 
BRANCH  35  36
ATOM     36  C   UNL A   1      42.964  25.118  27.513  1.00  0.00     0.031 A 
ATOM     37  C   UNL A   1      42.001  26.105  28.111  1.00  0.00     0.074 A 
ATOM     38  C   UNL A   1      44.226  25.492  27.226  1.00  0.00     0.049 A 
ATOM     39  N   UNL A   1      42.180  27.367  28.395  1.00  0.00    -0.248 NA
ATOM     40  C   UNL A   1      40.642  25.611  28.396  1.00  0.00     0.031 C 
ATOM     41  C   UNL A   1      45.245  24.640  26.611  1.00  0.00     0.029 A 
ATOM     42  N   UNL A   1      44.857  26.700  27.386  1.00  0.00    -0.354 N 
ATOM     43  C   UNL A   1      40.950  27.833  28.841  1.00  0.00     0.074 A 
ATOM     44  C   UNL A   1      40.024  26.725  28.759  1.00  0.00     0.031 C 
ATOM     45  C   UNL A   1      46.375  25.347  26.453  1.00  0.00     0.029 A 
ATOM     46  C   UNL A   1      46.146  26.717  26.904  1.00  0.00     0.049 A 
ATOM     47  H   UNL A   1      44.428  27.482  27.804  1.00  0.00     0.167 HD
ATOM     48  C   UNL A   1      40.622  29.066  29.293  1.00  0.00     0.034 A 
ATOM     49  C   UNL A   1      47.036  27.725  26.818  1.00  0.00     0.034 A 
ATOM     50  C   UNL A   1      41.553  30.156  29.388  1.00  0.00     0.049 A 
ATOM     51  C   UNL A   1      46.643  29.094  27.305  1.00  0.00     0.074 A 
ATOM     52  C   UNL A   1      41.345  31.420  29.908  1.00  0.00     0.029 A 
ATOM     53  N   UNL A   1      42.861  30.121  28.930  1.00  0.00    -0.354 N 
ATOM     54  N   UNL A   1      45.512  29.485  27.841  1.00  0.00    -0.248 NA
ATOM     55  C   UNL A   1      47.655  30.155  27.200  1.00  0.00     0.031 C 
ATOM     56  C   UNL A   1      42.508  32.169  29.709  1.00  0.00     0.029 A 
ATOM     57  C   UNL A   1      43.464  31.350  29.128  1.00  0.00     0.049 A 
ATOM     58  H   UNL A   1      43.297  29.337  28.524  1.00  0.00     0.167 HD
ATOM     59  C   UNL A   1      45.695  30.820  28.187  1.00  0.00     0.074 A 
ATOM     60  C   UNL A   1      47.045  31.171  27.796  1.00  0.00     0.031 C 
ATOM     61  C   UNL A   1      44.825  31.673  28.780  1.00  0.00     0.034 A 
BRANCH  48  62
ATOM     62  C   UNL A   1      39.194  29.295  29.716  1.00  0.00     0.023 A 
ATOM     63  C   UNL A   1      38.781  28.977  31.027  1.00  0.00     0.012 A 
ATOM     64  C   UNL A   1      38.260  29.842  28.814  1.00  0.00     0.148 A 
ATOM     65  C   UNL A   1      37.450  29.140  31.412  1.00  0.00     0.002 A 
ATOM     66  C   UNL A   1      36.950  30.055  29.224  1.00  0.00     0.091 A 
ATOM     67  F   UNL A   1      38.663  30.122  27.566  1.00  0.00    -0.205 F 
ATOM     68  C   UNL A   1      36.538  29.687  30.514  1.00  0.00     0.022 A 
BRANCH  66  69
ATOM     69  S   UNL A   1      35.723  30.832  28.167  1.00  0.00     0.127 S 
ATOM     70  O   UNL A   1      35.560  29.827  27.119  1.00  0.00    -0.237 OA
ATOM     71  O   UNL A   1      34.580  30.963  29.071  1.00  0.00    -0.237 OA
ATOM     72  O   UNL A   1      36.305  32.095  27.737  1.00  0.00    -0.744 OA
ENDBRANCH  66  69
ENDBRANCH  48  62
BRANCH  49  73
ATOM     73  C   UNL A   1      48.409  27.467  26.301  1.00  0.00     0.023 A 
ATOM     74  C   UNL A   1      49.401  27.009  27.192  1.00  0.00     0.012 A 
ATOM     75  C   UNL A   1      48.735  27.645  24.943  1.00  0.00     0.148 A 
ATOM     76  C   UNL A   1      50.700  26.764  26.745  1.00  0.00     0.002 A 
ATOM     77  C   UNL A   1      50.016  27.348  24.494  1.00  0.00     0.091 A 
ATOM     78  F   UNL A   1      47.777  28.082  24.114  1.00  0.00    -0.205 F 
ATOM     79  C   UNL A   1      51.006  26.925  25.397  1.00  0.00     0.022 A 
BRANCH  77  80
ATOM     80  S   UNL A   1      50.475  27.411  22.759  1.00  0.00     0.127 S 
ATOM     81  O   UNL A   1      51.787  26.767  22.773  1.00  0.00    -0.237 OA
ATOM     82  O   UNL A   1      49.408  26.626  22.141  1.00  0.00    -0.237 OA
ATOM     83  O   UNL A   1      50.475  28.823  22.399  1.00  0.00    -0.744 OA
ENDBRANCH  77  80
ENDBRANCH  49  73
BRANCH  61  84
ATOM     84  C   UNL A   1      45.308  33.060  29.120  1.00  0.00     0.023 A 
ATOM     85  C   UNL A   1      45.948  33.314  30.347  1.00  0.00     0.012 A 
ATOM     86  C   UNL A   1      45.222  34.085  28.156  1.00  0.00     0.148 A 
ATOM     87  C   UNL A   1      46.481  34.576  30.616  1.00  0.00     0.002 A 
ATOM     88  C   UNL A   1      45.803  35.319  28.408  1.00  0.00     0.091 A 
ATOM     89  F   UNL A   1      44.591  33.823  27.002  1.00  0.00    -0.205 F 
ATOM     90  C   UNL A   1      46.423  35.571  29.642  1.00  0.00     0.022 A 
BRANCH  88  91
ATOM     91  S   UNL A   1      45.873  36.624  27.175  1.00  0.00     0.127 S 
ATOM     92  O   UNL A   1      46.161  35.868  25.957  1.00  0.00    -0.237 OA
ATOM     93  O   UNL A   1      44.523  37.181  27.244  1.00  0.00    -0.237 OA
ATOM     94  O   UNL A   1      46.930  37.531  27.603  1.00  0.00    -0.744 OA
ENDBRANCH  88  91
ENDBRANCH  61  84
ENDBRANCH  35  36
ENDBRANCH  27  30
ENDBRANCH  25  26
ENDBRANCH  24  25
ENDBRANCH  23  24
ENDBRANCH   1  23
TORSDOF 20
ENDMDL
MODEL 3
REMARK VINA RESULT:      -9.0      6.388      9.465
REMARK SMILES CC1(C)[C@H](C#N)C(SCC(=O)NCCCCCCNC(=O)c2ccc(-c3c4nc(c(-c5cccc(S(=O)(=O)[O-])c5F)c5ccc([nH]5)c(-c5cccc(S(=O)(=O)[O-])c5F)c5nc(c(-c6cccc(S(=O)(=O)[O-])c6F)c6ccc3[nH]6)C=C5)C=C4)cc2)=NC(=O)[C@@H]1C#N
REMARK SMILES IDX 15 1 14 2 13 3 12 4 10 5 11 6 9 8 8 9 7 10 1 11 2 12 3 13
REMARK SMILES IDX 4 14 88 15 86 16 85 17 87 18 5 19 6 20 89 21 90 22 16 23
REMARK SMILES IDX 17 24 18 25 19 26 20 27 21 29 22 30 23 31 84 32 24 33 83 34
REMARK SMILES IDX 25 35 26 36 27 37 77 38 28 39 82 40 76 41 78 42 29 43 81 44
REMARK SMILES IDX 75 45 74 46 30 48 62 49 42 50 61 51 43 52 46 53 60 54 79 55
REMARK SMILES IDX 44 56 45 57 59 59 80 60 47 61 31 62 32 63 40 64 33 65 35 66
REMARK SMILES IDX 41 67 34 68 36 69 37 70 38 71 39 72 63 73 64 74 72 75 65 76
REMARK SMILES IDX 67 77 73 78 66 79 68 80 69 81 70 82 71 83 48 84 49 85 57 86
REMARK SMILES IDX 50 87 52 88 58 89 51 90 53 91 54 92 55 93 56 94
REMARK H PARENT 12 7 19 28 78 47 46 58
REMARK Flexibility Score: inf
ROOT
ATOM      1  C   UNL A   1      39.777  27.516  28.922  1.00  0.00     0.002 C 
ENDROOT
BRANCH   1   2
ATOM      2  C   UNL A   1      38.801  28.527  28.303  1.00  0.00     0.021 C 
BRANCH   2   3
ATOM      3  C   UNL A   1      37.749  29.033  29.293  1.00  0.00     0.116 C 
BRANCH   3   4
ATOM      4  N   UNL A   1      37.090  30.216  28.768  1.00  0.00    -0.355 N 
ATOM      5  C   UNL A   1      36.005  30.333  27.952  1.00  0.00     0.230 C 
ATOM      6  O   UNL A   1      35.656  31.471  27.631  1.00  0.00    -0.274 OA
ATOM      7  H   UNL A   1      37.492  31.070  29.046  1.00  0.00     0.163 HD
BRANCH   5   8
ATOM      8  C   UNL A   1      35.196  29.117  27.553  1.00  0.00     0.176 C 
BRANCH   8   9
ATOM      9  S   UNL A   1      33.713  29.490  26.595  1.00  0.00    -0.099 SA
BRANCH   9  10
ATOM     10  C   UNL A   1      33.741  28.316  25.283  1.00  0.00     0.095 C 
ATOM     11  C   UNL A   1      34.717  24.859  24.820  1.00  0.00     0.015 C 
ATOM     12  C   UNL A   1      33.514  25.810  24.576  1.00  0.00     0.012 C 
ATOM     13  C   UNL A   1      32.273  24.843  24.663  1.00  0.00     0.015 C 
ATOM     14  C   UNL A   1      33.534  26.893  25.731  1.00  0.00     0.156 C 
ATOM     15  C   UNL A   1      33.647  26.414  23.137  1.00  0.00     0.191 C 
ATOM     16  C   UNL A   1      33.902  27.903  22.996  1.00  0.00     0.264 C 
ATOM     17  N   UNL A   1      33.889  28.731  24.079  1.00  0.00    -0.209 NA
ATOM     18  O   UNL A   1      34.125  28.358  21.875  1.00  0.00    -0.271 OA
BRANCH  14  19
ATOM     19  C   UNL A   1      32.152  26.885  26.366  1.00  0.00     0.073 C 
ATOM     20  N   UNL A   1      31.006  26.878  26.891  1.00  0.00    -0.198 NA
ENDBRANCH  14  19
BRANCH  15  21
ATOM     21  C   UNL A   1      32.519  26.093  22.234  1.00  0.00     0.076 C 
ATOM     22  N   UNL A   1      31.602  25.874  21.555  1.00  0.00    -0.197 NA
ENDBRANCH  15  21
ENDBRANCH   9  10
ENDBRANCH   8   9
ENDBRANCH   5   8
ENDBRANCH   3   4
ENDBRANCH   2   3
ENDBRANCH   1   2
BRANCH   1  23
ATOM     23  C   UNL A   1      39.273  26.069  28.926  1.00  0.00     0.002 C 
BRANCH  23  24
ATOM     24  C   UNL A   1      40.033  25.134  27.985  1.00  0.00     0.021 C 
BRANCH  24  25
ATOM     25  C   UNL A   1      39.871  25.483  26.512  1.00  0.00     0.116 C 
BRANCH  25  26
ATOM     26  N   UNL A   1      41.068  25.163  25.744  1.00  0.00    -0.352 N 
ATOM     27  C   UNL A   1      42.222  25.899  25.618  1.00  0.00     0.251 C 
ATOM     28  H   UNL A   1      41.047  24.309  25.254  1.00  0.00     0.163 HD
ATOM     29  O   UNL A   1      43.065  25.604  24.777  1.00  0.00    -0.269 OA
BRANCH  27  30
ATOM     30  C   UNL A   1      42.414  27.062  26.504  1.00  0.00     0.039 A 
ATOM     31  C   UNL A   1      43.175  26.923  27.668  1.00  0.00     0.014 A 
ATOM     32  C   UNL A   1      41.899  28.306  26.132  1.00  0.00     0.014 A 
ATOM     33  C   UNL A   1      43.483  28.056  28.423  1.00  0.00     0.010 A 
ATOM     34  C   UNL A   1      42.282  29.439  26.835  1.00  0.00     0.010 A 
ATOM     35  C   UNL A   1      43.075  29.327  27.989  1.00  0.00    -0.014 A 
BRANCH  35  36
ATOM     36  C   UNL A   1      43.453  30.569  28.707  1.00  0.00     0.031 A 
ATOM     37  C   UNL A   1      42.594  31.059  29.840  1.00  0.00     0.074 A 
ATOM     38  C   UNL A   1      44.482  31.318  28.265  1.00  0.00     0.049 A 
ATOM     39  N   UNL A   1      42.657  32.185  30.499  1.00  0.00    -0.248 NA
ATOM     40  C   UNL A   1      41.493  30.176  30.262  1.00  0.00     0.031 C 
ATOM     41  C   UNL A   1      45.367  30.971  27.152  1.00  0.00     0.029 A 
ATOM     42  N   UNL A   1      44.936  32.545  28.680  1.00  0.00    -0.354 N 
ATOM     43  C   UNL A   1      41.580  32.172  31.375  1.00  0.00     0.074 A 
ATOM     44  C   UNL A   1      40.859  30.940  31.140  1.00  0.00     0.031 C 
ATOM     45  C   UNL A   1      46.262  31.956  26.977  1.00  0.00     0.029 A 
ATOM     46  C   UNL A   1      45.982  33.028  27.928  1.00  0.00     0.049 A 
ATOM     47  H   UNL A   1      44.550  33.034  29.441  1.00  0.00     0.167 HD
ATOM     48  C   UNL A   1      41.229  33.093  32.303  1.00  0.00     0.034 A 
ATOM     49  C   UNL A   1      46.629  34.208  27.984  1.00  0.00     0.034 A 
ATOM     50  C   UNL A   1      41.961  34.305  32.542  1.00  0.00     0.049 A 
ATOM     51  C   UNL A   1      46.208  35.228  29.009  1.00  0.00     0.074 A 
ATOM     52  C   UNL A   1      41.739  35.266  33.512  1.00  0.00     0.029 A 
ATOM     53  N   UNL A   1      43.041  34.740  31.788  1.00  0.00    -0.354 N 
ATOM     54  N   UNL A   1      45.264  35.144  29.915  1.00  0.00    -0.248 NA
ATOM     55  C   UNL A   1      46.956  36.493  29.037  1.00  0.00     0.031 C 
ATOM     56  C   UNL A   1      42.645  36.309  33.306  1.00  0.00     0.029 A 
ATOM     57  C   UNL A   1      43.478  35.967  32.252  1.00  0.00     0.049 A 
ATOM     58  H   UNL A   1      43.438  34.247  31.034  1.00  0.00     0.167 HD
ATOM     59  C   UNL A   1      45.341  36.320  30.655  1.00  0.00     0.074 A 
ATOM     60  C   UNL A   1      46.421  37.100  30.088  1.00  0.00     0.031 C 
ATOM     61  C   UNL A   1      44.587  36.712  31.711  1.00  0.00     0.034 A 
BRANCH  48  62
ATOM     62  C   UNL A   1      39.996  32.818  33.125  1.00  0.00     0.023 A 
ATOM     63  C   UNL A   1      40.088  32.070  34.317  1.00  0.00     0.012 A 
ATOM     64  C   UNL A   1      38.741  33.315  32.720  1.00  0.00     0.148 A 
ATOM     65  C   UNL A   1      38.945  31.770  35.058  1.00  0.00     0.002 A 
ATOM     66  C   UNL A   1      37.617  33.061  33.494  1.00  0.00     0.091 A 
ATOM     67  F   UNL A   1      38.666  34.009  31.574  1.00  0.00    -0.205 F 
ATOM     68  C   UNL A   1      37.713  32.272  34.651  1.00  0.00     0.022 A 
BRANCH  66  69
ATOM     69  S   UNL A   1      36.000  33.734  33.098  1.00  0.00     0.127 S 
ATOM     70  O   UNL A   1      35.165  33.118  34.128  1.00  0.00    -0.237 OA
ATOM     71  O   UNL A   1      36.218  35.171  33.268  1.00  0.00    -0.237 OA
ATOM     72  O   UNL A   1      35.716  33.320  31.732  1.00  0.00    -0.744 OA
ENDBRANCH  66  69
ENDBRANCH  48  62
BRANCH  49  73
ATOM     73  C   UNL A   1      47.786  34.470  27.082  1.00  0.00     0.023 A 
ATOM     74  C   UNL A   1      47.569  35.162  25.874  1.00  0.00     0.012 A 
ATOM     75  C   UNL A   1      49.093  34.068  27.418  1.00  0.00     0.148 A 
ATOM     76  C   UNL A   1      48.627  35.419  25.001  1.00  0.00     0.002 A 
ATOM     77  C   UNL A   1      50.150  34.374  26.570  1.00  0.00     0.091 A 
ATOM     78  F   UNL A   1      49.276  33.411  28.572  1.00  0.00    -0.205 F 
ATOM     79  C   UNL A   1      49.917  35.033  25.352  1.00  0.00     0.022 A 
BRANCH  77  80
ATOM     80  S   UNL A   1      51.861  34.023  26.988  1.00  0.00     0.127 S 
ATOM     81  O   UNL A   1      52.580  34.784  25.968  1.00  0.00    -0.237 OA
ATOM     82  O   UNL A   1      51.953  34.565  28.343  1.00  0.00    -0.237 OA
ATOM     83  O   UNL A   1      52.002  32.575  26.903  1.00  0.00    -0.744 OA
ENDBRANCH  77  80
ENDBRANCH  49  73
BRANCH  61  84
ATOM     84  C   UNL A   1      44.933  38.013  32.389  1.00  0.00     0.023 A 
ATOM     85  C   UNL A   1      45.917  38.057  33.394  1.00  0.00     0.012 A 
ATOM     86  C   UNL A   1      44.352  39.214  31.934  1.00  0.00     0.148 A 
ATOM     87  C   UNL A   1      46.304  39.278  33.949  1.00  0.00     0.002 A 
ATOM     88  C   UNL A   1      44.782  40.428  32.449  1.00  0.00     0.091 A 
ATOM     89  F   UNL A   1      43.404  39.144  30.987  1.00  0.00    -0.205 F 
ATOM     90  C   UNL A   1      45.750  40.461  33.466  1.00  0.00     0.022 A 
BRANCH  88  91
ATOM     91  S   UNL A   1      44.205  42.006  31.815  1.00  0.00     0.127 S 
ATOM     92  O   UNL A   1      42.773  41.938  32.107  1.00  0.00    -0.237 OA
ATOM     93  O   UNL A   1      44.952  42.958  32.637  1.00  0.00    -0.237 OA
ATOM     94  O   UNL A   1      44.545  42.024  30.399  1.00  0.00    -0.744 OA
ENDBRANCH  88  91
ENDBRANCH  61  84
ENDBRANCH  35  36
ENDBRANCH  27  30
ENDBRANCH  25  26
ENDBRANCH  24  25
ENDBRANCH  23  24
ENDBRANCH   1  23
TORSDOF 20
ENDMDL
