MODEL 1
REMARK VINA RESULT:     -13.0      0.000      0.000
REMARK SMILES C[C@]12C(=O)N(c3ccc(C(=O)NCCCCCCNC(=O)c4ccc(-c5c6nc(c(-c7cccc(S(=O)(=O)[O-])c7F)c7ccc([nH]7)c(-c7cccc(S(=O)(=O)[O-])c7F)c7nc(c(-c8cccc(S(=O)(=O)[O-])c8F)c8ccc5[nH]8)C=C7)C=C6)cc4)cc3)C(=O)[C@H]1[C@H]1c3ccccc3[C@@H]2c2ccccc21
REMARK SMILES IDX 16 1 15 2 14 3 13 4 12 5 10 6 11 7 9 9 6 10 7 11 86 12 8 13
REMARK SMILES IDX 85 14 5 15 1 16 2 17 3 18 89 19 97 20 4 21 87 22 90 23 96 24
REMARK SMILES IDX 98 25 88 26 91 27 103 28 95 29 99 30 92 31 102 32 94 33
REMARK SMILES IDX 100 34 93 35 101 36 17 37 18 38 19 39 20 40 21 42 22 43
REMARK SMILES IDX 23 44 84 45 24 46 83 47 25 48 26 49 27 50 77 51 28 52 82 53
REMARK SMILES IDX 76 54 78 55 29 56 81 57 75 58 74 59 30 61 62 62 42 63 61 64
REMARK SMILES IDX 43 65 46 66 60 67 79 68 44 69 45 70 59 72 80 73 47 74 31 75
REMARK SMILES IDX 32 76 40 77 33 78 35 79 41 80 34 81 36 82 37 83 38 84 39 85
REMARK SMILES IDX 63 86 64 87 72 88 65 89 67 90 73 91 66 92 68 93 69 94 70 95
REMARK SMILES IDX 71 96 48 97 49 98 57 99 50 100 52 101 58 102 51 103 53 104
REMARK SMILES IDX 54 105 55 106 56 107
REMARK H PARENT 12 8 19 41 78 60 46 71
REMARK Flexibility Score: inf
ROOT
ATOM      1  C   UNL A   1      35.657  22.095  23.941  1.00  0.00     0.002 C 
ENDROOT
BRANCH   1   2
ATOM      2  C   UNL A   1      34.964  21.624  25.223  1.00  0.00     0.002 C 
BRANCH   2   3
ATOM      3  C   UNL A   1      34.351  20.222  25.209  1.00  0.00     0.021 C 
BRANCH   3   4
ATOM      4  C   UNL A   1      32.854  20.135  24.947  1.00  0.00     0.116 C 
BRANCH   4   5
ATOM      5  N   UNL A   1      32.539  19.675  23.610  1.00  0.00    -0.352 N 
ATOM      6  C   UNL A   1      32.124  20.384  22.513  1.00  0.00     0.251 C 
ATOM      7  O   UNL A   1      31.810  19.784  21.487  1.00  0.00    -0.269 OA
ATOM      8  H   UNL A   1      32.639  18.707  23.468  1.00  0.00     0.163 HD
BRANCH   6   9
ATOM      9  C   UNL A   1      32.019  21.862  22.546  1.00  0.00     0.039 A 
ATOM     10  C   UNL A   1      32.008  24.701  22.656  1.00  0.00     0.052 A 
ATOM     11  C   UNL A   1      32.948  23.995  21.883  1.00  0.00     0.027 A 
ATOM     12  C   UNL A   1      31.056  23.940  23.351  1.00  0.00     0.027 A 
ATOM     13  C   UNL A   1      32.960  22.596  21.830  1.00  0.00     0.016 A 
ATOM     14  C   UNL A   1      31.079  22.538  23.324  1.00  0.00     0.016 A 
BRANCH  10  15
ATOM     15  N   UNL A   1      32.148  26.107  22.886  1.00  0.00    -0.250 N 
ATOM     16  C   UNL A   1      33.882  29.186  23.044  1.00  0.00     0.024 C 
ATOM     17  C   UNL A   1      33.302  27.950  23.748  1.00  0.00     0.071 C 
ATOM     18  C   UNL A   1      33.349  26.776  22.805  1.00  0.00     0.241 C 
ATOM     19  C   UNL A   1      31.791  28.124  24.059  1.00  0.00     0.107 C 
ATOM     20  C   UNL A   1      34.074  27.549  25.058  1.00  0.00     0.066 C 
ATOM     21  O   UNL A   1      34.337  26.518  22.135  1.00  0.00    -0.273 OA
ATOM     22  C   UNL A   1      31.154  26.944  23.352  1.00  0.00     0.238 C 
ATOM     23  C   UNL A   1      31.540  28.048  25.601  1.00  0.00     0.063 C 
ATOM     24  C   UNL A   1      33.340  26.366  25.715  1.00  0.00    -0.036 A 
ATOM     25  C   UNL A   1      33.883  28.735  25.997  1.00  0.00    -0.036 A 
ATOM     26  O   UNL A   1      29.938  26.822  23.267  1.00  0.00    -0.274 OA
ATOM     27  C   UNL A   1      31.982  26.648  26.032  1.00  0.00    -0.036 A 
ATOM     28  C   UNL A   1      32.517  29.027  26.264  1.00  0.00    -0.036 A 
ATOM     29  C   UNL A   1      33.855  25.095  25.926  1.00  0.00     0.005 A 
ATOM     30  C   UNL A   1      34.905  29.481  26.563  1.00  0.00     0.005 A 
ATOM     31  C   UNL A   1      31.154  25.674  26.570  1.00  0.00     0.004 A 
ATOM     32  C   UNL A   1      32.184  30.073  27.111  1.00  0.00     0.004 A 
ATOM     33  C   UNL A   1      33.014  24.111  26.457  1.00  0.00     0.000 A 
ATOM     34  C   UNL A   1      34.563  30.533  27.409  1.00  0.00     0.000 A 
ATOM     35  C   UNL A   1      31.678  24.399  26.780  1.00  0.00     0.000 A 
ATOM     36  C   UNL A   1      33.216  30.827  27.679  1.00  0.00     0.000 A 
ENDBRANCH  10  15
ENDBRANCH   6   9
ENDBRANCH   4   5
ENDBRANCH   3   4
ENDBRANCH   2   3
ENDBRANCH   1   2
BRANCH   1  37
ATOM     37  C   UNL A   1      36.614  23.280  24.066  1.00  0.00     0.021 C 
BRANCH  37  38
ATOM     38  C   UNL A   1      37.222  23.514  25.442  1.00  0.00     0.116 C 
BRANCH  38  39
ATOM     39  N   UNL A   1      38.379  22.681  25.715  1.00  0.00    -0.352 N 
ATOM     40  C   UNL A   1      39.568  23.023  26.319  1.00  0.00     0.251 C 
ATOM     41  H   UNL A   1      38.302  21.742  25.429  1.00  0.00     0.163 HD
ATOM     42  O   UNL A   1      40.478  22.203  26.382  1.00  0.00    -0.269 OA
BRANCH  40  43
ATOM     43  C   UNL A   1      39.760  24.395  26.846  1.00  0.00     0.039 A 
ATOM     44  C   UNL A   1      40.351  25.391  26.067  1.00  0.00     0.014 A 
ATOM     45  C   UNL A   1      39.374  24.674  28.161  1.00  0.00     0.014 A 
ATOM     46  C   UNL A   1      40.717  26.601  26.654  1.00  0.00     0.010 A 
ATOM     47  C   UNL A   1      39.669  25.921  28.723  1.00  0.00     0.010 A 
ATOM     48  C   UNL A   1      40.392  26.876  27.993  1.00  0.00    -0.014 A 
BRANCH  48  49
ATOM     49  C   UNL A   1      40.821  28.162  28.603  1.00  0.00     0.031 A 
ATOM     50  C   UNL A   1      39.810  29.176  29.075  1.00  0.00     0.074 A 
ATOM     51  C   UNL A   1      42.135  28.408  28.767  1.00  0.00     0.049 A 
ATOM     52  N   UNL A   1      40.016  30.325  29.665  1.00  0.00    -0.248 NA
ATOM     53  C   UNL A   1      38.388  28.867  28.853  1.00  0.00     0.031 C 
ATOM     54  C   UNL A   1      43.216  27.524  28.326  1.00  0.00     0.029 A 
ATOM     55  N   UNL A   1      42.786  29.463  29.354  1.00  0.00    -0.354 N 
ATOM     56  C   UNL A   1      38.761  30.896  29.843  1.00  0.00     0.074 A 
ATOM     57  C   UNL A   1      37.795  29.967  29.298  1.00  0.00     0.031 C 
ATOM     58  C   UNL A   1      44.393  28.053  28.694  1.00  0.00     0.029 A 
ATOM     59  C   UNL A   1      44.154  29.332  29.357  1.00  0.00     0.049 A 
ATOM     60  H   UNL A   1      42.318  30.241  29.738  1.00  0.00     0.167 HD
ATOM     61  C   UNL A   1      38.440  32.075  30.426  1.00  0.00     0.034 A 
ATOM     62  C   UNL A   1      45.116  30.146  29.834  1.00  0.00     0.034 A 
ATOM     63  C   UNL A   1      39.390  32.970  31.027  1.00  0.00     0.049 A 
ATOM     64  C   UNL A   1      44.734  31.430  30.506  1.00  0.00     0.074 A 
ATOM     65  C   UNL A   1      39.142  34.150  31.708  1.00  0.00     0.029 A 
ATOM     66  N   UNL A   1      40.763  32.791  31.023  1.00  0.00    -0.354 N 
ATOM     67  N   UNL A   1      43.536  31.900  30.755  1.00  0.00    -0.248 NA
ATOM     68  C   UNL A   1      45.828  32.292  30.976  1.00  0.00     0.031 C 
ATOM     69  C   UNL A   1      40.369  34.687  32.113  1.00  0.00     0.029 A 
ATOM     70  C   UNL A   1      41.378  33.840  31.685  1.00  0.00     0.049 A 
ATOM     71  H   UNL A   1      41.233  32.030  30.611  1.00  0.00     0.167 HD
ATOM     72  C   UNL A   1      43.729  33.107  31.413  1.00  0.00     0.074 A 
ATOM     73  C   UNL A   1      45.160  33.287  31.547  1.00  0.00     0.031 C 
ATOM     74  C   UNL A   1      42.800  33.993  31.848  1.00  0.00     0.034 A 
BRANCH  61  75
ATOM     75  C   UNL A   1      36.987  32.452  30.498  1.00  0.00     0.023 A 
ATOM     76  C   UNL A   1      36.248  32.123  31.652  1.00  0.00     0.012 A 
ATOM     77  C   UNL A   1      36.380  33.207  29.475  1.00  0.00     0.148 A 
ATOM     78  C   UNL A   1      34.921  32.530  31.782  1.00  0.00     0.002 A 
ATOM     79  C   UNL A   1      35.065  33.631  29.625  1.00  0.00     0.091 A 
ATOM     80  F   UNL A   1      37.099  33.492  28.380  1.00  0.00    -0.205 F 
ATOM     81  C   UNL A   1      34.334  33.291  30.775  1.00  0.00     0.022 A 
BRANCH  79  82
ATOM     82  S   UNL A   1      34.234  34.662  28.410  1.00  0.00     0.127 S 
ATOM     83  O   UNL A   1      34.632  34.019  27.158  1.00  0.00    -0.237 OA
ATOM     84  O   UNL A   1      32.825  34.483  28.765  1.00  0.00    -0.237 OA
ATOM     85  O   UNL A   1      34.744  36.010  28.610  1.00  0.00    -0.744 OA
ENDBRANCH  79  82
ENDBRANCH  61  75
BRANCH  62  86
ATOM     86  C   UNL A   1      46.535  29.711  29.732  1.00  0.00     0.023 A 
ATOM     87  C   UNL A   1      47.102  28.971  30.786  1.00  0.00     0.012 A 
ATOM     88  C   UNL A   1      47.278  29.926  28.555  1.00  0.00     0.148 A 
ATOM     89  C   UNL A   1      48.389  28.447  30.666  1.00  0.00     0.002 A 
ATOM     90  C   UNL A   1      48.540  29.362  28.426  1.00  0.00     0.091 A 
ATOM     91  F   UNL A   1      46.709  30.635  27.570  1.00  0.00    -0.205 F 
ATOM     92  C   UNL A   1      49.102  28.630  29.485  1.00  0.00     0.022 A 
BRANCH  90  93
ATOM     93  S   UNL A   1      49.485  29.437  26.900  1.00  0.00     0.127 S 
ATOM     94  O   UNL A   1      48.580  28.786  25.956  1.00  0.00    -0.237 OA
ATOM     95  O   UNL A   1      49.634  30.881  26.716  1.00  0.00    -0.237 OA
ATOM     96  O   UNL A   1      50.728  28.726  27.166  1.00  0.00    -0.744 OA
ENDBRANCH  90  93
ENDBRANCH  62  86
BRANCH  74  97
ATOM     97  C   UNL A   1      43.282  35.255  32.505  1.00  0.00     0.023 A 
ATOM     98  C   UNL A   1      43.591  36.369  31.701  1.00  0.00     0.012 A 
ATOM     99  C   UNL A   1      43.306  35.378  33.908  1.00  0.00     0.148 A 
ATOM    100  C   UNL A   1      43.922  37.591  32.285  1.00  0.00     0.002 A 
ATOM    101  C   UNL A   1      43.606  36.608  34.482  1.00  0.00     0.091 A 
ATOM    102  F   UNL A   1      43.017  34.299  34.648  1.00  0.00    -0.205 F 
ATOM    103  C   UNL A   1      43.917  37.714  33.672  1.00  0.00     0.022 A 
BRANCH 101 104
ATOM    104  S   UNL A   1      43.556  36.886  36.256  1.00  0.00     0.127 S 
ATOM    105  O   UNL A   1      42.157  36.594  36.564  1.00  0.00    -0.237 OA
ATOM    106  O   UNL A   1      44.509  35.894  36.752  1.00  0.00    -0.237 OA
ATOM    107  O   UNL A   1      43.960  38.270  36.460  1.00  0.00    -0.744 OA
ENDBRANCH 101 104
ENDBRANCH  74  97
ENDBRANCH  48  49
ENDBRANCH  40  43
ENDBRANCH  38  39
ENDBRANCH  37  38
ENDBRANCH   1  37
TORSDOF 17
ENDMDL
MODEL 2
REMARK VINA RESULT:     -12.9      1.338      7.103
REMARK SMILES C[C@]12C(=O)N(c3ccc(C(=O)NCCCCCCNC(=O)c4ccc(-c5c6nc(c(-c7cccc(S(=O)(=O)[O-])c7F)c7ccc([nH]7)c(-c7cccc(S(=O)(=O)[O-])c7F)c7nc(c(-c8cccc(S(=O)(=O)[O-])c8F)c8ccc5[nH]8)C=C7)C=C6)cc4)cc3)C(=O)[C@H]1[C@H]1c3ccccc3[C@@H]2c2ccccc21
REMARK SMILES IDX 16 1 15 2 14 3 13 4 12 5 10 6 11 7 9 9 6 10 7 11 86 12 8 13
REMARK SMILES IDX 85 14 5 15 1 16 2 17 3 18 89 19 97 20 4 21 87 22 90 23 96 24
REMARK SMILES IDX 98 25 88 26 91 27 103 28 95 29 99 30 92 31 102 32 94 33
REMARK SMILES IDX 100 34 93 35 101 36 17 37 18 38 19 39 20 40 21 42 22 43
REMARK SMILES IDX 23 44 84 45 24 46 83 47 25 48 26 49 27 50 77 51 28 52 82 53
REMARK SMILES IDX 76 54 78 55 29 56 81 57 75 58 74 59 30 61 62 62 42 63 61 64
REMARK SMILES IDX 43 65 46 66 60 67 79 68 44 69 45 70 59 72 80 73 47 74 31 75
REMARK SMILES IDX 32 76 40 77 33 78 35 79 41 80 34 81 36 82 37 83 38 84 39 85
REMARK SMILES IDX 63 86 64 87 72 88 65 89 67 90 73 91 66 92 68 93 69 94 70 95
REMARK SMILES IDX 71 96 48 97 49 98 57 99 50 100 52 101 58 102 51 103 53 104
REMARK SMILES IDX 54 105 55 106 56 107
REMARK H PARENT 12 8 19 41 78 60 46 71
REMARK Flexibility Score: inf
ROOT
ATOM      1  C   UNL A   1      35.658  22.012  23.861  1.00  0.00     0.002 C 
ENDROOT
BRANCH   1   2
ATOM      2  C   UNL A   1      34.861  21.684  25.127  1.00  0.00     0.002 C 
BRANCH   2   3
ATOM      3  C   UNL A   1      34.274  20.275  25.236  1.00  0.00     0.021 C 
BRANCH   3   4
ATOM      4  C   UNL A   1      32.784  20.135  24.957  1.00  0.00     0.116 C 
BRANCH   4   5
ATOM      5  N   UNL A   1      32.501  19.674  23.613  1.00  0.00    -0.352 N 
ATOM      6  C   UNL A   1      32.115  20.383  22.506  1.00  0.00     0.251 C 
ATOM      7  O   UNL A   1      31.825  19.783  21.472  1.00  0.00    -0.269 OA
ATOM      8  H   UNL A   1      32.602  18.705  23.474  1.00  0.00     0.163 HD
BRANCH   6   9
ATOM      9  C   UNL A   1      32.013  21.862  22.535  1.00  0.00     0.039 A 
ATOM     10  C   UNL A   1      32.008  24.701  22.641  1.00  0.00     0.052 A 
ATOM     11  C   UNL A   1      32.955  23.991  21.880  1.00  0.00     0.027 A 
ATOM     12  C   UNL A   1      31.045  23.943  23.325  1.00  0.00     0.027 A 
ATOM     13  C   UNL A   1      32.964  22.593  21.830  1.00  0.00     0.016 A 
ATOM     14  C   UNL A   1      31.066  22.542  23.300  1.00  0.00     0.016 A 
BRANCH  10  15
ATOM     15  N   UNL A   1      32.148  26.107  22.870  1.00  0.00    -0.250 N 
ATOM     16  C   UNL A   1      33.886  29.182  23.041  1.00  0.00     0.024 C 
ATOM     17  C   UNL A   1      33.298  27.949  23.740  1.00  0.00     0.071 C 
ATOM     18  C   UNL A   1      33.352  26.773  22.799  1.00  0.00     0.241 C 
ATOM     19  C   UNL A   1      31.784  28.126  24.036  1.00  0.00     0.107 C 
ATOM     20  C   UNL A   1      34.056  27.548  25.058  1.00  0.00     0.066 C 
ATOM     21  O   UNL A   1      34.345  26.513  22.139  1.00  0.00    -0.273 OA
ATOM     22  C   UNL A   1      31.152  26.947  23.326  1.00  0.00     0.238 C 
ATOM     23  C   UNL A   1      31.519  28.053  25.577  1.00  0.00     0.063 C 
ATOM     24  C   UNL A   1      33.313  26.368  25.709  1.00  0.00    -0.036 A 
ATOM     25  C   UNL A   1      33.859  28.736  25.994  1.00  0.00    -0.036 A 
ATOM     26  O   UNL A   1      29.936  26.827  23.229  1.00  0.00    -0.274 OA
ATOM     27  C   UNL A   1      31.954  26.652  26.013  1.00  0.00    -0.036 A 
ATOM     28  C   UNL A   1      32.491  29.031  26.248  1.00  0.00    -0.036 A 
ATOM     29  C   UNL A   1      33.824  25.096  25.928  1.00  0.00     0.005 A 
ATOM     30  C   UNL A   1      34.877  29.481  26.569  1.00  0.00     0.005 A 
ATOM     31  C   UNL A   1      31.118  25.680  26.545  1.00  0.00     0.004 A 
ATOM     32  C   UNL A   1      32.152  30.079  27.090  1.00  0.00     0.004 A 
ATOM     33  C   UNL A   1      32.976  24.114  26.451  1.00  0.00     0.000 A 
ATOM     34  C   UNL A   1      34.529  30.535  27.410  1.00  0.00     0.000 A 
ATOM     35  C   UNL A   1      31.638  24.405  26.761  1.00  0.00     0.000 A 
ATOM     36  C   UNL A   1      33.180  30.831  27.667  1.00  0.00     0.000 A 
ENDBRANCH  10  15
ENDBRANCH   6   9
ENDBRANCH   4   5
ENDBRANCH   3   4
ENDBRANCH   2   3
ENDBRANCH   1   2
BRANCH   1  37
ATOM     37  C   UNL A   1      36.665  23.157  23.954  1.00  0.00     0.021 C 
BRANCH  37  38
ATOM     38  C   UNL A   1      37.265  23.420  25.328  1.00  0.00     0.116 C 
BRANCH  38  39
ATOM     39  N   UNL A   1      38.412  22.584  25.631  1.00  0.00    -0.352 N 
ATOM     40  C   UNL A   1      39.577  22.917  26.286  1.00  0.00     0.251 C 
ATOM     41  H   UNL A   1      38.349  21.650  25.325  1.00  0.00     0.163 HD
ATOM     42  O   UNL A   1      40.486  22.097  26.369  1.00  0.00    -0.269 OA
BRANCH  40  43
ATOM     43  C   UNL A   1      39.745  24.280  26.844  1.00  0.00     0.039 A 
ATOM     44  C   UNL A   1      40.337  25.299  26.095  1.00  0.00     0.014 A 
ATOM     45  C   UNL A   1      39.336  24.527  28.158  1.00  0.00     0.014 A 
ATOM     46  C   UNL A   1      40.680  26.500  26.713  1.00  0.00     0.010 A 
ATOM     47  C   UNL A   1      39.609  25.765  28.751  1.00  0.00     0.010 A 
ATOM     48  C   UNL A   1      40.332  26.742  28.052  1.00  0.00    -0.014 A 
BRANCH  48  49
ATOM     49  C   UNL A   1      40.737  28.020  28.696  1.00  0.00     0.031 A 
ATOM     50  C   UNL A   1      42.190  28.370  28.887  1.00  0.00     0.074 A 
ATOM     51  C   UNL A   1      39.786  28.892  29.085  1.00  0.00     0.049 A 
ATOM     52  N   UNL A   1      42.711  29.460  29.391  1.00  0.00    -0.248 NA
ATOM     53  C   UNL A   1      43.188  27.373  28.465  1.00  0.00     0.031 C 
ATOM     54  C   UNL A   1      38.343  28.661  28.984  1.00  0.00     0.029 A 
ATOM     55  N   UNL A   1      39.886  30.147  29.629  1.00  0.00    -0.354 N 
ATOM     56  C   UNL A   1      44.087  29.263  29.391  1.00  0.00     0.074 A 
ATOM     57  C   UNL A   1      44.324  27.948  28.835  1.00  0.00     0.031 C 
ATOM     58  C   UNL A   1      37.694  29.753  29.414  1.00  0.00     0.029 A 
ATOM     59  C   UNL A   1      38.669  30.744  29.859  1.00  0.00     0.049 A 
ATOM     60  H   UNL A   1      40.746  30.580  29.835  1.00  0.00     0.167 HD
ATOM     61  C   UNL A   1      45.064  30.107  29.796  1.00  0.00     0.034 A 
ATOM     62  C   UNL A   1      38.363  31.951  30.374  1.00  0.00     0.034 A 
ATOM     63  C   UNL A   1      44.838  31.439  30.287  1.00  0.00     0.049 A 
ATOM     64  C   UNL A   1      39.465  32.883  30.783  1.00  0.00     0.074 A 
ATOM     65  C   UNL A   1      45.778  32.390  30.646  1.00  0.00     0.029 A 
ATOM     66  N   UNL A   1      43.592  32.009  30.488  1.00  0.00    -0.354 N 
ATOM     67  N   UNL A   1      40.761  32.715  30.677  1.00  0.00    -0.248 NA
ATOM     68  C   UNL A   1      39.070  34.171  31.368  1.00  0.00     0.031 C 
ATOM     69  C   UNL A   1      45.098  33.537  31.069  1.00  0.00     0.029 A 
ATOM     70  C   UNL A   1      43.737  33.298  30.971  1.00  0.00     0.049 A 
ATOM     71  H   UNL A   1      42.732  31.565  30.312  1.00  0.00     0.167 HD
ATOM     72  C   UNL A   1      41.337  33.876  31.176  1.00  0.00     0.074 A 
ATOM     73  C   UNL A   1      40.248  34.751  31.564  1.00  0.00     0.031 C 
ATOM     74  C   UNL A   1      42.650  34.177  31.318  1.00  0.00     0.034 A 
BRANCH  61  75
ATOM     75  C   UNL A   1      46.490  29.644  29.675  1.00  0.00     0.023 A 
ATOM     76  C   UNL A   1      47.050  28.866  30.708  1.00  0.00     0.012 A 
ATOM     77  C   UNL A   1      47.239  29.896  28.509  1.00  0.00     0.148 A 
ATOM     78  C   UNL A   1      48.341  28.356  30.588  1.00  0.00     0.002 A 
ATOM     79  C   UNL A   1      48.516  29.360  28.386  1.00  0.00     0.091 A 
ATOM     80  F   UNL A   1      46.691  30.653  27.548  1.00  0.00    -0.205 F 
ATOM     81  C   UNL A   1      49.069  28.593  29.425  1.00  0.00     0.022 A 
BRANCH  79  82
ATOM     82  S   UNL A   1      49.515  29.562  26.907  1.00  0.00     0.127 S 
ATOM     83  O   UNL A   1      50.800  29.016  27.343  1.00  0.00    -0.237 OA
ATOM     84  O   UNL A   1      48.800  28.734  25.935  1.00  0.00    -0.237 OA
ATOM     85  O   UNL A   1      49.512  30.987  26.611  1.00  0.00    -0.744 OA
ENDBRANCH  79  82
ENDBRANCH  61  75
BRANCH  62  86
ATOM     86  C   UNL A   1      36.933  32.349  30.463  1.00  0.00     0.023 A 
ATOM     87  C   UNL A   1      36.231  32.117  31.659  1.00  0.00     0.012 A 
ATOM     88  C   UNL A   1      36.310  33.056  29.417  1.00  0.00     0.148 A 
ATOM     89  C   UNL A   1      34.927  32.588  31.815  1.00  0.00     0.002 A 
ATOM     90  C   UNL A   1      35.029  33.562  29.596  1.00  0.00     0.091 A 
ATOM     91  F   UNL A   1      37.005  33.261  28.290  1.00  0.00    -0.205 F 
ATOM     92  C   UNL A   1      34.332  33.321  30.792  1.00  0.00     0.022 A 
BRANCH  90  93
ATOM     93  S   UNL A   1      34.225  34.620  28.387  1.00  0.00     0.127 S 
ATOM     94  O   UNL A   1      32.841  34.608  28.854  1.00  0.00    -0.237 OA
ATOM     95  O   UNL A   1      34.933  35.884  28.586  1.00  0.00    -0.237 OA
ATOM     96  O   UNL A   1      34.453  33.991  27.094  1.00  0.00    -0.744 OA
ENDBRANCH  90  93
ENDBRANCH  62  86
BRANCH  74  97
ATOM     97  C   UNL A   1      43.009  35.502  31.928  1.00  0.00     0.023 A 
ATOM     98  C   UNL A   1      43.045  35.622  33.330  1.00  0.00     0.012 A 
ATOM     99  C   UNL A   1      43.430  36.580  31.124  1.00  0.00     0.148 A 
ATOM    100  C   UNL A   1      43.493  36.800  33.927  1.00  0.00     0.002 A 
ATOM    101  C   UNL A   1      43.904  37.739  31.726  1.00  0.00     0.091 A 
ATOM    102  F   UNL A   1      43.375  36.441  29.791  1.00  0.00    -0.205 F 
ATOM    103  C   UNL A   1      43.933  37.852  33.127  1.00  0.00     0.022 A 
BRANCH 101 104
ATOM    104  S   UNL A   1      44.560  39.121  30.784  1.00  0.00     0.127 S 
ATOM    105  O   UNL A   1      45.620  38.477  30.010  1.00  0.00    -0.237 OA
ATOM    106  O   UNL A   1      43.399  39.539  29.998  1.00  0.00    -0.237 OA
ATOM    107  O   UNL A   1      45.013  40.099  31.763  1.00  0.00    -0.744 OA
ENDBRANCH 101 104
ENDBRANCH  74  97
ENDBRANCH  48  49
ENDBRANCH  40  43
ENDBRANCH  38  39
ENDBRANCH  37  38
ENDBRANCH   1  37
TORSDOF 17
ENDMDL
MODEL 3
REMARK VINA RESULT:     -12.7      3.551      4.781
REMARK SMILES C[C@]12C(=O)N(c3ccc(C(=O)NCCCCCCNC(=O)c4ccc(-c5c6nc(c(-c7cccc(S(=O)(=O)[O-])c7F)c7ccc([nH]7)c(-c7cccc(S(=O)(=O)[O-])c7F)c7nc(c(-c8cccc(S(=O)(=O)[O-])c8F)c8ccc5[nH]8)C=C7)C=C6)cc4)cc3)C(=O)[C@H]1[C@H]1c3ccccc3[C@@H]2c2ccccc21
REMARK SMILES IDX 16 1 15 2 14 3 13 4 12 5 10 6 11 7 9 9 6 10 7 11 86 12 8 13
REMARK SMILES IDX 85 14 5 15 1 16 2 17 3 18 89 19 97 20 4 21 87 22 90 23 96 24
REMARK SMILES IDX 98 25 88 26 91 27 103 28 95 29 99 30 92 31 102 32 94 33
REMARK SMILES IDX 100 34 93 35 101 36 17 37 18 38 19 39 20 40 21 42 22 43
REMARK SMILES IDX 23 44 84 45 24 46 83 47 25 48 26 49 27 50 77 51 28 52 82 53
REMARK SMILES IDX 76 54 78 55 29 56 81 57 75 58 74 59 30 61 62 62 42 63 61 64
REMARK SMILES IDX 43 65 46 66 60 67 79 68 44 69 45 70 59 72 80 73 47 74 31 75
REMARK SMILES IDX 32 76 40 77 33 78 35 79 41 80 34 81 36 82 37 83 38 84 39 85
REMARK SMILES IDX 63 86 64 87 72 88 65 89 67 90 73 91 66 92 68 93 69 94 70 95
REMARK SMILES IDX 71 96 48 97 49 98 57 99 50 100 52 101 58 102 51 103 53 104
REMARK SMILES IDX 54 105 55 106 56 107
REMARK H PARENT 12 8 19 41 78 60 46 71
REMARK Flexibility Score: inf
ROOT
ATOM      1  C   UNL A   1      37.191  21.546  24.694  1.00  0.00     0.002 C 
ENDROOT
BRANCH   1   2
ATOM      2  C   UNL A   1      35.693  21.472  25.006  1.00  0.00     0.002 C 
BRANCH   2   3
ATOM      3  C   UNL A   1      35.039  20.090  24.963  1.00  0.00     0.021 C 
BRANCH   3   4
ATOM      4  C   UNL A   1      33.516  20.057  24.958  1.00  0.00     0.116 C 
BRANCH   4   5
ATOM      5  N   UNL A   1      32.967  19.504  23.737  1.00  0.00    -0.352 N 
ATOM      6  C   UNL A   1      32.306  20.127  22.712  1.00  0.00     0.251 C 
ATOM      7  O   UNL A   1      31.826  19.454  21.802  1.00  0.00    -0.269 OA
ATOM      8  H   UNL A   1      33.086  18.533  23.628  1.00  0.00     0.163 HD
BRANCH   6   9
ATOM      9  C   UNL A   1      32.134  21.599  22.688  1.00  0.00     0.039 A 
ATOM     10  C   UNL A   1      31.987  24.437  22.712  1.00  0.00     0.052 A 
ATOM     11  C   UNL A   1      33.036  23.756  22.068  1.00  0.00     0.027 A 
ATOM     12  C   UNL A   1      30.998  23.649  23.321  1.00  0.00     0.027 A 
ATOM     13  C   UNL A   1      33.115  22.358  22.058  1.00  0.00     0.016 A 
ATOM     14  C   UNL A   1      31.085  22.250  23.339  1.00  0.00     0.016 A 
BRANCH  10  15
ATOM     15  N   UNL A   1      32.039  25.853  22.914  1.00  0.00    -0.250 N 
ATOM     16  C   UNL A   1      33.558  29.047  22.936  1.00  0.00     0.024 C 
ATOM     17  C   UNL A   1      33.104  27.787  23.687  1.00  0.00     0.071 C 
ATOM     18  C   UNL A   1      33.185  26.602  22.760  1.00  0.00     0.241 C 
ATOM     19  C   UNL A   1      31.601  27.861  24.074  1.00  0.00     0.107 C 
ATOM     20  C   UNL A   1      33.968  27.464  24.960  1.00  0.00     0.066 C 
ATOM     21  O   UNL A   1      34.152  26.402  22.043  1.00  0.00    -0.273 OA
ATOM     22  C   UNL A   1      31.014  26.627  23.419  1.00  0.00     0.238 C 
ATOM     23  C   UNL A   1      31.437  27.796  25.628  1.00  0.00     0.063 C 
ATOM     24  C   UNL A   1      33.353  26.246  25.672  1.00  0.00    -0.036 A 
ATOM     25  C   UNL A   1      33.742  28.652  25.890  1.00  0.00    -0.036 A 
ATOM     26  O   UNL A   1      29.806  26.420  23.400  1.00  0.00    -0.274 OA
ATOM     27  C   UNL A   1      31.998  26.438  26.056  1.00  0.00    -0.036 A 
ATOM     28  C   UNL A   1      32.375  28.853  26.225  1.00  0.00    -0.036 A 
ATOM     29  C   UNL A   1      33.967  25.018  25.875  1.00  0.00     0.005 A 
ATOM     30  C   UNL A   1      34.737  29.477  26.391  1.00  0.00     0.005 A 
ATOM     31  C   UNL A   1      31.268  25.419  26.651  1.00  0.00     0.004 A 
ATOM     32  C   UNL A   1      32.013  29.888  27.073  1.00  0.00     0.004 A 
ATOM     33  C   UNL A   1      33.226  23.988  26.463  1.00  0.00     0.000 A 
ATOM     34  C   UNL A   1      34.366  30.518  27.238  1.00  0.00     0.000 A 
ATOM     35  C   UNL A   1      31.891  24.188  26.851  1.00  0.00     0.000 A 
ATOM     36  C   UNL A   1      33.018  30.722  27.575  1.00  0.00     0.000 A 
ENDBRANCH  10  15
ENDBRANCH   6   9
ENDBRANCH   4   5
ENDBRANCH   3   4
ENDBRANCH   2   3
ENDBRANCH   1   2
BRANCH   1  37
ATOM     37  C   UNL A   1      38.031  20.317  25.036  1.00  0.00     0.021 C 
BRANCH  37  38
ATOM     38  C   UNL A   1      39.226  20.549  25.950  1.00  0.00     0.116 C 
BRANCH  38  39
ATOM     39  N   UNL A   1      40.168  19.444  25.967  1.00  0.00    -0.352 N 
ATOM     40  C   UNL A   1      41.536  19.475  26.124  1.00  0.00     0.251 C 
ATOM     41  H   UNL A   1      39.774  18.549  25.850  1.00  0.00     0.163 HD
ATOM     42  O   UNL A   1      42.185  18.440  26.016  1.00  0.00    -0.269 OA
BRANCH  40  43
ATOM     43  C   UNL A   1      42.221  20.765  26.372  1.00  0.00     0.039 A 
ATOM     44  C   UNL A   1      42.454  21.221  27.671  1.00  0.00     0.014 A 
ATOM     45  C   UNL A   1      42.600  21.551  25.279  1.00  0.00     0.014 A 
ATOM     46  C   UNL A   1      42.898  22.525  27.877  1.00  0.00     0.010 A 
ATOM     47  C   UNL A   1      43.124  22.831  25.490  1.00  0.00     0.010 A 
ATOM     48  C   UNL A   1      43.225  23.351  26.789  1.00  0.00    -0.014 A 
BRANCH  48  49
ATOM     49  C   UNL A   1      43.667  24.749  27.035  1.00  0.00     0.031 A 
ATOM     50  C   UNL A   1      42.717  25.782  27.583  1.00  0.00     0.074 A 
ATOM     51  C   UNL A   1      44.949  25.087  26.793  1.00  0.00     0.049 A 
ATOM     52  N   UNL A   1      42.953  27.031  27.893  1.00  0.00    -0.248 NA
ATOM     53  C   UNL A   1      41.323  25.366  27.810  1.00  0.00     0.031 C 
ATOM     54  C   UNL A   1      45.962  24.190  26.233  1.00  0.00     0.029 A 
ATOM     55  N   UNL A   1      45.621  26.265  26.996  1.00  0.00    -0.354 N 
ATOM     56  C   UNL A   1      41.737  27.562  28.305  1.00  0.00     0.074 A 
ATOM     57  C   UNL A   1      40.759  26.500  28.206  1.00  0.00     0.031 C 
ATOM     58  C   UNL A   1      47.136  24.838  26.174  1.00  0.00     0.029 A 
ATOM     59  C   UNL A   1      46.951  26.205  26.651  1.00  0.00     0.049 A 
ATOM     60  H   UNL A   1      45.194  27.077  27.354  1.00  0.00     0.167 HD
ATOM     61  C   UNL A   1      41.462  28.812  28.745  1.00  0.00     0.034 A 
ATOM     62  C   UNL A   1      47.918  27.141  26.706  1.00  0.00     0.034 A 
ATOM     63  C   UNL A   1      42.441  29.851  28.907  1.00  0.00     0.049 A 
ATOM     64  C   UNL A   1      47.597  28.509  27.229  1.00  0.00     0.074 A 
ATOM     65  C   UNL A   1      42.262  31.125  29.420  1.00  0.00     0.029 A 
ATOM     66  N   UNL A   1      43.778  29.743  28.562  1.00  0.00    -0.354 N 
ATOM     67  N   UNL A   1      46.462  28.956  27.710  1.00  0.00    -0.248 NA
ATOM     68  C   UNL A   1      48.684  29.497  27.234  1.00  0.00     0.031 C 
ATOM     69  C   UNL A   1      43.492  31.789  29.382  1.00  0.00     0.029 A 
ATOM     70  C   UNL A   1      44.436  30.927  28.846  1.00  0.00     0.049 A 
ATOM     71  H   UNL A   1      44.198  28.942  28.173  1.00  0.00     0.167 HD
ATOM     72  C   UNL A   1      46.698  30.274  28.078  1.00  0.00     0.074 A 
ATOM     73  C   UNL A   1      48.092  30.548  27.787  1.00  0.00     0.031 C 
ATOM     74  C   UNL A   1      45.830  31.179  28.591  1.00  0.00     0.034 A 
BRANCH  61  75
ATOM     75  C   UNL A   1      40.045  29.123  29.143  1.00  0.00     0.023 A 
ATOM     76  C   UNL A   1      39.084  29.352  28.138  1.00  0.00     0.012 A 
ATOM     77  C   UNL A   1      39.648  29.098  30.494  1.00  0.00     0.148 A 
ATOM     78  C   UNL A   1      37.748  29.564  28.474  1.00  0.00     0.002 A 
ATOM     79  C   UNL A   1      38.309  29.284  30.818  1.00  0.00     0.091 A 
ATOM     80  F   UNL A   1      40.585  28.896  31.431  1.00  0.00    -0.205 F 
ATOM     81  C   UNL A   1      37.359  29.520  29.811  1.00  0.00     0.022 A 
BRANCH  79  82
ATOM     82  S   UNL A   1      37.698  29.191  32.505  1.00  0.00     0.127 S 
ATOM     83  O   UNL A   1      38.609  30.102  33.198  1.00  0.00    -0.237 OA
ATOM     84  O   UNL A   1      36.329  29.690  32.365  1.00  0.00    -0.237 OA
ATOM     85  O   UNL A   1      37.798  27.792  32.893  1.00  0.00    -0.744 OA
ENDBRANCH  79  82
ENDBRANCH  61  75
BRANCH  62  86
ATOM     86  C   UNL A   1      49.299  26.766  26.300  1.00  0.00     0.023 A 
ATOM     87  C   UNL A   1      50.039  25.890  27.114  1.00  0.00     0.012 A 
ATOM     88  C   UNL A   1      49.829  27.179  25.062  1.00  0.00     0.148 A 
ATOM     89  C   UNL A   1      51.287  25.426  26.699  1.00  0.00     0.002 A 
ATOM     90  C   UNL A   1      51.051  26.677  24.635  1.00  0.00     0.091 A 
ATOM     91  F   UNL A   1      49.100  28.014  24.309  1.00  0.00    -0.205 F 
ATOM     92  C   UNL A   1      51.787  25.807  25.456  1.00  0.00     0.022 A 
BRANCH  90  93
ATOM     93  S   UNL A   1      51.721  27.010  23.002  1.00  0.00     0.127 S 
ATOM     94  O   UNL A   1      50.596  26.654  22.140  1.00  0.00    -0.237 OA
ATOM     95  O   UNL A   1      52.004  28.443  23.086  1.00  0.00    -0.237 OA
ATOM     96  O   UNL A   1      52.898  26.163  22.874  1.00  0.00    -0.744 OA
ENDBRANCH  90  93
ENDBRANCH  62  86
BRANCH  74  97
ATOM     97  C   UNL A   1      46.337  32.565  28.870  1.00  0.00     0.023 A 
ATOM     98  C   UNL A   1      46.957  32.830  30.106  1.00  0.00     0.012 A 
ATOM     99  C   UNL A   1      46.315  33.560  27.874  1.00  0.00     0.148 A 
ATOM    100  C   UNL A   1      47.548  34.069  30.350  1.00  0.00     0.002 A 
ATOM    101  C   UNL A   1      46.933  34.783  28.112  1.00  0.00     0.091 A 
ATOM    102  F   UNL A   1      45.709  33.284  26.710  1.00  0.00    -0.205 F 
ATOM    103  C   UNL A   1      47.546  35.039  29.350  1.00  0.00     0.022 A 
BRANCH 101 104
ATOM    104  S   UNL A   1      47.048  36.069  26.863  1.00  0.00     0.127 S 
ATOM    105  O   UNL A   1      47.724  35.367  25.774  1.00  0.00    -0.237 OA
ATOM    106  O   UNL A   1      45.641  36.380  26.609  1.00  0.00    -0.237 OA
ATOM    107  O   UNL A   1      47.809  37.153  27.469  1.00  0.00    -0.744 OA
ENDBRANCH 101 104
ENDBRANCH  74  97
ENDBRANCH  48  49
ENDBRANCH  40  43
ENDBRANCH  38  39
ENDBRANCH  37  38
ENDBRANCH   1  37
TORSDOF 17
ENDMDL
