MODEL 1
REMARK VINA RESULT:     -12.5      0.000      0.000
REMARK SMILES CC1(C)S[C@@H](c2cccc3c2sc2ccccc23)[NH2+][C@@H]1C(=O)NCCCCCCNC(=O)c1ccc(-c2c3nc(c(-c4cccc(S(=O)(=O)[O-])c4F)c4ccc([nH]4)c(-c4cccc(S(=O)(=O)[O-])c4F)c4nc(c(-c5cccc(S(=O)(=O)[O-])c5F)c5ccc2[nH]5)C=C4)C=C3)cc1
REMARK SMILES IDX 27 1 26 2 25 3 24 4 23 5 21 6 22 7 20 9 1 10 2 11 3 12 4 13
REMARK SMILES IDX 5 14 19 15 6 18 7 19 11 20 8 21 10 22 12 23 9 24 18 25 13 26
REMARK SMILES IDX 17 27 14 28 16 29 15 30 28 31 29 32 30 33 31 34 32 36 33 37
REMARK SMILES IDX 34 38 95 39 35 40 94 41 36 42 37 43 38 44 88 45 39 46 93 47
REMARK SMILES IDX 87 48 89 49 40 50 92 51 86 52 85 53 41 55 73 56 53 57 72 58
REMARK SMILES IDX 54 59 57 60 71 61 90 62 55 63 56 64 70 66 91 67 58 68 42 69
REMARK SMILES IDX 43 70 51 71 44 72 46 73 52 74 45 75 47 76 48 77 49 78 50 79
REMARK SMILES IDX 74 80 75 81 83 82 76 83 78 84 84 85 77 86 79 87 80 88 81 89
REMARK SMILES IDX 82 90 59 91 60 92 68 93 61 94 63 95 69 96 62 97 64 98 65 99
REMARK SMILES IDX 66 100 67 101
REMARK H PARENT 23 8 19 16 19 17 30 35 89 54 57 65
REMARK Flexibility Score: inf
ROOT
ATOM      1  C   UNL A   1      36.887  19.739  25.009  1.00  0.00     0.002 C 
ENDROOT
BRANCH   1   2
ATOM      2  C   UNL A   1      36.290  21.092  24.619  1.00  0.00     0.002 C 
BRANCH   2   3
ATOM      3  C   UNL A   1      37.251  22.284  24.661  1.00  0.00     0.021 C 
BRANCH   3   4
ATOM      4  C   UNL A   1      36.613  23.661  24.484  1.00  0.00     0.116 C 
BRANCH   4   5
ATOM      5  N   UNL A   1      35.518  23.636  23.534  1.00  0.00    -0.351 N 
ATOM      6  C   UNL A   1      34.200  23.952  23.681  1.00  0.00     0.279 C 
ATOM      7  O   UNL A   1      33.504  23.781  22.678  1.00  0.00    -0.268 OA
ATOM      8  H   UNL A   1      35.769  23.341  22.629  1.00  0.00     0.163 HD
BRANCH   6   9
ATOM      9  C   UNL A   1      33.605  24.362  25.060  1.00  0.00     0.289 C 
ATOM     10  C   UNL A   1      31.946  23.833  26.927  1.00  0.00     0.030 C 
ATOM     11  C   UNL A   1      32.184  23.822  25.401  1.00  0.00     0.077 C 
ATOM     12  C   UNL A   1      31.818  22.430  24.884  1.00  0.00     0.030 C 
ATOM     13  S   UNL A   1      31.062  25.072  24.668  1.00  0.00    -0.081 SA
ATOM     14  C   UNL A   1      32.375  26.311  24.453  1.00  0.00     0.276 C 
ATOM     15  N   UNL A   1      33.540  25.843  25.213  1.00  0.00    -0.320 N 
ATOM     16  H   UNL A   1      33.435  26.088  26.197  1.00  0.00     0.348 HD
ATOM     17  H   UNL A   1      34.395  26.278  24.867  1.00  0.00     0.348 HD
BRANCH  14  18
ATOM     18  C   UNL A   1      31.972  27.712  24.878  1.00  0.00     0.038 A 
ATOM     19  C   UNL A   1      32.574  28.315  26.010  1.00  0.00     0.012 A 
ATOM     20  C   UNL A   1      31.031  28.508  24.159  1.00  0.00     0.046 A 
ATOM     21  C   UNL A   1      32.262  29.602  26.417  1.00  0.00     0.001 A 
ATOM     22  C   UNL A   1      30.689  29.806  24.558  1.00  0.00     0.001 A 
ATOM     23  S   UNL A   1      30.171  28.081  22.724  1.00  0.00    -0.135 S 
ATOM     24  C   UNL A   1      31.325  30.343  25.706  1.00  0.00     0.010 A 
ATOM     25  C   UNL A   1      29.696  30.415  23.689  1.00  0.00     0.000 A 
ATOM     26  C   UNL A   1      29.339  29.574  22.638  1.00  0.00     0.036 A 
ATOM     27  C   UNL A   1      29.080  31.692  23.753  1.00  0.00     0.010 A 
ATOM     28  C   UNL A   1      28.403  29.969  21.659  1.00  0.00     0.019 A 
ATOM     29  C   UNL A   1      28.152  32.090  22.787  1.00  0.00     0.001 A 
ATOM     30  C   UNL A   1      27.819  31.234  21.749  1.00  0.00     0.002 A 
ENDBRANCH  14  18
ENDBRANCH   6   9
ENDBRANCH   4   5
ENDBRANCH   3   4
ENDBRANCH   2   3
ENDBRANCH   1   2
BRANCH   1  31
ATOM     31  C   UNL A   1      38.397  19.597  24.808  1.00  0.00     0.021 C 
BRANCH  31  32
ATOM     32  C   UNL A   1      39.245  19.753  26.066  1.00  0.00     0.116 C 
BRANCH  32  33
ATOM     33  N   UNL A   1      40.431  18.914  26.052  1.00  0.00    -0.352 N 
ATOM     34  C   UNL A   1      41.751  19.276  26.121  1.00  0.00     0.251 C 
ATOM     35  H   UNL A   1      40.262  17.946  25.985  1.00  0.00     0.163 HD
ATOM     36  O   UNL A   1      42.624  18.420  25.955  1.00  0.00    -0.269 OA
BRANCH  34  37
ATOM     37  C   UNL A   1      42.137  20.682  26.372  1.00  0.00     0.039 A 
ATOM     38  C   UNL A   1      42.291  21.540  25.277  1.00  0.00     0.014 A 
ATOM     39  C   UNL A   1      42.386  21.154  27.665  1.00  0.00     0.014 A 
ATOM     40  C   UNL A   1      42.664  22.870  25.481  1.00  0.00     0.010 A 
ATOM     41  C   UNL A   1      42.685  22.500  27.871  1.00  0.00     0.010 A 
ATOM     42  C   UNL A   1      42.852  23.366  26.782  1.00  0.00    -0.014 A 
BRANCH  42  43
ATOM     43  C   UNL A   1      43.252  24.781  27.004  1.00  0.00     0.031 A 
ATOM     44  C   UNL A   1      42.324  25.731  27.716  1.00  0.00     0.074 A 
ATOM     45  C   UNL A   1      44.429  25.226  26.524  1.00  0.00     0.049 A 
ATOM     46  N   UNL A   1      42.508  26.991  28.018  1.00  0.00    -0.248 NA
ATOM     47  C   UNL A   1      41.008  25.207  28.120  1.00  0.00     0.031 C 
ATOM     48  C   UNL A   1      45.376  24.430  25.740  1.00  0.00     0.029 A 
ATOM     49  N   UNL A   1      45.023  26.459  26.611  1.00  0.00    -0.354 N 
ATOM     50  C   UNL A   1      41.326  27.417  28.614  1.00  0.00     0.074 A 
ATOM     51  C   UNL A   1      40.415  26.293  28.594  1.00  0.00     0.031 C 
ATOM     52  C   UNL A   1      46.437  25.192  25.428  1.00  0.00     0.029 A 
ATOM     53  C   UNL A   1      46.241  26.532  25.974  1.00  0.00     0.049 A 
ATOM     54  H   UNL A   1      44.617  27.220  27.084  1.00  0.00     0.167 HD
ATOM     55  C   UNL A   1      41.033  28.621  29.161  1.00  0.00     0.034 A 
ATOM     56  C   UNL A   1      47.104  27.560  25.852  1.00  0.00     0.034 A 
ATOM     57  C   UNL A   1      41.958  29.721  29.225  1.00  0.00     0.049 A 
ATOM     58  C   UNL A   1      46.785  28.865  26.529  1.00  0.00     0.074 A 
ATOM     59  C   UNL A   1      41.794  30.950  29.841  1.00  0.00     0.029 A 
ATOM     60  N   UNL A   1      43.220  29.727  28.651  1.00  0.00    -0.354 N 
ATOM     61  N   UNL A   1      45.734  29.192  27.241  1.00  0.00    -0.248 NA
ATOM     62  C   UNL A   1      47.793  29.930  26.424  1.00  0.00     0.031 C 
ATOM     63  C   UNL A   1      42.952  31.705  29.623  1.00  0.00     0.029 A 
ATOM     64  C   UNL A   1      43.844  30.940  28.891  1.00  0.00     0.049 A 
ATOM     65  H   UNL A   1      43.615  28.980  28.146  1.00  0.00     0.167 HD
ATOM     66  C   UNL A   1      45.967  30.486  27.694  1.00  0.00     0.074 A 
ATOM     67  C   UNL A   1      47.274  30.871  27.201  1.00  0.00     0.031 C 
ATOM     68  C   UNL A   1      45.165  31.292  28.434  1.00  0.00     0.034 A 
BRANCH  55  69
ATOM     69  C   UNL A   1      39.675  28.791  29.792  1.00  0.00     0.023 A 
ATOM     70  C   UNL A   1      39.452  28.310  31.098  1.00  0.00     0.012 A 
ATOM     71  C   UNL A   1      38.638  29.466  29.119  1.00  0.00     0.148 A 
ATOM     72  C   UNL A   1      38.210  28.463  31.712  1.00  0.00     0.002 A 
ATOM     73  C   UNL A   1      37.415  29.655  29.755  1.00  0.00     0.091 A 
ATOM     74  F   UNL A   1      38.859  29.899  27.870  1.00  0.00    -0.205 F 
ATOM     75  C   UNL A   1      37.195  29.144  31.045  1.00  0.00     0.022 A 
BRANCH  73  76
ATOM     76  S   UNL A   1      36.069  30.586  29.012  1.00  0.00     0.127 S 
ATOM     77  O   UNL A   1      35.373  31.091  30.194  1.00  0.00    -0.237 OA
ATOM     78  O   UNL A   1      36.787  31.605  28.245  1.00  0.00    -0.237 OA
ATOM     79  O   UNL A   1      35.321  29.634  28.204  1.00  0.00    -0.744 OA
ENDBRANCH  73  76
ENDBRANCH  55  69
BRANCH  56  80
ATOM     80  C   UNL A   1      48.394  27.365  25.131  1.00  0.00     0.023 A 
ATOM     81  C   UNL A   1      49.542  26.993  25.857  1.00  0.00     0.012 A 
ATOM     82  C   UNL A   1      48.486  27.520  23.734  1.00  0.00     0.148 A 
ATOM     83  C   UNL A   1      50.766  26.812  25.212  1.00  0.00     0.002 A 
ATOM     84  C   UNL A   1      49.695  27.283  23.090  1.00  0.00     0.091 A 
ATOM     85  F   UNL A   1      47.385  27.885  23.061  1.00  0.00    -0.205 F 
ATOM     86  C   UNL A   1      50.840  26.947  23.828  1.00  0.00     0.022 A 
BRANCH  84  87
ATOM     87  S   UNL A   1      49.851  27.305  21.300  1.00  0.00     0.127 S 
ATOM     88  O   UNL A   1      49.865  28.741  21.019  1.00  0.00    -0.237 OA
ATOM     89  O   UNL A   1      51.134  26.629  21.099  1.00  0.00    -0.237 OA
ATOM     90  O   UNL A   1      48.703  26.572  20.795  1.00  0.00    -0.744 OA
ENDBRANCH  84  87
ENDBRANCH  56  80
BRANCH  68  91
ATOM     91  C   UNL A   1      45.685  32.664  28.776  1.00  0.00     0.023 A 
ATOM     92  C   UNL A   1      46.427  32.856  29.958  1.00  0.00     0.012 A 
ATOM     93  C   UNL A   1      45.486  33.751  27.903  1.00  0.00     0.148 A 
ATOM     94  C   UNL A   1      46.927  34.116  30.287  1.00  0.00     0.002 A 
ATOM     95  C   UNL A   1      46.029  34.993  28.211  1.00  0.00     0.091 A 
ATOM     96  F   UNL A   1      44.761  33.557  26.791  1.00  0.00    -0.205 F 
ATOM     97  C   UNL A   1      46.738  35.181  29.409  1.00  0.00     0.022 A 
BRANCH  95  98
ATOM     98  S   UNL A   1      45.916  36.392  27.091  1.00  0.00     0.127 S 
ATOM     99  O   UNL A   1      46.727  37.394  27.781  1.00  0.00    -0.237 OA
ATOM    100  O   UNL A   1      46.515  35.863  25.865  1.00  0.00    -0.237 OA
ATOM    101  O   UNL A   1      44.496  36.697  26.980  1.00  0.00    -0.744 OA
ENDBRANCH  95  98
ENDBRANCH  68  91
ENDBRANCH  42  43
ENDBRANCH  34  37
ENDBRANCH  32  33
ENDBRANCH  31  32
ENDBRANCH   1  31
TORSDOF 17
ENDMDL
MODEL 2
REMARK VINA RESULT:     -11.7      5.414      9.544
REMARK SMILES CC1(C)S[C@@H](c2cccc3c2sc2ccccc23)[NH2+][C@@H]1C(=O)NCCCCCCNC(=O)c1ccc(-c2c3nc(c(-c4cccc(S(=O)(=O)[O-])c4F)c4ccc([nH]4)c(-c4cccc(S(=O)(=O)[O-])c4F)c4nc(c(-c5cccc(S(=O)(=O)[O-])c5F)c5ccc2[nH]5)C=C4)C=C3)cc1
REMARK SMILES IDX 27 1 26 2 25 3 24 4 23 5 21 6 22 7 20 9 1 10 2 11 3 12 4 13
REMARK SMILES IDX 5 14 19 15 6 18 7 19 11 20 8 21 10 22 12 23 9 24 18 25 13 26
REMARK SMILES IDX 17 27 14 28 16 29 15 30 28 31 29 32 30 33 31 34 32 36 33 37
REMARK SMILES IDX 34 38 95 39 35 40 94 41 36 42 37 43 38 44 88 45 39 46 93 47
REMARK SMILES IDX 87 48 89 49 40 50 92 51 86 52 85 53 41 55 73 56 53 57 72 58
REMARK SMILES IDX 54 59 57 60 71 61 90 62 55 63 56 64 70 66 91 67 58 68 42 69
REMARK SMILES IDX 43 70 51 71 44 72 46 73 52 74 45 75 47 76 48 77 49 78 50 79
REMARK SMILES IDX 74 80 75 81 83 82 76 83 78 84 84 85 77 86 79 87 80 88 81 89
REMARK SMILES IDX 82 90 59 91 60 92 68 93 61 94 63 95 69 96 62 97 64 98 65 99
REMARK SMILES IDX 66 100 67 101
REMARK H PARENT 23 8 19 16 19 17 30 35 89 54 57 65
REMARK Flexibility Score: inf
ROOT
ATOM      1  C   UNL A   1      32.669  29.006  26.843  1.00  0.00     0.002 C 
ENDROOT
BRANCH   1   2
ATOM      2  C   UNL A   1      32.467  29.768  25.532  1.00  0.00     0.002 C 
BRANCH   2   3
ATOM      3  C   UNL A   1      31.022  29.865  25.031  1.00  0.00     0.021 C 
BRANCH   3   4
ATOM      4  C   UNL A   1      30.594  28.799  24.024  1.00  0.00     0.116 C 
BRANCH   4   5
ATOM      5  N   UNL A   1      30.308  27.529  24.663  1.00  0.00    -0.351 N 
ATOM      6  C   UNL A   1      31.063  26.401  24.787  1.00  0.00     0.279 C 
ATOM      7  O   UNL A   1      30.509  25.458  25.357  1.00  0.00    -0.268 OA
ATOM      8  H   UNL A   1      29.417  27.473  25.078  1.00  0.00     0.163 HD
BRANCH   6   9
ATOM      9  C   UNL A   1      32.467  26.278  24.124  1.00  0.00     0.289 C 
ATOM     10  C   UNL A   1      33.835  26.301  21.970  1.00  0.00     0.030 C 
ATOM     11  C   UNL A   1      32.503  25.873  22.621  1.00  0.00     0.077 C 
ATOM     12  C   UNL A   1      31.366  26.378  21.729  1.00  0.00     0.030 C 
ATOM     13  S   UNL A   1      32.486  24.041  22.669  1.00  0.00    -0.081 SA
ATOM     14  C   UNL A   1      32.905  23.957  24.436  1.00  0.00     0.276 C 
ATOM     15  N   UNL A   1      33.331  25.300  24.845  1.00  0.00    -0.320 N 
ATOM     16  H   UNL A   1      34.309  25.447  24.593  1.00  0.00     0.348 HD
ATOM     17  H   UNL A   1      33.242  25.416  25.854  1.00  0.00     0.348 HD
BRANCH  14  18
ATOM     18  C   UNL A   1      33.969  22.923  24.766  1.00  0.00     0.038 A 
ATOM     19  C   UNL A   1      35.186  23.320  25.371  1.00  0.00     0.012 A 
ATOM     20  C   UNL A   1      33.795  21.524  24.545  1.00  0.00     0.046 A 
ATOM     21  C   UNL A   1      36.172  22.410  25.718  1.00  0.00     0.001 A 
ATOM     22  C   UNL A   1      34.781  20.586  24.874  1.00  0.00     0.001 A 
ATOM     23  S   UNL A   1      32.416  20.727  23.877  1.00  0.00    -0.135 S 
ATOM     24  C   UNL A   1      35.980  21.056  25.469  1.00  0.00     0.010 A 
ATOM     25  C   UNL A   1      34.394  19.227  24.539  1.00  0.00     0.000 A 
ATOM     26  C   UNL A   1      33.113  19.169  23.995  1.00  0.00     0.036 A 
ATOM     27  C   UNL A   1      35.102  18.006  24.695  1.00  0.00     0.010 A 
ATOM     28  C   UNL A   1      32.525  17.945  23.615  1.00  0.00     0.019 A 
ATOM     29  C   UNL A   1      34.525  16.790  24.320  1.00  0.00     0.001 A 
ATOM     30  C   UNL A   1      33.246  16.762  23.785  1.00  0.00     0.002 A 
ENDBRANCH  14  18
ENDBRANCH   6   9
ENDBRANCH   4   5
ENDBRANCH   3   4
ENDBRANCH   2   3
ENDBRANCH   1   2
BRANCH   1  31
ATOM     31  C   UNL A   1      33.908  29.394  27.652  1.00  0.00     0.021 C 
BRANCH  31  32
ATOM     32  C   UNL A   1      34.513  30.753  27.317  1.00  0.00     0.116 C 
BRANCH  32  33
ATOM     33  N   UNL A   1      34.172  31.776  28.291  1.00  0.00    -0.352 N 
ATOM     34  C   UNL A   1      34.827  32.133  29.441  1.00  0.00     0.251 C 
ATOM     35  H   UNL A   1      33.354  32.287  28.096  1.00  0.00     0.163 HD
ATOM     36  O   UNL A   1      34.302  32.939  30.212  1.00  0.00    -0.269 OA
BRANCH  34  37
ATOM     37  C   UNL A   1      36.145  31.546  29.773  1.00  0.00     0.039 A 
ATOM     38  C   UNL A   1      37.296  32.152  29.258  1.00  0.00     0.014 A 
ATOM     39  C   UNL A   1      36.256  30.390  30.551  1.00  0.00     0.014 A 
ATOM     40  C   UNL A   1      38.553  31.616  29.546  1.00  0.00     0.010 A 
ATOM     41  C   UNL A   1      37.515  29.901  30.898  1.00  0.00     0.010 A 
ATOM     42  C   UNL A   1      38.675  30.492  30.379  1.00  0.00    -0.014 A 
BRANCH  42  43
ATOM     43  C   UNL A   1      40.011  29.916  30.687  1.00  0.00     0.031 A 
ATOM     44  C   UNL A   1      40.818  30.441  31.846  1.00  0.00     0.074 A 
ATOM     45  C   UNL A   1      40.522  28.954  29.894  1.00  0.00     0.049 A 
ATOM     46  N   UNL A   1      41.990  30.051  32.278  1.00  0.00    -0.248 NA
ATOM     47  C   UNL A   1      40.247  31.566  32.606  1.00  0.00     0.031 C 
ATOM     48  C   UNL A   1      39.881  28.424  28.688  1.00  0.00     0.029 A 
ATOM     49  N   UNL A   1      41.703  28.262  29.974  1.00  0.00    -0.354 N 
ATOM     50  C   UNL A   1      42.310  30.899  33.331  1.00  0.00     0.074 A 
ATOM     51  C   UNL A   1      41.227  31.852  33.450  1.00  0.00     0.031 C 
ATOM     52  C   UNL A   1      40.671  27.482  28.149  1.00  0.00     0.029 A 
ATOM     53  C   UNL A   1      41.880  27.352  28.957  1.00  0.00     0.049 A 
ATOM     54  H   UNL A   1      42.363  28.404  30.690  1.00  0.00     0.167 HD
ATOM     55  C   UNL A   1      43.388  30.869  34.152  1.00  0.00     0.034 A 
ATOM     56  C   UNL A   1      42.897  26.502  28.711  1.00  0.00     0.034 A 
ATOM     57  C   UNL A   1      44.437  29.889  34.066  1.00  0.00     0.049 A 
ATOM     58  C   UNL A   1      44.048  26.442  29.677  1.00  0.00     0.074 A 
ATOM     59  C   UNL A   1      45.523  29.714  34.906  1.00  0.00     0.029 A 
ATOM     60  N   UNL A   1      44.535  28.921  33.079  1.00  0.00    -0.354 N 
ATOM     61  N   UNL A   1      44.246  27.135  30.772  1.00  0.00    -0.248 NA
ATOM     62  C   UNL A   1      45.095  25.448  29.400  1.00  0.00     0.031 C 
ATOM     63  C   UNL A   1      46.287  28.649  34.415  1.00  0.00     0.029 A 
ATOM     64  C   UNL A   1      45.666  28.148  33.283  1.00  0.00     0.049 A 
ATOM     65  H   UNL A   1      43.895  28.801  32.340  1.00  0.00     0.167 HD
ATOM     66  C   UNL A   1      45.421  26.643  31.329  1.00  0.00     0.074 A 
ATOM     67  C   UNL A   1      45.873  25.570  30.467  1.00  0.00     0.031 C 
ATOM     68  C   UNL A   1      46.078  27.053  32.443  1.00  0.00     0.034 A 
BRANCH  55  69
ATOM     69  C   UNL A   1      43.452  31.892  35.258  1.00  0.00     0.023 A 
ATOM     70  C   UNL A   1      44.270  33.030  35.104  1.00  0.00     0.012 A 
ATOM     71  C   UNL A   1      42.673  31.756  36.423  1.00  0.00     0.148 A 
ATOM     72  C   UNL A   1      44.341  33.998  36.104  1.00  0.00     0.002 A 
ATOM     73  C   UNL A   1      42.714  32.748  37.397  1.00  0.00     0.091 A 
ATOM     74  F   UNL A   1      41.916  30.658  36.564  1.00  0.00    -0.205 F 
ATOM     75  C   UNL A   1      43.556  33.862  37.246  1.00  0.00     0.022 A 
BRANCH  73  76
ATOM     76  S   UNL A   1      41.683  32.706  38.869  1.00  0.00     0.127 S 
ATOM     77  O   UNL A   1      42.300  31.621  39.629  1.00  0.00    -0.237 OA
ATOM     78  O   UNL A   1      41.894  34.041  39.431  1.00  0.00    -0.237 OA
ATOM     79  O   UNL A   1      40.328  32.452  38.402  1.00  0.00    -0.744 OA
ENDBRANCH  73  76
ENDBRANCH  55  69
BRANCH  56  80
ATOM     80  C   UNL A   1      42.826  25.577  27.544  1.00  0.00     0.023 A 
ATOM     81  C   UNL A   1      43.412  25.961  26.322  1.00  0.00     0.012 A 
ATOM     82  C   UNL A   1      42.210  24.314  27.642  1.00  0.00     0.148 A 
ATOM     83  C   UNL A   1      43.355  25.121  25.209  1.00  0.00     0.002 A 
ATOM     84  C   UNL A   1      42.206  23.459  26.547  1.00  0.00     0.091 A 
ATOM     85  F   UNL A   1      41.649  23.971  28.811  1.00  0.00    -0.205 F 
ATOM     86  C   UNL A   1      42.762  23.867  25.324  1.00  0.00     0.022 A 
BRANCH  84  87
ATOM     87  S   UNL A   1      41.582  21.777  26.642  1.00  0.00     0.127 S 
ATOM     88  O   UNL A   1      42.183  21.167  25.456  1.00  0.00    -0.237 OA
ATOM     89  O   UNL A   1      42.139  21.319  27.916  1.00  0.00    -0.237 OA
ATOM     90  O   UNL A   1      40.134  21.892  26.630  1.00  0.00    -0.744 OA
ENDBRANCH  84  87
ENDBRANCH  56  80
BRANCH  68  91
ATOM     91  C   UNL A   1      47.347  26.326  32.807  1.00  0.00     0.023 A 
ATOM     92  C   UNL A   1      48.588  26.817  32.356  1.00  0.00     0.012 A 
ATOM     93  C   UNL A   1      47.316  25.190  33.640  1.00  0.00     0.148 A 
ATOM     94  C   UNL A   1      49.775  26.166  32.692  1.00  0.00     0.002 A 
ATOM     95  C   UNL A   1      48.506  24.575  34.012  1.00  0.00     0.091 A 
ATOM     96  F   UNL A   1      46.126  24.723  34.046  1.00  0.00    -0.205 F 
ATOM     97  C   UNL A   1      49.735  25.052  33.528  1.00  0.00     0.022 A 
BRANCH  95  98
ATOM     98  S   UNL A   1      48.552  23.196  35.162  1.00  0.00     0.127 S 
ATOM     99  O   UNL A   1      47.505  22.326  34.627  1.00  0.00    -0.237 OA
ATOM    100  O   UNL A   1      49.914  22.688  34.990  1.00  0.00    -0.237 OA
ATOM    101  O   UNL A   1      48.286  23.766  36.475  1.00  0.00    -0.744 OA
ENDBRANCH  95  98
ENDBRANCH  68  91
ENDBRANCH  42  43
ENDBRANCH  34  37
ENDBRANCH  32  33
ENDBRANCH  31  32
ENDBRANCH   1  31
TORSDOF 17
ENDMDL
MODEL 3
REMARK VINA RESULT:     -11.6      1.624      7.341
REMARK SMILES CC1(C)S[C@@H](c2cccc3c2sc2ccccc23)[NH2+][C@@H]1C(=O)NCCCCCCNC(=O)c1ccc(-c2c3nc(c(-c4cccc(S(=O)(=O)[O-])c4F)c4ccc([nH]4)c(-c4cccc(S(=O)(=O)[O-])c4F)c4nc(c(-c5cccc(S(=O)(=O)[O-])c5F)c5ccc2[nH]5)C=C4)C=C3)cc1
REMARK SMILES IDX 27 1 26 2 25 3 24 4 23 5 21 6 22 7 20 9 1 10 2 11 3 12 4 13
REMARK SMILES IDX 5 14 19 15 6 18 7 19 11 20 8 21 10 22 12 23 9 24 18 25 13 26
REMARK SMILES IDX 17 27 14 28 16 29 15 30 28 31 29 32 30 33 31 34 32 36 33 37
REMARK SMILES IDX 34 38 95 39 35 40 94 41 36 42 37 43 38 44 88 45 39 46 93 47
REMARK SMILES IDX 87 48 89 49 40 50 92 51 86 52 85 53 41 55 73 56 53 57 72 58
REMARK SMILES IDX 54 59 57 60 71 61 90 62 55 63 56 64 70 66 91 67 58 68 42 69
REMARK SMILES IDX 43 70 51 71 44 72 46 73 52 74 45 75 47 76 48 77 49 78 50 79
REMARK SMILES IDX 74 80 75 81 83 82 76 83 78 84 84 85 77 86 79 87 80 88 81 89
REMARK SMILES IDX 82 90 59 91 60 92 68 93 61 94 63 95 69 96 62 97 64 98 65 99
REMARK SMILES IDX 66 100 67 101
REMARK H PARENT 23 8 19 16 19 17 30 35 89 54 57 65
REMARK Flexibility Score: inf
ROOT
ATOM      1  C   UNL A   1      38.615  20.827  25.537  1.00  0.00     0.002 C 
ENDROOT
BRANCH   1   2
ATOM      2  C   UNL A   1      37.554  21.929  25.525  1.00  0.00     0.002 C 
BRANCH   2   3
ATOM      3  C   UNL A   1      36.482  21.814  24.436  1.00  0.00     0.021 C 
BRANCH   3   4
ATOM      4  C   UNL A   1      36.352  23.014  23.500  1.00  0.00     0.116 C 
BRANCH   4   5
ATOM      5  N   UNL A   1      35.068  23.043  22.826  1.00  0.00    -0.351 N 
ATOM      6  C   UNL A   1      33.841  23.452  23.258  1.00  0.00     0.279 C 
ATOM      7  O   UNL A   1      32.924  23.306  22.448  1.00  0.00    -0.268 OA
ATOM      8  H   UNL A   1      35.086  22.710  21.900  1.00  0.00     0.163 HD
BRANCH   6   9
ATOM      9  C   UNL A   1      33.607  23.934  24.721  1.00  0.00     0.289 C 
ATOM     10  C   UNL A   1      32.447  23.524  26.957  1.00  0.00     0.030 C 
ATOM     11  C   UNL A   1      32.306  23.444  25.422  1.00  0.00     0.077 C 
ATOM     12  C   UNL A   1      31.805  22.040  25.075  1.00  0.00     0.030 C 
ATOM     13  S   UNL A   1      31.055  24.689  24.926  1.00  0.00    -0.081 SA
ATOM     14  C   UNL A   1      32.293  25.885  24.340  1.00  0.00     0.276 C 
ATOM     15  N   UNL A   1      33.602  25.421  24.815  1.00  0.00    -0.320 N 
ATOM     16  H   UNL A   1      33.743  25.710  25.783  1.00  0.00     0.348 HD
ATOM     17  H   UNL A   1      34.352  25.821  24.252  1.00  0.00     0.348 HD
BRANCH  14  18
ATOM     18  C   UNL A   1      32.025  27.313  24.785  1.00  0.00     0.038 A 
ATOM     19  C   UNL A   1      32.773  27.882  25.845  1.00  0.00     0.012 A 
ATOM     20  C   UNL A   1      31.072  28.164  24.151  1.00  0.00     0.046 A 
ATOM     21  C   UNL A   1      32.586  29.189  26.264  1.00  0.00     0.001 A 
ATOM     22  C   UNL A   1      30.855  29.484  24.565  1.00  0.00     0.001 A 
ATOM     23  S   UNL A   1      30.049  27.786  22.812  1.00  0.00    -0.135 S 
ATOM     24  C   UNL A   1      31.633  29.985  25.639  1.00  0.00     0.010 A 
ATOM     25  C   UNL A   1      29.823  30.151  23.789  1.00  0.00     0.000 A 
ATOM     26  C   UNL A   1      29.310  29.329  22.789  1.00  0.00     0.036 A 
ATOM     27  C   UNL A   1      29.300  31.467  23.897  1.00  0.00     0.010 A 
ATOM     28  C   UNL A   1      28.311  29.779  21.901  1.00  0.00     0.019 A 
ATOM     29  C   UNL A   1      28.310  31.918  23.021  1.00  0.00     0.001 A 
ATOM     30  C   UNL A   1      27.822  31.079  22.031  1.00  0.00     0.002 A 
ENDBRANCH  14  18
ENDBRANCH   6   9
ENDBRANCH   4   5
ENDBRANCH   3   4
ENDBRANCH   2   3
ENDBRANCH   1   2
BRANCH   1  31
ATOM     31  C   UNL A   1      39.928  21.178  26.239  1.00  0.00     0.021 C 
BRANCH  31  32
ATOM     32  C   UNL A   1      40.693  19.998  26.829  1.00  0.00     0.116 C 
BRANCH  32  33
ATOM     33  N   UNL A   1      41.837  19.608  26.022  1.00  0.00    -0.352 N 
ATOM     34  C   UNL A   1      42.906  20.361  25.610  1.00  0.00     0.251 C 
ATOM     35  H   UNL A   1      41.846  18.669  25.728  1.00  0.00     0.163 HD
ATOM     36  O   UNL A   1      43.712  19.883  24.810  1.00  0.00    -0.269 OA
BRANCH  34  37
ATOM     37  C   UNL A   1      43.090  21.745  26.103  1.00  0.00     0.039 A 
ATOM     38  C   UNL A   1      43.291  21.947  27.472  1.00  0.00     0.014 A 
ATOM     39  C   UNL A   1      43.028  22.844  25.240  1.00  0.00     0.014 A 
ATOM     40  C   UNL A   1      43.458  23.242  27.969  1.00  0.00     0.010 A 
ATOM     41  C   UNL A   1      43.269  24.128  25.727  1.00  0.00     0.010 A 
ATOM     42  C   UNL A   1      43.461  24.344  27.098  1.00  0.00    -0.014 A 
BRANCH  42  43
ATOM     43  C   UNL A   1      43.636  25.724  27.622  1.00  0.00     0.031 A 
ATOM     44  C   UNL A   1      45.007  26.345  27.689  1.00  0.00     0.074 A 
ATOM     45  C   UNL A   1      42.568  26.403  28.083  1.00  0.00     0.049 A 
ATOM     46  N   UNL A   1      45.351  27.541  28.095  1.00  0.00    -0.248 NA
ATOM     47  C   UNL A   1      46.143  25.509  27.269  1.00  0.00     0.031 C 
ATOM     48  C   UNL A   1      41.201  25.880  28.157  1.00  0.00     0.029 A 
ATOM     49  N   UNL A   1      42.465  27.673  28.591  1.00  0.00    -0.354 N 
ATOM     50  C   UNL A   1      46.737  27.588  28.012  1.00  0.00     0.074 A 
ATOM     51  C   UNL A   1      47.176  26.287  27.555  1.00  0.00     0.031 C 
ATOM     52  C   UNL A   1      40.397  26.826  28.669  1.00  0.00     0.029 A 
ATOM     53  C   UNL A   1      41.188  28.014  28.974  1.00  0.00     0.049 A 
ATOM     54  H   UNL A   1      43.233  28.284  28.674  1.00  0.00     0.167 HD
ATOM     55  C   UNL A   1      47.571  28.627  28.257  1.00  0.00     0.034 A 
ATOM     56  C   UNL A   1      40.709  29.157  29.503  1.00  0.00     0.034 A 
ATOM     57  C   UNL A   1      47.129  29.935  28.662  1.00  0.00     0.049 A 
ATOM     58  C   UNL A   1      41.645  30.319  29.700  1.00  0.00     0.074 A 
ATOM     59  C   UNL A   1      47.883  31.081  28.845  1.00  0.00     0.029 A 
ATOM     60  N   UNL A   1      45.815  30.271  28.950  1.00  0.00    -0.354 N 
ATOM     61  N   UNL A   1      42.928  30.399  29.447  1.00  0.00    -0.248 NA
ATOM     62  C   UNL A   1      41.057  31.565  30.213  1.00  0.00     0.031 C 
ATOM     63  C   UNL A   1      47.025  32.105  29.261  1.00  0.00     0.029 A 
ATOM     64  C   UNL A   1      45.736  31.603  29.316  1.00  0.00     0.049 A 
ATOM     65  H   UNL A   1      45.050  29.651  28.902  1.00  0.00     0.167 HD
ATOM     66  C   UNL A   1      43.296  31.707  29.740  1.00  0.00     0.074 A 
ATOM     67  C   UNL A   1      42.091  32.393  30.160  1.00  0.00     0.031 C 
ATOM     68  C   UNL A   1      44.522  32.286  29.686  1.00  0.00     0.034 A 
BRANCH  55  69
ATOM     69  C   UNL A   1      49.046  28.408  28.032  1.00  0.00     0.023 A 
ATOM     70  C   UNL A   1      49.881  28.124  29.132  1.00  0.00     0.012 A 
ATOM     71  C   UNL A   1      49.597  28.435  26.737  1.00  0.00     0.148 A 
ATOM     72  C   UNL A   1      51.246  27.905  28.953  1.00  0.00     0.002 A 
ATOM     73  C   UNL A   1      50.952  28.171  26.560  1.00  0.00     0.091 A 
ATOM     74  F   UNL A   1      48.794  28.727  25.704  1.00  0.00    -0.205 F 
ATOM     75  C   UNL A   1      51.779  27.919  27.667  1.00  0.00     0.022 A 
BRANCH  73  76
ATOM     76  S   UNL A   1      51.721  28.089  24.938  1.00  0.00     0.127 S 
ATOM     77  O   UNL A   1      52.930  28.884  25.145  1.00  0.00    -0.237 OA
ATOM     78  O   UNL A   1      51.955  26.653  24.780  1.00  0.00    -0.237 OA
ATOM     79  O   UNL A   1      50.754  28.651  24.007  1.00  0.00    -0.744 OA
ENDBRANCH  73  76
ENDBRANCH  55  69
BRANCH  56  80
ATOM     80  C   UNL A   1      39.254  29.287  29.799  1.00  0.00     0.023 A 
ATOM     81  C   UNL A   1      38.769  28.899  31.063  1.00  0.00     0.012 A 
ATOM     82  C   UNL A   1      38.355  29.814  28.852  1.00  0.00     0.148 A 
ATOM     83  C   UNL A   1      37.410  29.000  31.367  1.00  0.00     0.002 A 
ATOM     84  C   UNL A   1      37.013  29.965  29.180  1.00  0.00     0.091 A 
ATOM     85  F   UNL A   1      38.833  30.169  27.650  1.00  0.00    -0.205 F 
ATOM     86  C   UNL A   1      36.535  29.542  30.430  1.00  0.00     0.022 A 
BRANCH  84  87
ATOM     87  S   UNL A   1      35.839  30.774  28.086  1.00  0.00     0.127 S 
ATOM     88  O   UNL A   1      36.457  32.088  27.904  1.00  0.00    -0.237 OA
ATOM     89  O   UNL A   1      35.880  29.909  26.905  1.00  0.00    -0.237 OA
ATOM     90  O   UNL A   1      34.569  30.764  28.791  1.00  0.00    -0.744 OA
ENDBRANCH  84  87
ENDBRANCH  56  80
BRANCH  68  91
ATOM     91  C   UNL A   1      44.621  33.739  30.070  1.00  0.00     0.023 A 
ATOM     92  C   UNL A   1      44.803  34.094  31.421  1.00  0.00     0.012 A 
ATOM     93  C   UNL A   1      44.588  34.750  29.089  1.00  0.00     0.148 A 
ATOM     94  C   UNL A   1      44.909  35.434  31.796  1.00  0.00     0.002 A 
ATOM     95  C   UNL A   1      44.744  36.080  29.464  1.00  0.00     0.091 A 
ATOM     96  F   UNL A   1      44.394  34.398  27.810  1.00  0.00    -0.205 F 
ATOM     97  C   UNL A   1      44.891  36.425  30.817  1.00  0.00     0.022 A 
BRANCH  95  98
ATOM     98  S   UNL A   1      44.828  37.410  28.259  1.00  0.00     0.127 S 
ATOM     99  O   UNL A   1      44.889  38.590  29.120  1.00  0.00    -0.237 OA
ATOM    100  O   UNL A   1      46.072  37.110  27.547  1.00  0.00    -0.237 OA
ATOM    101  O   UNL A   1      43.627  37.284  27.445  1.00  0.00    -0.744 OA
ENDBRANCH  95  98
ENDBRANCH  68  91
ENDBRANCH  42  43
ENDBRANCH  34  37
ENDBRANCH  32  33
ENDBRANCH  31  32
ENDBRANCH   1  31
TORSDOF 17
ENDMDL
