MODEL 1
REMARK VINA RESULT:     -10.5      0.000      0.000
REMARK SMILES CCCN(CC)c1ccc([N+](=O)[O-])c(C(=O)NCCCCCCNC(=O)c2ccc(-c3c4nc(c(-c5cccc(S(=O)(=O)[O-])c5F)c5ccc([nH]5)c(-c5cccc(S(=O)(=O)[O-])c5F)c5nc(c(-c6cccc(S(=O)(=O)[O-])c6F)c6ccc3[nH]6)C=C5)C=C4)cc2)c1
REMARK SMILES IDX 20 1 19 2 18 3 17 4 15 5 16 6 14 8 7 9 8 10 90 11 9 12 10 13
REMARK SMILES IDX 4 14 3 15 2 16 1 17 5 18 6 19 11 20 12 21 13 22 21 23 22 24
REMARK SMILES IDX 23 25 24 26 25 27 26 29 27 30 28 31 89 32 29 33 88 34 30 35
REMARK SMILES IDX 31 36 32 37 82 38 33 39 87 40 81 41 83 42 34 43 86 44 80 45
REMARK SMILES IDX 79 46 35 48 67 49 47 50 66 51 48 52 51 53 65 54 84 55 49 56
REMARK SMILES IDX 50 57 64 59 85 60 52 61 36 62 37 63 45 64 38 65 40 66 46 67
REMARK SMILES IDX 39 68 41 69 42 70 43 71 44 72 68 73 69 74 77 75 70 76 72 77
REMARK SMILES IDX 78 78 71 79 73 80 74 81 75 82 76 83 53 84 54 85 62 86 55 87
REMARK SMILES IDX 57 88 63 89 56 90 58 91 59 92 60 93 61 94
REMARK H PARENT 17 7 24 28 83 47 51 58
REMARK Flexibility Score: inf
ROOT
ATOM      1  C   UNL A   1      31.186  26.345  26.440  1.00  0.00     0.002 C 
ENDROOT
BRANCH   1   2
ATOM      2  C   UNL A   1      32.349  25.353  26.346  1.00  0.00     0.021 C 
BRANCH   2   3
ATOM      3  C   UNL A   1      31.921  23.985  25.811  1.00  0.00     0.116 C 
BRANCH   3   4
ATOM      4  N   UNL A   1      32.077  23.936  24.367  1.00  0.00    -0.352 N 
ATOM      5  C   UNL A   1      32.802  23.106  23.551  1.00  0.00     0.258 C 
ATOM      6  O   UNL A   1      32.780  23.299  22.338  1.00  0.00    -0.269 OA
ATOM      7  H   UNL A   1      31.569  24.628  23.885  1.00  0.00     0.163 HD
BRANCH   5   8
ATOM      8  C   UNL A   1      33.573  21.955  24.074  1.00  0.00     0.119 A 
ATOM      9  C   UNL A   1      33.742  19.580  24.625  1.00  0.00     0.038 A 
ATOM     10  C   UNL A   1      35.100  19.751  24.918  1.00  0.00     0.033 A 
ATOM     11  C   UNL A   1      32.978  20.706  24.283  1.00  0.00     0.047 A 
ATOM     12  C   UNL A   1      35.693  21.010  24.840  1.00  0.00     0.088 A 
ATOM     13  C   UNL A   1      34.926  22.093  24.395  1.00  0.00     0.282 A 
BRANCH   9  14
ATOM     14  N   UNL A   1      33.158  18.326  24.576  1.00  0.00    -0.372 N 
BRANCH  14  15
ATOM     15  C   UNL A   1      33.198  17.584  23.306  1.00  0.00     0.116 C 
BRANCH  15  16
ATOM     16  C   UNL A   1      31.967  17.867  22.435  1.00  0.00     0.018 C 
ATOM     17  C   UNL A   1      32.287  18.709  21.206  1.00  0.00     0.006 C 
ENDBRANCH  15  16
ENDBRANCH  14  15
BRANCH  14  18
ATOM     18  C   UNL A   1      32.980  17.574  25.820  1.00  0.00     0.113 C 
ATOM     19  C   UNL A   1      32.770  16.086  25.577  1.00  0.00     0.027 C 
ENDBRANCH  14  18
ENDBRANCH   9  14
BRANCH  13  20
ATOM     20  N   UNL A   1      35.618  23.349  24.200  1.00  0.00     0.063 N 
ATOM     21  O   UNL A   1      36.200  23.507  23.118  1.00  0.00    -0.258 OA
ATOM     22  O   UNL A   1      35.465  24.213  25.077  1.00  0.00    -0.258 OA
ENDBRANCH  13  20
ENDBRANCH   5   8
ENDBRANCH   3   4
ENDBRANCH   2   3
ENDBRANCH   1   2
BRANCH   1  23
ATOM     23  C   UNL A   1      31.611  27.818  26.516  1.00  0.00     0.002 C 
BRANCH  23  24
ATOM     24  C   UNL A   1      32.080  28.437  25.195  1.00  0.00     0.021 C 
BRANCH  24  25
ATOM     25  C   UNL A   1      33.208  29.458  25.324  1.00  0.00     0.116 C 
BRANCH  25  26
ATOM     26  N   UNL A   1      32.739  30.722  25.866  1.00  0.00    -0.352 N 
ATOM     27  C   UNL A   1      33.177  31.433  26.953  1.00  0.00     0.251 C 
ATOM     28  H   UNL A   1      31.990  31.132  25.376  1.00  0.00     0.163 HD
ATOM     29  O   UNL A   1      32.510  32.380  27.360  1.00  0.00    -0.269 OA
BRANCH  27  30
ATOM     30  C   UNL A   1      34.438  31.070  27.638  1.00  0.00     0.039 A 
ATOM     31  C   UNL A   1      34.585  29.765  28.117  1.00  0.00     0.014 A 
ATOM     32  C   UNL A   1      35.444  32.014  27.865  1.00  0.00     0.014 A 
ATOM     33  C   UNL A   1      35.747  29.402  28.800  1.00  0.00     0.010 A 
ATOM     34  C   UNL A   1      36.631  31.632  28.485  1.00  0.00     0.010 A 
ATOM     35  C   UNL A   1      36.786  30.330  28.981  1.00  0.00    -0.014 A 
BRANCH  35  36
ATOM     36  C   UNL A   1      38.024  29.948  29.707  1.00  0.00     0.031 A 
ATOM     37  C   UNL A   1      38.283  30.464  31.097  1.00  0.00     0.074 A 
ATOM     38  C   UNL A   1      38.940  29.173  29.095  1.00  0.00     0.049 A 
ATOM     39  N   UNL A   1      39.295  30.220  31.891  1.00  0.00    -0.248 NA
ATOM     40  C   UNL A   1      37.294  31.398  31.661  1.00  0.00     0.031 C 
ATOM     41  C   UNL A   1      38.849  28.682  27.718  1.00  0.00     0.029 A 
ATOM     42  N   UNL A   1      40.136  28.673  29.546  1.00  0.00    -0.354 N 
ATOM     43  C   UNL A   1      39.079  30.989  33.030  1.00  0.00     0.074 A 
ATOM     44  C   UNL A   1      37.862  31.737  32.809  1.00  0.00     0.031 C 
ATOM     45  C   UNL A   1      39.935  27.943  27.442  1.00  0.00     0.029 A 
ATOM     46  C   UNL A   1      40.805  27.917  28.613  1.00  0.00     0.049 A 
ATOM     47  H   UNL A   1      40.481  28.840  30.452  1.00  0.00     0.167 HD
ATOM     48  C   UNL A   1      39.807  31.039  34.172  1.00  0.00     0.034 A 
ATOM     49  C   UNL A   1      41.982  27.267  28.696  1.00  0.00     0.034 A 
ATOM     50  C   UNL A   1      40.988  30.254  34.408  1.00  0.00     0.049 A 
ATOM     51  C   UNL A   1      42.730  27.276  30.002  1.00  0.00     0.074 A 
ATOM     52  C   UNL A   1      41.750  30.168  35.560  1.00  0.00     0.029 A 
ATOM     53  N   UNL A   1      41.581  29.417  33.476  1.00  0.00    -0.354 N 
ATOM     54  N   UNL A   1      42.421  27.874  31.126  1.00  0.00    -0.248 NA
ATOM     55  C   UNL A   1      43.964  26.480  30.065  1.00  0.00     0.031 C 
ATOM     56  C   UNL A   1      42.811  29.287  35.320  1.00  0.00     0.029 A 
ATOM     57  C   UNL A   1      42.698  28.811  34.023  1.00  0.00     0.049 A 
ATOM     58  H   UNL A   1      41.255  29.275  32.557  1.00  0.00     0.167 HD
ATOM     59  C   UNL A   1      43.398  27.499  32.040  1.00  0.00     0.074 A 
ATOM     60  C   UNL A   1      44.296  26.600  31.343  1.00  0.00     0.031 C 
ATOM     61  C   UNL A   1      43.552  27.877  33.335  1.00  0.00     0.034 A 
BRANCH  48  62
ATOM     62  C   UNL A   1      39.307  31.930  35.280  1.00  0.00     0.023 A 
ATOM     63  C   UNL A   1      38.353  31.432  36.191  1.00  0.00     0.012 A 
ATOM     64  C   UNL A   1      39.811  33.234  35.453  1.00  0.00     0.148 A 
ATOM     65  C   UNL A   1      37.882  32.228  37.235  1.00  0.00     0.002 A 
ATOM     66  C   UNL A   1      39.369  34.007  36.521  1.00  0.00     0.091 A 
ATOM     67  F   UNL A   1      40.699  33.699  34.564  1.00  0.00    -0.205 F 
ATOM     68  C   UNL A   1      38.396  33.510  37.405  1.00  0.00     0.022 A 
BRANCH  66  69
ATOM     69  S   UNL A   1      40.025  35.642  36.872  1.00  0.00     0.127 S 
ATOM     70  O   UNL A   1      39.554  36.403  35.717  1.00  0.00    -0.237 OA
ATOM     71  O   UNL A   1      39.365  35.976  38.133  1.00  0.00    -0.237 OA
ATOM     72  O   UNL A   1      41.470  35.479  36.969  1.00  0.00    -0.744 OA
ENDBRANCH  66  69
ENDBRANCH  48  62
BRANCH  49  73
ATOM     73  C   UNL A   1      42.475  26.473  27.535  1.00  0.00     0.023 A 
ATOM     74  C   UNL A   1      43.329  27.082  26.594  1.00  0.00     0.012 A 
ATOM     75  C   UNL A   1      42.132  25.117  27.375  1.00  0.00     0.148 A 
ATOM     76  C   UNL A   1      43.805  26.365  25.497  1.00  0.00     0.002 A 
ATOM     77  C   UNL A   1      42.655  24.393  26.309  1.00  0.00     0.091 A 
ATOM     78  F   UNL A   1      41.310  24.559  28.274  1.00  0.00    -0.205 F 
ATOM     79  C   UNL A   1      43.477  25.019  25.360  1.00  0.00     0.022 A 
BRANCH  77  80
ATOM     80  S   UNL A   1      42.393  22.625  26.132  1.00  0.00     0.127 S 
ATOM     81  O   UNL A   1      43.070  22.101  27.314  1.00  0.00    -0.237 OA
ATOM     82  O   UNL A   1      40.933  22.528  26.163  1.00  0.00    -0.237 OA
ATOM     83  O   UNL A   1      42.986  22.268  24.849  1.00  0.00    -0.744 OA
ENDBRANCH  77  80
ENDBRANCH  49  73
BRANCH  61  84
ATOM     84  C   UNL A   1      44.715  27.296  34.094  1.00  0.00     0.023 A 
ATOM     85  C   UNL A   1      45.965  27.945  34.062  1.00  0.00     0.012 A 
ATOM     86  C   UNL A   1      44.557  26.139  34.881  1.00  0.00     0.148 A 
ATOM     87  C   UNL A   1      47.050  27.428  34.769  1.00  0.00     0.002 A 
ATOM     88  C   UNL A   1      45.631  25.656  35.621  1.00  0.00     0.091 A 
ATOM     89  F   UNL A   1      43.367  25.520  34.882  1.00  0.00    -0.205 F 
ATOM     90  C   UNL A   1      46.881  26.291  35.556  1.00  0.00     0.022 A 
BRANCH  88  91
ATOM     91  S   UNL A   1      45.466  24.254  36.732  1.00  0.00     0.127 S 
ATOM     92  O   UNL A   1      46.861  23.946  37.034  1.00  0.00    -0.237 OA
ATOM     93  O   UNL A   1      44.713  24.826  37.851  1.00  0.00    -0.237 OA
ATOM     94  O   UNL A   1      44.741  23.239  35.980  1.00  0.00    -0.744 OA
ENDBRANCH  88  91
ENDBRANCH  61  84
ENDBRANCH  35  36
ENDBRANCH  27  30
ENDBRANCH  25  26
ENDBRANCH  24  25
ENDBRANCH  23  24
ENDBRANCH   1  23
TORSDOF 21
ENDMDL
MODEL 2
REMARK VINA RESULT:     -10.4      1.835      2.633
REMARK SMILES CCCN(CC)c1ccc([N+](=O)[O-])c(C(=O)NCCCCCCNC(=O)c2ccc(-c3c4nc(c(-c5cccc(S(=O)(=O)[O-])c5F)c5ccc([nH]5)c(-c5cccc(S(=O)(=O)[O-])c5F)c5nc(c(-c6cccc(S(=O)(=O)[O-])c6F)c6ccc3[nH]6)C=C5)C=C4)cc2)c1
REMARK SMILES IDX 20 1 19 2 18 3 17 4 15 5 16 6 14 8 7 9 8 10 90 11 9 12 10 13
REMARK SMILES IDX 4 14 3 15 2 16 1 17 5 18 6 19 11 20 12 21 13 22 21 23 22 24
REMARK SMILES IDX 23 25 24 26 25 27 26 29 27 30 28 31 89 32 29 33 88 34 30 35
REMARK SMILES IDX 31 36 32 37 82 38 33 39 87 40 81 41 83 42 34 43 86 44 80 45
REMARK SMILES IDX 79 46 35 48 67 49 47 50 66 51 48 52 51 53 65 54 84 55 49 56
REMARK SMILES IDX 50 57 64 59 85 60 52 61 36 62 37 63 45 64 38 65 40 66 46 67
REMARK SMILES IDX 39 68 41 69 42 70 43 71 44 72 68 73 69 74 77 75 70 76 72 77
REMARK SMILES IDX 78 78 71 79 73 80 74 81 75 82 76 83 53 84 54 85 62 86 55 87
REMARK SMILES IDX 57 88 63 89 56 90 58 91 59 92 60 93 61 94
REMARK H PARENT 17 7 24 28 83 47 51 58
REMARK Flexibility Score: inf
ROOT
ATOM      1  C   UNL A   1      31.179  26.435  26.323  1.00  0.00     0.002 C 
ENDROOT
BRANCH   1   2
ATOM      2  C   UNL A   1      32.151  25.300  25.988  1.00  0.00     0.021 C 
BRANCH   2   3
ATOM      3  C   UNL A   1      31.471  24.124  25.283  1.00  0.00     0.116 C 
BRANCH   3   4
ATOM      4  N   UNL A   1      31.884  24.064  23.890  1.00  0.00    -0.352 N 
ATOM      5  C   UNL A   1      32.771  23.250  23.232  1.00  0.00     0.258 C 
ATOM      6  O   UNL A   1      32.959  23.428  22.031  1.00  0.00    -0.269 OA
ATOM      7  H   UNL A   1      31.447  24.731  23.313  1.00  0.00     0.163 HD
BRANCH   5   8
ATOM      8  C   UNL A   1      33.474  22.135  23.905  1.00  0.00     0.119 A 
ATOM      9  C   UNL A   1      33.583  19.792  24.591  1.00  0.00     0.038 A 
ATOM     10  C   UNL A   1      34.892  19.992  25.044  1.00  0.00     0.033 A 
ATOM     11  C   UNL A   1      32.863  20.891  24.100  1.00  0.00     0.047 A 
ATOM     12  C   UNL A   1      35.484  21.252  24.979  1.00  0.00     0.088 A 
ATOM     13  C   UNL A   1      34.775  22.303  24.388  1.00  0.00     0.282 A 
BRANCH   9  14
ATOM     14  N   UNL A   1      33.016  18.530  24.532  1.00  0.00    -0.372 N 
BRANCH  14  15
ATOM     15  C   UNL A   1      32.899  17.757  25.778  1.00  0.00     0.116 C 
BRANCH  15  16
ATOM     16  C   UNL A   1      33.244  16.276  25.570  1.00  0.00     0.018 C 
ATOM     17  C   UNL A   1      34.701  16.051  25.185  1.00  0.00     0.006 C 
ENDBRANCH  15  16
ENDBRANCH  14  15
BRANCH  14  18
ATOM     18  C   UNL A   1      32.122  18.202  23.418  1.00  0.00     0.113 C 
ATOM     19  C   UNL A   1      32.879  17.747  22.178  1.00  0.00     0.027 C 
ENDBRANCH  14  18
ENDBRANCH   9  14
BRANCH  13  20
ATOM     20  N   UNL A   1      35.480  23.555  24.220  1.00  0.00     0.063 N 
ATOM     21  O   UNL A   1      35.581  24.280  25.220  1.00  0.00    -0.258 OA
ATOM     22  O   UNL A   1      36.033  23.743  23.126  1.00  0.00    -0.258 OA
ENDBRANCH  13  20
ENDBRANCH   5   8
ENDBRANCH   3   4
ENDBRANCH   2   3
ENDBRANCH   1   2
BRANCH   1  23
ATOM     23  C   UNL A   1      31.855  27.745  26.749  1.00  0.00     0.002 C 
BRANCH  23  24
ATOM     24  C   UNL A   1      32.719  28.418  25.678  1.00  0.00     0.021 C 
BRANCH  24  25
ATOM     25  C   UNL A   1      34.043  28.990  26.181  1.00  0.00     0.116 C 
BRANCH  25  26
ATOM     26  N   UNL A   1      33.900  30.356  26.656  1.00  0.00    -0.352 N 
ATOM     27  C   UNL A   1      34.595  31.031  27.625  1.00  0.00     0.251 C 
ATOM     28  H   UNL A   1      33.194  30.879  26.211  1.00  0.00     0.163 HD
ATOM     29  O   UNL A   1      34.181  32.120  28.014  1.00  0.00    -0.269 OA
BRANCH  27  30
ATOM     30  C   UNL A   1      35.831  30.462  28.207  1.00  0.00     0.039 A 
ATOM     31  C   UNL A   1      37.034  30.633  27.516  1.00  0.00     0.014 A 
ATOM     32  C   UNL A   1      35.805  29.713  29.388  1.00  0.00     0.014 A 
ATOM     33  C   UNL A   1      38.211  30.076  28.019  1.00  0.00     0.010 A 
ATOM     34  C   UNL A   1      36.992  29.217  29.925  1.00  0.00     0.010 A 
ATOM     35  C   UNL A   1      38.203  29.372  29.235  1.00  0.00    -0.014 A 
BRANCH  35  36
ATOM     36  C   UNL A   1      39.452  28.778  29.774  1.00  0.00     0.031 A 
ATOM     37  C   UNL A   1      40.089  29.341  31.016  1.00  0.00     0.074 A 
ATOM     38  C   UNL A   1      40.041  27.760  29.117  1.00  0.00     0.049 A 
ATOM     39  N   UNL A   1      41.165  28.940  31.645  1.00  0.00    -0.248 NA
ATOM     40  C   UNL A   1      39.453  30.524  31.619  1.00  0.00     0.031 C 
ATOM     41  C   UNL A   1      39.573  27.185  27.855  1.00  0.00     0.029 A 
ATOM     42  N   UNL A   1      41.171  27.039  29.411  1.00  0.00    -0.354 N 
ATOM     43  C   UNL A   1      41.351  29.834  32.693  1.00  0.00     0.074 A 
ATOM     44  C   UNL A   1      40.300  30.823  32.594  1.00  0.00     0.031 C 
ATOM     45  C   UNL A   1      40.400  26.193  27.490  1.00  0.00     0.029 A 
ATOM     46  C   UNL A   1      41.463  26.069  28.482  1.00  0.00     0.049 A 
ATOM     47  H   UNL A   1      41.719  27.200  30.212  1.00  0.00     0.167 HD
ATOM     48  C   UNL A   1      42.288  29.815  33.672  1.00  0.00     0.034 A 
ATOM     49  C   UNL A   1      42.469  25.174  28.440  1.00  0.00     0.034 A 
ATOM     50  C   UNL A   1      43.300  28.801  33.796  1.00  0.00     0.049 A 
ATOM     51  C   UNL A   1      43.450  25.124  29.580  1.00  0.00     0.074 A 
ATOM     52  C   UNL A   1      44.243  28.643  34.797  1.00  0.00     0.029 A 
ATOM     53  N   UNL A   1      43.502  27.771  32.891  1.00  0.00    -0.354 N 
ATOM     54  N   UNL A   1      43.507  25.874  30.654  1.00  0.00    -0.248 NA
ATOM     55  C   UNL A   1      44.475  24.072  29.528  1.00  0.00     0.031 C 
ATOM     56  C   UNL A   1      45.023  27.522  34.490  1.00  0.00     0.029 A 
ATOM     57  C   UNL A   1      44.553  26.972  33.308  1.00  0.00     0.049 A 
ATOM     58  H   UNL A   1      42.975  27.628  32.072  1.00  0.00     0.167 HD
ATOM     59  C   UNL A   1      44.547  25.365  31.421  1.00  0.00     0.074 A 
ATOM     60  C   UNL A   1      45.076  24.224  30.701  1.00  0.00     0.031 C 
ATOM     61  C   UNL A   1      45.034  25.809  32.607  1.00  0.00     0.034 A 
BRANCH  48  62
ATOM     62  C   UNL A   1      42.221  30.892  34.724  1.00  0.00     0.023 A 
ATOM     63  C   UNL A   1      41.505  30.652  35.915  1.00  0.00     0.012 A 
ATOM     64  C   UNL A   1      42.901  32.114  34.562  1.00  0.00     0.148 A 
ATOM     65  C   UNL A   1      41.437  31.624  36.913  1.00  0.00     0.002 A 
ATOM     66  C   UNL A   1      42.865  33.062  35.580  1.00  0.00     0.091 A 
ATOM     67  F   UNL A   1      43.557  32.335  33.414  1.00  0.00    -0.205 F 
ATOM     68  C   UNL A   1      42.124  32.823  36.750  1.00  0.00     0.022 A 
BRANCH  66  69
ATOM     69  S   UNL A   1      43.778  34.607  35.499  1.00  0.00     0.127 S 
ATOM     70  O   UNL A   1      43.369  35.124  34.195  1.00  0.00    -0.237 OA
ATOM     71  O   UNL A   1      43.242  35.343  36.643  1.00  0.00    -0.237 OA
ATOM     72  O   UNL A   1      45.185  34.245  35.617  1.00  0.00    -0.744 OA
ENDBRANCH  66  69
ENDBRANCH  48  62
BRANCH  49  73
ATOM     73  C   UNL A   1      42.539  24.187  27.324  1.00  0.00     0.023 A 
ATOM     74  C   UNL A   1      43.315  24.485  26.187  1.00  0.00     0.012 A 
ATOM     75  C   UNL A   1      41.872  22.949  27.396  1.00  0.00     0.148 A 
ATOM     76  C   UNL A   1      43.399  23.583  25.127  1.00  0.00     0.002 A 
ATOM     77  C   UNL A   1      42.005  22.032  26.360  1.00  0.00     0.091 A 
ATOM     78  F   UNL A   1      41.130  22.690  28.481  1.00  0.00    -0.205 F 
ATOM     79  C   UNL A   1      42.752  22.353  25.218  1.00  0.00     0.022 A 
BRANCH  77  80
ATOM     80  S   UNL A   1      41.317  20.375  26.454  1.00  0.00     0.127 S 
ATOM     81  O   UNL A   1      39.900  20.624  26.209  1.00  0.00    -0.237 OA
ATOM     82  O   UNL A   1      42.021  19.691  25.369  1.00  0.00    -0.237 OA
ATOM     83  O   UNL A   1      41.655  19.886  27.785  1.00  0.00    -0.744 OA
ENDBRANCH  77  80
ENDBRANCH  49  73
BRANCH  61  84
ATOM     84  C   UNL A   1      46.178  25.043  33.219  1.00  0.00     0.023 A 
ATOM     85  C   UNL A   1      47.502  25.478  33.011  1.00  0.00     0.012 A 
ATOM     86  C   UNL A   1      45.939  23.925  34.042  1.00  0.00     0.148 A 
ATOM     87  C   UNL A   1      48.572  24.789  33.579  1.00  0.00     0.002 A 
ATOM     88  C   UNL A   1      47.008  23.272  34.643  1.00  0.00     0.091 A 
ATOM     89  F   UNL A   1      44.675  23.510  34.211  1.00  0.00    -0.205 F 
ATOM     90  C   UNL A   1      48.326  23.693  34.403  1.00  0.00     0.022 A 
BRANCH  88  91
ATOM     91  S   UNL A   1      46.766  21.913  35.794  1.00  0.00     0.127 S 
ATOM     92  O   UNL A   1      45.603  22.366  36.552  1.00  0.00    -0.237 OA
ATOM     93  O   UNL A   1      46.507  20.784  34.897  1.00  0.00    -0.237 OA
ATOM     94  O   UNL A   1      48.010  21.806  36.544  1.00  0.00    -0.744 OA
ENDBRANCH  88  91
ENDBRANCH  61  84
ENDBRANCH  35  36
ENDBRANCH  27  30
ENDBRANCH  25  26
ENDBRANCH  24  25
ENDBRANCH  23  24
ENDBRANCH   1  23
TORSDOF 21
ENDMDL
MODEL 3
REMARK VINA RESULT:     -10.3      2.616      3.582
REMARK SMILES CCCN(CC)c1ccc([N+](=O)[O-])c(C(=O)NCCCCCCNC(=O)c2ccc(-c3c4nc(c(-c5cccc(S(=O)(=O)[O-])c5F)c5ccc([nH]5)c(-c5cccc(S(=O)(=O)[O-])c5F)c5nc(c(-c6cccc(S(=O)(=O)[O-])c6F)c6ccc3[nH]6)C=C5)C=C4)cc2)c1
REMARK SMILES IDX 20 1 19 2 18 3 17 4 15 5 16 6 14 8 7 9 8 10 90 11 9 12 10 13
REMARK SMILES IDX 4 14 3 15 2 16 1 17 5 18 6 19 11 20 12 21 13 22 21 23 22 24
REMARK SMILES IDX 23 25 24 26 25 27 26 29 27 30 28 31 89 32 29 33 88 34 30 35
REMARK SMILES IDX 31 36 32 37 82 38 33 39 87 40 81 41 83 42 34 43 86 44 80 45
REMARK SMILES IDX 79 46 35 48 67 49 47 50 66 51 48 52 51 53 65 54 84 55 49 56
REMARK SMILES IDX 50 57 64 59 85 60 52 61 36 62 37 63 45 64 38 65 40 66 46 67
REMARK SMILES IDX 39 68 41 69 42 70 43 71 44 72 68 73 69 74 77 75 70 76 72 77
REMARK SMILES IDX 78 78 71 79 73 80 74 81 75 82 76 83 53 84 54 85 62 86 55 87
REMARK SMILES IDX 57 88 63 89 56 90 58 91 59 92 60 93 61 94
REMARK H PARENT 17 7 24 28 83 47 51 58
REMARK Flexibility Score: inf
ROOT
ATOM      1  C   UNL A   1      31.590  27.823  27.140  1.00  0.00     0.002 C 
ENDROOT
BRANCH   1   2
ATOM      2  C   UNL A   1      31.842  26.793  26.036  1.00  0.00     0.021 C 
BRANCH   2   3
ATOM      3  C   UNL A   1      31.293  27.234  24.677  1.00  0.00     0.116 C 
BRANCH   3   4
ATOM      4  N   UNL A   1      32.351  27.818  23.870  1.00  0.00    -0.352 N 
ATOM      5  C   UNL A   1      33.406  27.258  23.197  1.00  0.00     0.258 C 
ATOM      6  O   UNL A   1      34.186  27.995  22.599  1.00  0.00    -0.269 OA
ATOM      7  H   UNL A   1      32.302  28.799  23.793  1.00  0.00     0.163 HD
BRANCH   5   8
ATOM      8  C   UNL A   1      33.614  25.794  23.126  1.00  0.00     0.119 A 
ATOM      9  C   UNL A   1      34.339  23.694  24.145  1.00  0.00     0.038 A 
ATOM     10  C   UNL A   1      33.851  22.995  23.036  1.00  0.00     0.033 A 
ATOM     11  C   UNL A   1      34.285  25.096  24.137  1.00  0.00     0.047 A 
ATOM     12  C   UNL A   1      33.290  23.673  21.956  1.00  0.00     0.088 A 
ATOM     13  C   UNL A   1      33.156  25.064  22.025  1.00  0.00     0.282 A 
BRANCH   9  14
ATOM     14  N   UNL A   1      34.789  23.042  25.280  1.00  0.00    -0.372 N 
BRANCH  14  15
ATOM     15  C   UNL A   1      35.940  23.608  26.002  1.00  0.00     0.116 C 
BRANCH  15  16
ATOM     16  C   UNL A   1      37.275  23.215  25.356  1.00  0.00     0.018 C 
ATOM     17  C   UNL A   1      37.208  21.887  24.611  1.00  0.00     0.006 C 
ENDBRANCH  15  16
ENDBRANCH  14  15
BRANCH  14  18
ATOM     18  C   UNL A   1      33.873  22.159  26.006  1.00  0.00     0.113 C 
ATOM     19  C   UNL A   1      32.778  22.927  26.733  1.00  0.00     0.027 C 
ENDBRANCH  14  18
ENDBRANCH   9  14
BRANCH  13  20
ATOM     20  N   UNL A   1      32.446  25.709  20.942  1.00  0.00     0.063 N 
ATOM     21  O   UNL A   1      32.931  25.596  19.808  1.00  0.00    -0.258 OA
ATOM     22  O   UNL A   1      31.346  26.211  21.216  1.00  0.00    -0.258 OA
ENDBRANCH  13  20
ENDBRANCH   5   8
ENDBRANCH   3   4
ENDBRANCH   2   3
ENDBRANCH   1   2
BRANCH   1  23
ATOM     23  C   UNL A   1      32.834  28.615  27.567  1.00  0.00     0.002 C 
BRANCH  23  24
ATOM     24  C   UNL A   1      32.964  30.015  26.958  1.00  0.00     0.021 C 
BRANCH  24  25
ATOM     25  C   UNL A   1      34.257  30.751  27.301  1.00  0.00     0.116 C 
BRANCH  25  26
ATOM     26  N   UNL A   1      34.034  31.832  28.247  1.00  0.00    -0.352 N 
ATOM     27  C   UNL A   1      34.741  32.187  29.365  1.00  0.00     0.251 C 
ATOM     28  H   UNL A   1      33.251  32.398  28.053  1.00  0.00     0.163 HD
ATOM     29  O   UNL A   1      34.266  33.011  30.141  1.00  0.00    -0.269 OA
BRANCH  27  30
ATOM     30  C   UNL A   1      36.065  31.587  29.645  1.00  0.00     0.039 A 
ATOM     31  C   UNL A   1      36.130  30.479  30.494  1.00  0.00     0.014 A 
ATOM     32  C   UNL A   1      37.242  32.141  29.131  1.00  0.00     0.014 A 
ATOM     33  C   UNL A   1      37.367  29.913  30.808  1.00  0.00     0.010 A 
ATOM     34  C   UNL A   1      38.469  31.534  29.389  1.00  0.00     0.010 A 
ATOM     35  C   UNL A   1      38.548  30.429  30.249  1.00  0.00    -0.014 A 
BRANCH  35  36
ATOM     36  C   UNL A   1      39.866  29.831  30.579  1.00  0.00     0.031 A 
ATOM     37  C   UNL A   1      40.681  30.366  31.726  1.00  0.00     0.074 A 
ATOM     38  C   UNL A   1      40.353  28.834  29.815  1.00  0.00     0.049 A 
ATOM     39  N   UNL A   1      41.839  29.956  32.176  1.00  0.00    -0.248 NA
ATOM     40  C   UNL A   1      40.139  31.530  32.448  1.00  0.00     0.031 C 
ATOM     41  C   UNL A   1      39.702  28.287  28.623  1.00  0.00     0.029 A 
ATOM     42  N   UNL A   1      41.515  28.112  29.918  1.00  0.00    -0.354 N 
ATOM     43  C   UNL A   1      42.178  30.825  33.207  1.00  0.00     0.074 A 
ATOM     44  C   UNL A   1      41.122  31.809  33.292  1.00  0.00     0.031 C 
ATOM     45  C   UNL A   1      40.468  27.310  28.113  1.00  0.00     0.029 A 
ATOM     46  C   UNL A   1      41.668  27.168  28.931  1.00  0.00     0.049 A 
ATOM     47  H   UNL A   1      42.177  28.256  30.632  1.00  0.00     0.167 HD
ATOM     48  C   UNL A   1      43.251  30.787  34.034  1.00  0.00     0.034 A 
ATOM     49  C   UNL A   1      42.658  26.280  28.716  1.00  0.00     0.034 A 
ATOM     50  C   UNL A   1      44.273  29.777  33.979  1.00  0.00     0.049 A 
ATOM     51  C   UNL A   1      43.799  26.208  29.695  1.00  0.00     0.074 A 
ATOM     52  C   UNL A   1      45.355  29.600  34.823  1.00  0.00     0.029 A 
ATOM     53  N   UNL A   1      44.340  28.771  33.028  1.00  0.00    -0.354 N 
ATOM     54  N   UNL A   1      44.014  26.931  30.767  1.00  0.00    -0.248 NA
ATOM     55  C   UNL A   1      44.808  25.165  29.463  1.00  0.00     0.031 C 
ATOM     56  C   UNL A   1      46.084  28.492  34.374  1.00  0.00     0.029 A 
ATOM     57  C   UNL A   1      45.443  27.969  33.262  1.00  0.00     0.049 A 
ATOM     58  H   UNL A   1      43.696  28.645  32.293  1.00  0.00     0.167 HD
ATOM     59  C   UNL A   1      45.159  26.409  31.356  1.00  0.00     0.074 A 
ATOM     60  C   UNL A   1      45.577  25.291  30.536  1.00  0.00     0.031 C 
ATOM     61  C   UNL A   1      45.817  26.827  32.467  1.00  0.00     0.034 A 
BRANCH  48  62
ATOM     62  C   UNL A   1      43.340  31.837  35.112  1.00  0.00     0.023 A 
ATOM     63  C   UNL A   1      44.110  32.997  34.886  1.00  0.00     0.012 A 
ATOM     64  C   UNL A   1      42.630  31.705  36.320  1.00  0.00     0.148 A 
ATOM     65  C   UNL A   1      44.200  33.992  35.859  1.00  0.00     0.002 A 
ATOM     66  C   UNL A   1      42.690  32.721  37.268  1.00  0.00     0.091 A 
ATOM     67  F   UNL A   1      41.922  30.586  36.528  1.00  0.00    -0.205 F 
ATOM     68  C   UNL A   1      43.484  33.859  37.044  1.00  0.00     0.022 A 
BRANCH  66  69
ATOM     69  S   UNL A   1      41.743  32.681  38.794  1.00  0.00     0.127 S 
ATOM     70  O   UNL A   1      40.406  32.350  38.304  1.00  0.00    -0.237 OA
ATOM     71  O   UNL A   1      42.402  31.608  39.538  1.00  0.00    -0.237 OA
ATOM     72  O   UNL A   1      41.884  34.004  39.386  1.00  0.00    -0.744 OA
ENDBRANCH  66  69
ENDBRANCH  48  62
BRANCH  49  73
ATOM     73  C   UNL A   1      42.563  25.323  27.577  1.00  0.00     0.023 A 
ATOM     74  C   UNL A   1      43.052  25.704  26.312  1.00  0.00     0.012 A 
ATOM     75  C   UNL A   1      42.024  24.033  27.746  1.00  0.00     0.148 A 
ATOM     76  C   UNL A   1      42.975  24.830  25.228  1.00  0.00     0.002 A 
ATOM     77  C   UNL A   1      42.001  23.148  26.674  1.00  0.00     0.091 A 
ATOM     78  F   UNL A   1      41.554  23.694  28.954  1.00  0.00    -0.205 F 
ATOM     79  C   UNL A   1      42.460  23.550  25.411  1.00  0.00     0.022 A 
BRANCH  77  80
ATOM     80  S   UNL A   1      41.480  21.438  26.854  1.00  0.00     0.127 S 
ATOM     81  O   UNL A   1      41.815  20.883  25.546  1.00  0.00    -0.237 OA
ATOM     82  O   UNL A   1      42.325  20.976  27.956  1.00  0.00    -0.237 OA
ATOM     83  O   UNL A   1      40.059  21.495  27.176  1.00  0.00    -0.744 OA
ENDBRANCH  77  80
ENDBRANCH  49  73
BRANCH  61  84
ATOM     84  C   UNL A   1      47.042  26.053  32.881  1.00  0.00     0.023 A 
ATOM     85  C   UNL A   1      48.314  26.476  32.449  1.00  0.00     0.012 A 
ATOM     86  C   UNL A   1      46.936  24.941  33.738  1.00  0.00     0.148 A 
ATOM     87  C   UNL A   1      49.460  25.779  32.832  1.00  0.00     0.002 A 
ATOM     88  C   UNL A   1      48.086  24.280  34.154  1.00  0.00     0.091 A 
ATOM     89  F   UNL A   1      45.715  24.538  34.121  1.00  0.00    -0.205 F 
ATOM     90  C   UNL A   1      49.347  24.689  33.692  1.00  0.00     0.022 A 
BRANCH  88  91
ATOM     91  S   UNL A   1      48.031  22.928  35.336  1.00  0.00     0.127 S 
ATOM     92  O   UNL A   1      49.448  22.610  35.493  1.00  0.00    -0.237 OA
ATOM     93  O   UNL A   1      47.415  23.557  36.506  1.00  0.00    -0.237 OA
ATOM     94  O   UNL A   1      47.215  21.895  34.714  1.00  0.00    -0.744 OA
ENDBRANCH  88  91
ENDBRANCH  61  84
ENDBRANCH  35  36
ENDBRANCH  27  30
ENDBRANCH  25  26
ENDBRANCH  24  25
ENDBRANCH  23  24
ENDBRANCH   1  23
TORSDOF 21
ENDMDL
