MODEL 1
REMARK VINA RESULT:      -9.6      0.000      0.000
REMARK SMILES Cc1c(CC(=O)N[C@H](CO)C(=O)NCCCCCCNC(=O)c2ccc(-c3c4nc(c(-c5cccc(S(=O)(=O)[O-])c5F)c5ccc([nH]5)c(-c5cccc(S(=O)(=O)[O-])c5F)c5nc(c(-c6cccc(S(=O)(=O)[O-])c6F)c6ccc3[nH]6)C=C5)C=C4)cc2)cc(-c2ccc(S(C)(=O)=O)cc2)n1-c1ccc(F)cc1
REMARK SMILES IDX 15 1 14 2 13 3 11 4 12 5 8 7 7 8 5 9 6 10 4 12 3 13 1 14
REMARK SMILES IDX 2 15 98 16 86 17 87 18 99 19 100 20 105 21 101 22 104 23
REMARK SMILES IDX 102 24 103 25 88 26 89 27 97 28 90 29 96 30 91 31 92 32
REMARK SMILES IDX 93 33 94 34 95 35 9 36 10 37 16 39 17 40 18 41 19 42 20 43
REMARK SMILES IDX 21 44 22 46 23 47 24 48 85 49 25 50 84 51 26 52 27 53 28 54
REMARK SMILES IDX 78 55 29 56 83 57 77 58 79 59 30 60 82 61 76 62 75 63 31 65
REMARK SMILES IDX 63 66 43 67 62 68 44 69 47 70 61 71 80 72 45 73 46 74 60 76
REMARK SMILES IDX 81 77 48 78 32 79 33 80 41 81 34 82 36 83 42 84 35 85 37 86
REMARK SMILES IDX 38 87 39 88 40 89 64 90 65 91 73 92 66 93 68 94 74 95 67 96
REMARK SMILES IDX 69 97 70 98 71 99 72 100 49 101 50 102 58 103 51 104 53 105
REMARK SMILES IDX 59 106 52 107 54 108 55 109 56 110 57 111
REMARK H PARENT 13 6 7 11 10 38 20 45 79 64 47 75
REMARK Flexibility Score: inf
ROOT
ATOM      1  C   UNL A   1      39.926  33.818  31.070  1.00  0.00     0.021 C 
ENDROOT
BRANCH   1   2
ATOM      2  C   UNL A   1      41.131  34.187  29.761  1.00  0.00     0.116 C 
BRANCH   2   3
ATOM      3  N   UNL A   1      42.037  35.388  29.673  1.00  0.00    -0.354 N 
ATOM      4  C   UNL A   1      42.399  36.355  28.797  1.00  0.00     0.244 C 
ATOM      5  O   UNL A   1      43.145  37.229  29.275  1.00  0.00    -0.273 OA
ATOM      6  H   UNL A   1      42.521  35.505  30.522  1.00  0.00     0.163 HD
BRANCH   4   7
ATOM      7  C   UNL A   1      42.003  36.487  27.335  1.00  0.00     0.197 C 
BRANCH   7   8
ATOM      8  N   UNL A   1      42.673  35.661  26.322  1.00  0.00    -0.342 N 
ATOM      9  C   UNL A   1      43.837  34.949  26.444  1.00  0.00     0.225 C 
ATOM     10  O   UNL A   1      43.901  33.848  25.887  1.00  0.00    -0.275 OA
ATOM     11  H   UNL A   1      42.229  35.611  25.445  1.00  0.00     0.164 HD
BRANCH   9  12
ATOM     12  C   UNL A   1      45.049  35.519  27.179  1.00  0.00     0.137 C 
BRANCH  12  13
ATOM     13  C   UNL A   1      46.215  34.570  27.142  1.00  0.00    -0.017 A 
ATOM     14  C   UNL A   1      47.292  35.146  24.871  1.00  0.00     0.065 C 
ATOM     15  C   UNL A   1      47.277  34.566  26.254  1.00  0.00     0.024 A 
ATOM     16  N   UNL A   1      48.413  34.014  26.888  1.00  0.00    -0.314 N 
ATOM     17  C   UNL A   1      46.397  33.494  28.040  1.00  0.00     0.033 A 
ATOM     18  C   UNL A   1      47.747  33.133  28.119  1.00  0.00     0.053 A 
BRANCH  16  19
ATOM     19  C   UNL A   1      49.901  34.600  26.411  1.00  0.00     0.046 A 
ATOM     20  C   UNL A   1      50.489  35.879  26.651  1.00  0.00     0.029 A 
ATOM     21  C   UNL A   1      50.625  33.956  25.394  1.00  0.00     0.029 A 
ATOM     22  C   UNL A   1      51.270  36.649  25.791  1.00  0.00     0.041 A 
ATOM     23  C   UNL A   1      51.474  34.699  24.506  1.00  0.00     0.041 A 
ATOM     24  C   UNL A   1      51.675  36.062  24.647  1.00  0.00     0.123 A 
ATOM     25  F   UNL A   1      52.167  36.812  23.661  1.00  0.00    -0.207 F 
ENDBRANCH  16  19
BRANCH  18  26
ATOM     26  C   UNL A   1      48.193  32.288  29.529  1.00  0.00    -0.001 A 
ATOM     27  C   UNL A   1      48.346  30.871  29.702  1.00  0.00     0.011 A 
ATOM     28  C   UNL A   1      48.402  32.941  30.759  1.00  0.00     0.011 A 
ATOM     29  C   UNL A   1      48.132  30.165  30.902  1.00  0.00     0.021 A 
ATOM     30  C   UNL A   1      48.290  32.232  32.018  1.00  0.00     0.021 A 
ATOM     31  C   UNL A   1      47.985  30.865  32.063  1.00  0.00     0.067 A 
BRANCH  31  32
ATOM     32  S   UNL A   1      47.531  29.954  33.531  1.00  0.00     0.175 S 
ATOM     33  C   UNL A   1      48.949  29.986  34.614  1.00  0.00     0.163 C 
ATOM     34  O   UNL A   1      46.475  30.727  34.192  1.00  0.00    -0.224 OA
ATOM     35  O   UNL A   1      47.288  28.593  33.131  1.00  0.00    -0.224 OA
ENDBRANCH  31  32
ENDBRANCH  18  26
ENDBRANCH  12  13
ENDBRANCH   9  12
ENDBRANCH   7   8
BRANCH   7  36
ATOM     36  C   UNL A   1      42.043  37.970  26.961  1.00  0.00     0.191 C 
BRANCH  36  37
ATOM     37  O   UNL A   1      43.359  38.318  26.523  1.00  0.00    -0.394 OA
ATOM     38  H   UNL A   1      43.343  39.200  26.117  1.00  0.00     0.210 HD
ENDBRANCH  36  37
ENDBRANCH   7  36
ENDBRANCH   4   7
ENDBRANCH   2   3
ENDBRANCH   1   2
BRANCH   1  39
ATOM     39  C   UNL A   1      38.361  34.545  31.807  1.00  0.00     0.002 C 
BRANCH  39  40
ATOM     40  C   UNL A   1      37.384  34.346  33.323  1.00  0.00     0.002 C 
BRANCH  40  41
ATOM     41  C   UNL A   1      35.714  34.525  33.725  1.00  0.00     0.021 C 
BRANCH  41  42
ATOM     42  C   UNL A   1      34.345  33.640  33.386  1.00  0.00     0.116 C 
BRANCH  42  43
ATOM     43  N   UNL A   1      34.093  33.130  32.014  1.00  0.00    -0.352 N 
ATOM     44  C   UNL A   1      34.789  32.552  30.919  1.00  0.00     0.251 C 
ATOM     45  H   UNL A   1      33.138  33.221  31.792  1.00  0.00     0.163 HD
ATOM     46  O   UNL A   1      34.122  32.587  29.874  1.00  0.00    -0.269 OA
BRANCH  44  47
ATOM     47  C   UNL A   1      36.187  31.871  30.814  1.00  0.00     0.039 A 
ATOM     48  C   UNL A   1      36.921  31.757  29.640  1.00  0.00     0.014 A 
ATOM     49  C   UNL A   1      36.678  30.995  31.828  1.00  0.00     0.014 A 
ATOM     50  C   UNL A   1      38.146  30.939  29.559  1.00  0.00     0.010 A 
ATOM     51  C   UNL A   1      37.919  30.179  31.751  1.00  0.00     0.010 A 
ATOM     52  C   UNL A   1      38.736  30.118  30.610  1.00  0.00    -0.014 A 
BRANCH  52  53
ATOM     53  C   UNL A   1      39.711  28.821  30.155  1.00  0.00     0.031 A 
ATOM     54  C   UNL A   1      40.536  28.729  31.381  1.00  0.00     0.074 A 
ATOM     55  C   UNL A   1      40.200  27.978  29.121  1.00  0.00     0.049 A 
ATOM     56  N   UNL A   1      41.117  29.820  31.796  1.00  0.00    -0.248 NA
ATOM     57  C   UNL A   1      40.433  27.685  32.396  1.00  0.00     0.031 C 
ATOM     58  C   UNL A   1      39.959  28.056  27.664  1.00  0.00     0.029 A 
ATOM     59  N   UNL A   1      41.080  26.810  29.114  1.00  0.00    -0.354 N 
ATOM     60  C   UNL A   1      41.817  29.479  32.903  1.00  0.00     0.074 A 
ATOM     61  C   UNL A   1      41.126  28.284  33.376  1.00  0.00     0.031 C 
ATOM     62  C   UNL A   1      40.466  26.979  26.979  1.00  0.00     0.029 A 
ATOM     63  C   UNL A   1      41.174  26.049  27.865  1.00  0.00     0.049 A 
ATOM     64  H   UNL A   1      41.589  26.546  29.915  1.00  0.00     0.167 HD
ATOM     65  C   UNL A   1      43.151  29.749  32.790  1.00  0.00     0.034 A 
ATOM     66  C   UNL A   1      41.840  24.851  27.527  1.00  0.00     0.034 A 
ATOM     67  C   UNL A   1      43.929  28.554  32.628  1.00  0.00     0.049 A 
ATOM     68  C   UNL A   1      43.022  24.838  28.397  1.00  0.00     0.074 A 
ATOM     69  C   UNL A   1      43.818  27.286  33.169  1.00  0.00     0.029 A 
ATOM     70  N   UNL A   1      44.664  28.427  31.472  1.00  0.00    -0.354 N 
ATOM     71  N   UNL A   1      44.085  25.517  28.082  1.00  0.00    -0.248 NA
ATOM     72  C   UNL A   1      43.167  23.937  29.533  1.00  0.00     0.031 C 
ATOM     73  C   UNL A   1      43.992  26.418  32.075  1.00  0.00     0.029 A 
ATOM     74  C   UNL A   1      44.639  27.106  31.062  1.00  0.00     0.049 A 
ATOM     75  H   UNL A   1      45.132  29.159  31.008  1.00  0.00     0.167 HD
ATOM     76  C   UNL A   1      44.773  25.557  29.254  1.00  0.00     0.074 A 
ATOM     77  C   UNL A   1      44.342  24.381  29.988  1.00  0.00     0.031 C 
ATOM     78  C   UNL A   1      45.053  26.799  29.717  1.00  0.00     0.034 A 
BRANCH  65  79
ATOM     79  C   UNL A   1      43.420  31.102  32.138  1.00  0.00     0.023 A 
ATOM     80  C   UNL A   1      44.259  31.100  31.011  1.00  0.00     0.012 A 
ATOM     81  C   UNL A   1      43.119  32.351  32.757  1.00  0.00     0.148 A 
ATOM     82  C   UNL A   1      44.829  32.288  30.545  1.00  0.00     0.002 A 
ATOM     83  C   UNL A   1      43.772  33.514  32.348  1.00  0.00     0.091 A 
ATOM     84  F   UNL A   1      42.241  32.376  33.772  1.00  0.00    -0.205 F 
ATOM     85  C   UNL A   1      44.618  33.484  31.232  1.00  0.00     0.022 A 
BRANCH  83  86
ATOM     86  S   UNL A   1      43.766  35.037  33.321  1.00  0.00     0.127 S 
ATOM     87  O   UNL A   1      44.984  35.715  32.860  1.00  0.00    -0.237 OA
ATOM     88  O   UNL A   1      42.528  35.687  32.905  1.00  0.00    -0.237 OA
ATOM     89  O   UNL A   1      43.822  34.635  34.722  1.00  0.00    -0.744 OA
ENDBRANCH  83  86
ENDBRANCH  65  79
BRANCH  66  90
ATOM     90  C   UNL A   1      42.074  23.659  26.474  1.00  0.00     0.023 A 
ATOM     91  C   UNL A   1      43.176  23.765  25.535  1.00  0.00     0.012 A 
ATOM     92  C   UNL A   1      41.618  22.331  26.648  1.00  0.00     0.148 A 
ATOM     93  C   UNL A   1      43.854  22.674  24.948  1.00  0.00     0.002 A 
ATOM     94  C   UNL A   1      42.285  21.229  26.024  1.00  0.00     0.091 A 
ATOM     95  F   UNL A   1      40.601  22.119  27.490  1.00  0.00    -0.205 F 
ATOM     96  C   UNL A   1      43.417  21.397  25.209  1.00  0.00     0.022 A 
BRANCH  94  97
ATOM     97  S   UNL A   1      41.824  19.497  26.280  1.00  0.00     0.127 S 
ATOM     98  O   UNL A   1      42.801  18.774  25.460  1.00  0.00    -0.237 OA
ATOM     99  O   UNL A   1      42.022  19.344  27.720  1.00  0.00    -0.237 OA
ATOM    100  O   UNL A   1      40.451  19.394  25.809  1.00  0.00    -0.744 OA
ENDBRANCH  94  97
ENDBRANCH  66  90
BRANCH  78 101
ATOM    101  C   UNL A   1      45.573  27.822  28.728  1.00  0.00     0.023 A 
ATOM    102  C   UNL A   1      44.857  28.942  28.248  1.00  0.00     0.012 A 
ATOM    103  C   UNL A   1      46.871  27.622  28.233  1.00  0.00     0.148 A 
ATOM    104  C   UNL A   1      45.401  29.802  27.286  1.00  0.00     0.002 A 
ATOM    105  C   UNL A   1      47.436  28.509  27.325  1.00  0.00     0.091 A 
ATOM    106  F   UNL A   1      47.543  26.537  28.650  1.00  0.00    -0.205 F 
ATOM    107  C   UNL A   1      46.700  29.595  26.835  1.00  0.00     0.022 A 
BRANCH 105 108
ATOM    108  S   UNL A   1      49.133  28.292  26.797  1.00  0.00     0.127 S 
ATOM    109  O   UNL A   1      49.842  28.232  28.074  1.00  0.00    -0.237 OA
ATOM    110  O   UNL A   1      49.097  27.031  26.058  1.00  0.00    -0.237 OA
ATOM    111  O   UNL A   1      49.427  29.460  25.971  1.00  0.00    -0.744 OA
ENDBRANCH 105 108
ENDBRANCH  78 101
ENDBRANCH  52  53
ENDBRANCH  44  47
ENDBRANCH  42  43
ENDBRANCH  41  42
ENDBRANCH  40  41
ENDBRANCH  39  40
ENDBRANCH   1  39
TORSDOF 24
ENDMDL
MODEL 2
REMARK VINA RESULT:      -9.3      2.191      3.639
REMARK SMILES Cc1c(CC(=O)N[C@H](CO)C(=O)NCCCCCCNC(=O)c2ccc(-c3c4nc(c(-c5cccc(S(=O)(=O)[O-])c5F)c5ccc([nH]5)c(-c5cccc(S(=O)(=O)[O-])c5F)c5nc(c(-c6cccc(S(=O)(=O)[O-])c6F)c6ccc3[nH]6)C=C5)C=C4)cc2)cc(-c2ccc(S(C)(=O)=O)cc2)n1-c1ccc(F)cc1
REMARK SMILES IDX 15 1 14 2 13 3 11 4 12 5 8 7 7 8 5 9 6 10 4 12 3 13 1 14
REMARK SMILES IDX 2 15 98 16 86 17 87 18 99 19 100 20 105 21 101 22 104 23
REMARK SMILES IDX 102 24 103 25 88 26 89 27 97 28 90 29 96 30 91 31 92 32
REMARK SMILES IDX 93 33 94 34 95 35 9 36 10 37 16 39 17 40 18 41 19 42 20 43
REMARK SMILES IDX 21 44 22 46 23 47 24 48 85 49 25 50 84 51 26 52 27 53 28 54
REMARK SMILES IDX 78 55 29 56 83 57 77 58 79 59 30 60 82 61 76 62 75 63 31 65
REMARK SMILES IDX 63 66 43 67 62 68 44 69 47 70 61 71 80 72 45 73 46 74 60 76
REMARK SMILES IDX 81 77 48 78 32 79 33 80 41 81 34 82 36 83 42 84 35 85 37 86
REMARK SMILES IDX 38 87 39 88 40 89 64 90 65 91 73 92 66 93 68 94 74 95 67 96
REMARK SMILES IDX 69 97 70 98 71 99 72 100 49 101 50 102 58 103 51 104 53 105
REMARK SMILES IDX 59 106 52 107 54 108 55 109 56 110 57 111
REMARK H PARENT 13 6 7 11 10 38 20 45 79 64 47 75
REMARK Flexibility Score: inf
ROOT
ATOM      1  C   UNL A   1      40.252  34.098  30.965  1.00  0.00     0.021 C 
ENDROOT
BRANCH   1   2
ATOM      2  C   UNL A   1      41.539  34.562  29.769  1.00  0.00     0.116 C 
BRANCH   2   3
ATOM      3  N   UNL A   1      42.401  35.798  29.796  1.00  0.00    -0.354 N 
ATOM      4  C   UNL A   1      43.245  36.493  28.999  1.00  0.00     0.244 C 
ATOM      5  O   UNL A   1      43.638  37.571  29.482  1.00  0.00    -0.273 OA
ATOM      6  H   UNL A   1      42.328  36.238  30.673  1.00  0.00     0.163 HD
BRANCH   4   7
ATOM      7  C   UNL A   1      43.751  36.113  27.616  1.00  0.00     0.197 C 
BRANCH   7   8
ATOM      8  N   UNL A   1      45.164  36.325  27.273  1.00  0.00    -0.342 N 
ATOM      9  C   UNL A   1      46.100  35.389  26.921  1.00  0.00     0.225 C 
ATOM     10  O   UNL A   1      46.914  35.691  26.043  1.00  0.00    -0.275 OA
ATOM     11  H   UNL A   1      45.477  37.258  27.299  1.00  0.00     0.164 HD
BRANCH   9  12
ATOM     12  C   UNL A   1      46.189  34.041  27.634  1.00  0.00     0.137 C 
BRANCH  12  13
ATOM     13  C   UNL A   1      47.541  33.835  28.259  1.00  0.00    -0.017 A 
ATOM     14  C   UNL A   1      47.450  35.458  30.261  1.00  0.00     0.065 C 
ATOM     15  C   UNL A   1      47.984  34.288  29.490  1.00  0.00     0.024 A 
ATOM     16  N   UNL A   1      48.971  33.404  29.985  1.00  0.00    -0.314 N 
ATOM     17  C   UNL A   1      48.602  33.129  27.649  1.00  0.00     0.033 A 
ATOM     18  C   UNL A   1      49.501  32.651  28.610  1.00  0.00     0.053 A 
BRANCH  16  19
ATOM     19  C   UNL A   1      49.062  33.228  31.641  1.00  0.00     0.046 A 
ATOM     20  C   UNL A   1      48.163  32.569  32.533  1.00  0.00     0.029 A 
ATOM     21  C   UNL A   1      49.927  34.040  32.395  1.00  0.00     0.029 A 
ATOM     22  C   UNL A   1      47.778  32.952  33.815  1.00  0.00     0.041 A 
ATOM     23  C   UNL A   1      49.594  34.431  33.735  1.00  0.00     0.041 A 
ATOM     24  C   UNL A   1      48.451  33.978  34.372  1.00  0.00     0.123 A 
ATOM     25  F   UNL A   1      47.958  34.580  35.455  1.00  0.00    -0.207 F 
ENDBRANCH  16  19
BRANCH  18  26
ATOM     26  C   UNL A   1      50.470  31.342  28.114  1.00  0.00    -0.001 A 
ATOM     27  C   UNL A   1      50.900  31.012  26.784  1.00  0.00     0.011 A 
ATOM     28  C   UNL A   1      50.914  30.353  29.014  1.00  0.00     0.011 A 
ATOM     29  C   UNL A   1      51.164  29.713  26.308  1.00  0.00     0.021 A 
ATOM     30  C   UNL A   1      51.290  29.031  28.557  1.00  0.00     0.021 A 
ATOM     31  C   UNL A   1      51.243  28.685  27.200  1.00  0.00     0.067 A 
BRANCH  31  32
ATOM     32  S   UNL A   1      51.392  27.028  26.549  1.00  0.00     0.175 S 
ATOM     33  C   UNL A   1      52.177  26.047  27.816  1.00  0.00     0.163 C 
ATOM     34  O   UNL A   1      50.026  26.515  26.400  1.00  0.00    -0.224 OA
ATOM     35  O   UNL A   1      52.267  27.094  25.409  1.00  0.00    -0.224 OA
ENDBRANCH  31  32
ENDBRANCH  18  26
ENDBRANCH  12  13
ENDBRANCH   9  12
ENDBRANCH   7   8
BRANCH   7  36
ATOM     36  C   UNL A   1      42.823  36.749  26.577  1.00  0.00     0.191 C 
BRANCH  36  37
ATOM     37  O   UNL A   1      41.601  37.145  27.205  1.00  0.00    -0.394 OA
ATOM     38  H   UNL A   1      40.900  37.212  26.538  1.00  0.00     0.210 HD
ENDBRANCH  36  37
ENDBRANCH   7  36
ENDBRANCH   4   7
ENDBRANCH   2   3
ENDBRANCH   1   2
BRANCH   1  39
ATOM     39  C   UNL A   1      38.564  34.685  31.536  1.00  0.00     0.002 C 
BRANCH  39  40
ATOM     40  C   UNL A   1      37.428  34.344  32.909  1.00  0.00     0.002 C 
BRANCH  40  41
ATOM     41  C   UNL A   1      35.780  34.733  33.248  1.00  0.00     0.021 C 
BRANCH  41  42
ATOM     42  C   UNL A   1      34.320  34.120  32.733  1.00  0.00     0.116 C 
BRANCH  42  43
ATOM     43  N   UNL A   1      34.175  33.556  31.366  1.00  0.00    -0.352 N 
ATOM     44  C   UNL A   1      34.945  32.902  30.368  1.00  0.00     0.251 C 
ATOM     45  H   UNL A   1      33.249  33.671  31.052  1.00  0.00     0.163 HD
ATOM     46  O   UNL A   1      34.380  32.912  29.265  1.00  0.00    -0.269 OA
BRANCH  44  47
ATOM     47  C   UNL A   1      36.318  32.165  30.425  1.00  0.00     0.039 A 
ATOM     48  C   UNL A   1      37.218  32.096  29.369  1.00  0.00     0.014 A 
ATOM     49  C   UNL A   1      36.616  31.202  31.435  1.00  0.00     0.014 A 
ATOM     50  C   UNL A   1      38.411  31.230  29.414  1.00  0.00     0.010 A 
ATOM     51  C   UNL A   1      37.825  30.337  31.485  1.00  0.00     0.010 A 
ATOM     52  C   UNL A   1      38.804  30.314  30.479  1.00  0.00    -0.014 A 
BRANCH  52  53
ATOM     53  C   UNL A   1      39.791  29.006  30.083  1.00  0.00     0.031 A 
ATOM     54  C   UNL A   1      40.537  28.903  31.358  1.00  0.00     0.074 A 
ATOM     55  C   UNL A   1      40.334  28.160  29.079  1.00  0.00     0.049 A 
ATOM     56  N   UNL A   1      41.102  29.986  31.811  1.00  0.00    -0.248 NA
ATOM     57  C   UNL A   1      40.358  27.858  32.361  1.00  0.00     0.031 C 
ATOM     58  C   UNL A   1      40.185  28.243  27.610  1.00  0.00     0.029 A 
ATOM     59  N   UNL A   1      41.199  26.982  29.124  1.00  0.00    -0.354 N 
ATOM     60  C   UNL A   1      41.728  29.634  32.959  1.00  0.00     0.074 A 
ATOM     61  C   UNL A   1      40.995  28.447  33.385  1.00  0.00     0.031 C 
ATOM     62  C   UNL A   1      40.722  27.163  26.955  1.00  0.00     0.029 A 
ATOM     63  C   UNL A   1      41.362  26.222  27.881  1.00  0.00     0.049 A 
ATOM     64  H   UNL A   1      41.654  26.710  29.954  1.00  0.00     0.167 HD
ATOM     65  C   UNL A   1      43.070  29.889  32.930  1.00  0.00     0.034 A 
ATOM     66  C   UNL A   1      42.035  25.017  27.582  1.00  0.00     0.034 A 
ATOM     67  C   UNL A   1      43.842  28.686  32.814  1.00  0.00     0.049 A 
ATOM     68  C   UNL A   1      43.159  24.989  28.524  1.00  0.00     0.074 A 
ATOM     69  C   UNL A   1      43.683  27.418  33.344  1.00  0.00     0.029 A 
ATOM     70  N   UNL A   1      44.646  28.552  31.705  1.00  0.00    -0.354 N 
ATOM     71  N   UNL A   1      44.248  25.656  28.279  1.00  0.00    -0.248 NA
ATOM     72  C   UNL A   1      43.223  24.083  29.665  1.00  0.00     0.031 C 
ATOM     73  C   UNL A   1      43.915  26.550  32.261  1.00  0.00     0.029 A 
ATOM     74  C   UNL A   1      44.632  27.233  31.292  1.00  0.00     0.049 A 
ATOM     75  H   UNL A   1      45.151  29.280  31.274  1.00  0.00     0.167 HD
ATOM     76  C   UNL A   1      44.861  25.686  29.491  1.00  0.00     0.074 A 
ATOM     77  C   UNL A   1      44.371  24.513  30.194  1.00  0.00     0.031 C 
ATOM     78  C   UNL A   1      45.126  26.923  29.975  1.00  0.00     0.034 A 
BRANCH  65  79
ATOM     79  C   UNL A   1      43.395  31.240  32.300  1.00  0.00     0.023 A 
ATOM     80  C   UNL A   1      44.288  31.228  31.216  1.00  0.00     0.012 A 
ATOM     81  C   UNL A   1      43.085  32.492  32.911  1.00  0.00     0.148 A 
ATOM     82  C   UNL A   1      44.901  32.408  30.785  1.00  0.00     0.002 A 
ATOM     83  C   UNL A   1      43.779  33.644  32.541  1.00  0.00     0.091 A 
ATOM     84  F   UNL A   1      42.159  32.527  33.881  1.00  0.00    -0.205 F 
ATOM     85  C   UNL A   1      44.678  33.604  31.468  1.00  0.00     0.022 A 
BRANCH  83  86
ATOM     86  S   UNL A   1      43.752  35.163  33.521  1.00  0.00     0.127 S 
ATOM     87  O   UNL A   1      44.492  34.775  34.728  1.00  0.00    -0.237 OA
ATOM     88  O   UNL A   1      44.458  36.115  32.670  1.00  0.00    -0.237 OA
ATOM     89  O   UNL A   1      42.349  35.469  33.774  1.00  0.00    -0.744 OA
ENDBRANCH  83  86
ENDBRANCH  65  79
BRANCH  66  90
ATOM     90  C   UNL A   1      42.320  23.825  26.543  1.00  0.00     0.023 A 
ATOM     91  C   UNL A   1      43.518  23.884  25.726  1.00  0.00     0.012 A 
ATOM     92  C   UNL A   1      41.785  22.519  26.649  1.00  0.00     0.148 A 
ATOM     93  C   UNL A   1      44.201  22.767  25.198  1.00  0.00     0.002 A 
ATOM     94  C   UNL A   1      42.460  21.392  26.083  1.00  0.00     0.091 A 
ATOM     95  F   UNL A   1      40.675  22.350  27.377  1.00  0.00    -0.205 F 
ATOM     96  C   UNL A   1      43.678  21.511  25.394  1.00  0.00     0.022 A 
BRANCH  94  97
ATOM     97  S   UNL A   1      41.891  19.682  26.265  1.00  0.00     0.127 S 
ATOM     98  O   UNL A   1      40.453  19.786  26.000  1.00  0.00    -0.237 OA
ATOM     99  O   UNL A   1      42.647  19.001  25.216  1.00  0.00    -0.237 OA
ATOM    100  O   UNL A   1      42.224  19.313  27.633  1.00  0.00    -0.744 OA
ENDBRANCH  94  97
ENDBRANCH  66  90
BRANCH  78 101
ATOM    101  C   UNL A   1      45.719  27.942  29.022  1.00  0.00     0.023 A 
ATOM    102  C   UNL A   1      47.090  28.070  28.703  1.00  0.00     0.012 A 
ATOM    103  C   UNL A   1      44.827  28.845  28.426  1.00  0.00     0.148 A 
ATOM    104  C   UNL A   1      47.553  29.083  27.854  1.00  0.00     0.002 A 
ATOM    105  C   UNL A   1      45.277  29.813  27.535  1.00  0.00     0.091 A 
ATOM    106  F   UNL A   1      43.529  28.759  28.756  1.00  0.00    -0.205 F 
ATOM    107  C   UNL A   1      46.642  29.948  27.256  1.00  0.00     0.022 A 
BRANCH 105 108
ATOM    108  S   UNL A   1      44.104  30.880  26.704  1.00  0.00     0.127 S 
ATOM    109  O   UNL A   1      44.954  31.564  25.731  1.00  0.00    -0.237 OA
ATOM    110  O   UNL A   1      43.147  29.941  26.123  1.00  0.00    -0.237 OA
ATOM    111  O   UNL A   1      43.548  31.727  27.755  1.00  0.00    -0.744 OA
ENDBRANCH 105 108
ENDBRANCH  78 101
ENDBRANCH  52  53
ENDBRANCH  44  47
ENDBRANCH  42  43
ENDBRANCH  41  42
ENDBRANCH  40  41
ENDBRANCH  39  40
ENDBRANCH   1  39
TORSDOF 24
ENDMDL
MODEL 3
REMARK VINA RESULT:      -8.8      3.441      6.286
REMARK SMILES Cc1c(CC(=O)N[C@H](CO)C(=O)NCCCCCCNC(=O)c2ccc(-c3c4nc(c(-c5cccc(S(=O)(=O)[O-])c5F)c5ccc([nH]5)c(-c5cccc(S(=O)(=O)[O-])c5F)c5nc(c(-c6cccc(S(=O)(=O)[O-])c6F)c6ccc3[nH]6)C=C5)C=C4)cc2)cc(-c2ccc(S(C)(=O)=O)cc2)n1-c1ccc(F)cc1
REMARK SMILES IDX 15 1 14 2 13 3 11 4 12 5 8 7 7 8 5 9 6 10 4 12 3 13 1 14
REMARK SMILES IDX 2 15 98 16 86 17 87 18 99 19 100 20 105 21 101 22 104 23
REMARK SMILES IDX 102 24 103 25 88 26 89 27 97 28 90 29 96 30 91 31 92 32
REMARK SMILES IDX 93 33 94 34 95 35 9 36 10 37 16 39 17 40 18 41 19 42 20 43
REMARK SMILES IDX 21 44 22 46 23 47 24 48 85 49 25 50 84 51 26 52 27 53 28 54
REMARK SMILES IDX 78 55 29 56 83 57 77 58 79 59 30 60 82 61 76 62 75 63 31 65
REMARK SMILES IDX 63 66 43 67 62 68 44 69 47 70 61 71 80 72 45 73 46 74 60 76
REMARK SMILES IDX 81 77 48 78 32 79 33 80 41 81 34 82 36 83 42 84 35 85 37 86
REMARK SMILES IDX 38 87 39 88 40 89 64 90 65 91 73 92 66 93 68 94 74 95 67 96
REMARK SMILES IDX 69 97 70 98 71 99 72 100 49 101 50 102 58 103 51 104 53 105
REMARK SMILES IDX 59 106 52 107 54 108 55 109 56 110 57 111
REMARK H PARENT 13 6 7 11 10 38 20 45 79 64 47 75
REMARK Flexibility Score: inf
ROOT
ATOM      1  C   UNL A   1      39.217  33.374  32.322  1.00  0.00     0.021 C 
ENDROOT
BRANCH   1   2
ATOM      2  C   UNL A   1      39.661  31.737  32.972  1.00  0.00     0.116 C 
BRANCH   2   3
ATOM      3  N   UNL A   1      40.115  31.407  34.371  1.00  0.00    -0.354 N 
ATOM      4  C   UNL A   1      39.872  31.765  35.654  1.00  0.00     0.244 C 
ATOM      5  O   UNL A   1      40.467  31.076  36.502  1.00  0.00    -0.273 OA
ATOM      6  H   UNL A   1      40.810  30.711  34.342  1.00  0.00     0.163 HD
BRANCH   4   7
ATOM      7  C   UNL A   1      38.976  32.886  36.157  1.00  0.00     0.197 C 
BRANCH   7   8
ATOM      8  N   UNL A   1      39.575  34.071  36.785  1.00  0.00    -0.342 N 
ATOM      9  C   UNL A   1      40.020  35.217  36.180  1.00  0.00     0.225 C 
ATOM     10  O   UNL A   1      39.821  36.289  36.760  1.00  0.00    -0.275 OA
ATOM     11  H   UNL A   1      39.668  34.038  37.764  1.00  0.00     0.164 HD
BRANCH   9  12
ATOM     12  C   UNL A   1      40.801  35.176  34.867  1.00  0.00     0.137 C 
BRANCH  12  13
ATOM     13  C   UNL A   1      42.086  35.951  34.965  1.00  0.00    -0.017 A 
ATOM     14  C   UNL A   1      43.606  34.296  36.229  1.00  0.00     0.065 C 
ATOM     15  C   UNL A   1      43.328  35.486  35.361  1.00  0.00     0.024 A 
ATOM     16  N   UNL A   1      44.336  36.251  34.729  1.00  0.00    -0.314 N 
ATOM     17  C   UNL A   1      42.213  37.326  34.664  1.00  0.00     0.033 A 
ATOM     18  C   UNL A   1      43.536  37.644  34.334  1.00  0.00     0.053 A 
BRANCH  16  19
ATOM     19  C   UNL A   1      45.765  35.467  34.375  1.00  0.00     0.046 A 
ATOM     20  C   UNL A   1      47.096  35.782  34.783  1.00  0.00     0.029 A 
ATOM     21  C   UNL A   1      45.828  34.548  33.313  1.00  0.00     0.029 A 
ATOM     22  C   UNL A   1      48.275  35.685  34.048  1.00  0.00     0.041 A 
ATOM     23  C   UNL A   1      47.031  34.381  32.549  1.00  0.00     0.041 A 
ATOM     24  C   UNL A   1      48.199  35.058  32.857  1.00  0.00     0.123 A 
ATOM     25  F   UNL A   1      49.199  35.180  31.983  1.00  0.00    -0.207 F 
ENDBRANCH  16  19
BRANCH  18  26
ATOM     26  C   UNL A   1      43.736  39.065  33.418  1.00  0.00    -0.001 A 
ATOM     27  C   UNL A   1      44.285  39.199  32.098  1.00  0.00     0.011 A 
ATOM     28  C   UNL A   1      43.424  40.339  33.932  1.00  0.00     0.011 A 
ATOM     29  C   UNL A   1      44.968  40.328  31.606  1.00  0.00     0.021 A 
ATOM     30  C   UNL A   1      44.028  41.540  33.392  1.00  0.00     0.021 A 
ATOM     31  C   UNL A   1      44.935  41.486  32.326  1.00  0.00     0.067 A 
BRANCH  31  32
ATOM     32  S   UNL A   1      45.962  42.838  31.771  1.00  0.00     0.175 S 
ATOM     33  C   UNL A   1      47.101  43.196  33.098  1.00  0.00     0.163 C 
ATOM     34  O   UNL A   1      46.761  42.325  30.653  1.00  0.00    -0.224 OA
ATOM     35  O   UNL A   1      45.103  43.978  31.583  1.00  0.00    -0.224 OA
ENDBRANCH  31  32
ENDBRANCH  18  26
ENDBRANCH  12  13
ENDBRANCH   9  12
ENDBRANCH   7   8
BRANCH   7  36
ATOM     36  C   UNL A   1      37.895  32.269  37.048  1.00  0.00     0.191 C 
BRANCH  36  37
ATOM     37  O   UNL A   1      37.674  30.910  36.662  1.00  0.00    -0.394 OA
ATOM     38  H   UNL A   1      37.624  30.352  37.454  1.00  0.00     0.210 HD
ENDBRANCH  36  37
ENDBRANCH   7  36
ENDBRANCH   4   7
ENDBRANCH   2   3
ENDBRANCH   1   2
BRANCH   1  39
ATOM     39  C   UNL A   1      37.986  34.751  32.656  1.00  0.00     0.002 C 
BRANCH  39  40
ATOM     40  C   UNL A   1      36.184  34.934  32.751  1.00  0.00     0.002 C 
BRANCH  40  41
ATOM     41  C   UNL A   1      34.837  33.970  32.260  1.00  0.00     0.021 C 
BRANCH  41  42
ATOM     42  C   UNL A   1      34.686  32.450  31.598  1.00  0.00     0.116 C 
BRANCH  42  43
ATOM     43  N   UNL A   1      34.398  32.280  30.150  1.00  0.00    -0.352 N 
ATOM     44  C   UNL A   1      35.057  31.941  28.939  1.00  0.00     0.251 C 
ATOM     45  H   UNL A   1      33.446  32.458  29.974  1.00  0.00     0.163 HD
ATOM     46  O   UNL A   1      34.383  32.242  27.943  1.00  0.00    -0.269 OA
BRANCH  44  47
ATOM     47  C   UNL A   1      36.423  31.246  28.653  1.00  0.00     0.039 A 
ATOM     48  C   UNL A   1      36.619  30.259  27.696  1.00  0.00     0.014 A 
ATOM     49  C   UNL A   1      37.507  31.304  29.578  1.00  0.00     0.014 A 
ATOM     50  C   UNL A   1      37.882  29.504  27.598  1.00  0.00     0.010 A 
ATOM     51  C   UNL A   1      38.786  30.551  29.473  1.00  0.00     0.010 A 
ATOM     52  C   UNL A   1      39.053  29.615  28.461  1.00  0.00    -0.014 A 
BRANCH  52  53
ATOM     53  C   UNL A   1      40.082  28.286  28.583  1.00  0.00     0.031 A 
ATOM     54  C   UNL A   1      40.983  28.806  29.638  1.00  0.00     0.074 A 
ATOM     55  C   UNL A   1      40.565  27.073  28.023  1.00  0.00     0.049 A 
ATOM     56  N   UNL A   1      41.513  29.982  29.448  1.00  0.00    -0.248 NA
ATOM     57  C   UNL A   1      41.007  28.357  31.026  1.00  0.00     0.031 C 
ATOM     58  C   UNL A   1      40.233  26.451  26.723  1.00  0.00     0.029 A 
ATOM     59  N   UNL A   1      41.518  26.066  28.487  1.00  0.00    -0.354 N 
ATOM     60  C   UNL A   1      42.298  30.220  30.525  1.00  0.00     0.074 A 
ATOM     61  C   UNL A   1      41.716  29.367  31.554  1.00  0.00     0.031 C 
ATOM     62  C   UNL A   1      40.770  25.195  26.577  1.00  0.00     0.029 A 
ATOM     63  C   UNL A   1      41.588  24.811  27.732  1.00  0.00     0.049 A 
ATOM     64  H   UNL A   1      42.089  26.224  29.274  1.00  0.00     0.167 HD
ATOM     65  C   UNL A   1      43.603  30.447  30.189  1.00  0.00     0.034 A 
ATOM     66  C   UNL A   1      42.311  23.616  27.937  1.00  0.00     0.034 A 
ATOM     67  C   UNL A   1      44.446  29.340  30.538  1.00  0.00     0.049 A 
ATOM     68  C   UNL A   1      43.539  24.048  28.612  1.00  0.00     0.074 A 
ATOM     69  C   UNL A   1      44.451  28.471  31.614  1.00  0.00     0.029 A 
ATOM     70  N   UNL A   1      45.119  28.708  29.517  1.00  0.00    -0.354 N 
ATOM     71  N   UNL A   1      44.536  24.532  27.931  1.00  0.00    -0.248 NA
ATOM     72  C   UNL A   1      43.810  23.789  30.021  1.00  0.00     0.031 C 
ATOM     73  C   UNL A   1      44.617  27.197  31.039  1.00  0.00     0.029 A 
ATOM     74  C   UNL A   1      45.157  27.350  29.773  1.00  0.00     0.049 A 
ATOM     75  H   UNL A   1      45.510  29.152  28.729  1.00  0.00     0.167 HD
ATOM     76  C   UNL A   1      45.287  25.139  28.888  1.00  0.00     0.074 A 
ATOM     77  C   UNL A   1      44.977  24.431  30.118  1.00  0.00     0.031 C 
ATOM     78  C   UNL A   1      45.511  26.460  28.696  1.00  0.00     0.034 A 
BRANCH  65  79
ATOM     79  C   UNL A   1      43.743  31.344  28.963  1.00  0.00     0.023 A 
ATOM     80  C   UNL A   1      43.998  30.700  27.741  1.00  0.00     0.012 A 
ATOM     81  C   UNL A   1      43.917  32.758  29.034  1.00  0.00     0.148 A 
ATOM     82  C   UNL A   1      44.465  31.422  26.638  1.00  0.00     0.002 A 
ATOM     83  C   UNL A   1      44.480  33.451  27.962  1.00  0.00     0.091 A 
ATOM     84  F   UNL A   1      43.583  33.395  30.167  1.00  0.00    -0.205 F 
ATOM     85  C   UNL A   1      44.741  32.784  26.759  1.00  0.00     0.022 A 
BRANCH  83  86
ATOM     86  S   UNL A   1      45.108  35.140  28.108  1.00  0.00     0.127 S 
ATOM     87  O   UNL A   1      46.049  35.034  29.229  1.00  0.00    -0.237 OA
ATOM     88  O   UNL A   1      45.745  35.364  26.814  1.00  0.00    -0.237 OA
ATOM     89  O   UNL A   1      43.957  35.988  28.394  1.00  0.00    -0.744 OA
ENDBRANCH  83  86
ENDBRANCH  65  79
BRANCH  66  90
ATOM     90  C   UNL A   1      42.560  22.077  27.544  1.00  0.00     0.023 A 
ATOM     91  C   UNL A   1      41.465  21.136  27.687  1.00  0.00     0.012 A 
ATOM     92  C   UNL A   1      43.569  21.625  26.662  1.00  0.00     0.148 A 
ATOM     93  C   UNL A   1      41.304  19.952  26.933  1.00  0.00     0.002 A 
ATOM     94  C   UNL A   1      43.421  20.407  25.925  1.00  0.00     0.091 A 
ATOM     95  F   UNL A   1      44.630  22.415  26.460  1.00  0.00    -0.205 F 
ATOM     96  C   UNL A   1      42.280  19.595  26.033  1.00  0.00     0.022 A 
BRANCH  94  97
ATOM     97  S   UNL A   1      44.621  19.817  24.704  1.00  0.00     0.127 S 
ATOM     98  O   UNL A   1      44.142  18.464  24.404  1.00  0.00    -0.237 OA
ATOM     99  O   UNL A   1      44.436  20.773  23.614  1.00  0.00    -0.237 OA
ATOM    100  O   UNL A   1      45.908  19.861  25.381  1.00  0.00    -0.744 OA
ENDBRANCH  94  97
ENDBRANCH  66  90
BRANCH  78 101
ATOM    101  C   UNL A   1      45.904  26.915  27.305  1.00  0.00     0.023 A 
ATOM    102  C   UNL A   1      45.008  27.283  26.276  1.00  0.00     0.012 A 
ATOM    103  C   UNL A   1      47.276  26.953  27.015  1.00  0.00     0.148 A 
ATOM    104  C   UNL A   1      45.465  27.635  24.999  1.00  0.00     0.002 A 
ATOM    105  C   UNL A   1      47.733  27.361  25.767  1.00  0.00     0.091 A 
ATOM    106  F   UNL A   1      48.132  26.564  27.973  1.00  0.00    -0.205 F 
ATOM    107  C   UNL A   1      46.832  27.690  24.748  1.00  0.00     0.022 A 
BRANCH 105 108
ATOM    108  S   UNL A   1      49.491  27.506  25.461  1.00  0.00     0.127 S 
ATOM    109  O   UNL A   1      49.902  28.452  26.497  1.00  0.00    -0.237 OA
ATOM    110  O   UNL A   1      49.980  26.142  25.651  1.00  0.00    -0.237 OA
ATOM    111  O   UNL A   1      49.599  27.994  24.089  1.00  0.00    -0.744 OA
ENDBRANCH 105 108
ENDBRANCH  78 101
ENDBRANCH  52  53
ENDBRANCH  44  47
ENDBRANCH  42  43
ENDBRANCH  41  42
ENDBRANCH  40  41
ENDBRANCH  39  40
ENDBRANCH   1  39
TORSDOF 24
ENDMDL
