MODEL 1
REMARK VINA RESULT:     -11.1      0.000      0.000
REMARK SMILES CCc1c(C(=O)NCC(=O)NCCCCCCNC(=O)c2ccc(-c3c4nc(c(-c5cccc(S(=O)(=O)[O-])c5F)c5ccc([nH]5)c(-c5cccc(S(=O)(=O)[O-])c5F)c5nc(c(-c6cccc(S(=O)(=O)[O-])c6F)c6ccc3[nH]6)C=C5)C=C4)cc2)nnn1-c1ccc(Cl)cc1
REMARK SMILES IDX 14 1 13 2 12 3 11 4 9 5 10 6 8 8 7 9 5 10 6 11 4 13 3 14
REMARK SMILES IDX 86 15 84 16 85 17 2 18 1 19 87 20 88 21 93 22 89 23 92 24
REMARK SMILES IDX 90 25 91 26 15 27 16 28 17 29 18 30 19 31 20 33 21 34 22 35
REMARK SMILES IDX 83 36 23 37 82 38 24 39 25 40 26 41 76 42 27 43 81 44 75 45
REMARK SMILES IDX 77 46 28 47 80 48 74 49 73 50 29 52 61 53 41 54 60 55 42 56
REMARK SMILES IDX 45 57 59 58 78 59 43 60 44 61 58 63 79 64 46 65 30 66 31 67
REMARK SMILES IDX 39 68 32 69 34 70 40 71 33 72 35 73 36 74 37 75 38 76 62 77
REMARK SMILES IDX 63 78 71 79 64 80 66 81 72 82 65 83 67 84 68 85 69 86 70 87
REMARK SMILES IDX 47 88 48 89 56 90 49 91 51 92 57 93 50 94 52 95 53 96 54 97
REMARK SMILES IDX 55 98
REMARK H PARENT 11 7 7 12 18 32 77 51 45 62
REMARK Flexibility Score: inf
ROOT
ATOM      1  C   UNL A   1      37.393  21.786  24.767  1.00  0.00     0.002 C 
ENDROOT
BRANCH   1   2
ATOM      2  C   UNL A   1      36.748  20.402  24.869  1.00  0.00     0.021 C 
BRANCH   2   3
ATOM      3  C   UNL A   1      35.299  20.442  25.332  1.00  0.00     0.116 C 
BRANCH   3   4
ATOM      4  N   UNL A   1      34.397  20.781  24.257  1.00  0.00    -0.355 N 
ATOM      5  C   UNL A   1      33.629  21.878  24.048  1.00  0.00     0.239 C 
ATOM      6  O   UNL A   1      32.970  21.888  22.998  1.00  0.00    -0.273 OA
ATOM      7  H   UNL A   1      34.328  20.096  23.552  1.00  0.00     0.163 HD
BRANCH   5   8
ATOM      8  C   UNL A   1      33.692  23.153  24.908  1.00  0.00     0.216 C 
BRANCH   8   9
ATOM      9  N   UNL A   1      32.921  23.376  26.106  1.00  0.00    -0.342 N 
ATOM     10  C   UNL A   1      31.838  24.136  26.462  1.00  0.00     0.274 C 
ATOM     11  O   UNL A   1      31.328  23.805  27.534  1.00  0.00    -0.267 OA
ATOM     12  H   UNL A   1      33.260  22.847  26.863  1.00  0.00     0.164 HD
BRANCH  10  13
ATOM     13  C   UNL A   1      31.325  25.332  25.773  1.00  0.00     0.174 A 
ATOM     14  C   UNL A   1      30.918  25.702  24.487  1.00  0.00     0.077 A 
ATOM     15  N   UNL A   1      30.581  27.053  24.623  1.00  0.00    -0.217 N 
ATOM     16  N   UNL A   1      31.308  26.477  26.555  1.00  0.00    -0.124 NA
ATOM     17  N   UNL A   1      30.979  27.513  25.816  1.00  0.00    -0.061 NA
BRANCH  14  18
ATOM     18  C   UNL A   1      30.941  25.032  23.155  1.00  0.00     0.055 C 
ATOM     19  C   UNL A   1      31.995  25.571  22.205  1.00  0.00     0.011 C 
ENDBRANCH  14  18
BRANCH  15  20
ATOM     20  C   UNL A   1      29.977  27.954  23.710  1.00  0.00     0.067 A 
ATOM     21  C   UNL A   1      28.586  27.920  23.533  1.00  0.00     0.030 A 
ATOM     22  C   UNL A   1      30.752  28.838  22.953  1.00  0.00     0.030 A 
ATOM     23  C   UNL A   1      27.970  28.823  22.662  1.00  0.00     0.023 A 
ATOM     24  C   UNL A   1      30.135  29.725  22.068  1.00  0.00     0.023 A 
ATOM     25  C   UNL A   1      28.747  29.725  21.939  1.00  0.00     0.041 A 
ATOM     26  Cl  UNL A   1      27.992  30.842  20.871  1.00  0.00    -0.084 Cl
ENDBRANCH  15  20
ENDBRANCH  10  13
ENDBRANCH   8   9
ENDBRANCH   5   8
ENDBRANCH   3   4
ENDBRANCH   2   3
ENDBRANCH   1   2
BRANCH   1  27
ATOM     27  C   UNL A   1      37.708  22.485  26.097  1.00  0.00     0.002 C 
BRANCH  27  28
ATOM     28  C   UNL A   1      39.065  23.197  26.211  1.00  0.00     0.021 C 
BRANCH  28  29
ATOM     29  C   UNL A   1      40.114  22.445  27.016  1.00  0.00     0.116 C 
BRANCH  29  30
ATOM     30  N   UNL A   1      41.344  22.219  26.254  1.00  0.00    -0.352 N 
ATOM     31  C   UNL A   1      42.235  23.147  25.741  1.00  0.00     0.251 C 
ATOM     32  H   UNL A   1      41.570  21.276  26.083  1.00  0.00     0.163 HD
ATOM     33  O   UNL A   1      42.993  22.849  24.834  1.00  0.00    -0.269 OA
BRANCH  31  34
ATOM     34  C   UNL A   1      42.252  24.503  26.321  1.00  0.00     0.039 A 
ATOM     35  C   UNL A   1      41.566  25.568  25.733  1.00  0.00     0.014 A 
ATOM     36  C   UNL A   1      42.951  24.682  27.507  1.00  0.00     0.014 A 
ATOM     37  C   UNL A   1      41.526  26.789  26.405  1.00  0.00     0.010 A 
ATOM     38  C   UNL A   1      42.740  25.805  28.258  1.00  0.00     0.010 A 
ATOM     39  C   UNL A   1      42.100  26.892  27.682  1.00  0.00    -0.014 A 
BRANCH  39  40
ATOM     40  C   UNL A   1      41.962  28.103  28.483  1.00  0.00     0.031 A 
ATOM     41  C   UNL A   1      42.926  29.178  28.142  1.00  0.00     0.074 A 
ATOM     42  C   UNL A   1      40.919  28.316  29.315  1.00  0.00     0.049 A 
ATOM     43  N   UNL A   1      43.936  29.572  28.845  1.00  0.00    -0.248 NA
ATOM     44  C   UNL A   1      42.865  29.776  26.799  1.00  0.00     0.031 C 
ATOM     45  C   UNL A   1      39.722  27.482  29.508  1.00  0.00     0.029 A 
ATOM     46  N   UNL A   1      40.632  29.416  30.064  1.00  0.00    -0.354 N 
ATOM     47  C   UNL A   1      44.475  30.650  28.147  1.00  0.00     0.074 A 
ATOM     48  C   UNL A   1      43.935  30.574  26.816  1.00  0.00     0.031 C 
ATOM     49  C   UNL A   1      38.748  28.215  30.086  1.00  0.00     0.029 A 
ATOM     50  C   UNL A   1      39.305  29.491  30.480  1.00  0.00     0.049 A 
ATOM     51  H   UNL A   1      41.304  30.097  30.293  1.00  0.00     0.167 HD
ATOM     52  C   UNL A   1      45.092  31.672  28.806  1.00  0.00     0.034 A 
ATOM     53  C   UNL A   1      38.701  30.545  31.076  1.00  0.00     0.034 A 
ATOM     54  C   UNL A   1      45.364  31.314  30.178  1.00  0.00     0.049 A 
ATOM     55  C   UNL A   1      39.774  31.374  31.668  1.00  0.00     0.074 A 
ATOM     56  C   UNL A   1      46.072  30.315  30.814  1.00  0.00     0.029 A 
ATOM     57  N   UNL A   1      44.518  31.842  31.123  1.00  0.00    -0.354 N 
ATOM     58  N   UNL A   1      40.530  30.976  32.652  1.00  0.00    -0.248 NA
ATOM     59  C   UNL A   1      40.290  32.486  30.890  1.00  0.00     0.031 C 
ATOM     60  C   UNL A   1      45.293  29.989  31.965  1.00  0.00     0.029 A 
ATOM     61  C   UNL A   1      44.194  30.849  32.006  1.00  0.00     0.049 A 
ATOM     62  H   UNL A   1      44.200  32.773  31.159  1.00  0.00     0.167 HD
ATOM     63  C   UNL A   1      41.793  31.450  32.324  1.00  0.00     0.074 A 
ATOM     64  C   UNL A   1      41.557  32.477  31.312  1.00  0.00     0.031 C 
ATOM     65  C   UNL A   1      42.917  30.762  32.684  1.00  0.00     0.034 A 
BRANCH  52  66
ATOM     66  C   UNL A   1      45.092  33.125  28.374  1.00  0.00     0.023 A 
ATOM     67  C   UNL A   1      46.344  33.782  28.346  1.00  0.00     0.012 A 
ATOM     68  C   UNL A   1      43.943  33.942  28.279  1.00  0.00     0.148 A 
ATOM     69  C   UNL A   1      46.445  35.177  28.304  1.00  0.00     0.002 A 
ATOM     70  C   UNL A   1      44.051  35.324  28.155  1.00  0.00     0.091 A 
ATOM     71  F   UNL A   1      42.727  33.419  28.443  1.00  0.00    -0.205 F 
ATOM     72  C   UNL A   1      45.297  35.950  28.204  1.00  0.00     0.022 A 
BRANCH  70  73
ATOM     73  S   UNL A   1      42.598  36.368  27.972  1.00  0.00     0.127 S 
ATOM     74  O   UNL A   1      43.001  37.559  28.714  1.00  0.00    -0.237 OA
ATOM     75  O   UNL A   1      42.532  36.534  26.519  1.00  0.00    -0.237 OA
ATOM     76  O   UNL A   1      41.494  35.601  28.534  1.00  0.00    -0.744 OA
ENDBRANCH  70  73
ENDBRANCH  52  66
BRANCH  53  77
ATOM     77  C   UNL A   1      37.298  31.010  31.003  1.00  0.00     0.023 A 
ATOM     78  C   UNL A   1      36.623  31.365  32.188  1.00  0.00     0.012 A 
ATOM     79  C   UNL A   1      36.721  31.384  29.768  1.00  0.00     0.148 A 
ATOM     80  C   UNL A   1      35.440  32.112  32.148  1.00  0.00     0.002 A 
ATOM     81  C   UNL A   1      35.539  32.120  29.734  1.00  0.00     0.091 A 
ATOM     82  F   UNL A   1      37.378  31.100  28.636  1.00  0.00    -0.205 F 
ATOM     83  C   UNL A   1      34.905  32.499  30.924  1.00  0.00     0.022 A 
BRANCH  81  84
ATOM     84  S   UNL A   1      34.796  32.671  28.191  1.00  0.00     0.127 S 
ATOM     85  O   UNL A   1      33.660  33.462  28.666  1.00  0.00    -0.237 OA
ATOM     86  O   UNL A   1      35.877  33.450  27.598  1.00  0.00    -0.237 OA
ATOM     87  O   UNL A   1      34.413  31.458  27.477  1.00  0.00    -0.744 OA
ENDBRANCH  81  84
ENDBRANCH  53  77
BRANCH  65  88
ATOM     88  C   UNL A   1      42.775  29.648  33.694  1.00  0.00     0.023 A 
ATOM     89  C   UNL A   1      42.168  28.413  33.386  1.00  0.00     0.012 A 
ATOM     90  C   UNL A   1      43.422  29.795  34.933  1.00  0.00     0.148 A 
ATOM     91  C   UNL A   1      42.185  27.357  34.303  1.00  0.00     0.002 A 
ATOM     92  C   UNL A   1      43.480  28.728  35.822  1.00  0.00     0.091 A 
ATOM     93  F   UNL A   1      43.999  30.974  35.211  1.00  0.00    -0.205 F 
ATOM     94  C   UNL A   1      42.854  27.510  35.515  1.00  0.00     0.022 A 
BRANCH  92  95
ATOM     95  S   UNL A   1      44.434  28.825  37.338  1.00  0.00     0.127 S 
ATOM     96  O   UNL A   1      45.796  28.983  36.832  1.00  0.00    -0.237 OA
ATOM     97  O   UNL A   1      43.879  30.015  37.985  1.00  0.00    -0.237 OA
ATOM     98  O   UNL A   1      44.171  27.583  38.057  1.00  0.00    -0.744 OA
ENDBRANCH  92  95
ENDBRANCH  65  88
ENDBRANCH  39  40
ENDBRANCH  31  34
ENDBRANCH  29  30
ENDBRANCH  28  29
ENDBRANCH  27  28
ENDBRANCH   1  27
TORSDOF 20
ENDMDL
MODEL 2
REMARK VINA RESULT:     -10.8      1.330      2.195
REMARK SMILES CCc1c(C(=O)NCC(=O)NCCCCCCNC(=O)c2ccc(-c3c4nc(c(-c5cccc(S(=O)(=O)[O-])c5F)c5ccc([nH]5)c(-c5cccc(S(=O)(=O)[O-])c5F)c5nc(c(-c6cccc(S(=O)(=O)[O-])c6F)c6ccc3[nH]6)C=C5)C=C4)cc2)nnn1-c1ccc(Cl)cc1
REMARK SMILES IDX 14 1 13 2 12 3 11 4 9 5 10 6 8 8 7 9 5 10 6 11 4 13 3 14
REMARK SMILES IDX 86 15 84 16 85 17 2 18 1 19 87 20 88 21 93 22 89 23 92 24
REMARK SMILES IDX 90 25 91 26 15 27 16 28 17 29 18 30 19 31 20 33 21 34 22 35
REMARK SMILES IDX 83 36 23 37 82 38 24 39 25 40 26 41 76 42 27 43 81 44 75 45
REMARK SMILES IDX 77 46 28 47 80 48 74 49 73 50 29 52 61 53 41 54 60 55 42 56
REMARK SMILES IDX 45 57 59 58 78 59 43 60 44 61 58 63 79 64 46 65 30 66 31 67
REMARK SMILES IDX 39 68 32 69 34 70 40 71 33 72 35 73 36 74 37 75 38 76 62 77
REMARK SMILES IDX 63 78 71 79 64 80 66 81 72 82 65 83 67 84 68 85 69 86 70 87
REMARK SMILES IDX 47 88 48 89 56 90 49 91 51 92 57 93 50 94 52 95 53 96 54 97
REMARK SMILES IDX 55 98
REMARK H PARENT 11 7 7 12 18 32 77 51 45 62
REMARK Flexibility Score: inf
ROOT
ATOM      1  C   UNL A   1      40.369  24.148  27.504  1.00  0.00     0.002 C 
ENDROOT
BRANCH   1   2
ATOM      2  C   UNL A   1      39.007  24.316  26.826  1.00  0.00     0.021 C 
BRANCH   2   3
ATOM      3  C   UNL A   1      38.410  23.007  26.333  1.00  0.00     0.116 C 
BRANCH   3   4
ATOM      4  N   UNL A   1      37.862  23.129  25.003  1.00  0.00    -0.355 N 
ATOM      5  C   UNL A   1      37.063  22.300  24.287  1.00  0.00     0.239 C 
ATOM      6  O   UNL A   1      36.731  22.702  23.163  1.00  0.00    -0.273 OA
ATOM      7  H   UNL A   1      38.111  23.958  24.535  1.00  0.00     0.163 HD
BRANCH   5   8
ATOM      8  C   UNL A   1      36.399  21.034  24.859  1.00  0.00     0.216 C 
BRANCH   8   9
ATOM      9  N   UNL A   1      35.462  21.020  25.955  1.00  0.00    -0.342 N 
ATOM     10  C   UNL A   1      34.289  21.655  26.266  1.00  0.00     0.274 C 
ATOM     11  O   UNL A   1      33.666  21.129  27.191  1.00  0.00    -0.267 OA
ATOM     12  H   UNL A   1      35.735  20.391  26.661  1.00  0.00     0.164 HD
BRANCH  10  13
ATOM     13  C   UNL A   1      33.787  22.921  25.706  1.00  0.00     0.174 A 
ATOM     14  C   UNL A   1      32.758  23.353  24.861  1.00  0.00     0.077 A 
ATOM     15  N   UNL A   1      32.956  24.736  24.782  1.00  0.00    -0.217 N 
ATOM     16  N   UNL A   1      34.578  24.024  25.988  1.00  0.00    -0.124 NA
ATOM     17  N   UNL A   1      34.133  25.069  25.327  1.00  0.00    -0.061 NA
BRANCH  14  18
ATOM     18  C   UNL A   1      31.739  22.659  24.023  1.00  0.00     0.055 C 
ATOM     19  C   UNL A   1      32.298  21.540  23.162  1.00  0.00     0.011 C 
ENDBRANCH  14  18
BRANCH  15  20
ATOM     20  C   UNL A   1      32.166  25.752  24.186  1.00  0.00     0.067 A 
ATOM     21  C   UNL A   1      31.365  26.564  25.004  1.00  0.00     0.030 A 
ATOM     22  C   UNL A   1      32.141  25.923  22.799  1.00  0.00     0.030 A 
ATOM     23  C   UNL A   1      30.607  27.592  24.438  1.00  0.00     0.023 A 
ATOM     24  C   UNL A   1      31.364  26.938  22.235  1.00  0.00     0.023 A 
ATOM     25  C   UNL A   1      30.615  27.778  23.057  1.00  0.00     0.041 A 
ATOM     26  Cl  UNL A   1      29.687  29.046  22.357  1.00  0.00    -0.084 Cl
ENDBRANCH  15  20
ENDBRANCH  10  13
ENDBRANCH   8   9
ENDBRANCH   5   8
ENDBRANCH   3   4
ENDBRANCH   2   3
ENDBRANCH   1   2
BRANCH   1  27
ATOM     27  C   UNL A   1      40.795  22.706  27.816  1.00  0.00     0.002 C 
BRANCH  27  28
ATOM     28  C   UNL A   1      41.942  22.118  26.980  1.00  0.00     0.021 C 
BRANCH  28  29
ATOM     29  C   UNL A   1      41.946  22.539  25.517  1.00  0.00     0.116 C 
BRANCH  29  30
ATOM     30  N   UNL A   1      43.292  22.852  25.032  1.00  0.00    -0.352 N 
ATOM     31  C   UNL A   1      43.978  24.053  25.078  1.00  0.00     0.251 C 
ATOM     32  H   UNL A   1      43.777  22.103  24.614  1.00  0.00     0.163 HD
ATOM     33  O   UNL A   1      44.914  24.267  24.326  1.00  0.00    -0.269 OA
BRANCH  31  34
ATOM     34  C   UNL A   1      43.559  25.067  26.064  1.00  0.00     0.039 A 
ATOM     35  C   UNL A   1      44.069  25.090  27.364  1.00  0.00     0.014 A 
ATOM     36  C   UNL A   1      42.657  26.034  25.642  1.00  0.00     0.014 A 
ATOM     37  C   UNL A   1      43.721  26.151  28.199  1.00  0.00     0.010 A 
ATOM     38  C   UNL A   1      42.482  27.170  26.382  1.00  0.00     0.010 A 
ATOM     39  C   UNL A   1      42.941  27.202  27.690  1.00  0.00    -0.014 A 
BRANCH  39  40
ATOM     40  C   UNL A   1      42.668  28.398  28.478  1.00  0.00     0.031 A 
ATOM     41  C   UNL A   1      43.521  29.564  28.139  1.00  0.00     0.074 A 
ATOM     42  C   UNL A   1      41.597  28.509  29.295  1.00  0.00     0.049 A 
ATOM     43  N   UNL A   1      44.475  30.066  28.852  1.00  0.00    -0.248 NA
ATOM     44  C   UNL A   1      43.416  30.142  26.791  1.00  0.00     0.031 C 
ATOM     45  C   UNL A   1      40.491  27.557  29.480  1.00  0.00     0.029 A 
ATOM     46  N   UNL A   1      41.189  29.578  30.031  1.00  0.00    -0.354 N 
ATOM     47  C   UNL A   1      44.910  31.189  28.151  1.00  0.00     0.074 A 
ATOM     48  C   UNL A   1      44.398  31.047  26.814  1.00  0.00     0.031 C 
ATOM     49  C   UNL A   1      39.438  28.189  30.039  1.00  0.00     0.029 A 
ATOM     50  C   UNL A   1      39.855  29.520  30.429  1.00  0.00     0.049 A 
ATOM     51  H   UNL A   1      41.784  30.327  30.262  1.00  0.00     0.167 HD
ATOM     52  C   UNL A   1      45.408  32.273  28.809  1.00  0.00     0.034 A 
ATOM     53  C   UNL A   1      39.138  30.509  31.008  1.00  0.00     0.034 A 
ATOM     54  C   UNL A   1      45.698  31.956  30.188  1.00  0.00     0.049 A 
ATOM     55  C   UNL A   1      40.112  31.449  31.606  1.00  0.00     0.074 A 
ATOM     56  C   UNL A   1      46.497  31.040  30.841  1.00  0.00     0.029 A 
ATOM     57  N   UNL A   1      44.789  32.401  31.117  1.00  0.00    -0.354 N 
ATOM     58  N   UNL A   1      40.892  31.139  32.603  1.00  0.00    -0.248 NA
ATOM     59  C   UNL A   1      40.521  32.603  30.825  1.00  0.00     0.031 C 
ATOM     60  C   UNL A   1      45.740  30.643  31.985  1.00  0.00     0.029 A 
ATOM     61  C   UNL A   1      44.557  31.386  32.004  1.00  0.00     0.049 A 
ATOM     62  H   UNL A   1      44.376  33.294  31.141  1.00  0.00     0.167 HD
ATOM     63  C   UNL A   1      42.103  31.738  32.287  1.00  0.00     0.074 A 
ATOM     64  C   UNL A   1      41.776  32.728  31.263  1.00  0.00     0.031 C 
ATOM     65  C   UNL A   1      43.287  31.173  32.668  1.00  0.00     0.034 A 
BRANCH  52  66
ATOM     66  C   UNL A   1      45.265  33.715  28.365  1.00  0.00     0.023 A 
ATOM     67  C   UNL A   1      46.449  34.486  28.307  1.00  0.00     0.012 A 
ATOM     68  C   UNL A   1      44.042  34.420  28.284  1.00  0.00     0.148 A 
ATOM     69  C   UNL A   1      46.418  35.884  28.250  1.00  0.00     0.002 A 
ATOM     70  C   UNL A   1      44.018  35.805  28.146  1.00  0.00     0.091 A 
ATOM     71  F   UNL A   1      42.884  33.787  28.477  1.00  0.00    -0.205 F 
ATOM     72  C   UNL A   1      45.201  36.545  28.165  1.00  0.00     0.022 A 
BRANCH  70  73
ATOM     73  S   UNL A   1      42.471  36.707  27.982  1.00  0.00     0.127 S 
ATOM     74  O   UNL A   1      42.722  37.870  28.828  1.00  0.00    -0.237 OA
ATOM     75  O   UNL A   1      42.437  36.979  26.544  1.00  0.00    -0.237 OA
ATOM     76  O   UNL A   1      41.436  35.789  28.438  1.00  0.00    -0.744 OA
ENDBRANCH  70  73
ENDBRANCH  52  66
BRANCH  53  77
ATOM     77  C   UNL A   1      37.696  30.827  30.913  1.00  0.00     0.023 A 
ATOM     78  C   UNL A   1      36.952  31.030  32.093  1.00  0.00     0.012 A 
ATOM     79  C   UNL A   1      37.118  31.217  29.684  1.00  0.00     0.148 A 
ATOM     80  C   UNL A   1      35.697  31.648  32.057  1.00  0.00     0.002 A 
ATOM     81  C   UNL A   1      35.865  31.824  29.653  1.00  0.00     0.091 A 
ATOM     82  F   UNL A   1      37.835  31.079  28.561  1.00  0.00    -0.205 F 
ATOM     83  C   UNL A   1      35.159  32.056  30.840  1.00  0.00     0.022 A 
BRANCH  81  84
ATOM     84  S   UNL A   1      35.112  32.392  28.121  1.00  0.00     0.127 S 
ATOM     85  O   UNL A   1      34.951  31.141  27.378  1.00  0.00    -0.237 OA
ATOM     86  O   UNL A   1      33.866  32.981  28.600  1.00  0.00    -0.237 OA
ATOM     87  O   UNL A   1      36.070  33.316  27.523  1.00  0.00    -0.744 OA
ENDBRANCH  81  84
ENDBRANCH  53  77
BRANCH  65  88
ATOM     88  C   UNL A   1      43.247  30.058  33.685  1.00  0.00     0.023 A 
ATOM     89  C   UNL A   1      42.916  28.729  33.348  1.00  0.00     0.012 A 
ATOM     90  C   UNL A   1      43.719  30.330  34.980  1.00  0.00     0.148 A 
ATOM     91  C   UNL A   1      43.031  27.700  34.288  1.00  0.00     0.002 A 
ATOM     92  C   UNL A   1      43.879  29.298  35.897  1.00  0.00     0.091 A 
ATOM     93  F   UNL A   1      44.034  31.598  35.287  1.00  0.00    -0.205 F 
ATOM     94  C   UNL A   1      43.527  27.983  35.559  1.00  0.00     0.022 A 
BRANCH  92  95
ATOM     95  S   UNL A   1      44.630  29.580  37.502  1.00  0.00     0.127 S 
ATOM     96  O   UNL A   1      44.621  28.239  38.083  1.00  0.00    -0.237 OA
ATOM     97  O   UNL A   1      45.957  30.084  37.146  1.00  0.00    -0.237 OA
ATOM     98  O   UNL A   1      43.784  30.561  38.174  1.00  0.00    -0.744 OA
ENDBRANCH  92  95
ENDBRANCH  65  88
ENDBRANCH  39  40
ENDBRANCH  31  34
ENDBRANCH  29  30
ENDBRANCH  28  29
ENDBRANCH  27  28
ENDBRANCH   1  27
TORSDOF 20
ENDMDL
MODEL 3
REMARK VINA RESULT:     -10.5      2.876      3.745
REMARK SMILES CCc1c(C(=O)NCC(=O)NCCCCCCNC(=O)c2ccc(-c3c4nc(c(-c5cccc(S(=O)(=O)[O-])c5F)c5ccc([nH]5)c(-c5cccc(S(=O)(=O)[O-])c5F)c5nc(c(-c6cccc(S(=O)(=O)[O-])c6F)c6ccc3[nH]6)C=C5)C=C4)cc2)nnn1-c1ccc(Cl)cc1
REMARK SMILES IDX 14 1 13 2 12 3 11 4 9 5 10 6 8 8 7 9 5 10 6 11 4 13 3 14
REMARK SMILES IDX 86 15 84 16 85 17 2 18 1 19 87 20 88 21 93 22 89 23 92 24
REMARK SMILES IDX 90 25 91 26 15 27 16 28 17 29 18 30 19 31 20 33 21 34 22 35
REMARK SMILES IDX 83 36 23 37 82 38 24 39 25 40 26 41 76 42 27 43 81 44 75 45
REMARK SMILES IDX 77 46 28 47 80 48 74 49 73 50 29 52 61 53 41 54 60 55 42 56
REMARK SMILES IDX 45 57 59 58 78 59 43 60 44 61 58 63 79 64 46 65 30 66 31 67
REMARK SMILES IDX 39 68 32 69 34 70 40 71 33 72 35 73 36 74 37 75 38 76 62 77
REMARK SMILES IDX 63 78 71 79 64 80 66 81 72 82 65 83 67 84 68 85 69 86 70 87
REMARK SMILES IDX 47 88 48 89 56 90 49 91 51 92 57 93 50 94 52 95 53 96 54 97
REMARK SMILES IDX 55 98
REMARK H PARENT 11 7 7 12 18 32 77 51 45 62
REMARK Flexibility Score: inf
ROOT
ATOM      1  C   UNL A   1      40.108  22.577  26.959  1.00  0.00     0.002 C 
ENDROOT
BRANCH   1   2
ATOM      2  C   UNL A   1      39.660  21.226  26.396  1.00  0.00     0.021 C 
BRANCH   2   3
ATOM      3  C   UNL A   1      38.461  21.326  25.465  1.00  0.00     0.116 C 
BRANCH   3   4
ATOM      4  N   UNL A   1      37.381  22.082  26.053  1.00  0.00    -0.355 N 
ATOM      5  C   UNL A   1      36.047  22.065  25.816  1.00  0.00     0.239 C 
ATOM      6  O   UNL A   1      35.360  22.825  26.514  1.00  0.00    -0.273 OA
ATOM      7  H   UNL A   1      37.662  22.721  26.748  1.00  0.00     0.163 HD
BRANCH   5   8
ATOM      8  C   UNL A   1      35.344  21.038  24.909  1.00  0.00     0.216 C 
BRANCH   8   9
ATOM      9  N   UNL A   1      34.045  20.467  25.166  1.00  0.00    -0.342 N 
ATOM     10  C   UNL A   1      32.744  20.891  25.102  1.00  0.00     0.274 C 
ATOM     11  O   UNL A   1      31.919  19.976  25.139  1.00  0.00    -0.267 OA
ATOM     12  H   UNL A   1      34.110  19.531  25.464  1.00  0.00     0.164 HD
BRANCH  10  13
ATOM     13  C   UNL A   1      32.259  22.281  25.114  1.00  0.00     0.174 A 
ATOM     14  C   UNL A   1      32.346  23.424  24.311  1.00  0.00     0.077 A 
ATOM     15  N   UNL A   1      31.623  24.385  25.027  1.00  0.00    -0.217 N 
ATOM     16  N   UNL A   1      31.599  22.645  26.278  1.00  0.00    -0.124 NA
ATOM     17  N   UNL A   1      31.339  23.933  26.255  1.00  0.00    -0.061 NA
BRANCH  14  18
ATOM     18  C   UNL A   1      33.111  23.776  23.081  1.00  0.00     0.055 C 
ATOM     19  C   UNL A   1      34.443  24.455  23.349  1.00  0.00     0.011 C 
ENDBRANCH  14  18
BRANCH  15  20
ATOM     20  C   UNL A   1      31.237  25.704  24.676  1.00  0.00     0.067 A 
ATOM     21  C   UNL A   1      30.510  25.913  23.494  1.00  0.00     0.030 A 
ATOM     22  C   UNL A   1      31.609  26.796  25.465  1.00  0.00     0.030 A 
ATOM     23  C   UNL A   1      30.091  27.201  23.150  1.00  0.00     0.023 A 
ATOM     24  C   UNL A   1      31.206  28.085  25.107  1.00  0.00     0.023 A 
ATOM     25  C   UNL A   1      30.436  28.279  23.961  1.00  0.00     0.041 A 
ATOM     26  Cl  UNL A   1      29.918  29.866  23.545  1.00  0.00    -0.084 Cl
ENDBRANCH  15  20
ENDBRANCH  10  13
ENDBRANCH   8   9
ENDBRANCH   5   8
ENDBRANCH   3   4
ENDBRANCH   2   3
ENDBRANCH   1   2
BRANCH   1  27
ATOM     27  C   UNL A   1      41.561  22.656  27.451  1.00  0.00     0.002 C 
BRANCH  27  28
ATOM     28  C   UNL A   1      42.443  21.417  27.232  1.00  0.00     0.021 C 
BRANCH  28  29
ATOM     29  C   UNL A   1      42.868  21.182  25.790  1.00  0.00     0.116 C 
BRANCH  29  30
ATOM     30  N   UNL A   1      44.251  20.712  25.687  1.00  0.00    -0.352 N 
ATOM     31  C   UNL A   1      45.414  21.451  25.550  1.00  0.00     0.251 C 
ATOM     32  H   UNL A   1      44.371  19.736  25.718  1.00  0.00     0.163 HD
ATOM     33  O   UNL A   1      46.430  20.938  25.111  1.00  0.00    -0.269 OA
BRANCH  31  34
ATOM     34  C   UNL A   1      45.401  22.868  25.956  1.00  0.00     0.039 A 
ATOM     35  C   UNL A   1      44.891  23.870  25.127  1.00  0.00     0.014 A 
ATOM     36  C   UNL A   1      45.885  23.176  27.220  1.00  0.00     0.014 A 
ATOM     37  C   UNL A   1      44.797  25.167  25.628  1.00  0.00     0.010 A 
ATOM     38  C   UNL A   1      45.604  24.393  27.778  1.00  0.00     0.010 A 
ATOM     39  C   UNL A   1      45.138  25.416  26.967  1.00  0.00    -0.014 A 
BRANCH  39  40
ATOM     40  C   UNL A   1      44.925  26.723  27.577  1.00  0.00     0.031 A 
ATOM     41  C   UNL A   1      45.908  27.758  27.172  1.00  0.00     0.074 A 
ATOM     42  C   UNL A   1      43.812  27.032  28.280  1.00  0.00     0.049 A 
ATOM     43  N   UNL A   1      46.852  28.263  27.896  1.00  0.00    -0.248 NA
ATOM     44  C   UNL A   1      45.960  28.163  25.758  1.00  0.00     0.031 C 
ATOM     45  C   UNL A   1      42.608  26.211  28.486  1.00  0.00     0.029 A 
ATOM     46  N   UNL A   1      43.456  28.219  28.841  1.00  0.00    -0.354 N 
ATOM     47  C   UNL A   1      47.443  29.244  27.103  1.00  0.00     0.074 A 
ATOM     48  C   UNL A   1      47.020  28.974  25.754  1.00  0.00     0.031 C 
ATOM     49  C   UNL A   1      41.583  27.000  28.871  1.00  0.00     0.029 A 
ATOM     50  C   UNL A   1      42.097  28.328  29.128  1.00  0.00     0.049 A 
ATOM     51  H   UNL A   1      44.102  28.938  29.029  1.00  0.00     0.167 HD
ATOM     52  C   UNL A   1      47.994  30.357  27.662  1.00  0.00     0.034 A 
ATOM     53  C   UNL A   1      41.438  29.443  29.519  1.00  0.00     0.034 A 
ATOM     54  C   UNL A   1      48.150  30.198  29.089  1.00  0.00     0.049 A 
ATOM     55  C   UNL A   1      42.452  30.365  30.078  1.00  0.00     0.074 A 
ATOM     56  C   UNL A   1      48.806  29.309  29.916  1.00  0.00     0.029 A 
ATOM     57  N   UNL A   1      47.222  30.837  29.876  1.00  0.00    -0.354 N 
ATOM     58  N   UNL A   1      43.123  30.121  31.168  1.00  0.00    -0.248 NA
ATOM     59  C   UNL A   1      43.027  31.367  29.199  1.00  0.00     0.031 C 
ATOM     60  C   UNL A   1      47.932  29.131  31.031  1.00  0.00     0.029 A 
ATOM     61  C   UNL A   1      46.829  29.969  30.858  1.00  0.00     0.049 A 
ATOM     62  H   UNL A   1      46.897  31.758  29.755  1.00  0.00     0.167 HD
ATOM     63  C   UNL A   1      44.406  30.567  30.886  1.00  0.00     0.074 A 
ATOM     64  C   UNL A   1      44.253  31.439  29.723  1.00  0.00     0.031 C 
ATOM     65  C   UNL A   1      45.499  29.955  31.432  1.00  0.00     0.034 A 
BRANCH  52  66
ATOM     66  C   UNL A   1      48.024  31.736  27.034  1.00  0.00     0.023 A 
ATOM     67  C   UNL A   1      49.265  32.414  27.040  1.00  0.00     0.012 A 
ATOM     68  C   UNL A   1      46.882  32.503  26.710  1.00  0.00     0.148 A 
ATOM     69  C   UNL A   1      49.355  33.792  26.814  1.00  0.00     0.002 A 
ATOM     70  C   UNL A   1      46.987  33.857  26.405  1.00  0.00     0.091 A 
ATOM     71  F   UNL A   1      45.661  31.978  26.823  1.00  0.00    -0.205 F 
ATOM     72  C   UNL A   1      48.215  34.514  26.491  1.00  0.00     0.022 A 
BRANCH  70  73
ATOM     73  S   UNL A   1      45.550  34.830  25.933  1.00  0.00     0.127 S 
ATOM     74  O   UNL A   1      46.138  36.156  25.771  1.00  0.00    -0.237 OA
ATOM     75  O   UNL A   1      45.144  34.174  24.689  1.00  0.00    -0.237 OA
ATOM     76  O   UNL A   1      44.600  34.675  27.025  1.00  0.00    -0.744 OA
ENDBRANCH  70  73
ENDBRANCH  52  66
BRANCH  53  77
ATOM     77  C   UNL A   1      40.045  29.869  29.263  1.00  0.00     0.023 A 
ATOM     78  C   UNL A   1      39.451  29.587  28.016  1.00  0.00     0.012 A 
ATOM     79  C   UNL A   1      39.206  30.285  30.322  1.00  0.00     0.148 A 
ATOM     80  C   UNL A   1      38.065  29.664  27.843  1.00  0.00     0.002 A 
ATOM     81  C   UNL A   1      37.828  30.368  30.142  1.00  0.00     0.091 A 
ATOM     82  F   UNL A   1      39.749  30.505  31.527  1.00  0.00    -0.205 F 
ATOM     83  C   UNL A   1      37.253  30.042  28.907  1.00  0.00     0.022 A 
BRANCH  81  84
ATOM     84  S   UNL A   1      36.712  30.834  31.474  1.00  0.00     0.127 S 
ATOM     85  O   UNL A   1      37.423  31.957  32.088  1.00  0.00    -0.237 OA
ATOM     86  O   UNL A   1      35.506  31.203  30.740  1.00  0.00    -0.237 OA
ATOM     87  O   UNL A   1      36.606  29.661  32.335  1.00  0.00    -0.744 OA
ENDBRANCH  81  84
ENDBRANCH  53  77
BRANCH  65  88
ATOM     88  C   UNL A   1      45.277  28.989  32.572  1.00  0.00     0.023 A 
ATOM     89  C   UNL A   1      44.934  29.412  33.873  1.00  0.00     0.012 A 
ATOM     90  C   UNL A   1      45.250  27.616  32.276  1.00  0.00     0.148 A 
ATOM     91  C   UNL A   1      44.595  28.484  34.863  1.00  0.00     0.002 A 
ATOM     92  C   UNL A   1      44.866  26.700  33.248  1.00  0.00     0.091 A 
ATOM     93  F   UNL A   1      45.574  27.229  31.033  1.00  0.00    -0.205 F 
ATOM     94  C   UNL A   1      44.547  27.128  34.546  1.00  0.00     0.022 A 
BRANCH  92  95
ATOM     95  S   UNL A   1      44.663  24.959  32.864  1.00  0.00     0.127 S 
ATOM     96  O   UNL A   1      46.014  24.442  33.070  1.00  0.00    -0.237 OA
ATOM     97  O   UNL A   1      43.683  24.528  33.863  1.00  0.00    -0.237 OA
ATOM     98  O   UNL A   1      44.173  24.905  31.491  1.00  0.00    -0.744 OA
ENDBRANCH  92  95
ENDBRANCH  65  88
ENDBRANCH  39  40
ENDBRANCH  31  34
ENDBRANCH  29  30
ENDBRANCH  28  29
ENDBRANCH  27  28
ENDBRANCH   1  27
TORSDOF 20
ENDMDL
