MODEL 1
REMARK VINA RESULT:     -11.3      0.000      0.000
REMARK SMILES CCOc1ccc(C[N@H+]2CC[NH2+][C@H](C(=O)NCCCCCCNC(=O)c3ccc(-c4c5nc(c(-c6cccc(S(=O)(=O)[O-])c6F)c6ccc([nH]6)c(-c6cccc(S(=O)(=O)[O-])c6F)c6nc(c(-c7cccc(S(=O)(=O)[O-])c7F)c7ccc4[nH]7)C=C6)C=C5)cc3)C2)c(OCC)c1C
REMARK SMILES IDX 19 1 18 2 17 3 16 4 14 5 15 6 13 8 9 9 10 10 89 11 11 13
REMARK SMILES IDX 12 14 8 17 7 18 4 19 5 20 94 21 6 22 90 23 95 24 3 25 2 26
REMARK SMILES IDX 1 27 91 28 92 29 93 30 20 31 21 32 22 33 23 34 24 35 25 37
REMARK SMILES IDX 26 38 27 39 88 40 28 41 87 42 29 43 30 44 31 45 81 46 32 47
REMARK SMILES IDX 86 48 80 49 82 50 33 51 85 52 79 53 78 54 34 56 66 57 46 58
REMARK SMILES IDX 65 59 47 60 50 61 64 62 83 63 48 64 49 65 63 67 84 68 51 69
REMARK SMILES IDX 35 70 36 71 44 72 37 73 39 74 45 75 38 76 40 77 41 78 42 79
REMARK SMILES IDX 43 80 67 81 68 82 76 83 69 84 71 85 77 86 70 87 72 88 73 89
REMARK SMILES IDX 74 90 75 91 52 92 53 93 61 94 54 95 56 96 62 97 55 98 57 99
REMARK SMILES IDX 58 100 59 101 60 102
REMARK H PARENT 16 7 9 12 12 15 12 16 23 36 82 55 50 66
REMARK Flexibility Score: inf
ROOT
ATOM      1  C   UNL A   1      37.025  23.704  24.844  1.00  0.00     0.002 C 
ENDROOT
BRANCH   1   2
ATOM      2  C   UNL A   1      36.561  22.927  23.611  1.00  0.00     0.021 C 
BRANCH   2   3
ATOM      3  C   UNL A   1      35.106  22.472  23.599  1.00  0.00     0.116 C 
BRANCH   3   4
ATOM      4  N   UNL A   1      34.853  21.322  24.450  1.00  0.00    -0.351 N 
ATOM      5  C   UNL A   1      33.723  21.093  25.198  1.00  0.00     0.284 C 
ATOM      6  O   UNL A   1      33.572  19.999  25.743  1.00  0.00    -0.268 OA
ATOM      7  H   UNL A   1      35.560  20.639  24.495  1.00  0.00     0.163 HD
BRANCH   5   8
ATOM      8  C   UNL A   1      32.710  22.240  25.348  1.00  0.00     0.328 C 
ATOM      9  N   UNL A   1      32.437  24.651  26.052  1.00  0.00    -0.321 N 
ATOM     10  C   UNL A   1      31.096  24.272  26.542  1.00  0.00     0.324 C 
ATOM     11  C   UNL A   1      33.317  23.465  26.061  1.00  0.00     0.339 C 
ATOM     12  H   UNL A   1      32.833  25.320  26.714  1.00  0.00     0.348 HD
ATOM     13  C   UNL A   1      30.527  22.903  26.062  1.00  0.00     0.323 C 
ATOM     14  N   UNL A   1      31.489  21.784  26.071  1.00  0.00    -0.327 N 
ATOM     15  H   UNL A   1      31.087  20.975  25.598  1.00  0.00     0.347 HD
ATOM     16  H   UNL A   1      31.718  21.514  27.027  1.00  0.00     0.347 HD
BRANCH   9  17
ATOM     17  C   UNL A   1      32.472  25.501  24.836  1.00  0.00     0.303 C 
BRANCH  17  18
ATOM     18  C   UNL A   1      31.598  26.743  24.788  1.00  0.00     0.049 A 
ATOM     19  C   UNL A   1      30.240  29.070  23.942  1.00  0.00     0.125 A 
ATOM     20  C   UNL A   1      29.939  27.854  23.355  1.00  0.00     0.047 A 
ATOM     21  C   UNL A   1      31.099  29.125  25.049  1.00  0.00     0.034 A 
ATOM     22  C   UNL A   1      30.587  26.704  23.795  1.00  0.00     0.017 A 
ATOM     23  C   UNL A   1      31.762  27.944  25.511  1.00  0.00     0.134 A 
ATOM     24  C   UNL A   1      31.352  30.445  25.740  1.00  0.00     0.052 C 
BRANCH  19  25
ATOM     25  O   UNL A   1      29.902  30.209  23.257  1.00  0.00    -0.493 OA
BRANCH  25  26
ATOM     26  C   UNL A   1      29.616  30.005  21.871  1.00  0.00     0.226 C 
ATOM     27  C   UNL A   1      28.837  31.173  21.293  1.00  0.00     0.049 C 
ENDBRANCH  25  26
ENDBRANCH  19  25
BRANCH  23  28
ATOM     28  O   UNL A   1      32.560  28.227  26.583  1.00  0.00    -0.493 OA
BRANCH  28  29
ATOM     29  C   UNL A   1      33.956  28.045  26.686  1.00  0.00     0.226 C 
ATOM     30  C   UNL A   1      34.715  29.353  26.756  1.00  0.00     0.049 C 
ENDBRANCH  28  29
ENDBRANCH  23  28
ENDBRANCH  17  18
ENDBRANCH   9  17
ENDBRANCH   5   8
ENDBRANCH   3   4
ENDBRANCH   2   3
ENDBRANCH   1   2
BRANCH   1  31
ATOM     31  C   UNL A   1      37.585  22.885  26.012  1.00  0.00     0.002 C 
BRANCH  31  32
ATOM     32  C   UNL A   1      38.760  21.960  25.703  1.00  0.00     0.021 C 
BRANCH  32  33
ATOM     33  C   UNL A   1      39.697  21.707  26.867  1.00  0.00     0.116 C 
BRANCH  33  34
ATOM     34  N   UNL A   1      41.046  22.154  26.610  1.00  0.00    -0.352 N 
ATOM     35  C   UNL A   1      41.480  23.410  26.242  1.00  0.00     0.251 C 
ATOM     36  H   UNL A   1      41.749  21.472  26.711  1.00  0.00     0.163 HD
ATOM     37  O   UNL A   1      42.540  23.496  25.625  1.00  0.00    -0.269 OA
BRANCH  35  38
ATOM     38  C   UNL A   1      40.782  24.625  26.749  1.00  0.00     0.039 A 
ATOM     39  C   UNL A   1      41.003  25.814  26.038  1.00  0.00     0.014 A 
ATOM     40  C   UNL A   1      40.187  24.678  28.005  1.00  0.00     0.014 A 
ATOM     41  C   UNL A   1      40.902  27.041  26.686  1.00  0.00     0.010 A 
ATOM     42  C   UNL A   1      40.148  25.876  28.674  1.00  0.00     0.010 A 
ATOM     43  C   UNL A   1      40.592  27.036  28.038  1.00  0.00    -0.014 A 
BRANCH  43  44
ATOM     44  C   UNL A   1      40.729  28.168  28.930  1.00  0.00     0.031 A 
ATOM     45  C   UNL A   1      39.775  29.281  28.841  1.00  0.00     0.074 A 
ATOM     46  C   UNL A   1      41.545  27.994  29.994  1.00  0.00     0.049 A 
ATOM     47  N   UNL A   1      39.932  30.415  29.424  1.00  0.00    -0.248 NA
ATOM     48  C   UNL A   1      38.539  29.181  28.072  1.00  0.00     0.031 C 
ATOM     49  C   UNL A   1      41.523  28.703  31.264  1.00  0.00     0.029 A 
ATOM     50  N   UNL A   1      42.698  27.203  30.067  1.00  0.00    -0.354 N 
ATOM     51  C   UNL A   1      38.721  31.073  29.360  1.00  0.00     0.074 A 
ATOM     52  C   UNL A   1      37.912  30.301  28.444  1.00  0.00     0.031 C 
ATOM     53  C   UNL A   1      42.715  28.543  31.866  1.00  0.00     0.029 A 
ATOM     54  C   UNL A   1      43.589  27.898  30.899  1.00  0.00     0.049 A 
ATOM     55  H   UNL A   1      42.852  26.337  29.625  1.00  0.00     0.167 HD
ATOM     56  C   UNL A   1      38.478  32.095  30.225  1.00  0.00     0.034 A 
ATOM     57  C   UNL A   1      44.778  28.405  30.450  1.00  0.00     0.034 A 
ATOM     58  C   UNL A   1      39.650  32.341  31.074  1.00  0.00     0.049 A 
ATOM     59  C   UNL A   1      44.846  29.920  30.577  1.00  0.00     0.074 A 
ATOM     60  C   UNL A   1      40.004  31.884  32.334  1.00  0.00     0.029 A 
ATOM     61  N   UNL A   1      40.808  32.857  30.505  1.00  0.00    -0.354 N 
ATOM     62  N   UNL A   1      43.829  30.676  30.891  1.00  0.00    -0.248 NA
ATOM     63  C   UNL A   1      46.057  30.705  30.349  1.00  0.00     0.031 C 
ATOM     64  C   UNL A   1      41.411  32.032  32.474  1.00  0.00     0.029 A 
ATOM     65  C   UNL A   1      41.907  32.607  31.316  1.00  0.00     0.049 A 
ATOM     66  H   UNL A   1      40.844  33.334  29.645  1.00  0.00     0.167 HD
ATOM     67  C   UNL A   1      44.173  31.997  30.795  1.00  0.00     0.074 A 
ATOM     68  C   UNL A   1      45.603  31.958  30.529  1.00  0.00     0.031 C 
ATOM     69  C   UNL A   1      43.245  33.001  30.883  1.00  0.00     0.034 A 
BRANCH  56  70
ATOM     70  C   UNL A   1      37.086  32.608  30.539  1.00  0.00     0.023 A 
ATOM     71  C   UNL A   1      36.533  32.255  31.791  1.00  0.00     0.012 A 
ATOM     72  C   UNL A   1      36.257  33.369  29.682  1.00  0.00     0.148 A 
ATOM     73  C   UNL A   1      35.213  32.547  32.142  1.00  0.00     0.002 A 
ATOM     74  C   UNL A   1      34.915  33.609  30.006  1.00  0.00     0.091 A 
ATOM     75  F   UNL A   1      36.778  33.918  28.578  1.00  0.00    -0.205 F 
ATOM     76  C   UNL A   1      34.392  33.197  31.236  1.00  0.00     0.022 A 
BRANCH  74  77
ATOM     77  S   UNL A   1      33.752  34.356  28.851  1.00  0.00     0.127 S 
ATOM     78  O   UNL A   1      34.517  35.493  28.331  1.00  0.00    -0.237 OA
ATOM     79  O   UNL A   1      33.531  33.283  27.885  1.00  0.00    -0.237 OA
ATOM     80  O   UNL A   1      32.593  34.742  29.647  1.00  0.00    -0.744 OA
ENDBRANCH  74  77
ENDBRANCH  56  70
BRANCH  57  81
ATOM     81  C   UNL A   1      45.390  27.588  29.354  1.00  0.00     0.023 A 
ATOM     82  C   UNL A   1      45.790  26.273  29.698  1.00  0.00     0.012 A 
ATOM     83  C   UNL A   1      45.179  27.896  27.999  1.00  0.00     0.148 A 
ATOM     84  C   UNL A   1      45.804  25.253  28.743  1.00  0.00     0.002 A 
ATOM     85  C   UNL A   1      45.205  26.873  27.049  1.00  0.00     0.091 A 
ATOM     86  F   UNL A   1      44.875  29.157  27.667  1.00  0.00    -0.205 F 
ATOM     87  C   UNL A   1      45.468  25.546  27.427  1.00  0.00     0.022 A 
BRANCH  85  88
ATOM     88  S   UNL A   1      44.782  27.184  25.328  1.00  0.00     0.127 S 
ATOM     89  O   UNL A   1      44.124  25.934  24.959  1.00  0.00    -0.237 OA
ATOM     90  O   UNL A   1      43.892  28.340  25.420  1.00  0.00    -0.237 OA
ATOM     91  O   UNL A   1      46.055  27.462  24.680  1.00  0.00    -0.744 OA
ENDBRANCH  85  88
ENDBRANCH  57  81
BRANCH  69  92
ATOM     92  C   UNL A   1      43.500  34.459  30.550  1.00  0.00     0.023 A 
ATOM     93  C   UNL A   1      43.983  35.374  31.503  1.00  0.00     0.012 A 
ATOM     94  C   UNL A   1      43.416  34.920  29.208  1.00  0.00     0.148 A 
ATOM     95  C   UNL A   1      44.305  36.693  31.164  1.00  0.00     0.002 A 
ATOM     96  C   UNL A   1      43.858  36.192  28.856  1.00  0.00     0.091 A 
ATOM     97  F   UNL A   1      42.890  34.130  28.261  1.00  0.00    -0.205 F 
ATOM     98  C   UNL A   1      44.269  37.095  29.837  1.00  0.00     0.022 A 
BRANCH  96  99
ATOM     99  S   UNL A   1      44.083  36.644  27.129  1.00  0.00     0.127 S 
ATOM    100  O   UNL A   1      44.845  35.510  26.614  1.00  0.00    -0.237 OA
ATOM    101  O   UNL A   1      42.704  36.724  26.642  1.00  0.00    -0.237 OA
ATOM    102  O   UNL A   1      44.776  37.925  27.165  1.00  0.00    -0.744 OA
ENDBRANCH  96  99
ENDBRANCH  69  92
ENDBRANCH  43  44
ENDBRANCH  35  38
ENDBRANCH  33  34
ENDBRANCH  32  33
ENDBRANCH  31  32
ENDBRANCH   1  31
TORSDOF 22
ENDMDL
MODEL 2
REMARK VINA RESULT:     -11.3      1.833      3.576
REMARK SMILES CCOc1ccc(C[N@H+]2CC[NH2+][C@H](C(=O)NCCCCCCNC(=O)c3ccc(-c4c5nc(c(-c6cccc(S(=O)(=O)[O-])c6F)c6ccc([nH]6)c(-c6cccc(S(=O)(=O)[O-])c6F)c6nc(c(-c7cccc(S(=O)(=O)[O-])c7F)c7ccc4[nH]7)C=C6)C=C5)cc3)C2)c(OCC)c1C
REMARK SMILES IDX 19 1 18 2 17 3 16 4 14 5 15 6 13 8 9 9 10 10 89 11 11 13
REMARK SMILES IDX 12 14 8 17 7 18 4 19 5 20 94 21 6 22 90 23 95 24 3 25 2 26
REMARK SMILES IDX 1 27 91 28 92 29 93 30 20 31 21 32 22 33 23 34 24 35 25 37
REMARK SMILES IDX 26 38 27 39 88 40 28 41 87 42 29 43 30 44 31 45 81 46 32 47
REMARK SMILES IDX 86 48 80 49 82 50 33 51 85 52 79 53 78 54 34 56 66 57 46 58
REMARK SMILES IDX 65 59 47 60 50 61 64 62 83 63 48 64 49 65 63 67 84 68 51 69
REMARK SMILES IDX 35 70 36 71 44 72 37 73 39 74 45 75 38 76 40 77 41 78 42 79
REMARK SMILES IDX 43 80 67 81 68 82 76 83 69 84 71 85 77 86 70 87 72 88 73 89
REMARK SMILES IDX 74 90 75 91 52 92 53 93 61 94 54 95 56 96 62 97 55 98 57 99
REMARK SMILES IDX 58 100 59 101 60 102
REMARK H PARENT 16 7 9 12 12 15 12 16 23 36 82 55 50 66
REMARK Flexibility Score: inf
ROOT
ATOM      1  C   UNL A   1      35.086  23.956  25.113  1.00  0.00     0.002 C 
ENDROOT
BRANCH   1   2
ATOM      2  C   UNL A   1      34.629  25.402  25.316  1.00  0.00     0.021 C 
BRANCH   2   3
ATOM      3  C   UNL A   1      33.543  25.912  24.374  1.00  0.00     0.116 C 
BRANCH   3   4
ATOM      4  N   UNL A   1      34.043  26.813  23.351  1.00  0.00    -0.351 N 
ATOM      5  C   UNL A   1      33.400  27.923  22.856  1.00  0.00     0.284 C 
ATOM      6  O   UNL A   1      34.010  28.690  22.109  1.00  0.00    -0.268 OA
ATOM      7  H   UNL A   1      34.930  26.611  22.974  1.00  0.00     0.163 HD
BRANCH   5   8
ATOM      8  C   UNL A   1      31.925  28.132  23.233  1.00  0.00     0.328 C 
ATOM      9  N   UNL A   1      29.564  27.350  22.782  1.00  0.00    -0.321 N 
ATOM     10  C   UNL A   1      29.145  28.748  23.005  1.00  0.00     0.324 C 
ATOM     11  C   UNL A   1      30.970  27.325  22.330  1.00  0.00     0.339 C 
ATOM     12  H   UNL A   1      29.000  26.972  22.020  1.00  0.00     0.348 HD
ATOM     13  C   UNL A   1      30.175  29.699  23.684  1.00  0.00     0.323 C 
ATOM     14  N   UNL A   1      31.562  29.577  23.193  1.00  0.00    -0.327 N 
ATOM     15  H   UNL A   1      32.192  30.111  23.792  1.00  0.00     0.347 HD
ATOM     16  H   UNL A   1      31.640  29.940  22.244  1.00  0.00     0.347 HD
BRANCH   9  17
ATOM     17  C   UNL A   1      29.184  26.377  23.837  1.00  0.00     0.303 C 
BRANCH  17  18
ATOM     18  C   UNL A   1      30.187  25.309  24.240  1.00  0.00     0.049 A 
ATOM     19  C   UNL A   1      31.435  22.839  24.806  1.00  0.00     0.125 A 
ATOM     20  C   UNL A   1      31.041  23.124  23.510  1.00  0.00     0.047 A 
ATOM     21  C   UNL A   1      31.354  23.826  25.799  1.00  0.00     0.034 A 
ATOM     22  C   UNL A   1      30.455  24.353  23.228  1.00  0.00     0.017 A 
ATOM     23  C   UNL A   1      30.758  25.095  25.513  1.00  0.00     0.134 A 
ATOM     24  C   UNL A   1      31.869  23.537  27.190  1.00  0.00     0.052 C 
BRANCH  19  25
ATOM     25  O   UNL A   1      31.638  21.524  25.136  1.00  0.00    -0.493 OA
BRANCH  25  26
ATOM     26  C   UNL A   1      32.539  20.828  24.271  1.00  0.00     0.226 C 
ATOM     27  C   UNL A   1      33.803  20.419  25.008  1.00  0.00     0.049 C 
ENDBRANCH  25  26
ENDBRANCH  19  25
BRANCH  23  28
ATOM     28  O   UNL A   1      30.768  25.894  26.621  1.00  0.00    -0.493 OA
BRANCH  28  29
ATOM     29  C   UNL A   1      30.961  27.292  26.670  1.00  0.00     0.226 C 
ATOM     30  C   UNL A   1      32.314  27.679  27.225  1.00  0.00     0.049 C 
ENDBRANCH  28  29
ENDBRANCH  23  28
ENDBRANCH  17  18
ENDBRANCH   9  17
ENDBRANCH   5   8
ENDBRANCH   3   4
ENDBRANCH   2   3
ENDBRANCH   1   2
BRANCH   1  31
ATOM     31  C   UNL A   1      36.591  23.718  24.957  1.00  0.00     0.002 C 
BRANCH  31  32
ATOM     32  C   UNL A   1      37.238  22.737  25.932  1.00  0.00     0.021 C 
BRANCH  32  33
ATOM     33  C   UNL A   1      38.558  22.153  25.470  1.00  0.00     0.116 C 
BRANCH  33  34
ATOM     34  N   UNL A   1      39.481  21.920  26.555  1.00  0.00    -0.352 N 
ATOM     35  C   UNL A   1      40.343  22.812  27.158  1.00  0.00     0.251 C 
ATOM     36  H   UNL A   1      39.499  21.002  26.912  1.00  0.00     0.163 HD
ATOM     37  O   UNL A   1      41.348  22.363  27.706  1.00  0.00    -0.269 OA
BRANCH  35  38
ATOM     38  C   UNL A   1      39.959  24.244  27.306  1.00  0.00     0.039 A 
ATOM     39  C   UNL A   1      40.738  25.175  26.602  1.00  0.00     0.014 A 
ATOM     40  C   UNL A   1      39.087  24.688  28.295  1.00  0.00     0.014 A 
ATOM     41  C   UNL A   1      40.859  26.478  27.074  1.00  0.00     0.010 A 
ATOM     42  C   UNL A   1      39.250  25.951  28.809  1.00  0.00     0.010 A 
ATOM     43  C   UNL A   1      40.200  26.806  28.250  1.00  0.00    -0.014 A 
BRANCH  43  44
ATOM     44  C   UNL A   1      40.440  27.998  29.036  1.00  0.00     0.031 A 
ATOM     45  C   UNL A   1      39.536  29.148  28.902  1.00  0.00     0.074 A 
ATOM     46  C   UNL A   1      41.301  27.869  30.069  1.00  0.00     0.049 A 
ATOM     47  N   UNL A   1      39.778  30.316  29.379  1.00  0.00    -0.248 NA
ATOM     48  C   UNL A   1      38.257  29.050  28.205  1.00  0.00     0.031 C 
ATOM     49  C   UNL A   1      41.382  28.678  31.275  1.00  0.00     0.029 A 
ATOM     50  N   UNL A   1      42.418  27.027  30.151  1.00  0.00    -0.354 N 
ATOM     51  C   UNL A   1      38.598  31.028  29.320  1.00  0.00     0.074 A 
ATOM     52  C   UNL A   1      37.706  30.228  28.513  1.00  0.00     0.031 C 
ATOM     53  C   UNL A   1      42.595  28.506  31.829  1.00  0.00     0.029 A 
ATOM     54  C   UNL A   1      43.385  27.740  30.877  1.00  0.00     0.049 A 
ATOM     55  H   UNL A   1      42.506  26.121  29.776  1.00  0.00     0.167 HD
ATOM     56  C   UNL A   1      38.451  32.129  30.107  1.00  0.00     0.034 A 
ATOM     57  C   UNL A   1      44.570  28.146  30.329  1.00  0.00     0.034 A 
ATOM     58  C   UNL A   1      39.677  32.382  30.874  1.00  0.00     0.049 A 
ATOM     59  C   UNL A   1      44.718  29.660  30.325  1.00  0.00     0.074 A 
ATOM     60  C   UNL A   1      40.077  32.010  32.149  1.00  0.00     0.029 A 
ATOM     61  N   UNL A   1      40.827  32.788  30.208  1.00  0.00    -0.354 N 
ATOM     62  N   UNL A   1      43.756  30.491  30.625  1.00  0.00    -0.248 NA
ATOM     63  C   UNL A   1      45.951  30.360  29.973  1.00  0.00     0.031 C 
ATOM     64  C   UNL A   1      41.494  32.095  32.206  1.00  0.00     0.029 A 
ATOM     65  C   UNL A   1      41.954  32.548  30.981  1.00  0.00     0.049 A 
ATOM     66  H   UNL A   1      40.840  33.192  29.310  1.00  0.00     0.167 HD
ATOM     67  C   UNL A   1      44.158  31.781  30.402  1.00  0.00     0.074 A 
ATOM     68  C   UNL A   1      45.568  31.646  30.070  1.00  0.00     0.031 C 
ATOM     69  C   UNL A   1      43.285  32.835  30.451  1.00  0.00     0.034 A 
BRANCH  56  70
ATOM     70  C   UNL A   1      37.105  32.738  30.446  1.00  0.00     0.023 A 
ATOM     71  C   UNL A   1      36.611  32.530  31.754  1.00  0.00     0.012 A 
ATOM     72  C   UNL A   1      36.261  33.456  29.566  1.00  0.00     0.148 A 
ATOM     73  C   UNL A   1      35.327  32.919  32.146  1.00  0.00     0.002 A 
ATOM     74  C   UNL A   1      34.953  33.792  29.937  1.00  0.00     0.091 A 
ATOM     75  F   UNL A   1      36.741  33.873  28.388  1.00  0.00    -0.205 F 
ATOM     76  C   UNL A   1      34.484  33.522  31.228  1.00  0.00     0.022 A 
BRANCH  74  77
ATOM     77  S   UNL A   1      33.758  34.486  28.781  1.00  0.00     0.127 S 
ATOM     78  O   UNL A   1      34.497  35.616  28.212  1.00  0.00    -0.237 OA
ATOM     79  O   UNL A   1      33.536  33.380  27.853  1.00  0.00    -0.237 OA
ATOM     80  O   UNL A   1      32.608  34.881  29.586  1.00  0.00    -0.744 OA
ENDBRANCH  74  77
ENDBRANCH  56  70
BRANCH  57  81
ATOM     81  C   UNL A   1      45.083  27.212  29.277  1.00  0.00     0.023 A 
ATOM     82  C   UNL A   1      45.345  25.882  29.689  1.00  0.00     0.012 A 
ATOM     83  C   UNL A   1      44.894  27.469  27.908  1.00  0.00     0.148 A 
ATOM     84  C   UNL A   1      45.243  24.817  28.790  1.00  0.00     0.002 A 
ATOM     85  C   UNL A   1      44.804  26.400  27.014  1.00  0.00     0.091 A 
ATOM     86  F   UNL A   1      44.722  28.735  27.510  1.00  0.00    -0.205 F 
ATOM     87  C   UNL A   1      44.928  25.074  27.461  1.00  0.00     0.022 A 
BRANCH  85  88
ATOM     88  S   UNL A   1      44.401  26.663  25.280  1.00  0.00     0.127 S 
ATOM     89  O   UNL A   1      45.722  26.901  24.706  1.00  0.00    -0.237 OA
ATOM     90  O   UNL A   1      43.787  25.393  24.896  1.00  0.00    -0.237 OA
ATOM     91  O   UNL A   1      43.482  27.791  25.282  1.00  0.00    -0.744 OA
ENDBRANCH  85  88
ENDBRANCH  57  81
BRANCH  69  92
ATOM     92  C   UNL A   1      43.591  34.246  29.985  1.00  0.00     0.023 A 
ATOM     93  C   UNL A   1      43.241  34.705  28.702  1.00  0.00     0.012 A 
ATOM     94  C   UNL A   1      44.097  35.214  30.893  1.00  0.00     0.148 A 
ATOM     95  C   UNL A   1      43.440  36.035  28.313  1.00  0.00     0.002 A 
ATOM     96  C   UNL A   1      44.174  36.559  30.541  1.00  0.00     0.091 A 
ATOM     97  F   UNL A   1      44.527  34.835  32.105  1.00  0.00    -0.205 F 
ATOM     98  C   UNL A   1      43.881  36.968  29.240  1.00  0.00     0.022 A 
BRANCH  96  99
ATOM     99  S   UNL A   1      44.475  37.822  31.787  1.00  0.00     0.127 S 
ATOM    100  O   UNL A   1      45.832  37.503  32.222  1.00  0.00    -0.237 OA
ATOM    101  O   UNL A   1      44.358  39.060  31.015  1.00  0.00    -0.237 OA
ATOM    102  O   UNL A   1      43.419  37.634  32.773  1.00  0.00    -0.744 OA
ENDBRANCH  96  99
ENDBRANCH  69  92
ENDBRANCH  43  44
ENDBRANCH  35  38
ENDBRANCH  33  34
ENDBRANCH  32  33
ENDBRANCH  31  32
ENDBRANCH   1  31
TORSDOF 22
ENDMDL
MODEL 3
REMARK VINA RESULT:     -10.5      3.441      4.627
REMARK SMILES CCOc1ccc(C[N@H+]2CC[NH2+][C@H](C(=O)NCCCCCCNC(=O)c3ccc(-c4c5nc(c(-c6cccc(S(=O)(=O)[O-])c6F)c6ccc([nH]6)c(-c6cccc(S(=O)(=O)[O-])c6F)c6nc(c(-c7cccc(S(=O)(=O)[O-])c7F)c7ccc4[nH]7)C=C6)C=C5)cc3)C2)c(OCC)c1C
REMARK SMILES IDX 19 1 18 2 17 3 16 4 14 5 15 6 13 8 9 9 10 10 89 11 11 13
REMARK SMILES IDX 12 14 8 17 7 18 4 19 5 20 94 21 6 22 90 23 95 24 3 25 2 26
REMARK SMILES IDX 1 27 91 28 92 29 93 30 20 31 21 32 22 33 23 34 24 35 25 37
REMARK SMILES IDX 26 38 27 39 88 40 28 41 87 42 29 43 30 44 31 45 81 46 32 47
REMARK SMILES IDX 86 48 80 49 82 50 33 51 85 52 79 53 78 54 34 56 66 57 46 58
REMARK SMILES IDX 65 59 47 60 50 61 64 62 83 63 48 64 49 65 63 67 84 68 51 69
REMARK SMILES IDX 35 70 36 71 44 72 37 73 39 74 45 75 38 76 40 77 41 78 42 79
REMARK SMILES IDX 43 80 67 81 68 82 76 83 69 84 71 85 77 86 70 87 72 88 73 89
REMARK SMILES IDX 74 90 75 91 52 92 53 93 61 94 54 95 56 96 62 97 55 98 57 99
REMARK SMILES IDX 58 100 59 101 60 102
REMARK H PARENT 16 7 9 12 12 15 12 16 23 36 82 55 50 66
REMARK Flexibility Score: inf
ROOT
ATOM      1  C   UNL A   1      39.300  23.579  26.558  1.00  0.00     0.002 C 
ENDROOT
BRANCH   1   2
ATOM      2  C   UNL A   1      38.168  22.864  25.819  1.00  0.00     0.021 C 
BRANCH   2   3
ATOM      3  C   UNL A   1      36.900  23.674  25.566  1.00  0.00     0.116 C 
BRANCH   3   4
ATOM      4  N   UNL A   1      36.328  23.456  24.249  1.00  0.00    -0.351 N 
ATOM      5  C   UNL A   1      35.016  23.157  23.968  1.00  0.00     0.284 C 
ATOM      6  O   UNL A   1      34.634  23.161  22.797  1.00  0.00    -0.268 OA
ATOM      7  H   UNL A   1      36.939  23.530  23.481  1.00  0.00     0.163 HD
BRANCH   5   8
ATOM      8  C   UNL A   1      34.090  22.793  25.140  1.00  0.00     0.328 C 
ATOM      9  N   UNL A   1      32.736  23.742  27.051  1.00  0.00    -0.321 N 
ATOM     10  C   UNL A   1      33.090  22.521  27.802  1.00  0.00     0.324 C 
ATOM     11  C   UNL A   1      33.770  24.010  26.032  1.00  0.00     0.339 C 
ATOM     12  H   UNL A   1      32.751  24.526  27.704  1.00  0.00     0.348 HD
ATOM     13  C   UNL A   1      33.675  21.330  26.985  1.00  0.00     0.323 C 
ATOM     14  N   UNL A   1      34.676  21.699  25.965  1.00  0.00    -0.327 N 
ATOM     15  H   UNL A   1      34.885  20.893  25.375  1.00  0.00     0.347 HD
ATOM     16  H   UNL A   1      35.542  22.006  26.405  1.00  0.00     0.347 HD
BRANCH   9  17
ATOM     17  C   UNL A   1      31.321  23.851  26.612  1.00  0.00     0.303 C 
BRANCH  17  18
ATOM     18  C   UNL A   1      31.005  24.660  25.365  1.00  0.00     0.049 A 
ATOM     19  C   UNL A   1      31.101  25.828  22.796  1.00  0.00     0.125 A 
ATOM     20  C   UNL A   1      30.972  24.456  22.917  1.00  0.00     0.047 A 
ATOM     21  C   UNL A   1      31.031  26.645  23.934  1.00  0.00     0.034 A 
ATOM     22  C   UNL A   1      30.893  23.886  24.183  1.00  0.00     0.017 A 
ATOM     23  C   UNL A   1      30.943  26.065  25.238  1.00  0.00     0.134 A 
ATOM     24  C   UNL A   1      31.082  28.148  23.784  1.00  0.00     0.052 C 
BRANCH  19  25
ATOM     25  O   UNL A   1      31.560  26.322  21.603  1.00  0.00    -0.493 OA
BRANCH  25  26
ATOM     26  C   UNL A   1      32.648  25.588  21.035  1.00  0.00     0.226 C 
ATOM     27  C   UNL A   1      32.502  25.464  19.529  1.00  0.00     0.049 C 
ENDBRANCH  25  26
ENDBRANCH  19  25
BRANCH  23  28
ATOM     28  O   UNL A   1      30.904  27.037  26.198  1.00  0.00    -0.493 OA
BRANCH  28  29
ATOM     29  C   UNL A   1      31.893  27.333  27.160  1.00  0.00     0.226 C 
ATOM     30  C   UNL A   1      33.255  27.579  26.547  1.00  0.00     0.049 C 
ENDBRANCH  28  29
ENDBRANCH  23  28
ENDBRANCH  17  18
ENDBRANCH   9  17
ENDBRANCH   5   8
ENDBRANCH   3   4
ENDBRANCH   2   3
ENDBRANCH   1   2
BRANCH   1  31
ATOM     31  C   UNL A   1      40.085  22.760  27.587  1.00  0.00     0.002 C 
BRANCH  31  32
ATOM     32  C   UNL A   1      41.502  22.342  27.199  1.00  0.00     0.021 C 
BRANCH  32  33
ATOM     33  C   UNL A   1      41.659  21.872  25.767  1.00  0.00     0.116 C 
BRANCH  33  34
ATOM     34  N   UNL A   1      42.739  20.928  25.600  1.00  0.00    -0.352 N 
ATOM     35  C   UNL A   1      44.055  21.177  25.272  1.00  0.00     0.251 C 
ATOM     36  H   UNL A   1      42.505  19.982  25.738  1.00  0.00     0.163 HD
ATOM     37  O   UNL A   1      44.693  20.280  24.724  1.00  0.00    -0.269 OA
BRANCH  35  38
ATOM     38  C   UNL A   1      44.725  22.420  25.746  1.00  0.00     0.039 A 
ATOM     39  C   UNL A   1      45.057  22.470  27.109  1.00  0.00     0.014 A 
ATOM     40  C   UNL A   1      44.765  23.586  24.988  1.00  0.00     0.014 A 
ATOM     41  C   UNL A   1      45.140  23.697  27.760  1.00  0.00     0.010 A 
ATOM     42  C   UNL A   1      44.778  24.799  25.631  1.00  0.00     0.010 A 
ATOM     43  C   UNL A   1      44.875  24.841  27.022  1.00  0.00    -0.014 A 
BRANCH  43  44
ATOM     44  C   UNL A   1      44.629  26.154  27.580  1.00  0.00     0.031 A 
ATOM     45  C   UNL A   1      43.278  26.728  27.514  1.00  0.00     0.074 A 
ATOM     46  C   UNL A   1      45.586  26.645  28.398  1.00  0.00     0.049 A 
ATOM     47  N   UNL A   1      43.001  27.955  27.775  1.00  0.00    -0.248 NA
ATOM     48  C   UNL A   1      42.115  25.928  27.144  1.00  0.00     0.031 C 
ATOM     49  C   UNL A   1      45.444  27.646  29.444  1.00  0.00     0.029 A 
ATOM     50  N   UNL A   1      46.967  26.423  28.327  1.00  0.00    -0.354 N 
ATOM     51  C   UNL A   1      41.630  28.041  27.898  1.00  0.00     0.074 A 
ATOM     52  C   UNL A   1      41.120  26.776  27.421  1.00  0.00     0.031 C 
ATOM     53  C   UNL A   1      46.658  28.150  29.724  1.00  0.00     0.029 A 
ATOM     54  C   UNL A   1      47.571  27.628  28.720  1.00  0.00     0.049 A 
ATOM     55  H   UNL A   1      47.421  25.592  28.057  1.00  0.00     0.167 HD
ATOM     56  C   UNL A   1      41.092  29.104  28.557  1.00  0.00     0.034 A 
ATOM     57  C   UNL A   1      48.329  28.387  27.871  1.00  0.00     0.034 A 
ATOM     58  C   UNL A   1      42.145  30.032  28.987  1.00  0.00     0.049 A 
ATOM     59  C   UNL A   1      47.736  29.770  27.646  1.00  0.00     0.074 A 
ATOM     60  C   UNL A   1      42.852  30.159  30.173  1.00  0.00     0.029 A 
ATOM     61  N   UNL A   1      42.854  30.750  28.031  1.00  0.00    -0.354 N 
ATOM     62  N   UNL A   1      46.549  30.133  28.052  1.00  0.00    -0.248 NA
ATOM     63  C   UNL A   1      48.422  30.848  26.939  1.00  0.00     0.031 C 
ATOM     64  C   UNL A   1      44.050  30.872  29.895  1.00  0.00     0.029 A 
ATOM     65  C   UNL A   1      44.058  31.206  28.551  1.00  0.00     0.049 A 
ATOM     66  H   UNL A   1      42.545  30.913  27.111  1.00  0.00     0.167 HD
ATOM     67  C   UNL A   1      46.252  31.386  27.586  1.00  0.00     0.074 A 
ATOM     68  C   UNL A   1      47.492  31.819  26.961  1.00  0.00     0.031 C 
ATOM     69  C   UNL A   1      45.000  31.929  27.702  1.00  0.00     0.034 A 
BRANCH  56  70
ATOM     70  C   UNL A   1      39.682  29.113  29.115  1.00  0.00     0.023 A 
ATOM     71  C   UNL A   1      38.618  29.176  28.185  1.00  0.00     0.012 A 
ATOM     72  C   UNL A   1      39.319  29.115  30.482  1.00  0.00     0.148 A 
ATOM     73  C   UNL A   1      37.285  29.329  28.575  1.00  0.00     0.002 A 
ATOM     74  C   UNL A   1      37.991  29.330  30.873  1.00  0.00     0.091 A 
ATOM     75  F   UNL A   1      40.245  28.846  31.410  1.00  0.00    -0.205 F 
ATOM     76  C   UNL A   1      36.973  29.439  29.920  1.00  0.00     0.022 A 
BRANCH  74  77
ATOM     77  S   UNL A   1      37.509  29.585  32.591  1.00  0.00     0.127 S 
ATOM     78  O   UNL A   1      36.212  30.252  32.454  1.00  0.00    -0.237 OA
ATOM     79  O   UNL A   1      37.436  28.219  33.105  1.00  0.00    -0.237 OA
ATOM     80  O   UNL A   1      38.546  30.428  33.174  1.00  0.00    -0.744 OA
ENDBRANCH  74  77
ENDBRANCH  56  70
BRANCH  57  81
ATOM     81  C   UNL A   1      49.067  27.573  26.853  1.00  0.00     0.023 A 
ATOM     82  C   UNL A   1      48.327  27.163  25.717  1.00  0.00     0.012 A 
ATOM     83  C   UNL A   1      50.471  27.591  26.773  1.00  0.00     0.148 A 
ATOM     84  C   UNL A   1      48.955  26.950  24.488  1.00  0.00     0.002 A 
ATOM     85  C   UNL A   1      51.092  27.367  25.543  1.00  0.00     0.091 A 
ATOM     86  F   UNL A   1      51.172  27.906  27.869  1.00  0.00    -0.205 F 
ATOM     87  C   UNL A   1      50.334  27.097  24.392  1.00  0.00     0.022 A 
BRANCH  85  88
ATOM     88  S   UNL A   1      52.873  27.539  25.350  1.00  0.00     0.127 S 
ATOM     89  O   UNL A   1      53.058  27.115  23.965  1.00  0.00    -0.237 OA
ATOM     90  O   UNL A   1      53.085  28.965  25.587  1.00  0.00    -0.237 OA
ATOM     91  O   UNL A   1      53.439  26.674  26.374  1.00  0.00    -0.744 OA
ENDBRANCH  85  88
ENDBRANCH  57  81
BRANCH  69  92
ATOM     92  C   UNL A   1      44.527  33.192  27.007  1.00  0.00     0.023 A 
ATOM     93  C   UNL A   1      44.212  33.222  25.636  1.00  0.00     0.012 A 
ATOM     94  C   UNL A   1      44.224  34.360  27.757  1.00  0.00     0.148 A 
ATOM     95  C   UNL A   1      43.685  34.366  25.024  1.00  0.00     0.002 A 
ATOM     96  C   UNL A   1      43.584  35.447  27.168  1.00  0.00     0.091 A 
ATOM     97  F   UNL A   1      44.570  34.434  29.051  1.00  0.00    -0.205 F 
ATOM     98  C   UNL A   1      43.346  35.468  25.794  1.00  0.00     0.022 A 
BRANCH  96  99
ATOM     99  S   UNL A   1      42.889  36.765  28.177  1.00  0.00     0.127 S 
ATOM    100  O   UNL A   1      42.100  37.511  27.201  1.00  0.00    -0.237 OA
ATOM    101  O   UNL A   1      42.099  36.024  29.162  1.00  0.00    -0.237 OA
ATOM    102  O   UNL A   1      44.043  37.455  28.738  1.00  0.00    -0.744 OA
ENDBRANCH  96  99
ENDBRANCH  69  92
ENDBRANCH  43  44
ENDBRANCH  35  38
ENDBRANCH  33  34
ENDBRANCH  32  33
ENDBRANCH  31  32
ENDBRANCH   1  31
TORSDOF 22
ENDMDL
