MODEL 1
REMARK VINA RESULT:     -11.0      0.000      0.000
REMARK SMILES C[C@H]1C[C@@H]1C(=O)NC[C@@H]1CC[C@H](C(=O)NCCCCCCNC(=O)c2ccc(-c3c4nc(c(-c5cccc(S(=O)(=O)[O-])c5F)c5ccc([nH]5)c(-c5cccc(S(=O)(=O)[O-])c5F)c5nc(c(-c6cccc(S(=O)(=O)[O-])c6F)c6ccc3[nH]6)C=C5)C=C4)cc2)O1
REMARK SMILES IDX 18 1 17 2 16 3 15 4 13 5 14 6 12 8 9 9 10 10 88 11 11 12
REMARK SMILES IDX 8 13 7 14 5 15 6 16 4 18 1 19 2 20 3 21 19 22 20 23 21 24
REMARK SMILES IDX 22 25 23 26 24 28 25 29 26 30 87 31 27 32 86 33 28 34 29 35
REMARK SMILES IDX 30 36 80 37 31 38 85 39 79 40 81 41 32 42 84 43 78 44 77 45
REMARK SMILES IDX 33 47 65 48 45 49 64 50 46 51 49 52 63 53 82 54 47 55 48 56
REMARK SMILES IDX 62 58 83 59 50 60 34 61 35 62 43 63 36 64 38 65 44 66 37 67
REMARK SMILES IDX 39 68 40 69 41 70 42 71 66 72 67 73 75 74 68 75 70 76 76 77
REMARK SMILES IDX 69 78 71 79 72 80 73 81 74 82 51 83 52 84 60 85 53 86 55 87
REMARK SMILES IDX 61 88 54 89 56 90 57 91 58 92 59 93
REMARK H PARENT 15 7 7 17 22 27 81 46 49 57
REMARK Flexibility Score: inf
ROOT
ATOM      1  C   UNL A   1      32.421  29.626  27.059  1.00  0.00     0.002 C 
ENDROOT
BRANCH   1   2
ATOM      2  C   UNL A   1      33.634  29.020  26.343  1.00  0.00     0.021 C 
BRANCH   2   3
ATOM      3  C   UNL A   1      33.269  27.967  25.300  1.00  0.00     0.116 C 
BRANCH   3   4
ATOM      4  N   UNL A   1      34.148  26.819  25.364  1.00  0.00    -0.354 N 
ATOM      5  C   UNL A   1      33.834  25.495  25.275  1.00  0.00     0.249 C 
ATOM      6  O   UNL A   1      34.759  24.678  25.344  1.00  0.00    -0.272 OA
ATOM      7  H   UNL A   1      35.103  27.022  25.490  1.00  0.00     0.163 HD
BRANCH   5   8
ATOM      8  C   UNL A   1      32.368  25.016  25.169  1.00  0.00     0.207 C 
ATOM      9  C   UNL A   1      30.249  25.709  24.537  1.00  0.00     0.138 C 
ATOM     10  C   UNL A   1      30.385  26.098  26.000  1.00  0.00     0.037 C 
ATOM     11  O   UNL A   1      31.596  25.518  24.070  1.00  0.00    -0.363 OA
ATOM     12  C   UNL A   1      31.578  25.283  26.450  1.00  0.00     0.045 C 
BRANCH   9  13
ATOM     13  C   UNL A   1      29.447  26.688  23.663  1.00  0.00     0.147 C 
BRANCH  13  14
ATOM     14  N   UNL A   1      30.244  27.684  22.967  1.00  0.00    -0.353 N 
ATOM     15  C   UNL A   1      29.961  28.914  22.455  1.00  0.00     0.223 C 
ATOM     16  O   UNL A   1      30.912  29.583  22.047  1.00  0.00    -0.275 OA
ATOM     17  H   UNL A   1      31.182  27.413  22.838  1.00  0.00     0.163 HD
BRANCH  15  18
ATOM     18  C   UNL A   1      28.619  29.525  22.340  1.00  0.00     0.081 C 
ATOM     19  C   UNL A   1      27.811  31.851  23.102  1.00  0.00     0.008 C 
ATOM     20  C   UNL A   1      28.179  30.450  23.455  1.00  0.00    -0.001 C 
ATOM     21  C   UNL A   1      27.334  29.264  23.067  1.00  0.00     0.018 C 
ENDBRANCH  15  18
ENDBRANCH  13  14
ENDBRANCH   9  13
ENDBRANCH   5   8
ENDBRANCH   3   4
ENDBRANCH   2   3
ENDBRANCH   1   2
BRANCH   1  22
ATOM     22  C   UNL A   1      31.502  30.486  26.180  1.00  0.00     0.002 C 
BRANCH  22  23
ATOM     23  C   UNL A   1      31.463  31.968  26.546  1.00  0.00     0.021 C 
BRANCH  23  24
ATOM     24  C   UNL A   1      32.731  32.517  27.178  1.00  0.00     0.116 C 
BRANCH  24  25
ATOM     25  N   UNL A   1      32.592  33.914  27.552  1.00  0.00    -0.352 N 
ATOM     26  C   UNL A   1      33.177  34.616  28.577  1.00  0.00     0.251 C 
ATOM     27  H   UNL A   1      31.982  34.438  26.983  1.00  0.00     0.163 HD
ATOM     28  O   UNL A   1      32.747  35.732  28.860  1.00  0.00    -0.269 OA
BRANCH  26  29
ATOM     29  C   UNL A   1      34.317  34.050  29.339  1.00  0.00     0.039 A 
ATOM     30  C   UNL A   1      35.618  34.412  28.975  1.00  0.00     0.014 A 
ATOM     31  C   UNL A   1      34.121  33.122  30.364  1.00  0.00     0.014 A 
ATOM     32  C   UNL A   1      36.712  33.866  29.654  1.00  0.00     0.010 A 
ATOM     33  C   UNL A   1      35.206  32.655  31.102  1.00  0.00     0.010 A 
ATOM     34  C   UNL A   1      36.515  32.992  30.735  1.00  0.00    -0.014 A 
BRANCH  34  35
ATOM     35  C   UNL A   1      37.661  32.376  31.457  1.00  0.00     0.031 A 
ATOM     36  C   UNL A   1      38.434  31.250  30.817  1.00  0.00     0.074 A 
ATOM     37  C   UNL A   1      37.962  32.771  32.709  1.00  0.00     0.049 A 
ATOM     38  N   UNL A   1      39.414  30.537  31.307  1.00  0.00    -0.248 NA
ATOM     39  C   UNL A   1      38.028  30.848  29.459  1.00  0.00     0.031 C 
ATOM     40  C   UNL A   1      37.244  33.794  33.472  1.00  0.00     0.029 A 
ATOM     41  N   UNL A   1      38.939  32.340  33.573  1.00  0.00    -0.354 N 
ATOM     42  C   UNL A   1      39.707  29.577  30.344  1.00  0.00     0.074 A 
ATOM     43  C   UNL A   1      38.776  29.773  29.257  1.00  0.00     0.031 C 
ATOM     44  C   UNL A   1      37.807  33.916  34.684  1.00  0.00     0.029 A 
ATOM     45  C   UNL A   1      38.908  32.965  34.799  1.00  0.00     0.049 A 
ATOM     46  H   UNL A   1      39.599  31.649  33.337  1.00  0.00     0.167 HD
ATOM     47  C   UNL A   1      40.685  28.640  30.345  1.00  0.00     0.034 A 
ATOM     48  C   UNL A   1      39.678  32.788  35.890  1.00  0.00     0.034 A 
ATOM     49  C   UNL A   1      41.655  28.494  31.394  1.00  0.00     0.049 A 
ATOM     50  C   UNL A   1      40.803  31.788  35.839  1.00  0.00     0.074 A 
ATOM     51  C   UNL A   1      42.745  27.643  31.446  1.00  0.00     0.029 A 
ATOM     52  N   UNL A   1      41.656  29.220  32.575  1.00  0.00    -0.354 N 
ATOM     53  N   UNL A   1      41.160  30.997  34.856  1.00  0.00    -0.248 NA
ATOM     54  C   UNL A   1      41.656  31.684  37.031  1.00  0.00     0.031 C 
ATOM     55  C   UNL A   1      43.397  27.845  32.667  1.00  0.00     0.029 A 
ATOM     56  C   UNL A   1      42.725  28.836  33.365  1.00  0.00     0.049 A 
ATOM     57  H   UNL A   1      40.994  29.907  32.817  1.00  0.00     0.167 HD
ATOM     58  C   UNL A   1      42.298  30.331  35.296  1.00  0.00     0.074 A 
ATOM     59  C   UNL A   1      42.583  30.826  36.626  1.00  0.00     0.031 C 
ATOM     60  C   UNL A   1      43.032  29.383  34.662  1.00  0.00     0.034 A 
BRANCH  47  61
ATOM     61  C   UNL A   1      40.793  27.740  29.141  1.00  0.00     0.023 A 
ATOM     62  C   UNL A   1      39.970  26.599  29.049  1.00  0.00     0.012 A 
ATOM     63  C   UNL A   1      41.666  28.047  28.078  1.00  0.00     0.148 A 
ATOM     64  C   UNL A   1      40.041  25.756  27.942  1.00  0.00     0.002 A 
ATOM     65  C   UNL A   1      41.698  27.227  26.955  1.00  0.00     0.091 A 
ATOM     66  F   UNL A   1      42.456  29.123  28.189  1.00  0.00    -0.205 F 
ATOM     67  C   UNL A   1      40.897  26.075  26.891  1.00  0.00     0.022 A 
BRANCH  65  68
ATOM     68  S   UNL A   1      42.706  27.594  25.515  1.00  0.00     0.127 S 
ATOM     69  O   UNL A   1      42.463  26.421  24.676  1.00  0.00    -0.237 OA
ATOM     70  O   UNL A   1      42.101  28.831  25.022  1.00  0.00    -0.237 OA
ATOM     71  O   UNL A   1      44.070  27.740  26.006  1.00  0.00    -0.744 OA
ENDBRANCH  65  68
ENDBRANCH  47  61
BRANCH  48  72
ATOM     72  C   UNL A   1      39.462  33.635  37.099  1.00  0.00     0.023 A 
ATOM     73  C   UNL A   1      39.937  34.962  37.104  1.00  0.00     0.012 A 
ATOM     74  C   UNL A   1      38.772  33.149  38.225  1.00  0.00     0.148 A 
ATOM     75  C   UNL A   1      39.757  35.778  38.221  1.00  0.00     0.002 A 
ATOM     76  C   UNL A   1      38.549  33.984  39.314  1.00  0.00     0.091 A 
ATOM     77  F   UNL A   1      38.338  31.880  38.207  1.00  0.00    -0.205 F 
ATOM     78  C   UNL A   1      39.055  35.293  39.322  1.00  0.00     0.022 A 
BRANCH  76  79
ATOM     79  S   UNL A   1      37.550  33.486  40.723  1.00  0.00     0.127 S 
ATOM     80  O   UNL A   1      37.486  34.723  41.497  1.00  0.00    -0.237 OA
ATOM     81  O   UNL A   1      36.293  33.095  40.081  1.00  0.00    -0.237 OA
ATOM     82  O   UNL A   1      38.272  32.386  41.347  1.00  0.00    -0.744 OA
ENDBRANCH  76  79
ENDBRANCH  48  72
BRANCH  60  83
ATOM     83  C   UNL A   1      44.241  28.839  35.375  1.00  0.00     0.023 A 
ATOM     84  C   UNL A   1      45.507  29.412  35.142  1.00  0.00     0.012 A 
ATOM     85  C   UNL A   1      44.109  27.821  36.339  1.00  0.00     0.148 A 
ATOM     86  C   UNL A   1      46.629  28.957  35.834  1.00  0.00     0.002 A 
ATOM     87  C   UNL A   1      45.223  27.406  37.060  1.00  0.00     0.091 A 
ATOM     88  F   UNL A   1      42.899  27.277  36.534  1.00  0.00    -0.205 F 
ATOM     89  C   UNL A   1      46.485  27.965  36.801  1.00  0.00     0.022 A 
BRANCH  87  90
ATOM     90  S   UNL A   1      45.113  26.206  38.392  1.00  0.00     0.127 S 
ATOM     91  O   UNL A   1      44.605  25.028  37.690  1.00  0.00    -0.237 OA
ATOM     92  O   UNL A   1      46.504  26.100  38.833  1.00  0.00    -0.237 OA
ATOM     93  O   UNL A   1      44.211  26.784  39.380  1.00  0.00    -0.744 OA
ENDBRANCH  87  90
ENDBRANCH  60  83
ENDBRANCH  34  35
ENDBRANCH  26  29
ENDBRANCH  24  25
ENDBRANCH  23  24
ENDBRANCH  22  23
ENDBRANCH   1  22
TORSDOF 19
ENDMDL
MODEL 2
REMARK VINA RESULT:     -10.3      4.850     11.517
REMARK SMILES C[C@H]1C[C@@H]1C(=O)NC[C@@H]1CC[C@H](C(=O)NCCCCCCNC(=O)c2ccc(-c3c4nc(c(-c5cccc(S(=O)(=O)[O-])c5F)c5ccc([nH]5)c(-c5cccc(S(=O)(=O)[O-])c5F)c5nc(c(-c6cccc(S(=O)(=O)[O-])c6F)c6ccc3[nH]6)C=C5)C=C4)cc2)O1
REMARK SMILES IDX 18 1 17 2 16 3 15 4 13 5 14 6 12 8 9 9 10 10 88 11 11 12
REMARK SMILES IDX 8 13 7 14 5 15 6 16 4 18 1 19 2 20 3 21 19 22 20 23 21 24
REMARK SMILES IDX 22 25 23 26 24 28 25 29 26 30 87 31 27 32 86 33 28 34 29 35
REMARK SMILES IDX 30 36 80 37 31 38 85 39 79 40 81 41 32 42 84 43 78 44 77 45
REMARK SMILES IDX 33 47 65 48 45 49 64 50 46 51 49 52 63 53 82 54 47 55 48 56
REMARK SMILES IDX 62 58 83 59 50 60 34 61 35 62 43 63 36 64 38 65 44 66 37 67
REMARK SMILES IDX 39 68 40 69 41 70 42 71 66 72 67 73 75 74 68 75 70 76 76 77
REMARK SMILES IDX 69 78 71 79 72 80 73 81 74 82 51 83 52 84 60 85 53 86 55 87
REMARK SMILES IDX 61 88 54 89 56 90 57 91 58 92 59 93
REMARK H PARENT 15 7 7 17 22 27 81 46 49 57
REMARK Flexibility Score: inf
ROOT
ATOM      1  C   UNL A   1      36.783  33.732  32.195  1.00  0.00     0.002 C 
ENDROOT
BRANCH   1   2
ATOM      2  C   UNL A   1      37.603  33.141  33.348  1.00  0.00     0.021 C 
BRANCH   2   3
ATOM      3  C   UNL A   1      37.633  31.614  33.361  1.00  0.00     0.116 C 
BRANCH   3   4
ATOM      4  N   UNL A   1      37.539  31.086  34.704  1.00  0.00    -0.354 N 
ATOM      5  C   UNL A   1      38.530  30.590  35.500  1.00  0.00     0.249 C 
ATOM      6  O   UNL A   1      38.220  30.200  36.630  1.00  0.00    -0.272 OA
ATOM      7  H   UNL A   1      36.637  31.083  35.098  1.00  0.00     0.163 HD
BRANCH   5   8
ATOM      8  C   UNL A   1      39.981  30.444  34.987  1.00  0.00     0.207 C 
ATOM      9  C   UNL A   1      41.603  28.867  34.486  1.00  0.00     0.138 C 
ATOM     10  C   UNL A   1      41.784  29.181  35.961  1.00  0.00     0.037 C 
ATOM     11  O   UNL A   1      40.271  29.304  34.167  1.00  0.00    -0.363 OA
ATOM     12  C   UNL A   1      41.002  30.466  36.125  1.00  0.00     0.045 C 
BRANCH   9  13
ATOM     13  C   UNL A   1      41.865  27.405  34.083  1.00  0.00     0.147 C 
BRANCH  13  14
ATOM     14  N   UNL A   1      41.300  26.412  34.980  1.00  0.00    -0.353 N 
ATOM     15  C   UNL A   1      41.810  25.302  35.582  1.00  0.00     0.223 C 
ATOM     16  O   UNL A   1      41.099  24.742  36.419  1.00  0.00    -0.275 OA
ATOM     17  H   UNL A   1      40.354  26.574  35.197  1.00  0.00     0.163 HD
BRANCH  15  18
ATOM     18  C   UNL A   1      43.137  24.700  35.327  1.00  0.00     0.081 C 
ATOM     19  C   UNL A   1      44.479  24.574  33.130  1.00  0.00     0.008 C 
ATOM     20  C   UNL A   1      43.361  24.061  33.973  1.00  0.00    -0.001 C 
ATOM     21  C   UNL A   1      43.589  23.274  35.237  1.00  0.00     0.018 C 
ENDBRANCH  15  18
ENDBRANCH  13  14
ENDBRANCH   9  13
ENDBRANCH   5   8
ENDBRANCH   3   4
ENDBRANCH   2   3
ENDBRANCH   1   2
BRANCH   1  22
ATOM     22  C   UNL A   1      36.446  32.754  31.060  1.00  0.00     0.002 C 
BRANCH  22  23
ATOM     23  C   UNL A   1      35.031  32.882  30.500  1.00  0.00     0.021 C 
BRANCH  23  24
ATOM     24  C   UNL A   1      34.927  32.870  28.984  1.00  0.00     0.116 C 
BRANCH  24  25
ATOM     25  N   UNL A   1      34.169  31.729  28.500  1.00  0.00    -0.352 N 
ATOM     26  C   UNL A   1      34.602  30.489  28.095  1.00  0.00     0.251 C 
ATOM     27  H   UNL A   1      33.196  31.865  28.453  1.00  0.00     0.163 HD
ATOM     28  O   UNL A   1      33.822  29.747  27.502  1.00  0.00    -0.269 OA
BRANCH  26  29
ATOM     29  C   UNL A   1      35.988  30.037  28.366  1.00  0.00     0.039 A 
ATOM     30  C   UNL A   1      36.269  29.421  29.591  1.00  0.00     0.014 A 
ATOM     31  C   UNL A   1      37.023  30.268  27.457  1.00  0.00     0.014 A 
ATOM     32  C   UNL A   1      37.575  29.016  29.887  1.00  0.00     0.010 A 
ATOM     33  C   UNL A   1      38.301  29.777  27.713  1.00  0.00     0.010 A 
ATOM     34  C   UNL A   1      38.602  29.177  28.943  1.00  0.00    -0.014 A 
BRANCH  34  35
ATOM     35  C   UNL A   1      40.004  28.781  29.242  1.00  0.00     0.031 A 
ATOM     36  C   UNL A   1      40.837  29.618  30.181  1.00  0.00     0.074 A 
ATOM     37  C   UNL A   1      40.554  27.719  28.621  1.00  0.00     0.049 A 
ATOM     38  N   UNL A   1      42.094  29.482  30.514  1.00  0.00    -0.248 NA
ATOM     39  C   UNL A   1      40.181  30.784  30.798  1.00  0.00     0.031 C 
ATOM     40  C   UNL A   1      39.881  26.873  27.633  1.00  0.00     0.029 A 
ATOM     41  N   UNL A   1      41.815  27.184  28.711  1.00  0.00    -0.354 N 
ATOM     42  C   UNL A   1      42.390  30.565  31.336  1.00  0.00     0.074 A 
ATOM     43  C   UNL A   1      41.194  31.370  31.419  1.00  0.00     0.031 C 
ATOM     44  C   UNL A   1      40.733  25.924  27.214  1.00  0.00     0.029 A 
ATOM     45  C   UNL A   1      42.018  26.106  27.881  1.00  0.00     0.049 A 
ATOM     46  H   UNL A   1      42.509  27.538  29.313  1.00  0.00     0.167 HD
ATOM     47  C   UNL A   1      43.541  30.847  31.992  1.00  0.00     0.034 A 
ATOM     48  C   UNL A   1      43.118  25.353  27.678  1.00  0.00     0.034 A 
ATOM     49  C   UNL A   1      44.707  30.007  31.965  1.00  0.00     0.049 A 
ATOM     50  C   UNL A   1      44.363  25.646  28.473  1.00  0.00     0.074 A 
ATOM     51  C   UNL A   1      45.887  30.151  32.671  1.00  0.00     0.029 A 
ATOM     52  N   UNL A   1      44.837  28.863  31.193  1.00  0.00    -0.354 N 
ATOM     53  N   UNL A   1      44.572  26.585  29.363  1.00  0.00    -0.248 NA
ATOM     54  C   UNL A   1      45.511  24.752  28.265  1.00  0.00     0.031 C 
ATOM     55  C   UNL A   1      46.739  29.099  32.316  1.00  0.00     0.029 A 
ATOM     56  C   UNL A   1      46.079  28.290  31.403  1.00  0.00     0.049 A 
ATOM     57  H   UNL A   1      44.148  28.509  30.586  1.00  0.00     0.167 HD
ATOM     58  C   UNL A   1      45.857  26.373  29.849  1.00  0.00     0.074 A 
ATOM     59  C   UNL A   1      46.372  25.203  29.168  1.00  0.00     0.031 C 
ATOM     60  C   UNL A   1      46.554  27.091  30.764  1.00  0.00     0.034 A 
BRANCH  47  61
ATOM     61  C   UNL A   1      43.573  32.086  32.848  1.00  0.00     0.023 A 
ATOM     62  C   UNL A   1      43.440  31.969  34.247  1.00  0.00     0.012 A 
ATOM     63  C   UNL A   1      43.788  33.358  32.281  1.00  0.00     0.148 A 
ATOM     64  C   UNL A   1      43.478  33.098  35.065  1.00  0.00     0.002 A 
ATOM     65  C   UNL A   1      43.872  34.475  33.107  1.00  0.00     0.091 A 
ATOM     66  F   UNL A   1      43.893  33.456  30.949  1.00  0.00    -0.205 F 
ATOM     67  C   UNL A   1      43.704  34.348  34.495  1.00  0.00     0.022 A 
BRANCH  65  68
ATOM     68  S   UNL A   1      44.240  36.118  32.481  1.00  0.00     0.127 S 
ATOM     69  O   UNL A   1      43.675  36.967  33.529  1.00  0.00    -0.237 OA
ATOM     70  O   UNL A   1      45.702  36.107  32.427  1.00  0.00    -0.237 OA
ATOM     71  O   UNL A   1      43.586  36.208  31.183  1.00  0.00    -0.744 OA
ENDBRANCH  65  68
ENDBRANCH  47  61
BRANCH  48  72
ATOM     72  C   UNL A   1      43.065  24.197  26.737  1.00  0.00     0.023 A 
ATOM     73  C   UNL A   1      43.740  24.282  25.503  1.00  0.00     0.012 A 
ATOM     74  C   UNL A   1      42.379  23.011  27.064  1.00  0.00     0.148 A 
ATOM     75  C   UNL A   1      43.705  23.221  24.598  1.00  0.00     0.002 A 
ATOM     76  C   UNL A   1      42.392  21.938  26.181  1.00  0.00     0.091 A 
ATOM     77  F   UNL A   1      41.733  22.954  28.238  1.00  0.00    -0.205 F 
ATOM     78  C   UNL A   1      43.040  22.046  24.940  1.00  0.00     0.022 A 
BRANCH  76  79
ATOM     79  S   UNL A   1      41.669  20.345  26.589  1.00  0.00     0.127 S 
ATOM     80  O   UNL A   1      40.252  20.680  26.706  1.00  0.00    -0.237 OA
ATOM     81  O   UNL A   1      42.017  19.542  25.414  1.00  0.00    -0.237 OA
ATOM     82  O   UNL A   1      42.322  19.919  27.819  1.00  0.00    -0.744 OA
ENDBRANCH  76  79
ENDBRANCH  48  72
BRANCH  60  83
ATOM     83  C   UNL A   1      47.939  26.616  31.119  1.00  0.00     0.023 A 
ATOM     84  C   UNL A   1      48.118  25.722  32.193  1.00  0.00     0.012 A 
ATOM     85  C   UNL A   1      49.049  26.990  30.337  1.00  0.00     0.148 A 
ATOM     86  C   UNL A   1      49.385  25.231  32.503  1.00  0.00     0.002 A 
ATOM     87  C   UNL A   1      50.301  26.458  30.620  1.00  0.00     0.091 A 
ATOM     88  F   UNL A   1      48.860  27.856  29.330  1.00  0.00    -0.205 F 
ATOM     89  C   UNL A   1      50.473  25.588  31.709  1.00  0.00     0.022 A 
BRANCH  87  90
ATOM     90  S   UNL A   1      51.738  26.785  29.593  1.00  0.00     0.127 S 
ATOM     91  O   UNL A   1      51.344  26.170  28.326  1.00  0.00    -0.237 OA
ATOM     92  O   UNL A   1      51.782  28.247  29.572  1.00  0.00    -0.237 OA
ATOM     93  O   UNL A   1      52.866  26.158  30.269  1.00  0.00    -0.744 OA
ENDBRANCH  87  90
ENDBRANCH  60  83
ENDBRANCH  34  35
ENDBRANCH  26  29
ENDBRANCH  24  25
ENDBRANCH  23  24
ENDBRANCH  22  23
ENDBRANCH   1  22
TORSDOF 19
ENDMDL
MODEL 3
REMARK VINA RESULT:     -10.3      2.604      8.089
REMARK SMILES C[C@H]1C[C@@H]1C(=O)NC[C@@H]1CC[C@H](C(=O)NCCCCCCNC(=O)c2ccc(-c3c4nc(c(-c5cccc(S(=O)(=O)[O-])c5F)c5ccc([nH]5)c(-c5cccc(S(=O)(=O)[O-])c5F)c5nc(c(-c6cccc(S(=O)(=O)[O-])c6F)c6ccc3[nH]6)C=C5)C=C4)cc2)O1
REMARK SMILES IDX 18 1 17 2 16 3 15 4 13 5 14 6 12 8 9 9 10 10 88 11 11 12
REMARK SMILES IDX 8 13 7 14 5 15 6 16 4 18 1 19 2 20 3 21 19 22 20 23 21 24
REMARK SMILES IDX 22 25 23 26 24 28 25 29 26 30 87 31 27 32 86 33 28 34 29 35
REMARK SMILES IDX 30 36 80 37 31 38 85 39 79 40 81 41 32 42 84 43 78 44 77 45
REMARK SMILES IDX 33 47 65 48 45 49 64 50 46 51 49 52 63 53 82 54 47 55 48 56
REMARK SMILES IDX 62 58 83 59 50 60 34 61 35 62 43 63 36 64 38 65 44 66 37 67
REMARK SMILES IDX 39 68 40 69 41 70 42 71 66 72 67 73 75 74 68 75 70 76 76 77
REMARK SMILES IDX 69 78 71 79 72 80 73 81 74 82 51 83 52 84 60 85 53 86 55 87
REMARK SMILES IDX 61 88 54 89 56 90 57 91 58 92 59 93
REMARK H PARENT 15 7 7 17 22 27 81 46 49 57
REMARK Flexibility Score: inf
ROOT
ATOM      1  C   UNL A   1      33.447  27.186  25.629  1.00  0.00     0.002 C 
ENDROOT
BRANCH   1   2
ATOM      2  C   UNL A   1      33.890  26.783  24.218  1.00  0.00     0.021 C 
BRANCH   2   3
ATOM      3  C   UNL A   1      33.396  25.404  23.789  1.00  0.00     0.116 C 
BRANCH   3   4
ATOM      4  N   UNL A   1      34.449  24.621  23.178  1.00  0.00    -0.354 N 
ATOM      5  C   UNL A   1      34.752  23.304  23.362  1.00  0.00     0.249 C 
ATOM      6  O   UNL A   1      35.698  22.836  22.719  1.00  0.00    -0.272 OA
ATOM      7  H   UNL A   1      35.025  25.105  22.544  1.00  0.00     0.163 HD
BRANCH   5   8
ATOM      8  C   UNL A   1      33.997  22.437  24.396  1.00  0.00     0.207 C 
ATOM      9  C   UNL A   1      32.125  22.416  25.759  1.00  0.00     0.138 C 
ATOM     10  C   UNL A   1      33.222  23.066  26.585  1.00  0.00     0.037 C 
ATOM     11  O   UNL A   1      32.566  22.521  24.395  1.00  0.00    -0.363 OA
ATOM     12  C   UNL A   1      34.476  22.691  25.825  1.00  0.00     0.045 C 
BRANCH   9  13
ATOM     13  C   UNL A   1      30.711  22.982  25.975  1.00  0.00     0.147 C 
BRANCH  13  14
ATOM     14  N   UNL A   1      30.665  24.313  26.555  1.00  0.00    -0.353 N 
ATOM     15  C   UNL A   1      30.352  25.539  26.050  1.00  0.00     0.223 C 
ATOM     16  O   UNL A   1      30.264  26.469  26.854  1.00  0.00    -0.275 OA
ATOM     17  H   UNL A   1      30.909  24.334  27.508  1.00  0.00     0.163 HD
BRANCH  15  18
ATOM     18  C   UNL A   1      30.110  25.864  24.628  1.00  0.00     0.081 C 
ATOM     19  C   UNL A   1      30.515  28.073  23.364  1.00  0.00     0.008 C 
ATOM     20  C   UNL A   1      29.674  27.277  24.302  1.00  0.00    -0.001 C 
ATOM     21  C   UNL A   1      28.846  26.099  23.856  1.00  0.00     0.018 C 
ENDBRANCH  15  18
ENDBRANCH  13  14
ENDBRANCH   9  13
ENDBRANCH   5   8
ENDBRANCH   3   4
ENDBRANCH   2   3
ENDBRANCH   1   2
BRANCH   1  22
ATOM     22  C   UNL A   1      33.992  28.531  26.129  1.00  0.00     0.002 C 
BRANCH  22  23
ATOM     23  C   UNL A   1      33.163  29.750  25.729  1.00  0.00     0.021 C 
BRANCH  23  24
ATOM     24  C   UNL A   1      32.324  30.361  26.839  1.00  0.00     0.116 C 
BRANCH  24  25
ATOM     25  N   UNL A   1      32.429  31.809  26.867  1.00  0.00    -0.352 N 
ATOM     26  C   UNL A   1      33.328  32.616  27.520  1.00  0.00     0.251 C 
ATOM     27  H   UNL A   1      31.751  32.286  26.337  1.00  0.00     0.163 HD
ATOM     28  O   UNL A   1      33.102  33.822  27.599  1.00  0.00    -0.269 OA
BRANCH  26  29
ATOM     29  C   UNL A   1      34.562  32.056  28.124  1.00  0.00     0.039 A 
ATOM     30  C   UNL A   1      34.490  30.825  28.785  1.00  0.00     0.014 A 
ATOM     31  C   UNL A   1      35.770  32.757  28.101  1.00  0.00     0.014 A 
ATOM     32  C   UNL A   1      35.630  30.290  29.394  1.00  0.00     0.010 A 
ATOM     33  C   UNL A   1      36.925  32.178  28.622  1.00  0.00     0.010 A 
ATOM     34  C   UNL A   1      36.863  30.956  29.306  1.00  0.00    -0.014 A 
BRANCH  34  35
ATOM     35  C   UNL A   1      38.084  30.423  29.966  1.00  0.00     0.031 A 
ATOM     36  C   UNL A   1      38.454  30.894  31.351  1.00  0.00     0.074 A 
ATOM     37  C   UNL A   1      38.899  29.579  29.304  1.00  0.00     0.049 A 
ATOM     38  N   UNL A   1      39.510  30.606  32.068  1.00  0.00    -0.248 NA
ATOM     39  C   UNL A   1      37.535  31.843  32.003  1.00  0.00     0.031 C 
ATOM     40  C   UNL A   1      38.697  29.108  27.932  1.00  0.00     0.029 A 
ATOM     41  N   UNL A   1      40.077  28.986  29.687  1.00  0.00    -0.354 N 
ATOM     42  C   UNL A   1      39.406  31.369  33.225  1.00  0.00     0.074 A 
ATOM     43  C   UNL A   1      38.206  32.164  33.099  1.00  0.00     0.031 C 
ATOM     44  C   UNL A   1      39.710  28.296  27.592  1.00  0.00     0.029 A 
ATOM     45  C   UNL A   1      40.647  28.206  28.707  1.00  0.00     0.049 A 
ATOM     46  H   UNL A   1      40.475  29.107  30.579  1.00  0.00     0.167 HD
ATOM     47  C   UNL A   1      40.214  31.384  34.311  1.00  0.00     0.034 A 
ATOM     48  C   UNL A   1      41.797  27.502  28.708  1.00  0.00     0.034 A 
ATOM     49  C   UNL A   1      41.368  30.542  34.465  1.00  0.00     0.049 A 
ATOM     50  C   UNL A   1      42.641  27.482  29.955  1.00  0.00     0.074 A 
ATOM     51  C   UNL A   1      42.195  30.408  35.566  1.00  0.00     0.029 A 
ATOM     52  N   UNL A   1      41.854  29.684  33.490  1.00  0.00    -0.354 N 
ATOM     53  N   UNL A   1      42.441  28.092  31.098  1.00  0.00    -0.248 NA
ATOM     54  C   UNL A   1      43.848  26.643  29.927  1.00  0.00     0.031 C 
ATOM     55  C   UNL A   1      43.193  29.479  35.250  1.00  0.00     0.029 A 
ATOM     56  C   UNL A   1      42.972  29.019  33.961  1.00  0.00     0.049 A 
ATOM     57  H   UNL A   1      41.462  29.565  32.596  1.00  0.00     0.167 HD
ATOM     58  C   UNL A   1      43.473  27.683  31.935  1.00  0.00     0.074 A 
ATOM     59  C   UNL A   1      44.285  26.756  31.174  1.00  0.00     0.031 C 
ATOM     60  C   UNL A   1      43.735  28.053  33.213  1.00  0.00     0.034 A 
BRANCH  47  61
ATOM     61  C   UNL A   1      39.841  32.299  35.450  1.00  0.00     0.023 A 
ATOM     62  C   UNL A   1      39.075  31.798  36.522  1.00  0.00     0.012 A 
ATOM     63  C   UNL A   1      40.289  33.634  35.489  1.00  0.00     0.148 A 
ATOM     64  C   UNL A   1      38.726  32.618  37.594  1.00  0.00     0.002 A 
ATOM     65  C   UNL A   1      39.977  34.434  36.583  1.00  0.00     0.091 A 
ATOM     66  F   UNL A   1      41.000  34.101  34.453  1.00  0.00    -0.205 F 
ATOM     67  C   UNL A   1      39.185  33.932  37.629  1.00  0.00     0.022 A 
BRANCH  65  68
ATOM     68  S   UNL A   1      40.587  36.114  36.762  1.00  0.00     0.127 S 
ATOM     69  O   UNL A   1      39.910  36.793  35.657  1.00  0.00    -0.237 OA
ATOM     70  O   UNL A   1      40.100  36.479  38.092  1.00  0.00    -0.237 OA
ATOM     71  O   UNL A   1      42.036  36.028  36.648  1.00  0.00    -0.744 OA
ENDBRANCH  65  68
ENDBRANCH  47  61
BRANCH  48  72
ATOM     72  C   UNL A   1      42.175  26.694  27.513  1.00  0.00     0.023 A 
ATOM     73  C   UNL A   1      42.846  27.319  26.443  1.00  0.00     0.012 A 
ATOM     74  C   UNL A   1      41.902  25.315  27.441  1.00  0.00     0.148 A 
ATOM     75  C   UNL A   1      43.208  26.593  25.309  1.00  0.00     0.002 A 
ATOM     76  C   UNL A   1      42.313  24.586  26.330  1.00  0.00     0.091 A 
ATOM     77  F   UNL A   1      41.252  24.740  28.463  1.00  0.00    -0.205 F 
ATOM     78  C   UNL A   1      42.951  25.226  25.256  1.00  0.00     0.022 A 
BRANCH  76  79
ATOM     79  S   UNL A   1      42.135  22.801  26.229  1.00  0.00     0.127 S 
ATOM     80  O   UNL A   1      40.683  22.644  26.226  1.00  0.00    -0.237 OA
ATOM     81  O   UNL A   1      42.789  22.501  24.954  1.00  0.00    -0.237 OA
ATOM     82  O   UNL A   1      42.826  22.269  27.396  1.00  0.00    -0.744 OA
ENDBRANCH  76  79
ENDBRANCH  48  72
BRANCH  60  83
ATOM     83  C   UNL A   1      44.925  27.430  33.894  1.00  0.00     0.023 A 
ATOM     84  C   UNL A   1      46.165  28.099  33.887  1.00  0.00     0.012 A 
ATOM     85  C   UNL A   1      44.792  26.226  34.612  1.00  0.00     0.148 A 
ATOM     86  C   UNL A   1      47.263  27.563  34.557  1.00  0.00     0.002 A 
ATOM     87  C   UNL A   1      45.878  25.723  35.319  1.00  0.00     0.091 A 
ATOM     88  F   UNL A   1      43.608  25.596  34.592  1.00  0.00    -0.205 F 
ATOM     89  C   UNL A   1      47.116  26.383  35.284  1.00  0.00     0.022 A 
BRANCH  87  90
ATOM     90  S   UNL A   1      45.752  24.264  36.361  1.00  0.00     0.127 S 
ATOM     91  O   UNL A   1      46.999  24.333  37.121  1.00  0.00    -0.237 OA
ATOM     92  O   UNL A   1      44.546  24.541  37.142  1.00  0.00    -0.237 OA
ATOM     93  O   UNL A   1      45.635  23.131  35.452  1.00  0.00    -0.744 OA
ENDBRANCH  87  90
ENDBRANCH  60  83
ENDBRANCH  34  35
ENDBRANCH  26  29
ENDBRANCH  24  25
ENDBRANCH  23  24
ENDBRANCH  22  23
ENDBRANCH   1  22
TORSDOF 19
ENDMDL
