MODEL 1
REMARK VINA RESULT:     -12.8      0.000      0.000
REMARK SMILES C[C@@]12CCC[C@](C)(C(=O)NCCCCCCNC(=O)c3ccc(-c4c5nc(c(-c6cccc(S(=O)(=O)[O-])c6F)c6ccc([nH]6)c(-c6cccc(S(=O)(=O)[O-])c6F)c6nc(c(-c7cccc(S(=O)(=O)[O-])c7F)c7ccc4[nH]7)C=C6)C=C5)cc3)[C@H]1CC[C@@]13C=C(CO)[C@@H](CC[C@@H]12)C3
REMARK SMILES IDX 14 1 13 2 12 3 11 4 10 5 8 6 9 7 6 9 1 10 2 11 3 12 83 13
REMARK SMILES IDX 94 14 4 15 84 16 86 17 93 18 5 19 7 20 85 21 87 22 95 23
REMARK SMILES IDX 92 24 88 25 91 26 89 27 90 28 15 30 16 31 17 32 18 33 19 35
REMARK SMILES IDX 20 36 21 37 82 38 22 39 81 40 23 41 24 42 25 43 75 44 26 45
REMARK SMILES IDX 80 46 74 47 76 48 27 49 79 50 73 51 72 52 28 54 60 55 40 56
REMARK SMILES IDX 59 57 41 58 44 59 58 60 77 61 42 62 43 63 57 65 78 66 45 67
REMARK SMILES IDX 29 68 30 69 38 70 31 71 33 72 39 73 32 74 34 75 35 76 36 77
REMARK SMILES IDX 37 78 61 79 62 80 70 81 63 82 65 83 71 84 64 85 66 86 67 87
REMARK SMILES IDX 68 88 69 89 46 90 47 91 55 92 48 93 50 94 56 95 49 96 51 97
REMARK SMILES IDX 52 98 53 99 54 100
REMARK H PARENT 10 8 90 29 17 34 76 53 44 64
REMARK Flexibility Score: inf
ROOT
ATOM      1  C   UNL A   1      31.636  30.652  26.706  1.00  0.00     0.002 C 
ENDROOT
BRANCH   1   2
ATOM      2  C   UNL A   1      31.411  30.063  25.312  1.00  0.00     0.002 C 
BRANCH   2   3
ATOM      3  C   UNL A   1      32.617  29.313  24.764  1.00  0.00     0.021 C 
BRANCH   3   4
ATOM      4  C   UNL A   1      32.669  27.860  25.231  1.00  0.00     0.116 C 
BRANCH   4   5
ATOM      5  N   UNL A   1      31.320  27.338  25.372  1.00  0.00    -0.356 N 
ATOM      6  C   UNL A   1      30.636  26.359  24.709  1.00  0.00     0.226 C 
ATOM      7  O   UNL A   1      29.428  26.287  24.949  1.00  0.00    -0.274 OA
ATOM      8  H   UNL A   1      30.797  27.775  26.081  1.00  0.00     0.163 HD
BRANCH   6   9
ATOM      9  C   UNL A   1      31.348  25.336  23.785  1.00  0.00     0.050 C 
ATOM     10  C   UNL A   1      32.378  22.503  23.107  1.00  0.00     0.012 C 
ATOM     11  C   UNL A   1      33.369  23.661  23.491  1.00  0.00    -0.025 C 
ATOM     12  C   UNL A   1      33.797  24.438  22.222  1.00  0.00     0.007 C 
ATOM     13  C   UNL A   1      32.660  24.670  24.446  1.00  0.00     0.010 C 
ATOM     14  C   UNL A   1      34.616  22.938  24.109  1.00  0.00     0.005 C 
ATOM     15  C   UNL A   1      32.684  25.246  21.559  1.00  0.00     0.002 C 
ATOM     16  C   UNL A   1      32.576  24.132  25.882  1.00  0.00     0.006 C 
ATOM     17  C   UNL A   1      34.520  22.532  25.637  1.00  0.00    -0.008 C 
ATOM     18  C   UNL A   1      36.080  23.230  23.795  1.00  0.00     0.006 C 
ATOM     19  C   UNL A   1      31.914  26.124  22.549  1.00  0.00     0.017 C 
ATOM     20  C   UNL A   1      30.190  24.483  23.183  1.00  0.00     0.022 C 
ATOM     21  C   UNL A   1      33.896  23.631  26.469  1.00  0.00     0.012 C 
ATOM     22  C   UNL A   1      33.905  21.163  25.609  1.00  0.00    -0.018 C 
ATOM     23  C   UNL A   1      35.879  22.068  26.235  1.00  0.00     0.019 C 
ATOM     24  C   UNL A   1      36.808  21.843  23.989  1.00  0.00     0.008 C 
ATOM     25  C   UNL A   1      34.857  20.326  25.139  1.00  0.00    -0.045 C 
ATOM     26  C   UNL A   1      36.250  21.003  25.200  1.00  0.00     0.018 C 
BRANCH  25  27
ATOM     27  C   UNL A   1      34.577  18.978  24.572  1.00  0.00     0.187 C 
BRANCH  27  28
ATOM     28  O   UNL A   1      35.687  18.122  24.844  1.00  0.00    -0.392 OA
ATOM     29  H   UNL A   1      35.691  17.387  24.211  1.00  0.00     0.211 HD
ENDBRANCH  27  28
ENDBRANCH  25  27
ENDBRANCH   6   9
ENDBRANCH   4   5
ENDBRANCH   3   4
ENDBRANCH   2   3
ENDBRANCH   1   2
BRANCH   1  30
ATOM     30  C   UNL A   1      31.559  32.181  26.784  1.00  0.00     0.021 C 
BRANCH  30  31
ATOM     31  C   UNL A   1      32.844  32.860  27.248  1.00  0.00     0.116 C 
BRANCH  31  32
ATOM     32  N   UNL A   1      32.605  34.237  27.651  1.00  0.00    -0.352 N 
ATOM     33  C   UNL A   1      33.102  34.924  28.728  1.00  0.00     0.251 C 
ATOM     34  H   UNL A   1      32.000  34.749  27.067  1.00  0.00     0.163 HD
ATOM     35  O   UNL A   1      32.597  35.988  29.069  1.00  0.00    -0.269 OA
BRANCH  33  36
ATOM     36  C   UNL A   1      34.249  34.369  29.473  1.00  0.00     0.039 A 
ATOM     37  C   UNL A   1      34.014  33.654  30.648  1.00  0.00     0.014 A 
ATOM     38  C   UNL A   1      35.552  34.567  29.009  1.00  0.00     0.014 A 
ATOM     39  C   UNL A   1      35.092  33.095  31.338  1.00  0.00     0.010 A 
ATOM     40  C   UNL A   1      36.615  33.945  29.655  1.00  0.00     0.010 A 
ATOM     41  C   UNL A   1      36.397  33.216  30.833  1.00  0.00    -0.014 A 
BRANCH  41  42
ATOM     42  C   UNL A   1      37.550  32.588  31.524  1.00  0.00     0.031 A 
ATOM     43  C   UNL A   1      38.284  31.444  30.883  1.00  0.00     0.074 A 
ATOM     44  C   UNL A   1      37.879  32.995  32.766  1.00  0.00     0.049 A 
ATOM     45  N   UNL A   1      39.285  30.743  31.351  1.00  0.00    -0.248 NA
ATOM     46  C   UNL A   1      37.816  31.011  29.557  1.00  0.00     0.031 C 
ATOM     47  C   UNL A   1      37.190  34.043  33.521  1.00  0.00     0.029 A 
ATOM     48  N   UNL A   1      38.861  32.559  33.619  1.00  0.00    -0.354 N 
ATOM     49  C   UNL A   1      39.543  29.768  30.394  1.00  0.00     0.074 A 
ATOM     50  C   UNL A   1      38.566  29.941  29.341  1.00  0.00     0.031 C 
ATOM     51  C   UNL A   1      37.779  34.179  34.720  1.00  0.00     0.029 A 
ATOM     52  C   UNL A   1      38.863  33.208  34.831  1.00  0.00     0.049 A 
ATOM     53  H   UNL A   1      39.502  31.850  33.385  1.00  0.00     0.167 HD
ATOM     54  C   UNL A   1      40.521  28.832  30.377  1.00  0.00     0.034 A 
ATOM     55  C   UNL A   1      39.650  33.037  35.911  1.00  0.00     0.034 A 
ATOM     56  C   UNL A   1      41.509  28.687  31.413  1.00  0.00     0.049 A 
ATOM     57  C   UNL A   1      40.748  32.010  35.860  1.00  0.00     0.074 A 
ATOM     58  C   UNL A   1      42.595  27.831  31.453  1.00  0.00     0.029 A 
ATOM     59  N   UNL A   1      41.525  29.409  32.597  1.00  0.00    -0.354 N 
ATOM     60  N   UNL A   1      41.077  31.203  34.881  1.00  0.00    -0.248 NA
ATOM     61  C   UNL A   1      41.606  31.897  37.047  1.00  0.00     0.031 C 
ATOM     62  C   UNL A   1      43.250  28.014  32.676  1.00  0.00     0.029 A 
ATOM     63  C   UNL A   1      42.592  29.009  33.383  1.00  0.00     0.049 A 
ATOM     64  H   UNL A   1      40.873  30.104  32.843  1.00  0.00     0.167 HD
ATOM     65  C   UNL A   1      42.200  30.511  35.318  1.00  0.00     0.074 A 
ATOM     66  C   UNL A   1      42.505  31.008  36.644  1.00  0.00     0.031 C 
ATOM     67  C   UNL A   1      42.909  29.544  34.683  1.00  0.00     0.034 A 
BRANCH  54  68
ATOM     68  C   UNL A   1      40.592  27.922  29.178  1.00  0.00     0.023 A 
ATOM     69  C   UNL A   1      39.749  26.793  29.107  1.00  0.00     0.012 A 
ATOM     70  C   UNL A   1      41.468  28.193  28.109  1.00  0.00     0.148 A 
ATOM     71  C   UNL A   1      39.812  25.922  28.020  1.00  0.00     0.002 A 
ATOM     72  C   UNL A   1      41.491  27.347  27.005  1.00  0.00     0.091 A 
ATOM     73  F   UNL A   1      42.279  29.257  28.199  1.00  0.00    -0.205 F 
ATOM     74  C   UNL A   1      40.674  26.204  26.966  1.00  0.00     0.022 A 
BRANCH  72  75
ATOM     75  S   UNL A   1      42.509  27.669  25.560  1.00  0.00     0.127 S 
ATOM     76  O   UNL A   1      41.954  28.934  25.084  1.00  0.00    -0.237 OA
ATOM     77  O   UNL A   1      43.848  27.768  26.141  1.00  0.00    -0.237 OA
ATOM     78  O   UNL A   1      42.317  26.526  24.676  1.00  0.00    -0.744 OA
ENDBRANCH  72  75
ENDBRANCH  54  68
BRANCH  55  79
ATOM     79  C   UNL A   1      39.472  33.917  37.101  1.00  0.00     0.023 A 
ATOM     80  C   UNL A   1      39.867  35.266  37.024  1.00  0.00     0.012 A 
ATOM     81  C   UNL A   1      38.872  33.441  38.283  1.00  0.00     0.148 A 
ATOM     82  C   UNL A   1      39.691  36.121  38.111  1.00  0.00     0.002 A 
ATOM     83  C   UNL A   1      38.651  34.313  39.343  1.00  0.00     0.091 A 
ATOM     84  F   UNL A   1      38.509  32.152  38.336  1.00  0.00    -0.205 F 
ATOM     85  C   UNL A   1      39.074  35.648  39.267  1.00  0.00     0.022 A 
BRANCH  83  86
ATOM     86  S   UNL A   1      37.745  33.828  40.818  1.00  0.00     0.127 S 
ATOM     87  O   UNL A   1      36.579  33.160  40.247  1.00  0.00    -0.237 OA
ATOM     88  O   UNL A   1      38.703  32.942  41.479  1.00  0.00    -0.237 OA
ATOM     89  O   UNL A   1      37.473  35.065  41.539  1.00  0.00    -0.744 OA
ENDBRANCH  83  86
ENDBRANCH  55  79
BRANCH  67  90
ATOM     90  C   UNL A   1      44.109  28.977  35.397  1.00  0.00     0.023 A 
ATOM     91  C   UNL A   1      45.365  29.600  35.265  1.00  0.00     0.012 A 
ATOM     92  C   UNL A   1      43.974  27.868  36.255  1.00  0.00     0.148 A 
ATOM     93  C   UNL A   1      46.476  29.108  35.951  1.00  0.00     0.002 A 
ATOM     94  C   UNL A   1      45.073  27.415  36.976  1.00  0.00     0.091 A 
ATOM     95  F   UNL A   1      42.774  27.276  36.353  1.00  0.00    -0.205 F 
ATOM     96  C   UNL A   1      46.327  28.026  36.814  1.00  0.00     0.022 A 
BRANCH  94  97
ATOM     97  S   UNL A   1      44.954  26.092  38.184  1.00  0.00     0.127 S 
ATOM     98  O   UNL A   1      43.957  26.623  39.111  1.00  0.00    -0.237 OA
ATOM     99  O   UNL A   1      44.492  24.968  37.369  1.00  0.00    -0.237 OA
ATOM    100  O   UNL A   1      46.294  25.929  38.735  1.00  0.00    -0.744 OA
ENDBRANCH  94  97
ENDBRANCH  67  90
ENDBRANCH  41  42
ENDBRANCH  33  36
ENDBRANCH  31  32
ENDBRANCH  30  31
ENDBRANCH   1  30
TORSDOF 18
ENDMDL
MODEL 2
REMARK VINA RESULT:     -12.6      6.178     11.575
REMARK SMILES C[C@@]12CCC[C@](C)(C(=O)NCCCCCCNC(=O)c3ccc(-c4c5nc(c(-c6cccc(S(=O)(=O)[O-])c6F)c6ccc([nH]6)c(-c6cccc(S(=O)(=O)[O-])c6F)c6nc(c(-c7cccc(S(=O)(=O)[O-])c7F)c7ccc4[nH]7)C=C6)C=C5)cc3)[C@H]1CC[C@@]13C=C(CO)[C@@H](CC[C@@H]12)C3
REMARK SMILES IDX 14 1 13 2 12 3 11 4 10 5 8 6 9 7 6 9 1 10 2 11 3 12 83 13
REMARK SMILES IDX 94 14 4 15 84 16 86 17 93 18 5 19 7 20 85 21 87 22 95 23
REMARK SMILES IDX 92 24 88 25 91 26 89 27 90 28 15 30 16 31 17 32 18 33 19 35
REMARK SMILES IDX 20 36 21 37 82 38 22 39 81 40 23 41 24 42 25 43 75 44 26 45
REMARK SMILES IDX 80 46 74 47 76 48 27 49 79 50 73 51 72 52 28 54 60 55 40 56
REMARK SMILES IDX 59 57 41 58 44 59 58 60 77 61 42 62 43 63 57 65 78 66 45 67
REMARK SMILES IDX 29 68 30 69 38 70 31 71 33 72 39 73 32 74 34 75 35 76 36 77
REMARK SMILES IDX 37 78 61 79 62 80 70 81 63 82 65 83 71 84 64 85 66 86 67 87
REMARK SMILES IDX 68 88 69 89 46 90 47 91 55 92 48 93 50 94 56 95 49 96 51 97
REMARK SMILES IDX 52 98 53 99 54 100
REMARK H PARENT 10 8 90 29 17 34 76 53 44 64
REMARK Flexibility Score: inf
ROOT
ATOM      1  C   UNL A   1      36.756  20.357  24.786  1.00  0.00     0.002 C 
ENDROOT
BRANCH   1   2
ATOM      2  C   UNL A   1      37.031  21.811  24.399  1.00  0.00     0.002 C 
BRANCH   2   3
ATOM      3  C   UNL A   1      36.191  22.818  25.173  1.00  0.00     0.021 C 
BRANCH   3   4
ATOM      4  C   UNL A   1      34.701  22.483  25.153  1.00  0.00     0.116 C 
BRANCH   4   5
ATOM      5  N   UNL A   1      34.221  22.455  23.781  1.00  0.00    -0.356 N 
ATOM      6  C   UNL A   1      33.024  22.789  23.216  1.00  0.00     0.226 C 
ATOM      7  O   UNL A   1      32.877  22.469  22.033  1.00  0.00    -0.274 OA
ATOM      8  H   UNL A   1      34.888  22.132  23.133  1.00  0.00     0.163 HD
BRANCH   6   9
ATOM      9  C   UNL A   1      31.950  23.608  23.981  1.00  0.00     0.050 C 
ATOM     10  C   UNL A   1      30.071  26.038  24.310  1.00  0.00     0.012 C 
ATOM     11  C   UNL A   1      31.357  25.876  25.198  1.00  0.00    -0.025 C 
ATOM     12  C   UNL A   1      31.021  25.073  26.478  1.00  0.00     0.007 C 
ATOM     13  C   UNL A   1      32.446  25.080  24.414  1.00  0.00     0.010 C 
ATOM     14  C   UNL A   1      31.766  27.339  25.589  1.00  0.00     0.005 C 
ATOM     15  C   UNL A   1      30.671  23.606  26.242  1.00  0.00     0.002 C 
ATOM     16  C   UNL A   1      33.155  25.961  23.374  1.00  0.00     0.006 C 
ATOM     17  C   UNL A   1      32.619  28.148  24.526  1.00  0.00    -0.008 C 
ATOM     18  C   UNL A   1      32.165  27.827  26.977  1.00  0.00     0.006 C 
ATOM     19  C   UNL A   1      31.688  22.886  25.352  1.00  0.00     0.017 C 
ATOM     20  C   UNL A   1      30.634  23.371  23.179  1.00  0.00     0.022 C 
ATOM     21  C   UNL A   1      33.697  27.288  23.904  1.00  0.00     0.012 C 
ATOM     22  C   UNL A   1      31.586  28.808  23.661  1.00  0.00    -0.018 C 
ATOM     23  C   UNL A   1      33.204  29.473  25.092  1.00  0.00     0.019 C 
ATOM     24  C   UNL A   1      31.703  29.336  27.011  1.00  0.00     0.008 C 
ATOM     25  C   UNL A   1      31.033  29.790  24.409  1.00  0.00    -0.045 C 
ATOM     26  C   UNL A   1      31.918  30.091  25.645  1.00  0.00     0.018 C 
BRANCH  25  27
ATOM     27  C   UNL A   1      29.719  30.425  24.113  1.00  0.00     0.187 C 
BRANCH  27  28
ATOM     28  O   UNL A   1      29.845  31.839  24.261  1.00  0.00    -0.392 OA
ATOM     29  H   UNL A   1      29.657  32.086  25.180  1.00  0.00     0.211 HD
ENDBRANCH  27  28
ENDBRANCH  25  27
ENDBRANCH   6   9
ENDBRANCH   4   5
ENDBRANCH   3   4
ENDBRANCH   2   3
ENDBRANCH   1   2
BRANCH   1  30
ATOM     30  C   UNL A   1      38.007  19.493  24.989  1.00  0.00     0.021 C 
BRANCH  30  31
ATOM     31  C   UNL A   1      39.021  20.064  25.975  1.00  0.00     0.116 C 
BRANCH  31  32
ATOM     32  N   UNL A   1      40.200  19.217  26.079  1.00  0.00    -0.352 N 
ATOM     33  C   UNL A   1      41.521  19.576  26.159  1.00  0.00     0.251 C 
ATOM     34  H   UNL A   1      40.025  18.249  26.093  1.00  0.00     0.163 HD
ATOM     35  O   UNL A   1      42.399  18.742  25.974  1.00  0.00    -0.269 OA
BRANCH  33  36
ATOM     36  C   UNL A   1      41.872  20.977  26.466  1.00  0.00     0.039 A 
ATOM     37  C   UNL A   1      42.189  21.326  27.779  1.00  0.00     0.014 A 
ATOM     38  C   UNL A   1      41.876  21.940  25.452  1.00  0.00     0.014 A 
ATOM     39  C   UNL A   1      42.557  22.641  28.069  1.00  0.00     0.010 A 
ATOM     40  C   UNL A   1      42.316  23.229  25.730  1.00  0.00     0.010 A 
ATOM     41  C   UNL A   1      42.647  23.596  27.042  1.00  0.00    -0.014 A 
BRANCH  41  42
ATOM     42  C   UNL A   1      43.083  24.986  27.322  1.00  0.00     0.031 A 
ATOM     43  C   UNL A   1      42.139  25.957  27.974  1.00  0.00     0.074 A 
ATOM     44  C   UNL A   1      44.300  25.394  26.911  1.00  0.00     0.049 A 
ATOM     45  N   UNL A   1      42.325  27.221  28.259  1.00  0.00    -0.248 NA
ATOM     46  C   UNL A   1      40.801  25.453  28.326  1.00  0.00     0.031 C 
ATOM     47  C   UNL A   1      45.273  24.563  26.200  1.00  0.00     0.029 A 
ATOM     48  N   UNL A   1      44.915  26.616  27.013  1.00  0.00    -0.354 N 
ATOM     49  C   UNL A   1      41.121  27.669  28.790  1.00  0.00     0.074 A 
ATOM     50  C   UNL A   1      40.200  26.555  28.747  1.00  0.00     0.031 C 
ATOM     51  C   UNL A   1      46.368  25.296  25.940  1.00  0.00     0.029 A 
ATOM     52  C   UNL A   1      46.162  26.653  26.438  1.00  0.00     0.049 A 
ATOM     53  H   UNL A   1      44.502  27.391  27.457  1.00  0.00     0.167 HD
ATOM     54  C   UNL A   1      40.817  28.888  29.295  1.00  0.00     0.034 A 
ATOM     55  C   UNL A   1      47.041  27.667  26.322  1.00  0.00     0.034 A 
ATOM     56  C   UNL A   1      41.749  29.982  29.363  1.00  0.00     0.049 A 
ATOM     57  C   UNL A   1      46.693  29.005  26.914  1.00  0.00     0.074 A 
ATOM     58  C   UNL A   1      41.572  31.230  29.935  1.00  0.00     0.029 A 
ATOM     59  N   UNL A   1      43.031  29.963  28.834  1.00  0.00    -0.354 N 
ATOM     60  N   UNL A   1      45.609  29.367  27.555  1.00  0.00    -0.248 NA
ATOM     61  C   UNL A   1      47.706  30.064  26.801  1.00  0.00     0.031 C 
ATOM     62  C   UNL A   1      42.737  31.975  29.723  1.00  0.00     0.029 A 
ATOM     63  C   UNL A   1      43.652  31.181  29.050  1.00  0.00     0.049 A 
ATOM     64  H   UNL A   1      43.439  29.196  28.371  1.00  0.00     0.167 HD
ATOM     65  C   UNL A   1      45.820  30.682  27.953  1.00  0.00     0.074 A 
ATOM     66  C   UNL A   1      47.146  31.046  27.496  1.00  0.00     0.031 C 
ATOM     67  C   UNL A   1      44.989  31.515  28.626  1.00  0.00     0.034 A 
BRANCH  54  68
ATOM     68  C   UNL A   1      39.430  29.084  29.851  1.00  0.00     0.023 A 
ATOM     69  C   UNL A   1      39.135  28.648  31.161  1.00  0.00     0.012 A 
ATOM     70  C   UNL A   1      38.426  29.720  29.096  1.00  0.00     0.148 A 
ATOM     71  C   UNL A   1      37.853  28.795  31.690  1.00  0.00     0.002 A 
ATOM     72  C   UNL A   1      37.164  29.908  29.648  1.00  0.00     0.091 A 
ATOM     73  F   UNL A   1      38.714  30.110  27.846  1.00  0.00    -0.205 F 
ATOM     74  C   UNL A   1      36.872  29.434  30.938  1.00  0.00     0.022 A 
BRANCH  72  75
ATOM     75  S   UNL A   1      35.855  30.791  28.791  1.00  0.00     0.127 S 
ATOM     76  O   UNL A   1      35.157  29.700  28.114  1.00  0.00    -0.237 OA
ATOM     77  O   UNL A   1      35.114  31.397  29.897  1.00  0.00    -0.237 OA
ATOM     78  O   UNL A   1      36.526  31.746  27.917  1.00  0.00    -0.744 OA
ENDBRANCH  72  75
ENDBRANCH  54  68
BRANCH  55  79
ATOM     79  C   UNL A   1      48.366  27.427  25.684  1.00  0.00     0.023 A 
ATOM     80  C   UNL A   1      49.448  27.006  26.481  1.00  0.00     0.012 A 
ATOM     81  C   UNL A   1      48.548  27.564  24.294  1.00  0.00     0.148 A 
ATOM     82  C   UNL A   1      50.694  26.749  25.910  1.00  0.00     0.002 A 
ATOM     83  C   UNL A   1      49.777  27.254  23.724  1.00  0.00     0.091 A 
ATOM     84  F   UNL A   1      47.506  27.971  23.555  1.00  0.00    -0.205 F 
ATOM     85  C   UNL A   1      50.856  26.863  24.531  1.00  0.00     0.022 A 
BRANCH  83  86
ATOM     86  S   UNL A   1      50.044  27.243  21.947  1.00  0.00     0.127 S 
ATOM     87  O   UNL A   1      48.998  26.329  21.494  1.00  0.00    -0.237 OA
ATOM     88  O   UNL A   1      49.827  28.649  21.604  1.00  0.00    -0.237 OA
ATOM     89  O   UNL A   1      51.412  26.780  21.755  1.00  0.00    -0.744 OA
ENDBRANCH  83  86
ENDBRANCH  55  79
BRANCH  67  90
ATOM     90  C   UNL A   1      45.495  32.899  28.944  1.00  0.00     0.023 A 
ATOM     91  C   UNL A   1      46.352  33.099  30.044  1.00  0.00     0.012 A 
ATOM     92  C   UNL A   1      45.178  33.987  28.107  1.00  0.00     0.148 A 
ATOM     93  C   UNL A   1      46.858  34.368  30.326  1.00  0.00     0.002 A 
ATOM     94  C   UNL A   1      45.728  35.238  28.363  1.00  0.00     0.091 A 
ATOM     95  F   UNL A   1      44.346  33.780  27.075  1.00  0.00    -0.205 F 
ATOM     96  C   UNL A   1      46.558  35.432  29.479  1.00  0.00     0.022 A 
BRANCH  94  97
ATOM     97  S   UNL A   1      45.477  36.643  27.273  1.00  0.00     0.127 S 
ATOM     98  O   UNL A   1      45.870  37.759  28.130  1.00  0.00    -0.237 OA
ATOM     99  O   UNL A   1      46.406  36.356  26.179  1.00  0.00    -0.237 OA
ATOM    100  O   UNL A   1      44.069  36.611  26.895  1.00  0.00    -0.744 OA
ENDBRANCH  94  97
ENDBRANCH  67  90
ENDBRANCH  41  42
ENDBRANCH  33  36
ENDBRANCH  31  32
ENDBRANCH  30  31
ENDBRANCH   1  30
TORSDOF 18
ENDMDL
MODEL 3
REMARK VINA RESULT:     -12.4      6.259     10.079
REMARK SMILES C[C@@]12CCC[C@](C)(C(=O)NCCCCCCNC(=O)c3ccc(-c4c5nc(c(-c6cccc(S(=O)(=O)[O-])c6F)c6ccc([nH]6)c(-c6cccc(S(=O)(=O)[O-])c6F)c6nc(c(-c7cccc(S(=O)(=O)[O-])c7F)c7ccc4[nH]7)C=C6)C=C5)cc3)[C@H]1CC[C@@]13C=C(CO)[C@@H](CC[C@@H]12)C3
REMARK SMILES IDX 14 1 13 2 12 3 11 4 10 5 8 6 9 7 6 9 1 10 2 11 3 12 83 13
REMARK SMILES IDX 94 14 4 15 84 16 86 17 93 18 5 19 7 20 85 21 87 22 95 23
REMARK SMILES IDX 92 24 88 25 91 26 89 27 90 28 15 30 16 31 17 32 18 33 19 35
REMARK SMILES IDX 20 36 21 37 82 38 22 39 81 40 23 41 24 42 25 43 75 44 26 45
REMARK SMILES IDX 80 46 74 47 76 48 27 49 79 50 73 51 72 52 28 54 60 55 40 56
REMARK SMILES IDX 59 57 41 58 44 59 58 60 77 61 42 62 43 63 57 65 78 66 45 67
REMARK SMILES IDX 29 68 30 69 38 70 31 71 33 72 39 73 32 74 34 75 35 76 36 77
REMARK SMILES IDX 37 78 61 79 62 80 70 81 63 82 65 83 71 84 64 85 66 86 67 87
REMARK SMILES IDX 68 88 69 89 46 90 47 91 55 92 48 93 50 94 56 95 49 96 51 97
REMARK SMILES IDX 52 98 53 99 54 100
REMARK H PARENT 10 8 90 29 17 34 76 53 44 64
REMARK Flexibility Score: inf
ROOT
ATOM      1  C   UNL A   1      37.167  20.653  24.546  1.00  0.00     0.002 C 
ENDROOT
BRANCH   1   2
ATOM      2  C   UNL A   1      35.740  20.413  25.041  1.00  0.00     0.002 C 
BRANCH   2   3
ATOM      3  C   UNL A   1      35.185  21.554  25.883  1.00  0.00     0.021 C 
BRANCH   3   4
ATOM      4  C   UNL A   1      34.944  22.824  25.070  1.00  0.00     0.116 C 
BRANCH   4   5
ATOM      5  N   UNL A   1      34.323  22.485  23.800  1.00  0.00    -0.356 N 
ATOM      6  C   UNL A   1      33.042  22.597  23.341  1.00  0.00     0.226 C 
ATOM      7  O   UNL A   1      32.802  22.039  22.267  1.00  0.00    -0.274 OA
ATOM      8  H   UNL A   1      34.946  22.099  23.143  1.00  0.00     0.163 HD
BRANCH   6   9
ATOM      9  C   UNL A   1      31.976  23.456  24.072  1.00  0.00     0.050 C 
ATOM     10  C   UNL A   1      30.105  25.905  24.293  1.00  0.00     0.012 C 
ATOM     11  C   UNL A   1      31.397  25.783  25.179  1.00  0.00    -0.025 C 
ATOM     12  C   UNL A   1      31.068  25.045  26.500  1.00  0.00     0.007 C 
ATOM     13  C   UNL A   1      32.478  24.947  24.428  1.00  0.00     0.010 C 
ATOM     14  C   UNL A   1      31.813  27.262  25.495  1.00  0.00     0.005 C 
ATOM     15  C   UNL A   1      30.713  23.569  26.339  1.00  0.00     0.002 C 
ATOM     16  C   UNL A   1      33.182  25.772  23.341  1.00  0.00     0.006 C 
ATOM     17  C   UNL A   1      32.661  28.015  24.388  1.00  0.00    -0.008 C 
ATOM     18  C   UNL A   1      32.223  27.817  26.855  1.00  0.00     0.006 C 
ATOM     19  C   UNL A   1      31.722  22.803  25.479  1.00  0.00     0.017 C 
ATOM     20  C   UNL A   1      30.654  23.183  23.291  1.00  0.00     0.022 C 
ATOM     21  C   UNL A   1      33.732  27.123  23.802  1.00  0.00     0.012 C 
ATOM     22  C   UNL A   1      31.623  28.635  23.498  1.00  0.00    -0.018 C 
ATOM     23  C   UNL A   1      33.253  29.365  24.883  1.00  0.00     0.019 C 
ATOM     24  C   UNL A   1      31.765  29.327  26.817  1.00  0.00     0.008 C 
ATOM     25  C   UNL A   1      31.078  29.655  24.200  1.00  0.00    -0.045 C 
ATOM     26  C   UNL A   1      31.973  30.014  25.414  1.00  0.00     0.018 C 
BRANCH  25  27
ATOM     27  C   UNL A   1      29.764  30.278  23.882  1.00  0.00     0.187 C 
BRANCH  27  28
ATOM     28  O   UNL A   1      29.808  31.659  24.242  1.00  0.00    -0.392 OA
ATOM     29  H   UNL A   1      29.035  32.114  23.872  1.00  0.00     0.211 HD
ENDBRANCH  27  28
ENDBRANCH  25  27
ENDBRANCH   6   9
ENDBRANCH   4   5
ENDBRANCH   3   4
ENDBRANCH   2   3
ENDBRANCH   1   2
BRANCH   1  30
ATOM     30  C   UNL A   1      38.195  19.613  25.004  1.00  0.00     0.021 C 
BRANCH  30  31
ATOM     31  C   UNL A   1      39.230  20.135  25.995  1.00  0.00     0.116 C 
BRANCH  31  32
ATOM     32  N   UNL A   1      40.381  19.249  26.083  1.00  0.00    -0.352 N 
ATOM     33  C   UNL A   1      41.714  19.563  26.153  1.00  0.00     0.251 C 
ATOM     34  H   UNL A   1      40.173  18.288  26.095  1.00  0.00     0.163 HD
ATOM     35  O   UNL A   1      42.562  18.701  25.956  1.00  0.00    -0.269 OA
BRANCH  33  36
ATOM     36  C   UNL A   1      42.115  20.949  26.463  1.00  0.00     0.039 A 
ATOM     37  C   UNL A   1      42.307  21.852  25.418  1.00  0.00     0.014 A 
ATOM     38  C   UNL A   1      42.309  21.344  27.790  1.00  0.00     0.014 A 
ATOM     39  C   UNL A   1      42.651  23.174  25.707  1.00  0.00     0.010 A 
ATOM     40  C   UNL A   1      42.576  22.678  28.079  1.00  0.00     0.010 A 
ATOM     41  C   UNL A   1      42.764  23.602  27.041  1.00  0.00    -0.014 A 
BRANCH  41  42
ATOM     42  C   UNL A   1      43.081  25.013  27.370  1.00  0.00     0.031 A 
ATOM     43  C   UNL A   1      44.486  25.527  27.220  1.00  0.00     0.074 A 
ATOM     44  C   UNL A   1      42.120  25.805  27.884  1.00  0.00     0.049 A 
ATOM     45  N   UNL A   1      44.963  26.713  27.498  1.00  0.00    -0.248 NA
ATOM     46  C   UNL A   1      45.494  24.576  26.722  1.00  0.00     0.031 C 
ATOM     47  C   UNL A   1      40.740  25.396  28.147  1.00  0.00     0.029 A 
ATOM     48  N   UNL A   1      42.165  27.112  28.298  1.00  0.00    -0.354 N 
ATOM     49  C   UNL A   1      46.327  26.642  27.241  1.00  0.00     0.074 A 
ATOM     50  C   UNL A   1      46.608  25.284  26.827  1.00  0.00     0.031 C 
ATOM     51  C   UNL A   1      40.065  26.435  28.666  1.00  0.00     0.029 A 
ATOM     52  C   UNL A   1      40.972  27.571  28.801  1.00  0.00     0.049 A 
ATOM     53  H   UNL A   1      42.976  27.668  28.239  1.00  0.00     0.167 HD
ATOM     54  C   UNL A   1      47.258  27.623  27.312  1.00  0.00     0.034 A 
ATOM     55  C   UNL A   1      40.645  28.772  29.317  1.00  0.00     0.034 A 
ATOM     56  C   UNL A   1      46.964  28.979  27.694  1.00  0.00     0.049 A 
ATOM     57  C   UNL A   1      41.687  29.855  29.361  1.00  0.00     0.074 A 
ATOM     58  C   UNL A   1      47.814  30.070  27.714  1.00  0.00     0.029 A 
ATOM     59  N   UNL A   1      45.727  29.427  28.131  1.00  0.00    -0.354 N 
ATOM     60  N   UNL A   1      42.936  29.816  28.965  1.00  0.00    -0.248 NA
ATOM     61  C   UNL A   1      41.266  31.160  29.890  1.00  0.00     0.031 C 
ATOM     62  C   UNL A   1      47.097  31.172  28.195  1.00  0.00     0.029 A 
ATOM     63  C   UNL A   1      45.792  30.775  28.440  1.00  0.00     0.049 A 
ATOM     64  H   UNL A   1      44.920  28.868  28.211  1.00  0.00     0.167 HD
ATOM     65  C   UNL A   1      43.440  31.095  29.162  1.00  0.00     0.074 A 
ATOM     66  C   UNL A   1      42.355  31.892  29.696  1.00  0.00     0.031 C 
ATOM     67  C   UNL A   1      44.691  31.566  28.930  1.00  0.00     0.034 A 
BRANCH  54  68
ATOM     68  C   UNL A   1      48.672  27.269  26.929  1.00  0.00     0.023 A 
ATOM     69  C   UNL A   1      49.515  26.643  27.872  1.00  0.00     0.012 A 
ATOM     70  C   UNL A   1      49.162  27.528  25.635  1.00  0.00     0.148 A 
ATOM     71  C   UNL A   1      50.834  26.327  27.551  1.00  0.00     0.002 A 
ATOM     72  C   UNL A   1      50.464  27.166  25.306  1.00  0.00     0.091 A 
ATOM     73  F   UNL A   1      48.357  28.143  24.756  1.00  0.00    -0.205 F 
ATOM     74  C   UNL A   1      51.305  26.579  26.266  1.00  0.00     0.022 A 
BRANCH  72  75
ATOM     75  S   UNL A   1      51.137  27.375  23.653  1.00  0.00     0.127 S 
ATOM     76  O   UNL A   1      50.124  26.713  22.835  1.00  0.00    -0.237 OA
ATOM     77  O   UNL A   1      51.178  28.830  23.517  1.00  0.00    -0.237 OA
ATOM     78  O   UNL A   1      52.446  26.733  23.674  1.00  0.00    -0.744 OA
ENDBRANCH  72  75
ENDBRANCH  54  68
BRANCH  55  79
ATOM     79  C   UNL A   1      39.244  29.030  29.756  1.00  0.00     0.023 A 
ATOM     80  C   UNL A   1      38.858  28.682  31.064  1.00  0.00     0.012 A 
ATOM     81  C   UNL A   1      38.313  29.660  28.908  1.00  0.00     0.148 A 
ATOM     82  C   UNL A   1      37.562  28.933  31.514  1.00  0.00     0.002 A 
ATOM     83  C   UNL A   1      37.040  29.957  29.380  1.00  0.00     0.091 A 
ATOM     84  F   UNL A   1      38.700  29.978  27.664  1.00  0.00    -0.205 F 
ATOM     85  C   UNL A   1      36.656  29.580  30.676  1.00  0.00     0.022 A 
BRANCH  83  86
ATOM     86  S   UNL A   1      35.850  30.903  28.421  1.00  0.00     0.127 S 
ATOM     87  O   UNL A   1      36.650  32.050  28.001  1.00  0.00    -0.237 OA
ATOM     88  O   UNL A   1      35.510  29.962  27.354  1.00  0.00    -0.237 OA
ATOM     89  O   UNL A   1      34.754  31.201  29.334  1.00  0.00    -0.744 OA
ENDBRANCH  83  86
ENDBRANCH  55  79
BRANCH  67  90
ATOM     90  C   UNL A   1      44.954  33.021  29.221  1.00  0.00     0.023 A 
ATOM     91  C   UNL A   1      45.448  33.409  30.482  1.00  0.00     0.012 A 
ATOM     92  C   UNL A   1      44.780  33.994  28.217  1.00  0.00     0.148 A 
ATOM     93  C   UNL A   1      45.732  34.748  30.750  1.00  0.00     0.002 A 
ATOM     94  C   UNL A   1      45.115  35.319  28.475  1.00  0.00     0.091 A 
ATOM     95  F   UNL A   1      44.292  33.608  27.029  1.00  0.00    -0.205 F 
ATOM     96  C   UNL A   1      45.578  35.698  29.744  1.00  0.00     0.022 A 
BRANCH  94  97
ATOM     97  S   UNL A   1      45.043  36.594  27.212  1.00  0.00     0.127 S 
ATOM     98  O   UNL A   1      45.693  37.717  27.885  1.00  0.00    -0.237 OA
ATOM     99  O   UNL A   1      45.824  35.999  26.126  1.00  0.00    -0.237 OA
ATOM    100  O   UNL A   1      43.630  36.781  26.909  1.00  0.00    -0.744 OA
ENDBRANCH  94  97
ENDBRANCH  67  90
ENDBRANCH  41  42
ENDBRANCH  33  36
ENDBRANCH  31  32
ENDBRANCH  30  31
ENDBRANCH   1  30
TORSDOF 18
ENDMDL
