MODEL 1
REMARK VINA RESULT:     -11.8      0.000      0.000
REMARK SMILES CCc1nn(-c2ccncn2)c(Cl)c1C(=O)NCCCCCCNC(=O)c1ccc(-c2c3nc(c(-c4cccc(S(=O)(=O)[O-])c4F)c4ccc([nH]4)c(-c4cccc(S(=O)(=O)[O-])c4F)c4nc(c(-c5cccc(S(=O)(=O)[O-])c5F)c5ccc2[nH]5)C=C4)C=C3)cc1
REMARK SMILES IDX 21 1 20 2 19 3 18 4 17 5 15 6 16 7 14 9 3 10 4 11 5 12 12 13
REMARK SMILES IDX 13 14 2 15 1 16 6 17 7 18 11 19 8 20 10 21 9 22 22 23 23 24
REMARK SMILES IDX 24 25 25 26 26 28 27 29 28 30 89 31 29 32 88 33 30 34 31 35
REMARK SMILES IDX 32 36 82 37 33 38 87 39 81 40 83 41 34 42 86 43 80 44 79 45
REMARK SMILES IDX 35 47 67 48 47 49 66 50 48 51 51 52 65 53 84 54 49 55 50 56
REMARK SMILES IDX 64 58 85 59 52 60 36 61 37 62 45 63 38 64 40 65 46 66 39 67
REMARK SMILES IDX 41 68 42 69 43 70 44 71 68 72 69 73 77 74 70 75 72 76 78 77
REMARK SMILES IDX 71 78 73 79 74 80 75 81 76 82 53 83 54 84 62 85 55 86 57 87
REMARK SMILES IDX 63 88 56 89 58 90 59 91 60 92 61 93
REMARK H PARENT 17 8 24 27 83 46 51 57
REMARK Flexibility Score: inf
ROOT
ATOM      1  C   UNL A   1      31.503  30.344  25.539  1.00  0.00     0.002 C 
ENDROOT
BRANCH   1   2
ATOM      2  C   UNL A   1      30.648  29.908  24.340  1.00  0.00     0.002 C 
BRANCH   2   3
ATOM      3  C   UNL A   1      31.401  29.193  23.214  1.00  0.00     0.021 C 
BRANCH   3   4
ATOM      4  C   UNL A   1      30.891  27.781  22.918  1.00  0.00     0.116 C 
BRANCH   4   5
ATOM      5  N   UNL A   1      31.732  27.133  21.947  1.00  0.00    -0.352 N 
ATOM      6  C   UNL A   1      32.757  26.234  21.973  1.00  0.00     0.256 C 
ATOM      7  O   UNL A   1      33.241  26.057  20.848  1.00  0.00    -0.269 OA
ATOM      8  H   UNL A   1      31.510  27.409  21.028  1.00  0.00     0.163 HD
BRANCH   6   9
ATOM      9  C   UNL A   1      33.233  25.460  23.126  1.00  0.00     0.100 A 
ATOM     10  C   UNL A   1      33.579  25.681  24.510  1.00  0.00     0.077 A 
ATOM     11  N   UNL A   1      33.792  24.527  25.165  1.00  0.00    -0.169 NA
ATOM     12  N   UNL A   1      33.928  23.600  24.198  1.00  0.00    -0.203 N 
ATOM     13  C   UNL A   1      33.512  24.103  22.993  1.00  0.00     0.147 A 
ATOM     14  Cl  UNL A   1      33.288  23.022  21.671  1.00  0.00    -0.061 Cl
BRANCH  10  15
ATOM     15  C   UNL A   1      33.745  26.907  25.358  1.00  0.00     0.056 C 
ATOM     16  C   UNL A   1      32.648  27.085  26.394  1.00  0.00     0.011 C 
ENDBRANCH  10  15
BRANCH  12  17
ATOM     17  C   UNL A   1      34.453  22.311  24.498  1.00  0.00     0.158 A 
ATOM     18  C   UNL A   1      35.818  22.178  24.677  1.00  0.00     0.069 A 
ATOM     19  N   UNL A   1      33.592  21.269  24.596  1.00  0.00    -0.217 NA
ATOM     20  C   UNL A   1      36.268  20.903  24.924  1.00  0.00     0.117 A 
ATOM     21  C   UNL A   1      34.151  20.073  24.815  1.00  0.00     0.224 A 
ATOM     22  N   UNL A   1      35.462  19.826  24.972  1.00  0.00    -0.245 NA
ENDBRANCH  12  17
ENDBRANCH   6   9
ENDBRANCH   4   5
ENDBRANCH   3   4
ENDBRANCH   2   3
ENDBRANCH   1   2
BRANCH   1  23
ATOM     23  C   UNL A   1      31.183  31.722  26.139  1.00  0.00     0.021 C 
BRANCH  23  24
ATOM     24  C   UNL A   1      32.195  32.169  27.177  1.00  0.00     0.116 C 
BRANCH  24  25
ATOM     25  N   UNL A   1      32.150  33.617  27.405  1.00  0.00    -0.352 N 
ATOM     26  C   UNL A   1      32.924  34.384  28.259  1.00  0.00     0.251 C 
ATOM     27  H   UNL A   1      31.478  34.111  26.882  1.00  0.00     0.163 HD
ATOM     28  O   UNL A   1      32.572  35.504  28.594  1.00  0.00    -0.269 OA
BRANCH  26  29
ATOM     29  C   UNL A   1      34.199  33.823  28.734  1.00  0.00     0.039 A 
ATOM     30  C   UNL A   1      34.356  33.300  30.022  1.00  0.00     0.014 A 
ATOM     31  C   UNL A   1      35.259  33.832  27.836  1.00  0.00     0.014 A 
ATOM     32  C   UNL A   1      35.588  32.753  30.370  1.00  0.00     0.010 A 
ATOM     33  C   UNL A   1      36.367  33.087  28.089  1.00  0.00     0.010 A 
ATOM     34  C   UNL A   1      36.584  32.661  29.389  1.00  0.00    -0.014 A 
BRANCH  34  35
ATOM     35  C   UNL A   1      37.888  32.084  29.649  1.00  0.00     0.031 A 
ATOM     36  C   UNL A   1      38.054  30.710  29.118  1.00  0.00     0.074 A 
ATOM     37  C   UNL A   1      38.913  32.863  30.062  1.00  0.00     0.049 A 
ATOM     38  N   UNL A   1      38.177  29.618  29.795  1.00  0.00    -0.248 NA
ATOM     39  C   UNL A   1      37.885  30.495  27.671  1.00  0.00     0.031 C 
ATOM     40  C   UNL A   1      38.930  34.324  30.254  1.00  0.00     0.029 A 
ATOM     41  N   UNL A   1      40.218  32.536  30.223  1.00  0.00    -0.354 N 
ATOM     42  C   UNL A   1      38.358  28.611  28.848  1.00  0.00     0.074 A 
ATOM     43  C   UNL A   1      37.919  29.163  27.595  1.00  0.00     0.031 C 
ATOM     44  C   UNL A   1      40.206  34.767  30.217  1.00  0.00     0.029 A 
ATOM     45  C   UNL A   1      41.090  33.619  30.175  1.00  0.00     0.049 A 
ATOM     46  H   UNL A   1      40.523  31.611  30.362  1.00  0.00     0.167 HD
ATOM     47  C   UNL A   1      39.114  27.512  29.127  1.00  0.00     0.034 A 
ATOM     48  C   UNL A   1      42.438  33.560  30.033  1.00  0.00     0.034 A 
ATOM     49  C   UNL A   1      39.418  27.442  30.535  1.00  0.00     0.049 A 
ATOM     50  C   UNL A   1      42.846  32.178  30.394  1.00  0.00     0.074 A 
ATOM     51  C   UNL A   1      38.667  27.380  31.692  1.00  0.00     0.029 A 
ATOM     52  N   UNL A   1      40.670  27.865  30.916  1.00  0.00    -0.354 N 
ATOM     53  N   UNL A   1      42.714  31.687  31.596  1.00  0.00    -0.248 NA
ATOM     54  C   UNL A   1      42.931  31.198  29.322  1.00  0.00     0.031 C 
ATOM     55  C   UNL A   1      39.348  28.233  32.610  1.00  0.00     0.029 A 
ATOM     56  C   UNL A   1      40.516  28.694  31.995  1.00  0.00     0.049 A 
ATOM     57  H   UNL A   1      41.523  27.618  30.489  1.00  0.00     0.167 HD
ATOM     58  C   UNL A   1      42.233  30.400  31.389  1.00  0.00     0.074 A 
ATOM     59  C   UNL A   1      42.486  30.120  29.976  1.00  0.00     0.031 C 
ATOM     60  C   UNL A   1      41.395  29.804  32.290  1.00  0.00     0.034 A 
BRANCH  47  61
ATOM     61  C   UNL A   1      39.915  26.708  28.126  1.00  0.00     0.023 A 
ATOM     62  C   UNL A   1      39.813  25.299  28.218  1.00  0.00     0.012 A 
ATOM     63  C   UNL A   1      40.951  27.219  27.312  1.00  0.00     0.148 A 
ATOM     64  C   UNL A   1      40.735  24.450  27.600  1.00  0.00     0.002 A 
ATOM     65  C   UNL A   1      41.823  26.369  26.640  1.00  0.00     0.091 A 
ATOM     66  F   UNL A   1      41.197  28.529  27.277  1.00  0.00    -0.205 F 
ATOM     67  C   UNL A   1      41.742  24.986  26.808  1.00  0.00     0.022 A 
BRANCH  65  68
ATOM     68  S   UNL A   1      43.121  27.006  25.570  1.00  0.00     0.127 S 
ATOM     69  O   UNL A   1      43.668  25.774  25.010  1.00  0.00    -0.237 OA
ATOM     70  O   UNL A   1      42.356  27.830  24.633  1.00  0.00    -0.237 OA
ATOM     71  O   UNL A   1      44.011  27.763  26.441  1.00  0.00    -0.744 OA
ENDBRANCH  65  68
ENDBRANCH  47  61
BRANCH  48  72
ATOM     72  C   UNL A   1      43.353  34.502  29.344  1.00  0.00     0.023 A 
ATOM     73  C   UNL A   1      43.955  35.552  30.065  1.00  0.00     0.012 A 
ATOM     74  C   UNL A   1      43.851  34.214  28.051  1.00  0.00     0.148 A 
ATOM     75  C   UNL A   1      45.032  36.273  29.529  1.00  0.00     0.002 A 
ATOM     76  C   UNL A   1      44.917  34.935  27.521  1.00  0.00     0.091 A 
ATOM     77  F   UNL A   1      43.340  33.172  27.381  1.00  0.00    -0.205 F 
ATOM     78  C   UNL A   1      45.518  35.959  28.261  1.00  0.00     0.022 A 
BRANCH  76  79
ATOM     79  S   UNL A   1      45.615  34.561  25.905  1.00  0.00     0.127 S 
ATOM     80  O   UNL A   1      46.173  33.225  26.116  1.00  0.00    -0.237 OA
ATOM     81  O   UNL A   1      44.434  34.604  25.047  1.00  0.00    -0.237 OA
ATOM     82  O   UNL A   1      46.613  35.593  25.651  1.00  0.00    -0.744 OA
ENDBRANCH  76  79
ENDBRANCH  48  72
BRANCH  60  83
ATOM     83  C   UNL A   1      41.168  30.483  33.619  1.00  0.00     0.023 A 
ATOM     84  C   UNL A   1      42.144  30.507  34.639  1.00  0.00     0.012 A 
ATOM     85  C   UNL A   1      40.031  31.294  33.753  1.00  0.00     0.148 A 
ATOM     86  C   UNL A   1      41.982  31.312  35.769  1.00  0.00     0.002 A 
ATOM     87  C   UNL A   1      39.897  32.131  34.854  1.00  0.00     0.091 A 
ATOM     88  F   UNL A   1      39.115  31.265  32.773  1.00  0.00    -0.205 F 
ATOM     89  C   UNL A   1      40.866  32.136  35.870  1.00  0.00     0.022 A 
BRANCH  87  90
ATOM     90  S   UNL A   1      38.553  33.313  34.967  1.00  0.00     0.127 S 
ATOM     91  O   UNL A   1      38.398  33.732  33.575  1.00  0.00    -0.237 OA
ATOM     92  O   UNL A   1      37.456  32.494  35.485  1.00  0.00    -0.237 OA
ATOM     93  O   UNL A   1      39.005  34.348  35.888  1.00  0.00    -0.744 OA
ENDBRANCH  87  90
ENDBRANCH  60  83
ENDBRANCH  34  35
ENDBRANCH  26  29
ENDBRANCH  24  25
ENDBRANCH  23  24
ENDBRANCH   1  23
TORSDOF 18
ENDMDL
MODEL 2
REMARK VINA RESULT:     -11.8      3.543      7.616
REMARK SMILES CCc1nn(-c2ccncn2)c(Cl)c1C(=O)NCCCCCCNC(=O)c1ccc(-c2c3nc(c(-c4cccc(S(=O)(=O)[O-])c4F)c4ccc([nH]4)c(-c4cccc(S(=O)(=O)[O-])c4F)c4nc(c(-c5cccc(S(=O)(=O)[O-])c5F)c5ccc2[nH]5)C=C4)C=C3)cc1
REMARK SMILES IDX 21 1 20 2 19 3 18 4 17 5 15 6 16 7 14 9 3 10 4 11 5 12 12 13
REMARK SMILES IDX 13 14 2 15 1 16 6 17 7 18 11 19 8 20 10 21 9 22 22 23 23 24
REMARK SMILES IDX 24 25 25 26 26 28 27 29 28 30 89 31 29 32 88 33 30 34 31 35
REMARK SMILES IDX 32 36 82 37 33 38 87 39 81 40 83 41 34 42 86 43 80 44 79 45
REMARK SMILES IDX 35 47 67 48 47 49 66 50 48 51 51 52 65 53 84 54 49 55 50 56
REMARK SMILES IDX 64 58 85 59 52 60 36 61 37 62 45 63 38 64 40 65 46 66 39 67
REMARK SMILES IDX 41 68 42 69 43 70 44 71 68 72 69 73 77 74 70 75 72 76 78 77
REMARK SMILES IDX 71 78 73 79 74 80 75 81 76 82 53 83 54 84 62 85 55 86 57 87
REMARK SMILES IDX 63 88 56 89 58 90 59 91 60 92 61 93
REMARK H PARENT 17 8 24 27 83 46 51 57
REMARK Flexibility Score: inf
ROOT
ATOM      1  C   UNL A   1      33.515  28.448  27.240  1.00  0.00     0.002 C 
ENDROOT
BRANCH   1   2
ATOM      2  C   UNL A   1      34.014  27.799  25.940  1.00  0.00     0.002 C 
BRANCH   2   3
ATOM      3  C   UNL A   1      33.181  26.623  25.423  1.00  0.00     0.021 C 
BRANCH   3   4
ATOM      4  C   UNL A   1      33.662  25.254  25.909  1.00  0.00     0.116 C 
BRANCH   4   5
ATOM      5  N   UNL A   1      34.726  24.766  25.072  1.00  0.00    -0.352 N 
ATOM      6  C   UNL A   1      35.017  23.603  24.423  1.00  0.00     0.256 C 
ATOM      7  O   UNL A   1      36.138  23.636  23.900  1.00  0.00    -0.269 OA
ATOM      8  H   UNL A   1      35.424  25.447  24.933  1.00  0.00     0.163 HD
BRANCH   6   9
ATOM      9  C   UNL A   1      34.137  22.442  24.239  1.00  0.00     0.100 A 
ATOM     10  C   UNL A   1      32.804  22.159  23.762  1.00  0.00     0.077 A 
ATOM     11  N   UNL A   1      32.580  20.837  23.652  1.00  0.00    -0.169 NA
ATOM     12  N   UNL A   1      33.577  20.259  24.347  1.00  0.00    -0.203 N 
ATOM     13  C   UNL A   1      34.560  21.173  24.625  1.00  0.00     0.147 A 
ATOM     14  Cl  UNL A   1      36.075  20.614  25.222  1.00  0.00    -0.061 Cl
BRANCH  10  15
ATOM     15  C   UNL A   1      31.637  23.014  23.367  1.00  0.00     0.056 C 
ATOM     16  C   UNL A   1      30.795  23.476  24.545  1.00  0.00     0.011 C 
ENDBRANCH  10  15
BRANCH  12  17
ATOM     17  C   UNL A   1      33.510  18.881  24.699  1.00  0.00     0.158 A 
ATOM     18  C   UNL A   1      34.356  17.993  24.059  1.00  0.00     0.069 A 
ATOM     19  N   UNL A   1      32.620  18.497  25.646  1.00  0.00    -0.217 NA
ATOM     20  C   UNL A   1      34.216  16.672  24.412  1.00  0.00     0.117 A 
ATOM     21  C   UNL A   1      32.558  17.182  25.886  1.00  0.00     0.224 A 
ATOM     22  N   UNL A   1      33.307  16.233  25.302  1.00  0.00    -0.245 NA
ENDBRANCH  12  17
ENDBRANCH   6   9
ENDBRANCH   4   5
ENDBRANCH   3   4
ENDBRANCH   2   3
ENDBRANCH   1   2
BRANCH   1  23
ATOM     23  C   UNL A   1      33.213  29.953  27.178  1.00  0.00     0.021 C 
BRANCH  23  24
ATOM     24  C   UNL A   1      34.453  30.815  27.331  1.00  0.00     0.116 C 
BRANCH  24  25
ATOM     25  N   UNL A   1      34.332  31.765  28.442  1.00  0.00    -0.352 N 
ATOM     26  C   UNL A   1      35.034  31.796  29.635  1.00  0.00     0.251 C 
ATOM     27  H   UNL A   1      33.661  32.475  28.325  1.00  0.00     0.163 HD
ATOM     28  O   UNL A   1      34.617  32.425  30.594  1.00  0.00    -0.269 OA
BRANCH  26  29
ATOM     29  C   UNL A   1      36.312  31.070  29.709  1.00  0.00     0.039 A 
ATOM     30  C   UNL A   1      36.380  29.674  29.762  1.00  0.00     0.014 A 
ATOM     31  C   UNL A   1      37.468  31.840  29.721  1.00  0.00     0.014 A 
ATOM     32  C   UNL A   1      37.636  29.072  29.790  1.00  0.00     0.010 A 
ATOM     33  C   UNL A   1      38.675  31.254  29.502  1.00  0.00     0.010 A 
ATOM     34  C   UNL A   1      38.772  29.882  29.664  1.00  0.00    -0.014 A 
BRANCH  34  35
ATOM     35  C   UNL A   1      40.118  29.346  29.655  1.00  0.00     0.031 A 
ATOM     36  C   UNL A   1      40.684  29.118  31.007  1.00  0.00     0.074 A 
ATOM     37  C   UNL A   1      40.647  28.837  28.520  1.00  0.00     0.049 A 
ATOM     38  N   UNL A   1      41.658  29.753  31.566  1.00  0.00    -0.248 NA
ATOM     39  C   UNL A   1      39.975  28.201  31.915  1.00  0.00     0.031 C 
ATOM     40  C   UNL A   1      40.003  28.679  27.204  1.00  0.00     0.029 A 
ATOM     41  N   UNL A   1      41.819  28.177  28.348  1.00  0.00    -0.354 N 
ATOM     42  C   UNL A   1      41.844  29.136  32.802  1.00  0.00     0.074 A 
ATOM     43  C   UNL A   1      40.645  28.385  33.054  1.00  0.00     0.031 C 
ATOM     44  C   UNL A   1      40.664  27.742  26.490  1.00  0.00     0.029 A 
ATOM     45  C   UNL A   1      41.859  27.365  27.219  1.00  0.00     0.049 A 
ATOM     46  H   UNL A   1      42.576  28.266  28.970  1.00  0.00     0.167 HD
ATOM     47  C   UNL A   1      43.078  29.071  33.375  1.00  0.00     0.034 A 
ATOM     48  C   UNL A   1      42.778  26.403  26.954  1.00  0.00     0.034 A 
ATOM     49  C   UNL A   1      44.012  29.928  32.686  1.00  0.00     0.049 A 
ATOM     50  C   UNL A   1      43.949  26.679  27.823  1.00  0.00     0.074 A 
ATOM     51  C   UNL A   1      44.070  31.279  32.405  1.00  0.00     0.029 A 
ATOM     52  N   UNL A   1      44.868  29.317  31.798  1.00  0.00    -0.354 N 
ATOM     53  N   UNL A   1      44.689  27.747  27.706  1.00  0.00    -0.248 NA
ATOM     54  C   UNL A   1      43.993  26.026  29.123  1.00  0.00     0.031 C 
ATOM     55  C   UNL A   1      44.560  31.349  31.068  1.00  0.00     0.029 A 
ATOM     56  C   UNL A   1      44.855  30.050  30.642  1.00  0.00     0.049 A 
ATOM     57  H   UNL A   1      45.393  28.501  31.964  1.00  0.00     0.167 HD
ATOM     58  C   UNL A   1      44.907  28.159  29.015  1.00  0.00     0.074 A 
ATOM     59  C   UNL A   1      44.546  27.008  29.842  1.00  0.00     0.031 C 
ATOM     60  C   UNL A   1      45.053  29.482  29.326  1.00  0.00     0.034 A 
BRANCH  47  61
ATOM     61  C   UNL A   1      43.576  27.974  34.291  1.00  0.00     0.023 A 
ATOM     62  C   UNL A   1      44.150  28.384  35.518  1.00  0.00     0.012 A 
ATOM     63  C   UNL A   1      43.771  26.625  33.917  1.00  0.00     0.148 A 
ATOM     64  C   UNL A   1      44.939  27.524  36.288  1.00  0.00     0.002 A 
ATOM     65  C   UNL A   1      44.496  25.753  34.723  1.00  0.00     0.091 A 
ATOM     66  F   UNL A   1      43.376  26.194  32.719  1.00  0.00    -0.205 F 
ATOM     67  C   UNL A   1      45.111  26.206  35.891  1.00  0.00     0.022 A 
BRANCH  65  68
ATOM     68  S   UNL A   1      44.719  24.025  34.277  1.00  0.00     0.127 S 
ATOM     69  O   UNL A   1      43.438  23.452  34.680  1.00  0.00    -0.237 OA
ATOM     70  O   UNL A   1      44.933  24.116  32.832  1.00  0.00    -0.237 OA
ATOM     71  O   UNL A   1      45.885  23.573  35.025  1.00  0.00    -0.744 OA
ENDBRANCH  65  68
ENDBRANCH  47  61
BRANCH  48  72
ATOM     72  C   UNL A   1      42.611  25.118  26.232  1.00  0.00     0.023 A 
ATOM     73  C   UNL A   1      43.523  24.756  25.221  1.00  0.00     0.012 A 
ATOM     74  C   UNL A   1      41.727  24.125  26.714  1.00  0.00     0.148 A 
ATOM     75  C   UNL A   1      43.571  23.445  24.726  1.00  0.00     0.002 A 
ATOM     76  C   UNL A   1      41.775  22.825  26.217  1.00  0.00     0.091 A 
ATOM     77  F   UNL A   1      40.904  24.431  27.727  1.00  0.00    -0.205 F 
ATOM     78  C   UNL A   1      42.704  22.478  25.230  1.00  0.00     0.022 A 
BRANCH  76  79
ATOM     79  S   UNL A   1      40.707  21.520  26.846  1.00  0.00     0.127 S 
ATOM     80  O   UNL A   1      39.423  21.855  26.229  1.00  0.00    -0.237 OA
ATOM     81  O   UNL A   1      41.348  20.321  26.315  1.00  0.00    -0.237 OA
ATOM     82  O   UNL A   1      40.725  21.653  28.298  1.00  0.00    -0.744 OA
ENDBRANCH  76  79
ENDBRANCH  48  72
BRANCH  60  83
ATOM     83  C   UNL A   1      45.186  30.476  28.198  1.00  0.00     0.023 A 
ATOM     84  C   UNL A   1      44.068  31.057  27.560  1.00  0.00     0.012 A 
ATOM     85  C   UNL A   1      46.462  30.990  27.925  1.00  0.00     0.148 A 
ATOM     86  C   UNL A   1      44.224  32.119  26.665  1.00  0.00     0.002 A 
ATOM     87  C   UNL A   1      46.609  32.078  27.073  1.00  0.00     0.091 A 
ATOM     88  F   UNL A   1      47.514  30.430  28.543  1.00  0.00    -0.205 F 
ATOM     89  C   UNL A   1      45.493  32.640  26.433  1.00  0.00     0.022 A 
BRANCH  87  90
ATOM     90  S   UNL A   1      48.199  32.876  26.848  1.00  0.00     0.127 S 
ATOM     91  O   UNL A   1      47.899  33.865  25.814  1.00  0.00    -0.237 OA
ATOM     92  O   UNL A   1      48.460  33.437  28.175  1.00  0.00    -0.237 OA
ATOM     93  O   UNL A   1      49.126  31.822  26.458  1.00  0.00    -0.744 OA
ENDBRANCH  87  90
ENDBRANCH  60  83
ENDBRANCH  34  35
ENDBRANCH  26  29
ENDBRANCH  24  25
ENDBRANCH  23  24
ENDBRANCH   1  23
TORSDOF 18
ENDMDL
MODEL 3
REMARK VINA RESULT:     -11.6      3.675      7.349
REMARK SMILES CCc1nn(-c2ccncn2)c(Cl)c1C(=O)NCCCCCCNC(=O)c1ccc(-c2c3nc(c(-c4cccc(S(=O)(=O)[O-])c4F)c4ccc([nH]4)c(-c4cccc(S(=O)(=O)[O-])c4F)c4nc(c(-c5cccc(S(=O)(=O)[O-])c5F)c5ccc2[nH]5)C=C4)C=C3)cc1
REMARK SMILES IDX 21 1 20 2 19 3 18 4 17 5 15 6 16 7 14 9 3 10 4 11 5 12 12 13
REMARK SMILES IDX 13 14 2 15 1 16 6 17 7 18 11 19 8 20 10 21 9 22 22 23 23 24
REMARK SMILES IDX 24 25 25 26 26 28 27 29 28 30 89 31 29 32 88 33 30 34 31 35
REMARK SMILES IDX 32 36 82 37 33 38 87 39 81 40 83 41 34 42 86 43 80 44 79 45
REMARK SMILES IDX 35 47 67 48 47 49 66 50 48 51 51 52 65 53 84 54 49 55 50 56
REMARK SMILES IDX 64 58 85 59 52 60 36 61 37 62 45 63 38 64 40 65 46 66 39 67
REMARK SMILES IDX 41 68 42 69 43 70 44 71 68 72 69 73 77 74 70 75 72 76 78 77
REMARK SMILES IDX 71 78 73 79 74 80 75 81 76 82 53 83 54 84 62 85 55 86 57 87
REMARK SMILES IDX 63 88 56 89 58 90 59 91 60 92 61 93
REMARK H PARENT 17 8 24 27 83 46 51 57
REMARK Flexibility Score: inf
ROOT
ATOM      1  C   UNL A   1      32.418  28.448  26.813  1.00  0.00     0.002 C 
ENDROOT
BRANCH   1   2
ATOM      2  C   UNL A   1      31.844  27.055  26.515  1.00  0.00     0.002 C 
BRANCH   2   3
ATOM      3  C   UNL A   1      32.685  26.176  25.584  1.00  0.00     0.021 C 
BRANCH   3   4
ATOM      4  C   UNL A   1      31.878  25.126  24.817  1.00  0.00     0.116 C 
BRANCH   4   5
ATOM      5  N   UNL A   1      32.602  24.681  23.656  1.00  0.00    -0.352 N 
ATOM      6  C   UNL A   1      33.472  23.673  23.363  1.00  0.00     0.256 C 
ATOM      7  O   UNL A   1      33.918  23.771  22.213  1.00  0.00    -0.269 OA
ATOM      8  H   UNL A   1      32.424  25.251  22.873  1.00  0.00     0.163 HD
BRANCH   6   9
ATOM      9  C   UNL A   1      33.824  22.526  24.209  1.00  0.00     0.100 A 
ATOM     10  C   UNL A   1      34.666  22.237  25.346  1.00  0.00     0.077 A 
ATOM     11  N   UNL A   1      34.448  21.002  25.831  1.00  0.00    -0.169 NA
ATOM     12  N   UNL A   1      33.756  20.369  24.865  1.00  0.00    -0.203 N 
ATOM     13  C   UNL A   1      33.293  21.268  23.941  1.00  0.00     0.147 A 
ATOM     14  Cl  UNL A   1      32.120  20.752  22.790  1.00  0.00    -0.061 Cl
BRANCH  10  15
ATOM     15  C   UNL A   1      35.714  23.012  26.088  1.00  0.00     0.056 C 
ATOM     16  C   UNL A   1      37.131  22.711  25.631  1.00  0.00     0.011 C 
ENDBRANCH  10  15
BRANCH  12  17
ATOM     17  C   UNL A   1      33.597  18.954  24.897  1.00  0.00     0.158 A 
ATOM     18  C   UNL A   1      34.576  18.165  24.320  1.00  0.00     0.069 A 
ATOM     19  N   UNL A   1      32.493  18.440  25.492  1.00  0.00    -0.217 NA
ATOM     20  C   UNL A   1      34.346  16.810  24.347  1.00  0.00     0.117 A 
ATOM     21  C   UNL A   1      32.368  17.109  25.432  1.00  0.00     0.224 A 
ATOM     22  N   UNL A   1      33.239  16.254  24.872  1.00  0.00    -0.245 NA
ENDBRANCH  12  17
ENDBRANCH   6   9
ENDBRANCH   4   5
ENDBRANCH   3   4
ENDBRANCH   2   3
ENDBRANCH   1   2
BRANCH   1  23
ATOM     23  C   UNL A   1      33.897  28.666  26.457  1.00  0.00     0.021 C 
BRANCH  23  24
ATOM     24  C   UNL A   1      34.680  29.353  27.560  1.00  0.00     0.116 C 
BRANCH  24  25
ATOM     25  N   UNL A   1      34.734  30.807  27.377  1.00  0.00    -0.352 N 
ATOM     26  C   UNL A   1      35.681  31.704  27.839  1.00  0.00     0.251 C 
ATOM     27  H   UNL A   1      33.995  31.199  26.856  1.00  0.00     0.163 HD
ATOM     28  O   UNL A   1      35.440  32.899  27.901  1.00  0.00    -0.269 OA
BRANCH  26  29
ATOM     29  C   UNL A   1      37.000  31.181  28.233  1.00  0.00     0.039 A 
ATOM     30  C   UNL A   1      37.801  31.810  29.192  1.00  0.00     0.014 A 
ATOM     31  C   UNL A   1      37.423  30.017  27.604  1.00  0.00     0.014 A 
ATOM     32  C   UNL A   1      39.016  31.221  29.529  1.00  0.00     0.010 A 
ATOM     33  C   UNL A   1      38.478  29.322  28.106  1.00  0.00     0.010 A 
ATOM     34  C   UNL A   1      39.339  29.978  28.970  1.00  0.00    -0.014 A 
BRANCH  34  35
ATOM     35  C   UNL A   1      40.568  29.275  29.281  1.00  0.00     0.031 A 
ATOM     36  C   UNL A   1      40.686  28.869  30.702  1.00  0.00     0.074 A 
ATOM     37  C   UNL A   1      41.352  28.793  28.290  1.00  0.00     0.049 A 
ATOM     38  N   UNL A   1      41.512  29.327  31.581  1.00  0.00    -0.248 NA
ATOM     39  C   UNL A   1      39.652  27.983  31.263  1.00  0.00     0.031 C 
ATOM     40  C   UNL A   1      41.111  28.825  26.837  1.00  0.00     0.029 A 
ATOM     41  N   UNL A   1      42.450  28.004  28.383  1.00  0.00    -0.354 N 
ATOM     42  C   UNL A   1      41.263  28.595  32.741  1.00  0.00     0.074 A 
ATOM     43  C   UNL A   1      39.974  27.987  32.558  1.00  0.00     0.031 C 
ATOM     44  C   UNL A   1      41.854  27.870  26.237  1.00  0.00     0.029 A 
ATOM     45  C   UNL A   1      42.738  27.286  27.226  1.00  0.00     0.049 A 
ATOM     46  H   UNL A   1      42.996  27.944  29.199  1.00  0.00     0.167 HD
ATOM     47  C   UNL A   1      42.262  28.325  33.628  1.00  0.00     0.034 A 
ATOM     48  C   UNL A   1      43.592  26.237  27.124  1.00  0.00     0.034 A 
ATOM     49  C   UNL A   1      43.438  29.107  33.332  1.00  0.00     0.049 A 
ATOM     50  C   UNL A   1      44.479  26.289  28.314  1.00  0.00     0.074 A 
ATOM     51  C   UNL A   1      43.712  30.456  33.235  1.00  0.00     0.029 A 
ATOM     52  N   UNL A   1      44.451  28.463  32.659  1.00  0.00    -0.354 N 
ATOM     53  N   UNL A   1      45.324  27.259  28.532  1.00  0.00    -0.248 NA
ATOM     54  C   UNL A   1      44.073  25.535  29.490  1.00  0.00     0.031 C 
ATOM     55  C   UNL A   1      44.577  30.568  32.107  1.00  0.00     0.029 A 
ATOM     56  C   UNL A   1      44.852  29.280  31.637  1.00  0.00     0.049 A 
ATOM     57  H   UNL A   1      44.819  27.575  32.872  1.00  0.00     0.167 HD
ATOM     58  C   UNL A   1      45.188  27.534  29.887  1.00  0.00     0.074 A 
ATOM     59  C   UNL A   1      44.487  26.377  30.443  1.00  0.00     0.031 C 
ATOM     60  C   UNL A   1      45.369  28.798  30.375  1.00  0.00     0.034 A 
BRANCH  47  61
ATOM     61  C   UNL A   1      42.355  27.104  34.517  1.00  0.00     0.023 A 
ATOM     62  C   UNL A   1      41.846  27.235  35.831  1.00  0.00     0.012 A 
ATOM     63  C   UNL A   1      43.142  25.960  34.251  1.00  0.00     0.148 A 
ATOM     64  C   UNL A   1      42.167  26.324  36.842  1.00  0.00     0.002 A 
ATOM     65  C   UNL A   1      43.398  25.017  35.241  1.00  0.00     0.091 A 
ATOM     66  F   UNL A   1      43.764  25.828  33.080  1.00  0.00    -0.205 F 
ATOM     67  C   UNL A   1      42.943  25.212  36.547  1.00  0.00     0.022 A 
BRANCH  65  68
ATOM     68  S   UNL A   1      44.365  23.539  34.905  1.00  0.00     0.127 S 
ATOM     69  O   UNL A   1      43.471  22.801  34.018  1.00  0.00    -0.237 OA
ATOM     70  O   UNL A   1      45.554  24.100  34.264  1.00  0.00    -0.237 OA
ATOM     71  O   UNL A   1      44.619  22.932  36.206  1.00  0.00    -0.744 OA
ENDBRANCH  65  68
ENDBRANCH  47  61
BRANCH  48  72
ATOM     72  C   UNL A   1      43.516  25.046  26.243  1.00  0.00     0.023 A 
ATOM     73  C   UNL A   1      44.463  24.870  25.215  1.00  0.00     0.012 A 
ATOM     74  C   UNL A   1      42.689  23.948  26.578  1.00  0.00     0.148 A 
ATOM     75  C   UNL A   1      44.601  23.636  24.562  1.00  0.00     0.002 A 
ATOM     76  C   UNL A   1      42.825  22.727  25.923  1.00  0.00     0.091 A 
ATOM     77  F   UNL A   1      41.834  24.075  27.602  1.00  0.00    -0.205 F 
ATOM     78  C   UNL A   1      43.788  22.564  24.921  1.00  0.00     0.022 A 
BRANCH  76  79
ATOM     79  S   UNL A   1      41.831  21.292  26.360  1.00  0.00     0.127 S 
ATOM     80  O   UNL A   1      42.461  20.233  25.570  1.00  0.00    -0.237 OA
ATOM     81  O   UNL A   1      42.052  21.196  27.800  1.00  0.00    -0.237 OA
ATOM     82  O   UNL A   1      40.468  21.610  25.953  1.00  0.00    -0.744 OA
ENDBRANCH  76  79
ENDBRANCH  48  72
BRANCH  60  83
ATOM     83  C   UNL A   1      45.927  29.852  29.450  1.00  0.00     0.023 A 
ATOM     84  C   UNL A   1      47.311  30.003  29.215  1.00  0.00     0.012 A 
ATOM     85  C   UNL A   1      45.024  30.559  28.642  1.00  0.00     0.148 A 
ATOM     86  C   UNL A   1      47.780  30.848  28.204  1.00  0.00     0.002 A 
ATOM     87  C   UNL A   1      45.491  31.359  27.607  1.00  0.00     0.091 A 
ATOM     88  F   UNL A   1      43.711  30.401  28.875  1.00  0.00    -0.205 F 
ATOM     89  C   UNL A   1      46.869  31.514  27.390  1.00  0.00     0.022 A 
BRANCH  87  90
ATOM     90  S   UNL A   1      44.364  32.127  26.442  1.00  0.00     0.127 S 
ATOM     91  O   UNL A   1      43.825  33.236  27.227  1.00  0.00    -0.237 OA
ATOM     92  O   UNL A   1      45.259  32.525  25.354  1.00  0.00    -0.237 OA
ATOM     93  O   UNL A   1      43.404  31.094  26.072  1.00  0.00    -0.744 OA
ENDBRANCH  87  90
ENDBRANCH  60  83
ENDBRANCH  34  35
ENDBRANCH  26  29
ENDBRANCH  24  25
ENDBRANCH  23  24
ENDBRANCH   1  23
TORSDOF 18
ENDMDL
