MODEL 1
REMARK VINA RESULT:     -12.4      0.000      0.000
REMARK SMILES C[C@H]1SC[C@H](C(=O)NCCCCCCNC(=O)c2ccc(-c3c4nc(c(-c5cccc(S(=O)(=O)[O-])c5F)c5ccc([nH]5)c(-c5cccc(S(=O)(=O)[O-])c5F)c5nc(c(-c6cccc(S(=O)(=O)[O-])c6F)c6ccc3[nH]6)C=C5)C=C4)cc2)N1C(=O)[C@@H]1CSc2ccccc21
REMARK SMILES IDX 12 1 11 2 10 3 9 4 8 5 6 6 7 7 5 9 1 10 2 11 3 12 81 13 4 14
REMARK SMILES IDX 82 15 83 16 84 17 85 18 92 19 86 20 87 21 91 22 88 23 90 24
REMARK SMILES IDX 89 25 13 26 14 27 15 28 16 29 17 31 18 32 19 33 80 34 20 35
REMARK SMILES IDX 79 36 21 37 22 38 23 39 73 40 24 41 78 42 72 43 74 44 25 45
REMARK SMILES IDX 77 46 71 47 70 48 26 50 58 51 38 52 57 53 39 54 42 55 56 56
REMARK SMILES IDX 75 57 40 58 41 59 55 61 76 62 43 63 27 64 28 65 36 66 29 67
REMARK SMILES IDX 31 68 37 69 30 70 32 71 33 72 34 73 35 74 59 75 60 76 68 77
REMARK SMILES IDX 61 78 63 79 69 80 62 81 64 82 65 83 66 84 67 85 44 86 45 87
REMARK SMILES IDX 53 88 46 89 48 90 54 91 47 92 49 93 50 94 51 95 52 96
REMARK H PARENT 8 8 15 30 74 49 42 60
REMARK Flexibility Score: inf
ROOT
ATOM      1  C   UNL A   1      31.673  30.761  26.180  1.00  0.00     0.002 C 
ENDROOT
BRANCH   1   2
ATOM      2  C   UNL A   1      32.706  29.916  26.934  1.00  0.00     0.002 C 
BRANCH   2   3
ATOM      3  C   UNL A   1      32.152  28.650  27.596  1.00  0.00     0.021 C 
BRANCH   3   4
ATOM      4  C   UNL A   1      32.578  27.352  26.918  1.00  0.00     0.116 C 
BRANCH   4   5
ATOM      5  N   UNL A   1      31.537  26.348  26.965  1.00  0.00    -0.354 N 
ATOM      6  C   UNL A   1      30.898  25.702  25.951  1.00  0.00     0.243 C 
ATOM      7  O   UNL A   1      29.899  25.036  26.249  1.00  0.00    -0.273 OA
ATOM      8  H   UNL A   1      31.245  26.093  27.871  1.00  0.00     0.163 HD
BRANCH   6   9
ATOM      9  C   UNL A   1      31.243  25.964  24.472  1.00  0.00     0.185 C 
ATOM     10  C   UNL A   1      32.522  25.895  21.580  1.00  0.00     0.043 C 
ATOM     11  C   UNL A   1      32.882  26.690  22.840  1.00  0.00     0.141 C 
ATOM     12  S   UNL A   1      31.755  28.108  22.915  1.00  0.00    -0.135 SA
ATOM     13  N   UNL A   1      32.661  25.930  24.063  1.00  0.00    -0.318 N 
ATOM     14  C   UNL A   1      30.664  27.348  24.136  1.00  0.00     0.107 C 
BRANCH  13  15
ATOM     15  C   UNL A   1      33.446  24.854  24.458  1.00  0.00     0.232 C 
ATOM     16  O   UNL A   1      34.240  24.995  25.397  1.00  0.00    -0.274 OA
BRANCH  15  17
ATOM     17  C   UNL A   1      33.454  23.509  23.702  1.00  0.00     0.120 C 
ATOM     18  C   UNL A   1      32.195  22.655  23.904  1.00  0.00     0.093 C 
ATOM     19  C   UNL A   1      34.649  22.630  23.939  1.00  0.00    -0.021 A 
ATOM     20  S   UNL A   1      32.638  21.180  24.870  1.00  0.00    -0.125 SA
ATOM     21  C   UNL A   1      34.367  21.437  24.611  1.00  0.00     0.011 A 
ATOM     22  C   UNL A   1      35.952  22.925  23.552  1.00  0.00     0.006 A 
ATOM     23  C   UNL A   1      35.384  20.596  25.029  1.00  0.00     0.015 A 
ATOM     24  C   UNL A   1      36.979  22.060  23.931  1.00  0.00     0.000 A 
ATOM     25  C   UNL A   1      36.700  20.919  24.695  1.00  0.00     0.001 A 
ENDBRANCH  15  17
ENDBRANCH  13  15
ENDBRANCH   6   9
ENDBRANCH   4   5
ENDBRANCH   3   4
ENDBRANCH   2   3
ENDBRANCH   1   2
BRANCH   1  26
ATOM     26  C   UNL A   1      31.439  32.165  26.744  1.00  0.00     0.021 C 
BRANCH  26  27
ATOM     27  C   UNL A   1      32.659  32.802  27.402  1.00  0.00     0.116 C 
BRANCH  27  28
ATOM     28  N   UNL A   1      32.452  34.211  27.702  1.00  0.00    -0.352 N 
ATOM     29  C   UNL A   1      33.059  34.997  28.646  1.00  0.00     0.251 C 
ATOM     30  H   UNL A   1      31.779  34.664  27.146  1.00  0.00     0.163 HD
ATOM     31  O   UNL A   1      32.624  36.125  28.876  1.00  0.00    -0.269 OA
BRANCH  29  32
ATOM     32  C   UNL A   1      34.221  34.483  29.401  1.00  0.00     0.039 A 
ATOM     33  C   UNL A   1      34.008  33.883  30.645  1.00  0.00     0.014 A 
ATOM     34  C   UNL A   1      35.516  34.593  28.887  1.00  0.00     0.014 A 
ATOM     35  C   UNL A   1      35.088  33.339  31.344  1.00  0.00     0.010 A 
ATOM     36  C   UNL A   1      36.578  33.982  29.549  1.00  0.00     0.010 A 
ATOM     37  C   UNL A   1      36.378  33.354  30.786  1.00  0.00    -0.014 A 
BRANCH  37  38
ATOM     38  C   UNL A   1      37.520  32.699  31.474  1.00  0.00     0.031 A 
ATOM     39  C   UNL A   1      38.231  31.537  30.836  1.00  0.00     0.074 A 
ATOM     40  C   UNL A   1      37.867  33.102  32.713  1.00  0.00     0.049 A 
ATOM     41  N   UNL A   1      39.214  30.813  31.305  1.00  0.00    -0.248 NA
ATOM     42  C   UNL A   1      37.760  31.115  29.506  1.00  0.00     0.031 C 
ATOM     43  C   UNL A   1      37.208  34.169  33.471  1.00  0.00     0.029 A 
ATOM     44  N   UNL A   1      38.843  32.648  33.564  1.00  0.00    -0.354 N 
ATOM     45  C   UNL A   1      39.457  29.835  30.348  1.00  0.00     0.074 A 
ATOM     46  C   UNL A   1      38.496  30.035  29.288  1.00  0.00     0.031 C 
ATOM     47  C   UNL A   1      37.803  34.291  34.669  1.00  0.00     0.029 A 
ATOM     48  C   UNL A   1      38.858  33.290  34.780  1.00  0.00     0.049 A 
ATOM     49  H   UNL A   1      39.473  31.929  33.326  1.00  0.00     0.167 HD
ATOM     50  C   UNL A   1      40.413  28.873  30.341  1.00  0.00     0.034 A 
ATOM     51  C   UNL A   1      39.628  33.089  35.868  1.00  0.00     0.034 A 
ATOM     52  C   UNL A   1      41.386  28.697  31.384  1.00  0.00     0.049 A 
ATOM     53  C   UNL A   1      40.694  32.028  35.824  1.00  0.00     0.074 A 
ATOM     54  C   UNL A   1      42.445  27.807  31.431  1.00  0.00     0.029 A 
ATOM     55  N   UNL A   1      41.415  29.413  32.571  1.00  0.00    -0.354 N 
ATOM     56  N   UNL A   1      41.008  31.214  34.847  1.00  0.00    -0.248 NA
ATOM     57  C   UNL A   1      41.534  31.881  37.021  1.00  0.00     0.031 C 
ATOM     58  C   UNL A   1      43.092  27.960  32.661  1.00  0.00     0.029 A 
ATOM     59  C   UNL A   1      42.463  28.976  33.363  1.00  0.00     0.049 A 
ATOM     60  H   UNL A   1      40.783  30.129  32.815  1.00  0.00     0.167 HD
ATOM     61  C   UNL A   1      42.106  30.486  35.294  1.00  0.00     0.074 A 
ATOM     62  C   UNL A   1      42.413  30.972  36.624  1.00  0.00     0.031 C 
ATOM     63  C   UNL A   1      42.789  29.498  34.666  1.00  0.00     0.034 A 
BRANCH  50  64
ATOM     64  C   UNL A   1      40.479  27.961  29.143  1.00  0.00     0.023 A 
ATOM     65  C   UNL A   1      39.560  26.898  29.021  1.00  0.00     0.012 A 
ATOM     66  C   UNL A   1      41.409  28.189  28.109  1.00  0.00     0.148 A 
ATOM     67  C   UNL A   1      39.589  26.055  27.912  1.00  0.00     0.002 A 
ATOM     68  C   UNL A   1      41.400  27.374  26.983  1.00  0.00     0.091 A 
ATOM     69  F   UNL A   1      42.287  29.192  28.248  1.00  0.00    -0.205 F 
ATOM     70  C   UNL A   1      40.500  26.299  26.889  1.00  0.00     0.022 A 
BRANCH  68  71
ATOM     71  S   UNL A   1      42.476  27.655  25.572  1.00  0.00     0.127 S 
ATOM     72  O   UNL A   1      42.210  26.469  24.759  1.00  0.00    -0.237 OA
ATOM     73  O   UNL A   1      41.945  28.902  25.024  1.00  0.00    -0.237 OA
ATOM     74  O   UNL A   1      43.826  27.751  26.109  1.00  0.00    -0.744 OA
ENDBRANCH  68  71
ENDBRANCH  50  64
BRANCH  51  75
ATOM     75  C   UNL A   1      39.455  33.948  37.074  1.00  0.00     0.023 A 
ATOM     76  C   UNL A   1      39.898  35.285  37.043  1.00  0.00     0.012 A 
ATOM     77  C   UNL A   1      38.839  33.456  38.242  1.00  0.00     0.148 A 
ATOM     78  C   UNL A   1      39.765  36.106  38.164  1.00  0.00     0.002 A 
ATOM     79  C   UNL A   1      38.658  34.295  39.334  1.00  0.00     0.091 A 
ATOM     80  F   UNL A   1      38.432  32.180  38.254  1.00  0.00    -0.205 F 
ATOM     81  C   UNL A   1      39.138  35.614  39.305  1.00  0.00     0.022 A 
BRANCH  79  82
ATOM     82  S   UNL A   1      37.746  33.791  40.797  1.00  0.00     0.127 S 
ATOM     83  O   UNL A   1      36.574  33.145  40.211  1.00  0.00    -0.237 OA
ATOM     84  O   UNL A   1      38.693  32.882  41.443  1.00  0.00    -0.237 OA
ATOM     85  O   UNL A   1      37.486  35.016  41.541  1.00  0.00    -0.744 OA
ENDBRANCH  79  82
ENDBRANCH  51  75
BRANCH  63  86
ATOM     86  C   UNL A   1      43.970  28.898  35.385  1.00  0.00     0.023 A 
ATOM     87  C   UNL A   1      45.249  29.468  35.241  1.00  0.00     0.012 A 
ATOM     88  C   UNL A   1      43.793  27.808  36.260  1.00  0.00     0.148 A 
ATOM     89  C   UNL A   1      46.342  28.940  35.929  1.00  0.00     0.002 A 
ATOM     90  C   UNL A   1      44.875  27.320  36.983  1.00  0.00     0.091 A 
ATOM     91  F   UNL A   1      42.570  27.268  36.371  1.00  0.00    -0.205 F 
ATOM     92  C   UNL A   1      46.153  27.876  36.808  1.00  0.00     0.022 A 
BRANCH  90  93
ATOM     93  S   UNL A   1      44.709  26.021  38.211  1.00  0.00     0.127 S 
ATOM     94  O   UNL A   1      46.092  25.856  38.658  1.00  0.00    -0.237 OA
ATOM     95  O   UNL A   1      43.819  26.637  39.196  1.00  0.00    -0.237 OA
ATOM     96  O   UNL A   1      44.140  24.876  37.512  1.00  0.00    -0.744 OA
ENDBRANCH  90  93
ENDBRANCH  63  86
ENDBRANCH  37  38
ENDBRANCH  29  32
ENDBRANCH  27  28
ENDBRANCH  26  27
ENDBRANCH   1  26
TORSDOF 18
ENDMDL
MODEL 2
REMARK VINA RESULT:     -12.1      1.462      1.879
REMARK SMILES C[C@H]1SC[C@H](C(=O)NCCCCCCNC(=O)c2ccc(-c3c4nc(c(-c5cccc(S(=O)(=O)[O-])c5F)c5ccc([nH]5)c(-c5cccc(S(=O)(=O)[O-])c5F)c5nc(c(-c6cccc(S(=O)(=O)[O-])c6F)c6ccc3[nH]6)C=C5)C=C4)cc2)N1C(=O)[C@@H]1CSc2ccccc21
REMARK SMILES IDX 12 1 11 2 10 3 9 4 8 5 6 6 7 7 5 9 1 10 2 11 3 12 81 13 4 14
REMARK SMILES IDX 82 15 83 16 84 17 85 18 92 19 86 20 87 21 91 22 88 23 90 24
REMARK SMILES IDX 89 25 13 26 14 27 15 28 16 29 17 31 18 32 19 33 80 34 20 35
REMARK SMILES IDX 79 36 21 37 22 38 23 39 73 40 24 41 78 42 72 43 74 44 25 45
REMARK SMILES IDX 77 46 71 47 70 48 26 50 58 51 38 52 57 53 39 54 42 55 56 56
REMARK SMILES IDX 75 57 40 58 41 59 55 61 76 62 43 63 27 64 28 65 36 66 29 67
REMARK SMILES IDX 31 68 37 69 30 70 32 71 33 72 34 73 35 74 59 75 60 76 68 77
REMARK SMILES IDX 61 78 63 79 69 80 62 81 64 82 65 83 66 84 67 85 44 86 45 87
REMARK SMILES IDX 53 88 46 89 48 90 54 91 47 92 49 93 50 94 51 95 52 96
REMARK H PARENT 8 8 15 30 74 49 42 60
REMARK Flexibility Score: inf
ROOT
ATOM      1  C   UNL A   1      31.612  30.705  26.395  1.00  0.00     0.002 C 
ENDROOT
BRANCH   1   2
ATOM      2  C   UNL A   1      32.590  29.883  27.243  1.00  0.00     0.002 C 
BRANCH   2   3
ATOM      3  C   UNL A   1      32.213  28.410  27.426  1.00  0.00     0.021 C 
BRANCH   3   4
ATOM      4  C   UNL A   1      31.273  27.867  26.355  1.00  0.00     0.116 C 
BRANCH   4   5
ATOM      5  N   UNL A   1      30.651  26.624  26.758  1.00  0.00    -0.354 N 
ATOM      6  C   UNL A   1      30.435  25.483  26.047  1.00  0.00     0.243 C 
ATOM      7  O   UNL A   1      29.698  24.632  26.559  1.00  0.00    -0.273 OA
ATOM      8  H   UNL A   1      30.336  26.600  27.691  1.00  0.00     0.163 HD
BRANCH   6   9
ATOM      9  C   UNL A   1      30.882  25.340  24.579  1.00  0.00     0.185 C 
ATOM     10  C   UNL A   1      32.462  24.661  21.925  1.00  0.00     0.043 C 
ATOM     11  C   UNL A   1      32.511  25.870  22.864  1.00  0.00     0.141 C 
ATOM     12  S   UNL A   1      31.119  26.945  22.423  1.00  0.00    -0.135 SA
ATOM     13  N   UNL A   1      32.314  25.502  24.260  1.00  0.00    -0.318 N 
ATOM     14  C   UNL A   1      30.076  26.378  23.783  1.00  0.00     0.107 C 
BRANCH  13  15
ATOM     15  C   UNL A   1      33.252  24.813  25.019  1.00  0.00     0.232 C 
ATOM     16  O   UNL A   1      34.071  25.449  25.694  1.00  0.00    -0.274 OA
BRANCH  15  17
ATOM     17  C   UNL A   1      33.391  23.277  24.972  1.00  0.00     0.120 C 
ATOM     18  C   UNL A   1      32.833  22.547  26.202  1.00  0.00     0.093 C 
ATOM     19  C   UNL A   1      34.775  22.751  24.714  1.00  0.00    -0.021 A 
ATOM     20  S   UNL A   1      34.219  21.827  27.133  1.00  0.00    -0.125 SA
ATOM     21  C   UNL A   1      35.341  22.058  25.787  1.00  0.00     0.011 A 
ATOM     22  C   UNL A   1      35.487  22.913  23.530  1.00  0.00     0.006 A 
ATOM     23  C   UNL A   1      36.661  21.643  25.752  1.00  0.00     0.015 A 
ATOM     24  C   UNL A   1      36.804  22.459  23.470  1.00  0.00     0.000 A 
ATOM     25  C   UNL A   1      37.400  21.857  24.587  1.00  0.00     0.001 A 
ENDBRANCH  15  17
ENDBRANCH  13  15
ENDBRANCH   6   9
ENDBRANCH   4   5
ENDBRANCH   3   4
ENDBRANCH   2   3
ENDBRANCH   1   2
BRANCH   1  26
ATOM     26  C   UNL A   1      31.421  32.157  26.841  1.00  0.00     0.021 C 
BRANCH  26  27
ATOM     27  C   UNL A   1      32.700  32.989  26.878  1.00  0.00     0.116 C 
BRANCH  27  28
ATOM     28  N   UNL A   1      32.526  34.235  27.609  1.00  0.00    -0.352 N 
ATOM     29  C   UNL A   1      33.167  34.678  28.737  1.00  0.00     0.251 C 
ATOM     30  H   UNL A   1      31.850  34.848  27.241  1.00  0.00     0.163 HD
ATOM     31  O   UNL A   1      32.758  35.682  29.320  1.00  0.00    -0.269 OA
BRANCH  29  32
ATOM     32  C   UNL A   1      34.333  33.939  29.264  1.00  0.00     0.039 A 
ATOM     33  C   UNL A   1      35.615  34.443  29.030  1.00  0.00     0.014 A 
ATOM     34  C   UNL A   1      34.166  32.752  29.985  1.00  0.00     0.014 A 
ATOM     35  C   UNL A   1      36.724  33.789  29.571  1.00  0.00     0.010 A 
ATOM     36  C   UNL A   1      35.265  32.147  30.586  1.00  0.00     0.010 A 
ATOM     37  C   UNL A   1      36.557  32.654  30.383  1.00  0.00    -0.014 A 
BRANCH  37  38
ATOM     38  C   UNL A   1      37.717  32.001  31.041  1.00  0.00     0.031 A 
ATOM     39  C   UNL A   1      38.533  30.974  30.303  1.00  0.00     0.074 A 
ATOM     40  C   UNL A   1      37.988  32.275  32.332  1.00  0.00     0.049 A 
ATOM     41  N   UNL A   1      39.549  30.267  30.729  1.00  0.00    -0.248 NA
ATOM     42  C   UNL A   1      38.144  30.683  28.914  1.00  0.00     0.031 C 
ATOM     43  C   UNL A   1      37.226  33.197  33.179  1.00  0.00     0.029 A 
ATOM     44  N   UNL A   1      38.963  31.789  33.167  1.00  0.00    -0.354 N 
ATOM     45  C   UNL A   1      39.897  29.429  29.677  1.00  0.00     0.074 A 
ATOM     46  C   UNL A   1      38.963  29.689  28.604  1.00  0.00     0.031 C 
ATOM     47  C   UNL A   1      37.766  33.215  34.408  1.00  0.00     0.029 A 
ATOM     48  C   UNL A   1      38.887  32.282  34.450  1.00  0.00     0.049 A 
ATOM     49  H   UNL A   1      39.652  31.148  32.876  1.00  0.00     0.167 HD
ATOM     50  C   UNL A   1      40.919  28.542  29.600  1.00  0.00     0.034 A 
ATOM     51  C   UNL A   1      39.629  32.004  35.541  1.00  0.00     0.034 A 
ATOM     52  C   UNL A   1      41.864  28.309  30.658  1.00  0.00     0.049 A 
ATOM     53  C   UNL A   1      40.769  31.030  35.421  1.00  0.00     0.074 A 
ATOM     54  C   UNL A   1      42.982  27.493  30.648  1.00  0.00     0.029 A 
ATOM     55  N   UNL A   1      41.797  28.878  31.921  1.00  0.00    -0.354 N 
ATOM     56  N   UNL A   1      41.178  30.362  34.370  1.00  0.00    -0.248 NA
ATOM     57  C   UNL A   1      41.574  30.799  36.630  1.00  0.00     0.031 C 
ATOM     58  C   UNL A   1      43.570  27.541  31.916  1.00  0.00     0.029 A 
ATOM     59  C   UNL A   1      42.844  28.421  32.703  1.00  0.00     0.049 A 
ATOM     60  H   UNL A   1      41.106  29.515  32.218  1.00  0.00     0.167 HD
ATOM     61  C   UNL A   1      42.308  29.662  34.779  1.00  0.00     0.074 A 
ATOM     62  C   UNL A   1      42.530  30.005  36.168  1.00  0.00     0.031 C 
ATOM     63  C   UNL A   1      43.084  28.805  34.071  1.00  0.00     0.034 A 
BRANCH  50  64
ATOM     64  C   UNL A   1      41.095  27.786  28.308  1.00  0.00     0.023 A 
ATOM     65  C   UNL A   1      41.648  28.438  27.186  1.00  0.00     0.012 A 
ATOM     66  C   UNL A   1      40.770  26.418  28.219  1.00  0.00     0.148 A 
ATOM     67  C   UNL A   1      41.839  27.753  25.987  1.00  0.00     0.002 A 
ATOM     68  C   UNL A   1      41.010  25.729  27.036  1.00  0.00     0.091 A 
ATOM     69  F   UNL A   1      40.230  25.818  29.289  1.00  0.00    -0.205 F 
ATOM     70  C   UNL A   1      41.531  26.398  25.916  1.00  0.00     0.022 A 
BRANCH  68  71
ATOM     71  S   UNL A   1      40.726  23.963  26.865  1.00  0.00     0.127 S 
ATOM     72  O   UNL A   1      41.491  23.658  25.657  1.00  0.00    -0.237 OA
ATOM     73  O   UNL A   1      41.304  23.439  28.101  1.00  0.00    -0.237 OA
ATOM     74  O   UNL A   1      39.284  23.797  26.749  1.00  0.00    -0.744 OA
ENDBRANCH  68  71
ENDBRANCH  50  64
BRANCH  51  75
ATOM     75  C   UNL A   1      39.350  32.700  36.829  1.00  0.00     0.023 A 
ATOM     76  C   UNL A   1      40.030  33.893  37.135  1.00  0.00     0.012 A 
ATOM     77  C   UNL A   1      38.403  32.196  37.743  1.00  0.00     0.148 A 
ATOM     78  C   UNL A   1      39.802  34.555  38.343  1.00  0.00     0.002 A 
ATOM     79  C   UNL A   1      38.138  32.890  38.917  1.00  0.00     0.091 A 
ATOM     80  F   UNL A   1      37.771  31.054  37.437  1.00  0.00    -0.205 F 
ATOM     81  C   UNL A   1      38.850  34.058  39.229  1.00  0.00     0.022 A 
BRANCH  79  82
ATOM     82  S   UNL A   1      36.838  32.399  40.055  1.00  0.00     0.127 S 
ATOM     83  O   UNL A   1      36.913  33.450  41.066  1.00  0.00    -0.237 OA
ATOM     84  O   UNL A   1      35.653  32.450  39.198  1.00  0.00    -0.237 OA
ATOM     85  O   UNL A   1      37.195  31.061  40.507  1.00  0.00    -0.744 OA
ENDBRANCH  79  82
ENDBRANCH  51  75
BRANCH  63  86
ATOM     86  C   UNL A   1      44.277  28.204  34.767  1.00  0.00     0.023 A 
ATOM     87  C   UNL A   1      45.500  28.902  34.804  1.00  0.00     0.012 A 
ATOM     88  C   UNL A   1      44.163  26.974  35.447  1.00  0.00     0.148 A 
ATOM     89  C   UNL A   1      46.601  28.369  35.475  1.00  0.00     0.002 A 
ATOM     90  C   UNL A   1      45.247  26.475  36.158  1.00  0.00     0.091 A 
ATOM     91  F   UNL A   1      42.996  26.317  35.386  1.00  0.00    -0.205 F 
ATOM     92  C   UNL A   1      46.471  27.164  36.161  1.00  0.00     0.022 A 
BRANCH  90  93
ATOM     93  S   UNL A   1      45.145  24.983  37.153  1.00  0.00     0.127 S 
ATOM     94  O   UNL A   1      44.122  25.348  38.132  1.00  0.00    -0.237 OA
ATOM     95  O   UNL A   1      44.721  23.985  36.171  1.00  0.00    -0.237 OA
ATOM     96  O   UNL A   1      46.480  24.770  37.696  1.00  0.00    -0.744 OA
ENDBRANCH  90  93
ENDBRANCH  63  86
ENDBRANCH  37  38
ENDBRANCH  29  32
ENDBRANCH  27  28
ENDBRANCH  26  27
ENDBRANCH   1  26
TORSDOF 18
ENDMDL
MODEL 3
REMARK VINA RESULT:     -11.8      2.001      7.900
REMARK SMILES C[C@H]1SC[C@H](C(=O)NCCCCCCNC(=O)c2ccc(-c3c4nc(c(-c5cccc(S(=O)(=O)[O-])c5F)c5ccc([nH]5)c(-c5cccc(S(=O)(=O)[O-])c5F)c5nc(c(-c6cccc(S(=O)(=O)[O-])c6F)c6ccc3[nH]6)C=C5)C=C4)cc2)N1C(=O)[C@@H]1CSc2ccccc21
REMARK SMILES IDX 12 1 11 2 10 3 9 4 8 5 6 6 7 7 5 9 1 10 2 11 3 12 81 13 4 14
REMARK SMILES IDX 82 15 83 16 84 17 85 18 92 19 86 20 87 21 91 22 88 23 90 24
REMARK SMILES IDX 89 25 13 26 14 27 15 28 16 29 17 31 18 32 19 33 80 34 20 35
REMARK SMILES IDX 79 36 21 37 22 38 23 39 73 40 24 41 78 42 72 43 74 44 25 45
REMARK SMILES IDX 77 46 71 47 70 48 26 50 58 51 38 52 57 53 39 54 42 55 56 56
REMARK SMILES IDX 75 57 40 58 41 59 55 61 76 62 43 63 27 64 28 65 36 66 29 67
REMARK SMILES IDX 31 68 37 69 30 70 32 71 33 72 34 73 35 74 59 75 60 76 68 77
REMARK SMILES IDX 61 78 63 79 69 80 62 81 64 82 65 83 66 84 67 85 44 86 45 87
REMARK SMILES IDX 53 88 46 89 48 90 54 91 47 92 49 93 50 94 51 95 52 96
REMARK H PARENT 8 8 15 30 74 49 42 60
REMARK Flexibility Score: inf
ROOT
ATOM      1  C   UNL A   1      32.044  29.280  27.022  1.00  0.00     0.002 C 
ENDROOT
BRANCH   1   2
ATOM      2  C   UNL A   1      33.510  28.897  27.253  1.00  0.00     0.002 C 
BRANCH   2   3
ATOM      3  C   UNL A   1      34.185  28.171  26.085  1.00  0.00     0.021 C 
BRANCH   3   4
ATOM      4  C   UNL A   1      34.016  28.866  24.737  1.00  0.00     0.116 C 
BRANCH   4   5
ATOM      5  N   UNL A   1      34.028  27.925  23.637  1.00  0.00    -0.354 N 
ATOM      6  C   UNL A   1      33.174  26.903  23.352  1.00  0.00     0.243 C 
ATOM      7  O   UNL A   1      33.518  26.114  22.464  1.00  0.00    -0.273 OA
ATOM      8  H   UNL A   1      34.767  28.042  22.997  1.00  0.00     0.163 HD
BRANCH   6   9
ATOM      9  C   UNL A   1      31.951  26.590  24.236  1.00  0.00     0.185 C 
ATOM     10  C   UNL A   1      29.951  25.335  26.340  1.00  0.00     0.043 C 
ATOM     11  C   UNL A   1      30.218  25.016  24.866  1.00  0.00     0.141 C 
ATOM     12  S   UNL A   1      29.300  26.232  23.883  1.00  0.00    -0.135 SA
ATOM     13  N   UNL A   1      31.621  25.176  24.504  1.00  0.00    -0.318 N 
ATOM     14  C   UNL A   1      30.748  27.260  23.555  1.00  0.00     0.107 C 
BRANCH  13  15
ATOM     15  C   UNL A   1      32.631  24.320  24.923  1.00  0.00     0.232 C 
ATOM     16  O   UNL A   1      33.393  24.679  25.829  1.00  0.00    -0.274 OA
BRANCH  15  17
ATOM     17  C   UNL A   1      32.920  22.972  24.229  1.00  0.00     0.120 C 
ATOM     18  C   UNL A   1      32.152  21.777  24.810  1.00  0.00     0.093 C 
ATOM     19  C   UNL A   1      34.367  22.583  24.128  1.00  0.00    -0.021 A 
ATOM     20  S   UNL A   1      33.333  20.671  25.639  1.00  0.00    -0.125 SA
ATOM     21  C   UNL A   1      34.720  21.460  24.880  1.00  0.00     0.011 A 
ATOM     22  C   UNL A   1      35.326  23.249  23.370  1.00  0.00     0.006 A 
ATOM     23  C   UNL A   1      36.042  21.069  25.002  1.00  0.00     0.015 A 
ATOM     24  C   UNL A   1      36.655  22.834  23.453  1.00  0.00     0.000 A 
ATOM     25  C   UNL A   1      37.017  21.771  24.291  1.00  0.00     0.001 A 
ENDBRANCH  15  17
ENDBRANCH  13  15
ENDBRANCH   6   9
ENDBRANCH   4   5
ENDBRANCH   3   4
ENDBRANCH   2   3
ENDBRANCH   1   2
BRANCH   1  26
ATOM     26  C   UNL A   1      31.756  30.784  27.009  1.00  0.00     0.021 C 
BRANCH  26  27
ATOM     27  C   UNL A   1      32.904  31.651  26.500  1.00  0.00     0.116 C 
BRANCH  27  28
ATOM     28  N   UNL A   1      32.882  32.988  27.076  1.00  0.00    -0.352 N 
ATOM     29  C   UNL A   1      33.654  33.516  28.077  1.00  0.00     0.251 C 
ATOM     30  H   UNL A   1      32.215  33.601  26.690  1.00  0.00     0.163 HD
ATOM     31  O   UNL A   1      33.369  34.613  28.557  1.00  0.00    -0.269 OA
BRANCH  29  32
ATOM     32  C   UNL A   1      34.815  32.761  28.593  1.00  0.00     0.039 A 
ATOM     33  C   UNL A   1      36.101  33.260  28.370  1.00  0.00     0.014 A 
ATOM     34  C   UNL A   1      34.639  31.564  29.293  1.00  0.00     0.014 A 
ATOM     35  C   UNL A   1      37.205  32.590  28.901  1.00  0.00     0.010 A 
ATOM     36  C   UNL A   1      35.733  30.942  29.887  1.00  0.00     0.010 A 
ATOM     37  C   UNL A   1      37.028  31.443  29.694  1.00  0.00    -0.014 A 
BRANCH  37  38
ATOM     38  C   UNL A   1      38.184  30.772  30.342  1.00  0.00     0.031 A 
ATOM     39  C   UNL A   1      38.594  31.142  31.741  1.00  0.00     0.074 A 
ATOM     40  C   UNL A   1      38.914  29.883  29.639  1.00  0.00     0.049 A 
ATOM     41  N   UNL A   1      39.601  30.698  32.450  1.00  0.00    -0.248 NA
ATOM     42  C   UNL A   1      37.784  32.162  32.427  1.00  0.00     0.031 C 
ATOM     43  C   UNL A   1      38.663  29.494  28.249  1.00  0.00     0.029 A 
ATOM     44  N   UNL A   1      40.029  29.163  29.987  1.00  0.00    -0.354 N 
ATOM     45  C   UNL A   1      39.565  31.405  33.646  1.00  0.00     0.074 A 
ATOM     46  C   UNL A   1      38.459  32.332  33.555  1.00  0.00     0.031 C 
ATOM     47  C   UNL A   1      39.592  28.603  27.866  1.00  0.00     0.029 A 
ATOM     48  C   UNL A   1      40.524  28.384  28.967  1.00  0.00     0.049 A 
ATOM     49  H   UNL A   1      40.438  29.202  30.883  1.00  0.00     0.167 HD
ATOM     50  C   UNL A   1      40.364  31.275  34.733  1.00  0.00     0.034 A 
ATOM     51  C   UNL A   1      41.612  27.590  28.919  1.00  0.00     0.034 A 
ATOM     52  C   UNL A   1      41.443  30.330  34.831  1.00  0.00     0.049 A 
ATOM     53  C   UNL A   1      42.470  27.449  30.147  1.00  0.00     0.074 A 
ATOM     54  C   UNL A   1      42.257  30.064  35.919  1.00  0.00     0.029 A 
ATOM     55  N   UNL A   1      41.872  29.506  33.802  1.00  0.00    -0.354 N 
ATOM     56  N   UNL A   1      42.327  28.012  31.322  1.00  0.00    -0.248 NA
ATOM     57  C   UNL A   1      43.619  26.537  30.054  1.00  0.00     0.031 C 
ATOM     58  C   UNL A   1      43.200  29.105  35.535  1.00  0.00     0.029 A 
ATOM     59  C   UNL A   1      42.947  28.741  34.222  1.00  0.00     0.049 A 
ATOM     60  H   UNL A   1      41.470  29.469  32.903  1.00  0.00     0.167 HD
ATOM     61  C   UNL A   1      43.343  27.494  32.119  1.00  0.00     0.074 A 
ATOM     62  C   UNL A   1      44.079  26.556  31.297  1.00  0.00     0.031 C 
ATOM     63  C   UNL A   1      43.644  27.777  33.410  1.00  0.00     0.034 A 
BRANCH  50  64
ATOM     64  C   UNL A   1      40.072  32.149  35.926  1.00  0.00     0.023 A 
ATOM     65  C   UNL A   1      40.827  33.321  36.136  1.00  0.00     0.012 A 
ATOM     66  C   UNL A   1      39.013  31.845  36.805  1.00  0.00     0.148 A 
ATOM     67  C   UNL A   1      40.561  34.156  37.220  1.00  0.00     0.002 A 
ATOM     68  C   UNL A   1      38.721  32.707  37.856  1.00  0.00     0.091 A 
ATOM     69  F   UNL A   1      38.317  30.718  36.602  1.00  0.00    -0.205 F 
ATOM     70  C   UNL A   1      39.503  33.855  38.072  1.00  0.00     0.022 A 
BRANCH  68  71
ATOM     71  S   UNL A   1      37.328  32.456  38.961  1.00  0.00     0.127 S 
ATOM     72  O   UNL A   1      37.621  33.414  40.026  1.00  0.00    -0.237 OA
ATOM     73  O   UNL A   1      36.194  32.816  38.112  1.00  0.00    -0.237 OA
ATOM     74  O   UNL A   1      37.374  31.054  39.354  1.00  0.00    -0.744 OA
ENDBRANCH  68  71
ENDBRANCH  50  64
BRANCH  51  75
ATOM     75  C   UNL A   1      41.923  26.824  27.678  1.00  0.00     0.023 A 
ATOM     76  C   UNL A   1      42.450  27.498  26.560  1.00  0.00     0.012 A 
ATOM     77  C   UNL A   1      41.718  25.432  27.607  1.00  0.00     0.148 A 
ATOM     78  C   UNL A   1      42.732  26.809  25.380  1.00  0.00     0.002 A 
ATOM     79  C   UNL A   1      42.055  24.742  26.449  1.00  0.00     0.091 A 
ATOM     80  F   UNL A   1      41.209  24.810  28.679  1.00  0.00    -0.205 F 
ATOM     81  C   UNL A   1      42.543  25.431  25.328  1.00  0.00     0.022 A 
BRANCH  79  82
ATOM     82  S   UNL A   1      41.971  22.952  26.334  1.00  0.00     0.127 S 
ATOM     83  O   UNL A   1      40.532  22.714  26.425  1.00  0.00    -0.237 OA
ATOM     84  O   UNL A   1      42.554  22.708  25.014  1.00  0.00    -0.237 OA
ATOM     85  O   UNL A   1      42.766  22.447  27.445  1.00  0.00    -0.744 OA
ENDBRANCH  79  82
ENDBRANCH  51  75
BRANCH  63  86
ATOM     86  C   UNL A   1      44.795  27.035  34.039  1.00  0.00     0.023 A 
ATOM     87  C   UNL A   1      46.103  27.548  33.941  1.00  0.00     0.012 A 
ATOM     88  C   UNL A   1      44.566  25.864  34.787  1.00  0.00     0.148 A 
ATOM     89  C   UNL A   1      47.171  26.886  34.548  1.00  0.00     0.002 A 
ATOM     90  C   UNL A   1      45.625  25.239  35.434  1.00  0.00     0.091 A 
ATOM     91  F   UNL A   1      43.316  25.382  34.855  1.00  0.00    -0.205 F 
ATOM     92  C   UNL A   1      46.931  25.740  35.304  1.00  0.00     0.022 A 
BRANCH  90  93
ATOM     93  S   UNL A   1      45.398  23.819  36.509  1.00  0.00     0.127 S 
ATOM     94  O   UNL A   1      44.789  24.433  37.688  1.00  0.00    -0.237 OA
ATOM     95  O   UNL A   1      44.495  22.977  35.724  1.00  0.00    -0.237 OA
ATOM     96  O   UNL A   1      46.726  23.254  36.717  1.00  0.00    -0.744 OA
ENDBRANCH  90  93
ENDBRANCH  63  86
ENDBRANCH  37  38
ENDBRANCH  29  32
ENDBRANCH  27  28
ENDBRANCH  26  27
ENDBRANCH   1  26
TORSDOF 18
ENDMDL
