MODEL 1
REMARK VINA RESULT:     -11.7      0.000      0.000
REMARK SMILES C[C@@H](C(=O)NCCCCCCNC(=O)c1ccc(-c2c3nc(c(-c4cccc(S(=O)(=O)[O-])c4F)c4ccc([nH]4)c(-c4cccc(S(=O)(=O)[O-])c4F)c4nc(c(-c5cccc(S(=O)(=O)[O-])c5F)c5ccc2[nH]5)C=C4)C=C3)cc1)c1ccc(NC2CCCC2)cc1F
REMARK SMILES IDX 8 1 7 2 6 3 5 4 3 5 4 6 2 8 1 9 78 10 79 11 89 12 80 13
REMARK SMILES IDX 88 14 90 15 81 16 82 17 83 19 84 20 87 21 85 22 86 23 9 24
REMARK SMILES IDX 10 25 11 26 12 27 13 28 14 30 15 31 16 32 77 33 17 34 76 35
REMARK SMILES IDX 18 36 19 37 20 38 70 39 21 40 75 41 69 42 71 43 22 44 74 45
REMARK SMILES IDX 68 46 67 47 23 49 55 50 35 51 54 52 36 53 39 54 53 55 72 56
REMARK SMILES IDX 37 57 38 58 52 60 73 61 40 62 24 63 25 64 33 65 26 66 28 67
REMARK SMILES IDX 34 68 27 69 29 70 30 71 31 72 32 73 56 74 57 75 65 76 58 77
REMARK SMILES IDX 60 78 66 79 59 80 61 81 62 82 63 83 64 84 41 85 42 86 50 87
REMARK SMILES IDX 43 88 45 89 51 90 44 91 46 92 47 93 48 94 49 95
REMARK H PARENT 5 7 82 18 12 29 71 48 39 59
REMARK Flexibility Score: inf
ROOT
ATOM      1  C   UNL A   1      34.719  23.463  26.360  1.00  0.00     0.002 C 
ENDROOT
BRANCH   1   2
ATOM      2  C   UNL A   1      35.008  24.513  25.278  1.00  0.00     0.021 C 
BRANCH   2   3
ATOM      3  C   UNL A   1      34.208  25.807  25.462  1.00  0.00     0.116 C 
BRANCH   3   4
ATOM      4  N   UNL A   1      33.043  25.541  26.277  1.00  0.00    -0.356 N 
ATOM      5  C   UNL A   1      31.748  25.361  25.894  1.00  0.00     0.227 C 
ATOM      6  O   UNL A   1      30.892  25.444  26.780  1.00  0.00    -0.274 OA
ATOM      7  H   UNL A   1      33.211  25.478  27.244  1.00  0.00     0.163 HD
BRANCH   5   8
ATOM      8  C   UNL A   1      31.417  25.027  24.428  1.00  0.00     0.108 C 
ATOM      9  C   UNL A   1      29.988  25.445  24.044  1.00  0.00     0.023 C 
BRANCH   8  10
ATOM     10  C   UNL A   1      31.670  23.550  24.157  1.00  0.00     0.000 A 
ATOM     11  C   UNL A   1      31.455  22.569  25.125  1.00  0.00     0.009 A 
ATOM     12  C   UNL A   1      32.190  23.137  22.928  1.00  0.00     0.129 A 
ATOM     13  C   UNL A   1      31.733  21.230  24.857  1.00  0.00     0.026 A 
ATOM     14  C   UNL A   1      32.494  21.796  22.673  1.00  0.00     0.065 A 
ATOM     15  F   UNL A   1      32.413  24.041  21.962  1.00  0.00    -0.207 F 
ATOM     16  C   UNL A   1      32.271  20.810  23.640  1.00  0.00     0.037 A 
BRANCH  16  17
ATOM     17  N   UNL A   1      32.559  19.490  23.351  1.00  0.00    -0.382 N 
ATOM     18  H   UNL A   1      32.188  19.140  22.509  1.00  0.00     0.160 HD
BRANCH  17  19
ATOM     19  C   UNL A   1      33.345  18.556  24.143  1.00  0.00     0.079 C 
ATOM     20  C   UNL A   1      32.628  18.027  25.382  1.00  0.00     0.025 C 
ATOM     21  C   UNL A   1      33.830  17.341  23.351  1.00  0.00     0.025 C 
ATOM     22  C   UNL A   1      33.271  16.675  25.647  1.00  0.00     0.002 C 
ATOM     23  C   UNL A   1      33.744  16.149  24.298  1.00  0.00     0.002 C 
ENDBRANCH  17  19
ENDBRANCH  16  17
ENDBRANCH   8  10
ENDBRANCH   5   8
ENDBRANCH   3   4
ENDBRANCH   2   3
ENDBRANCH   1   2
BRANCH   1  24
ATOM     24  C   UNL A   1      35.356  22.095  26.102  1.00  0.00     0.002 C 
BRANCH  24  25
ATOM     25  C   UNL A   1      35.719  21.836  24.638  1.00  0.00     0.021 C 
BRANCH  25  26
ATOM     26  C   UNL A   1      37.218  21.822  24.368  1.00  0.00     0.116 C 
BRANCH  26  27
ATOM     27  N   UNL A   1      37.874  20.712  25.046  1.00  0.00    -0.352 N 
ATOM     28  C   UNL A   1      39.000  20.732  25.830  1.00  0.00     0.251 C 
ATOM     29  H   UNL A   1      37.454  19.830  24.924  1.00  0.00     0.163 HD
ATOM     30  O   UNL A   1      39.558  19.683  26.141  1.00  0.00    -0.269 OA
BRANCH  28  31
ATOM     31  C   UNL A   1      39.539  22.029  26.283  1.00  0.00     0.039 A 
ATOM     32  C   UNL A   1      40.831  22.086  26.806  1.00  0.00     0.014 A 
ATOM     33  C   UNL A   1      38.769  23.190  26.166  1.00  0.00     0.014 A 
ATOM     34  C   UNL A   1      41.376  23.321  27.163  1.00  0.00     0.010 A 
ATOM     35  C   UNL A   1      39.341  24.425  26.446  1.00  0.00     0.010 A 
ATOM     36  C   UNL A   1      40.647  24.504  26.956  1.00  0.00    -0.014 A 
BRANCH  36  37
ATOM     37  C   UNL A   1      41.227  25.836  27.257  1.00  0.00     0.031 A 
ATOM     38  C   UNL A   1      42.653  26.137  26.888  1.00  0.00     0.074 A 
ATOM     39  C   UNL A   1      40.509  26.733  27.959  1.00  0.00     0.049 A 
ATOM     40  N   UNL A   1      43.366  27.203  27.147  1.00  0.00    -0.248 NA
ATOM     41  C   UNL A   1      43.386  25.089  26.158  1.00  0.00     0.031 C 
ATOM     42  C   UNL A   1      39.145  26.525  28.450  1.00  0.00     0.029 A 
ATOM     43  N   UNL A   1      40.840  27.984  28.418  1.00  0.00    -0.354 N 
ATOM     44  C   UNL A   1      44.637  26.937  26.657  1.00  0.00     0.074 A 
ATOM     45  C   UNL A   1      44.608  25.597  26.112  1.00  0.00     0.031 C 
ATOM     46  C   UNL A   1      38.761  27.602  29.151  1.00  0.00     0.029 A 
ATOM     47  C   UNL A   1      39.861  28.562  29.191  1.00  0.00     0.049 A 
ATOM     48  H   UNL A   1      41.696  28.425  28.212  1.00  0.00     0.167 HD
ATOM     49  C   UNL A   1      45.725  27.742  26.638  1.00  0.00     0.034 A 
ATOM     50  C   UNL A   1      39.856  29.721  29.879  1.00  0.00     0.034 A 
ATOM     51  C   UNL A   1      45.738  29.086  27.151  1.00  0.00     0.049 A 
ATOM     52  C   UNL A   1      41.060  30.619  29.812  1.00  0.00     0.074 A 
ATOM     53  C   UNL A   1      46.755  30.022  27.085  1.00  0.00     0.029 A 
ATOM     54  N   UNL A   1      44.693  29.678  27.843  1.00  0.00    -0.354 N 
ATOM     55  N   UNL A   1      42.200  30.422  29.193  1.00  0.00    -0.248 NA
ATOM     56  C   UNL A   1      40.967  31.913  30.504  1.00  0.00     0.031 C 
ATOM     57  C   UNL A   1      46.339  31.166  27.775  1.00  0.00     0.029 A 
ATOM     58  C   UNL A   1      45.046  30.959  28.231  1.00  0.00     0.049 A 
ATOM     59  H   UNL A   1      43.826  29.250  28.032  1.00  0.00     0.167 HD
ATOM     60  C   UNL A   1      42.947  31.577  29.395  1.00  0.00     0.074 A 
ATOM     61  C   UNL A   1      42.124  32.475  30.178  1.00  0.00     0.031 C 
ATOM     62  C   UNL A   1      44.204  31.862  28.974  1.00  0.00     0.034 A 
BRANCH  49  63
ATOM     63  C   UNL A   1      46.986  27.198  26.017  1.00  0.00     0.023 A 
ATOM     64  C   UNL A   1      47.215  27.358  24.633  1.00  0.00     0.012 A 
ATOM     65  C   UNL A   1      47.960  26.555  26.806  1.00  0.00     0.148 A 
ATOM     66  C   UNL A   1      48.365  26.843  24.039  1.00  0.00     0.002 A 
ATOM     67  C   UNL A   1      49.129  26.091  26.214  1.00  0.00     0.091 A 
ATOM     68  F   UNL A   1      47.720  26.392  28.115  1.00  0.00    -0.205 F 
ATOM     69  C   UNL A   1      49.326  26.218  24.829  1.00  0.00     0.022 A 
BRANCH  67  70
ATOM     70  S   UNL A   1      50.462  25.349  27.161  1.00  0.00     0.127 S 
ATOM     71  O   UNL A   1      49.777  24.231  27.808  1.00  0.00    -0.237 OA
ATOM     72  O   UNL A   1      51.406  24.961  26.113  1.00  0.00    -0.237 OA
ATOM     73  O   UNL A   1      50.945  26.391  28.056  1.00  0.00    -0.744 OA
ENDBRANCH  67  70
ENDBRANCH  49  63
BRANCH  50  74
ATOM     74  C   UNL A   1      38.646  30.104  30.659  1.00  0.00     0.023 A 
ATOM     75  C   UNL A   1      38.545  29.743  32.015  1.00  0.00     0.012 A 
ATOM     76  C   UNL A   1      37.624  30.876  30.073  1.00  0.00     0.148 A 
ATOM     77  C   UNL A   1      37.435  30.124  32.770  1.00  0.00     0.002 A 
ATOM     78  C   UNL A   1      36.550  31.302  30.844  1.00  0.00     0.091 A 
ATOM     79  F   UNL A   1      37.739  31.202  28.778  1.00  0.00    -0.205 F 
ATOM     80  C   UNL A   1      36.444  30.913  32.189  1.00  0.00     0.022 A 
BRANCH  78  81
ATOM     81  S   UNL A   1      35.303  32.433  30.220  1.00  0.00     0.127 S 
ATOM     82  O   UNL A   1      36.094  33.630  29.946  1.00  0.00    -0.237 OA
ATOM     83  O   UNL A   1      34.824  31.725  29.033  1.00  0.00    -0.237 OA
ATOM     84  O   UNL A   1      34.315  32.562  31.283  1.00  0.00    -0.744 OA
ENDBRANCH  78  81
ENDBRANCH  50  74
BRANCH  62  85
ATOM     85  C   UNL A   1      44.770  33.217  29.310  1.00  0.00     0.023 A 
ATOM     86  C   UNL A   1      45.447  33.416  30.530  1.00  0.00     0.012 A 
ATOM     87  C   UNL A   1      44.713  34.265  28.371  1.00  0.00     0.148 A 
ATOM     88  C   UNL A   1      46.038  34.646  30.818  1.00  0.00     0.002 A 
ATOM     89  C   UNL A   1      45.348  35.471  28.643  1.00  0.00     0.091 A 
ATOM     90  F   UNL A   1      44.048  34.060  27.225  1.00  0.00    -0.205 F 
ATOM     91  C   UNL A   1      46.000  35.667  29.870  1.00  0.00     0.022 A 
BRANCH  89  92
ATOM     92  S   UNL A   1      45.440  36.805  27.445  1.00  0.00     0.127 S 
ATOM     93  O   UNL A   1      46.131  37.844  28.208  1.00  0.00    -0.237 OA
ATOM     94  O   UNL A   1      46.235  36.204  26.374  1.00  0.00    -0.237 OA
ATOM     95  O   UNL A   1      44.065  37.117  27.078  1.00  0.00    -0.744 OA
ENDBRANCH  89  92
ENDBRANCH  62  85
ENDBRANCH  36  37
ENDBRANCH  28  31
ENDBRANCH  26  27
ENDBRANCH  25  26
ENDBRANCH  24  25
ENDBRANCH   1  24
TORSDOF 19
ENDMDL
MODEL 2
REMARK VINA RESULT:     -11.5      1.047      7.783
REMARK SMILES C[C@@H](C(=O)NCCCCCCNC(=O)c1ccc(-c2c3nc(c(-c4cccc(S(=O)(=O)[O-])c4F)c4ccc([nH]4)c(-c4cccc(S(=O)(=O)[O-])c4F)c4nc(c(-c5cccc(S(=O)(=O)[O-])c5F)c5ccc2[nH]5)C=C4)C=C3)cc1)c1ccc(NC2CCCC2)cc1F
REMARK SMILES IDX 8 1 7 2 6 3 5 4 3 5 4 6 2 8 1 9 78 10 79 11 89 12 80 13
REMARK SMILES IDX 88 14 90 15 81 16 82 17 83 19 84 20 87 21 85 22 86 23 9 24
REMARK SMILES IDX 10 25 11 26 12 27 13 28 14 30 15 31 16 32 77 33 17 34 76 35
REMARK SMILES IDX 18 36 19 37 20 38 70 39 21 40 75 41 69 42 71 43 22 44 74 45
REMARK SMILES IDX 68 46 67 47 23 49 55 50 35 51 54 52 36 53 39 54 53 55 72 56
REMARK SMILES IDX 37 57 38 58 52 60 73 61 40 62 24 63 25 64 33 65 26 66 28 67
REMARK SMILES IDX 34 68 27 69 29 70 30 71 31 72 32 73 56 74 57 75 65 76 58 77
REMARK SMILES IDX 60 78 66 79 59 80 61 81 62 82 63 83 64 84 41 85 42 86 50 87
REMARK SMILES IDX 43 88 45 89 51 90 44 91 46 92 47 93 48 94 49 95
REMARK H PARENT 5 7 82 18 12 29 71 48 39 59
REMARK Flexibility Score: inf
ROOT
ATOM      1  C   UNL A   1      34.789  24.281  23.342  1.00  0.00     0.002 C 
ENDROOT
BRANCH   1   2
ATOM      2  C   UNL A   1      33.676  24.709  22.374  1.00  0.00     0.021 C 
BRANCH   2   3
ATOM      3  C   UNL A   1      33.063  26.070  22.720  1.00  0.00     0.116 C 
BRANCH   3   4
ATOM      4  N   UNL A   1      33.403  26.417  24.082  1.00  0.00    -0.356 N 
ATOM      5  C   UNL A   1      32.643  26.325  25.209  1.00  0.00     0.227 C 
ATOM      6  O   UNL A   1      33.036  26.953  26.197  1.00  0.00    -0.274 OA
ATOM      7  H   UNL A   1      34.312  26.769  24.214  1.00  0.00     0.163 HD
BRANCH   5   8
ATOM      8  C   UNL A   1      31.387  25.433  25.221  1.00  0.00     0.108 C 
ATOM      9  C   UNL A   1      30.309  25.957  26.183  1.00  0.00     0.023 C 
BRANCH   8  10
ATOM     10  C   UNL A   1      31.772  23.991  25.528  1.00  0.00     0.000 A 
ATOM     11  C   UNL A   1      32.535  23.647  26.644  1.00  0.00     0.009 A 
ATOM     12  C   UNL A   1      31.416  22.964  24.651  1.00  0.00     0.129 A 
ATOM     13  C   UNL A   1      32.902  22.323  26.876  1.00  0.00     0.026 A 
ATOM     14  C   UNL A   1      31.810  21.640  24.872  1.00  0.00     0.065 A 
ATOM     15  F   UNL A   1      30.681  23.241  23.563  1.00  0.00    -0.207 F 
ATOM     16  C   UNL A   1      32.567  21.292  25.996  1.00  0.00     0.037 A 
BRANCH  16  17
ATOM     17  N   UNL A   1      32.923  19.973  26.200  1.00  0.00    -0.382 N 
ATOM     18  H   UNL A   1      33.116  19.716  27.131  1.00  0.00     0.160 HD
BRANCH  17  19
ATOM     19  C   UNL A   1      33.045  18.919  25.204  1.00  0.00     0.079 C 
ATOM     20  C   UNL A   1      34.442  18.783  24.604  1.00  0.00     0.025 C 
ATOM     21  C   UNL A   1      32.642  17.538  25.724  1.00  0.00     0.025 C 
ATOM     22  C   UNL A   1      34.529  17.330  24.167  1.00  0.00     0.002 C 
ATOM     23  C   UNL A   1      33.609  16.543  25.092  1.00  0.00     0.002 C 
ENDBRANCH  17  19
ENDBRANCH  16  17
ENDBRANCH   8  10
ENDBRANCH   5   8
ENDBRANCH   3   4
ENDBRANCH   2   3
ENDBRANCH   1   2
BRANCH   1  24
ATOM     24  C   UNL A   1      34.934  22.767  23.510  1.00  0.00     0.002 C 
BRANCH  24  25
ATOM     25  C   UNL A   1      35.723  22.343  24.751  1.00  0.00     0.021 C 
BRANCH  25  26
ATOM     26  C   UNL A   1      37.226  22.247  24.522  1.00  0.00     0.116 C 
BRANCH  26  27
ATOM     27  N   UNL A   1      37.797  21.088  25.194  1.00  0.00    -0.352 N 
ATOM     28  C   UNL A   1      38.902  21.027  26.006  1.00  0.00     0.251 C 
ATOM     29  H   UNL A   1      37.329  20.235  25.046  1.00  0.00     0.163 HD
ATOM     30  O   UNL A   1      39.389  19.941  26.311  1.00  0.00    -0.269 OA
BRANCH  28  31
ATOM     31  C   UNL A   1      39.506  22.281  26.497  1.00  0.00     0.039 A 
ATOM     32  C   UNL A   1      40.659  22.222  27.280  1.00  0.00     0.014 A 
ATOM     33  C   UNL A   1      38.939  23.513  26.159  1.00  0.00     0.014 A 
ATOM     34  C   UNL A   1      41.280  23.407  27.681  1.00  0.00     0.010 A 
ATOM     35  C   UNL A   1      39.602  24.688  26.492  1.00  0.00     0.010 A 
ATOM     36  C   UNL A   1      40.773  24.649  27.264  1.00  0.00    -0.014 A 
BRANCH  36  37
ATOM     37  C   UNL A   1      41.453  25.921  27.613  1.00  0.00     0.031 A 
ATOM     38  C   UNL A   1      40.732  26.963  28.422  1.00  0.00     0.074 A 
ATOM     39  C   UNL A   1      42.675  26.184  27.112  1.00  0.00     0.049 A 
ATOM     40  N   UNL A   1      41.119  28.169  28.749  1.00  0.00    -0.248 NA
ATOM     41  C   UNL A   1      39.383  26.618  28.900  1.00  0.00     0.031 C 
ATOM     42  C   UNL A   1      43.442  25.288  26.243  1.00  0.00     0.029 A 
ATOM     43  N   UNL A   1      43.470  27.297  27.226  1.00  0.00    -0.354 N 
ATOM     44  C   UNL A   1      40.050  28.740  29.426  1.00  0.00     0.074 A 
ATOM     45  C   UNL A   1      38.985  27.761  29.437  1.00  0.00     0.031 C 
ATOM     46  C   UNL A   1      44.587  25.892  25.892  1.00  0.00     0.029 A 
ATOM     47  C   UNL A   1      44.622  27.228  26.480  1.00  0.00     0.049 A 
ATOM     48  H   UNL A   1      43.237  28.071  27.788  1.00  0.00     0.167 HD
ATOM     49  C   UNL A   1      39.969  29.959  30.009  1.00  0.00     0.034 A 
ATOM     50  C   UNL A   1      45.588  28.144  26.269  1.00  0.00     0.034 A 
ATOM     51  C   UNL A   1      41.044  30.915  30.025  1.00  0.00     0.049 A 
ATOM     52  C   UNL A   1      45.498  29.477  26.958  1.00  0.00     0.074 A 
ATOM     53  C   UNL A   1      41.101  32.133  30.678  1.00  0.00     0.029 A 
ATOM     54  N   UNL A   1      42.240  30.771  29.340  1.00  0.00    -0.354 N 
ATOM     55  N   UNL A   1      44.551  29.936  27.740  1.00  0.00    -0.248 NA
ATOM     56  C   UNL A   1      46.622  30.405  26.767  1.00  0.00     0.031 C 
ATOM     57  C   UNL A   1      42.317  32.744  30.352  1.00  0.00     0.029 A 
ATOM     58  C   UNL A   1      43.035  31.887  29.534  1.00  0.00     0.049 A 
ATOM     59  H   UNL A   1      42.488  29.989  28.794  1.00  0.00     0.167 HD
ATOM     60  C   UNL A   1      44.977  31.190  28.160  1.00  0.00     0.074 A 
ATOM     61  C   UNL A   1      46.276  31.412  27.559  1.00  0.00     0.031 C 
ATOM     62  C   UNL A   1      44.345  32.080  28.965  1.00  0.00     0.034 A 
BRANCH  49  63
ATOM     63  C   UNL A   1      38.679  30.316  30.704  1.00  0.00     0.023 A 
ATOM     64  C   UNL A   1      38.464  29.913  32.039  1.00  0.00     0.012 A 
ATOM     65  C   UNL A   1      37.692  31.077  30.047  1.00  0.00     0.148 A 
ATOM     66  C   UNL A   1      37.270  30.216  32.690  1.00  0.00     0.002 A 
ATOM     67  C   UNL A   1      36.526  31.420  30.720  1.00  0.00     0.091 A 
ATOM     68  F   UNL A   1      37.902  31.435  28.772  1.00  0.00    -0.205 F 
ATOM     69  C   UNL A   1      36.305  30.977  32.035  1.00  0.00     0.022 A 
BRANCH  67  70
ATOM     70  S   UNL A   1      35.263  32.468  29.991  1.00  0.00     0.127 S 
ATOM     71  O   UNL A   1      34.771  31.624  28.903  1.00  0.00    -0.237 OA
ATOM     72  O   UNL A   1      34.325  32.639  31.101  1.00  0.00    -0.237 OA
ATOM     73  O   UNL A   1      35.943  33.688  29.580  1.00  0.00    -0.744 OA
ENDBRANCH  67  70
ENDBRANCH  49  63
BRANCH  50  74
ATOM     74  C   UNL A   1      46.740  27.804  25.388  1.00  0.00     0.023 A 
ATOM     75  C   UNL A   1      46.666  28.064  24.007  1.00  0.00     0.012 A 
ATOM     76  C   UNL A   1      47.930  27.277  25.927  1.00  0.00     0.148 A 
ATOM     77  C   UNL A   1      47.750  27.784  23.173  1.00  0.00     0.002 A 
ATOM     78  C   UNL A   1      49.025  27.055  25.102  1.00  0.00     0.091 A 
ATOM     79  F   UNL A   1      47.975  27.031  27.244  1.00  0.00    -0.205 F 
ATOM     80  C   UNL A   1      48.932  27.292  23.721  1.00  0.00     0.022 A 
BRANCH  78  81
ATOM     81  S   UNL A   1      50.629  26.557  25.739  1.00  0.00     0.127 S 
ATOM     82  O   UNL A   1      50.959  27.672  26.624  1.00  0.00    -0.237 OA
ATOM     83  O   UNL A   1      50.303  25.304  26.420  1.00  0.00    -0.237 OA
ATOM     84  O   UNL A   1      51.489  26.403  24.574  1.00  0.00    -0.744 OA
ENDBRANCH  78  81
ENDBRANCH  50  74
BRANCH  62  85
ATOM     85  C   UNL A   1      45.055  33.369  29.287  1.00  0.00     0.023 A 
ATOM     86  C   UNL A   1      45.982  33.419  30.347  1.00  0.00     0.012 A 
ATOM     87  C   UNL A   1      44.873  34.504  28.472  1.00  0.00     0.148 A 
ATOM     88  C   UNL A   1      46.698  34.588  30.606  1.00  0.00     0.002 A 
ATOM     89  C   UNL A   1      45.627  35.648  28.703  1.00  0.00     0.091 A 
ATOM     90  F   UNL A   1      43.973  34.440  27.480  1.00  0.00    -0.205 F 
ATOM     91  C   UNL A   1      46.531  35.696  29.776  1.00  0.00     0.022 A 
BRANCH  89  92
ATOM     92  S   UNL A   1      45.555  37.085  27.629  1.00  0.00     0.127 S 
ATOM     93  O   UNL A   1      46.513  37.985  28.272  1.00  0.00    -0.237 OA
ATOM     94  O   UNL A   1      46.000  36.536  26.349  1.00  0.00    -0.237 OA
ATOM     95  O   UNL A   1      44.171  37.537  27.649  1.00  0.00    -0.744 OA
ENDBRANCH  89  92
ENDBRANCH  62  85
ENDBRANCH  36  37
ENDBRANCH  28  31
ENDBRANCH  26  27
ENDBRANCH  25  26
ENDBRANCH  24  25
ENDBRANCH   1  24
TORSDOF 19
ENDMDL
MODEL 3
REMARK VINA RESULT:     -11.4      4.432      9.213
REMARK SMILES C[C@@H](C(=O)NCCCCCCNC(=O)c1ccc(-c2c3nc(c(-c4cccc(S(=O)(=O)[O-])c4F)c4ccc([nH]4)c(-c4cccc(S(=O)(=O)[O-])c4F)c4nc(c(-c5cccc(S(=O)(=O)[O-])c5F)c5ccc2[nH]5)C=C4)C=C3)cc1)c1ccc(NC2CCCC2)cc1F
REMARK SMILES IDX 8 1 7 2 6 3 5 4 3 5 4 6 2 8 1 9 78 10 79 11 89 12 80 13
REMARK SMILES IDX 88 14 90 15 81 16 82 17 83 19 84 20 87 21 85 22 86 23 9 24
REMARK SMILES IDX 10 25 11 26 12 27 13 28 14 30 15 31 16 32 77 33 17 34 76 35
REMARK SMILES IDX 18 36 19 37 20 38 70 39 21 40 75 41 69 42 71 43 22 44 74 45
REMARK SMILES IDX 68 46 67 47 23 49 55 50 35 51 54 52 36 53 39 54 53 55 72 56
REMARK SMILES IDX 37 57 38 58 52 60 73 61 40 62 24 63 25 64 33 65 26 66 28 67
REMARK SMILES IDX 34 68 27 69 29 70 30 71 31 72 32 73 56 74 57 75 65 76 58 77
REMARK SMILES IDX 60 78 66 79 59 80 61 81 62 82 63 83 64 84 41 85 42 86 50 87
REMARK SMILES IDX 43 88 45 89 51 90 44 91 46 92 47 93 48 94 49 95
REMARK H PARENT 5 7 82 18 12 29 71 48 39 59
REMARK Flexibility Score: inf
ROOT
ATOM      1  C   UNL A   1      31.002  28.237  23.911  1.00  0.00     0.002 C 
ENDROOT
BRANCH   1   2
ATOM      2  C   UNL A   1      30.908  26.831  24.520  1.00  0.00     0.021 C 
BRANCH   2   3
ATOM      3  C   UNL A   1      30.577  25.746  23.490  1.00  0.00     0.116 C 
BRANCH   3   4
ATOM      4  N   UNL A   1      31.792  25.330  22.823  1.00  0.00    -0.356 N 
ATOM      5  C   UNL A   1      33.024  25.088  23.353  1.00  0.00     0.227 C 
ATOM      6  O   UNL A   1      33.968  25.036  22.559  1.00  0.00    -0.274 OA
ATOM      7  H   UNL A   1      31.717  25.202  21.851  1.00  0.00     0.163 HD
BRANCH   5   8
ATOM      8  C   UNL A   1      33.180  24.851  24.867  1.00  0.00     0.108 C 
ATOM      9  C   UNL A   1      34.428  25.542  25.439  1.00  0.00     0.023 C 
BRANCH   8  10
ATOM     10  C   UNL A   1      33.167  23.358  25.167  1.00  0.00     0.000 A 
ATOM     11  C   UNL A   1      34.318  22.573  25.082  1.00  0.00     0.009 A 
ATOM     12  C   UNL A   1      31.970  22.712  25.483  1.00  0.00     0.129 A 
ATOM     13  C   UNL A   1      34.264  21.203  25.326  1.00  0.00     0.026 A 
ATOM     14  C   UNL A   1      31.916  21.331  25.700  1.00  0.00     0.065 A 
ATOM     15  F   UNL A   1      30.835  23.421  25.580  1.00  0.00    -0.207 F 
ATOM     16  C   UNL A   1      33.070  20.544  25.624  1.00  0.00     0.037 A 
BRANCH  16  17
ATOM     17  N   UNL A   1      32.990  19.186  25.866  1.00  0.00    -0.382 N 
ATOM     18  H   UNL A   1      33.038  18.912  26.810  1.00  0.00     0.160 HD
BRANCH  17  19
ATOM     19  C   UNL A   1      32.843  18.115  24.892  1.00  0.00     0.079 C 
ATOM     20  C   UNL A   1      32.349  18.577  23.524  1.00  0.00     0.025 C 
ATOM     21  C   UNL A   1      34.129  17.320  24.661  1.00  0.00     0.025 C 
ATOM     22  C   UNL A   1      32.889  17.539  22.553  1.00  0.00     0.002 C 
ATOM     23  C   UNL A   1      34.169  16.991  23.173  1.00  0.00     0.002 C 
ENDBRANCH  17  19
ENDBRANCH  16  17
ENDBRANCH   8  10
ENDBRANCH   5   8
ENDBRANCH   3   4
ENDBRANCH   2   3
ENDBRANCH   1   2
BRANCH   1  24
ATOM     24  C   UNL A   1      31.745  29.255  24.780  1.00  0.00     0.002 C 
BRANCH  24  25
ATOM     25  C   UNL A   1      33.263  29.062  24.819  1.00  0.00     0.021 C 
BRANCH  25  26
ATOM     26  C   UNL A   1      33.861  29.164  26.216  1.00  0.00     0.116 C 
BRANCH  26  27
ATOM     27  N   UNL A   1      33.843  30.534  26.709  1.00  0.00    -0.352 N 
ATOM     28  C   UNL A   1      34.635  31.110  27.670  1.00  0.00     0.251 C 
ATOM     29  H   UNL A   1      33.172  31.126  26.298  1.00  0.00     0.163 HD
ATOM     30  O   UNL A   1      34.346  32.210  28.135  1.00  0.00    -0.269 OA
BRANCH  28  31
ATOM     31  C   UNL A   1      35.830  30.387  28.147  1.00  0.00     0.039 A 
ATOM     32  C   UNL A   1      37.003  30.437  27.393  1.00  0.00     0.014 A 
ATOM     33  C   UNL A   1      35.790  29.680  29.352  1.00  0.00     0.014 A 
ATOM     34  C   UNL A   1      38.159  29.821  27.878  1.00  0.00     0.010 A 
ATOM     35  C   UNL A   1      36.959  29.137  29.869  1.00  0.00     0.010 A 
ATOM     36  C   UNL A   1      38.154  29.193  29.134  1.00  0.00    -0.014 A 
BRANCH  36  37
ATOM     37  C   UNL A   1      39.385  28.594  29.708  1.00  0.00     0.031 A 
ATOM     38  C   UNL A   1      40.054  29.236  30.891  1.00  0.00     0.074 A 
ATOM     39  C   UNL A   1      39.960  27.540  29.097  1.00  0.00     0.049 A 
ATOM     40  N   UNL A   1      41.181  28.919  31.475  1.00  0.00    -0.248 NA
ATOM     41  C   UNL A   1      39.386  30.410  31.477  1.00  0.00     0.031 C 
ATOM     42  C   UNL A   1      39.454  26.883  27.891  1.00  0.00     0.029 A 
ATOM     43  N   UNL A   1      41.119  26.862  29.384  1.00  0.00    -0.354 N 
ATOM     44  C   UNL A   1      41.379  29.876  32.461  1.00  0.00     0.074 A 
ATOM     45  C   UNL A   1      40.273  30.805  32.377  1.00  0.00     0.031 C 
ATOM     46  C   UNL A   1      40.302  25.908  27.533  1.00  0.00     0.029 A 
ATOM     47  C   UNL A   1      41.430  25.892  28.461  1.00  0.00     0.049 A 
ATOM     48  H   UNL A   1      41.675  27.053  30.174  1.00  0.00     0.167 HD
ATOM     49  C   UNL A   1      42.378  29.962  33.371  1.00  0.00     0.034 A 
ATOM     50  C   UNL A   1      42.512  25.096  28.355  1.00  0.00     0.034 A 
ATOM     51  C   UNL A   1      43.457  29.016  33.471  1.00  0.00     0.049 A 
ATOM     52  C   UNL A   1      43.590  25.181  29.399  1.00  0.00     0.074 A 
ATOM     53  C   UNL A   1      44.459  28.953  34.423  1.00  0.00     0.029 A 
ATOM     54  N   UNL A   1      43.688  27.983  32.576  1.00  0.00    -0.354 N 
ATOM     55  N   UNL A   1      43.675  25.985  30.431  1.00  0.00    -0.248 NA
ATOM     56  C   UNL A   1      44.704  24.227  29.288  1.00  0.00     0.031 C 
ATOM     57  C   UNL A   1      45.320  27.905  34.079  1.00  0.00     0.029 A 
ATOM     58  C   UNL A   1      44.828  27.288  32.939  1.00  0.00     0.049 A 
ATOM     59  H   UNL A   1      43.123  27.773  31.797  1.00  0.00     0.167 HD
ATOM     60  C   UNL A   1      44.830  25.616  31.109  1.00  0.00     0.074 A 
ATOM     61  C   UNL A   1      45.404  24.504  30.380  1.00  0.00     0.031 C 
ATOM     62  C   UNL A   1      45.369  26.155  32.231  1.00  0.00     0.034 A 
BRANCH  49  63
ATOM     63  C   UNL A   1      42.333  31.108  34.350  1.00  0.00     0.023 A 
ATOM     64  C   UNL A   1      41.716  30.934  35.608  1.00  0.00     0.012 A 
ATOM     65  C   UNL A   1      42.928  32.346  34.040  1.00  0.00     0.148 A 
ATOM     66  C   UNL A   1      41.646  31.988  36.517  1.00  0.00     0.002 A 
ATOM     67  C   UNL A   1      42.900  33.376  34.974  1.00  0.00     0.091 A 
ATOM     68  F   UNL A   1      43.492  32.503  32.834  1.00  0.00    -0.205 F 
ATOM     69  C   UNL A   1      42.246  33.205  36.205  1.00  0.00     0.022 A 
BRANCH  67  70
ATOM     70  S   UNL A   1      43.718  34.950  34.698  1.00  0.00     0.127 S 
ATOM     71  O   UNL A   1      43.718  35.522  36.044  1.00  0.00    -0.237 OA
ATOM     72  O   UNL A   1      45.034  34.534  34.214  1.00  0.00    -0.237 OA
ATOM     73  O   UNL A   1      42.907  35.656  33.717  1.00  0.00    -0.744 OA
ENDBRANCH  67  70
ENDBRANCH  49  63
BRANCH  50  74
ATOM     74  C   UNL A   1      42.599  24.126  27.228  1.00  0.00     0.023 A 
ATOM     75  C   UNL A   1      43.331  24.457  26.073  1.00  0.00     0.012 A 
ATOM     76  C   UNL A   1      42.006  22.852  27.325  1.00  0.00     0.148 A 
ATOM     77  C   UNL A   1      43.453  23.546  25.023  1.00  0.00     0.002 A 
ATOM     78  C   UNL A   1      42.179  21.927  26.302  1.00  0.00     0.091 A 
ATOM     79  F   UNL A   1      41.308  22.560  28.431  1.00  0.00    -0.205 F 
ATOM     80  C   UNL A   1      42.888  22.279  25.142  1.00  0.00     0.022 A 
BRANCH  78  81
ATOM     81  S   UNL A   1      41.609  20.229  26.429  1.00  0.00     0.127 S 
ATOM     82  O   UNL A   1      40.161  20.391  26.322  1.00  0.00    -0.237 OA
ATOM     83  O   UNL A   1      42.248  19.612  25.266  1.00  0.00    -0.237 OA
ATOM     84  O   UNL A   1      42.095  19.742  27.712  1.00  0.00    -0.744 OA
ENDBRANCH  78  81
ENDBRANCH  50  74
BRANCH  62  85
ATOM     85  C   UNL A   1      46.628  25.535  32.777  1.00  0.00     0.023 A 
ATOM     86  C   UNL A   1      47.887  26.020  32.373  1.00  0.00     0.012 A 
ATOM     87  C   UNL A   1      46.557  24.533  33.765  1.00  0.00     0.148 A 
ATOM     88  C   UNL A   1      49.057  25.501  32.928  1.00  0.00     0.002 A 
ATOM     89  C   UNL A   1      47.724  24.057  34.351  1.00  0.00     0.091 A 
ATOM     90  F   UNL A   1      45.349  24.073  34.122  1.00  0.00    -0.205 F 
ATOM     91  C   UNL A   1      48.975  24.532  33.926  1.00  0.00     0.022 A 
BRANCH  89  92
ATOM     92  S   UNL A   1      47.712  22.885  35.712  1.00  0.00     0.127 S 
ATOM     93  O   UNL A   1      47.153  21.694  35.073  1.00  0.00    -0.237 OA
ATOM     94  O   UNL A   1      49.133  22.787  36.046  1.00  0.00    -0.237 OA
ATOM     95  O   UNL A   1      46.883  23.479  36.751  1.00  0.00    -0.744 OA
ENDBRANCH  89  92
ENDBRANCH  62  85
ENDBRANCH  36  37
ENDBRANCH  28  31
ENDBRANCH  26  27
ENDBRANCH  25  26
ENDBRANCH  24  25
ENDBRANCH   1  24
TORSDOF 19
ENDMDL
