MODEL 1
REMARK VINA RESULT:     -13.3      0.000      0.000
REMARK SMILES Cc1ccc(S(=O)(=O)N2c3ccc(C(=O)NCCCCCCNC(=O)c4ccc(-c5c6nc(c(-c7cccc(S(=O)(=O)[O-])c7F)c7ccc([nH]7)c(-c7cccc(S(=O)(=O)[O-])c7F)c7nc(c(-c8cccc(S(=O)(=O)[O-])c8F)c8ccc5[nH]8)C=C7)C=C6)cc4)cc3C[C@H]2C)cc1
REMARK SMILES IDX 20 1 19 2 18 3 17 4 16 5 14 6 15 7 13 9 9 10 10 11 92 12
REMARK SMILES IDX 11 13 90 14 91 15 93 16 12 17 89 18 6 19 7 20 8 21 5 22 1 23
REMARK SMILES IDX 2 24 3 25 95 26 4 27 94 28 21 29 22 30 23 31 24 32 25 34
REMARK SMILES IDX 26 35 27 36 88 37 28 38 87 39 29 40 30 41 31 42 81 43 32 44
REMARK SMILES IDX 86 45 80 46 82 47 33 48 85 49 79 50 78 51 34 53 66 54 46 55
REMARK SMILES IDX 65 56 47 57 50 58 64 59 83 60 48 61 49 62 63 64 84 65 51 66
REMARK SMILES IDX 35 67 36 68 44 69 37 70 39 71 45 72 38 73 40 74 41 75 42 76
REMARK SMILES IDX 43 77 67 78 68 79 76 80 69 81 71 82 77 83 70 84 72 85 73 86
REMARK SMILES IDX 74 87 75 88 52 89 53 90 61 91 54 92 56 93 62 94 55 95 57 96
REMARK SMILES IDX 58 97 59 98 60 99
REMARK H PARENT 16 8 23 33 82 52 50 63
REMARK Flexibility Score: inf
ROOT
ATOM      1  C   UNL A   1      36.186  21.395  24.455  1.00  0.00     0.002 C 
ENDROOT
BRANCH   1   2
ATOM      2  C   UNL A   1      35.117  20.422  24.972  1.00  0.00     0.002 C 
BRANCH   2   3
ATOM      3  C   UNL A   1      33.940  20.988  25.768  1.00  0.00     0.021 C 
BRANCH   3   4
ATOM      4  C   UNL A   1      32.543  20.509  25.402  1.00  0.00     0.116 C 
BRANCH   4   5
ATOM      5  N   UNL A   1      32.307  20.273  23.993  1.00  0.00    -0.352 N 
ATOM      6  C   UNL A   1      32.208  21.194  22.972  1.00  0.00     0.251 C 
ATOM      7  O   UNL A   1      32.011  20.803  21.823  1.00  0.00    -0.269 OA
ATOM      8  H   UNL A   1      32.203  19.330  23.730  1.00  0.00     0.163 HD
BRANCH   6   9
ATOM      9  C   UNL A   1      32.264  22.659  23.244  1.00  0.00     0.040 A 
ATOM     10  N   UNL A   1      32.206  26.694  24.498  1.00  0.00    -0.263 N 
ATOM     11  C   UNL A   1      32.351  25.345  23.984  1.00  0.00     0.055 A 
ATOM     12  C   UNL A   1      30.836  26.695  25.157  1.00  0.00     0.101 C 
ATOM     13  C   UNL A   1      33.470  24.779  23.403  1.00  0.00     0.028 A 
ATOM     14  C   UNL A   1      31.181  24.605  24.136  1.00  0.00    -0.021 A 
ATOM     15  C   UNL A   1      30.071  25.469  24.619  1.00  0.00     0.063 C 
ATOM     16  C   UNL A   1      31.033  26.575  26.674  1.00  0.00     0.032 C 
ATOM     17  C   UNL A   1      33.402  23.447  22.983  1.00  0.00     0.016 A 
ATOM     18  C   UNL A   1      31.121  23.263  23.785  1.00  0.00     0.019 A 
BRANCH  10  19
ATOM     19  S   UNL A   1      32.495  27.880  23.283  1.00  0.00     0.264 S 
ATOM     20  O   UNL A   1      32.394  27.222  21.996  1.00  0.00    -0.201 OA
ATOM     21  O   UNL A   1      33.699  28.607  23.647  1.00  0.00    -0.201 OA
BRANCH  19  22
ATOM     22  C   UNL A   1      31.198  29.107  23.303  1.00  0.00     0.088 A 
ATOM     23  C   UNL A   1      27.606  31.483  23.419  1.00  0.00     0.044 C 
ATOM     24  C   UNL A   1      28.883  30.700  23.351  1.00  0.00    -0.051 A 
ATOM     25  C   UNL A   1      29.111  29.825  22.287  1.00  0.00     0.005 A 
ATOM     26  C   UNL A   1      29.861  30.833  24.343  1.00  0.00     0.005 A 
ATOM     27  C   UNL A   1      30.260  29.031  22.264  1.00  0.00     0.022 A 
ATOM     28  C   UNL A   1      31.020  30.046  24.315  1.00  0.00     0.022 A 
ENDBRANCH  19  22
ENDBRANCH  10  19
ENDBRANCH   6   9
ENDBRANCH   4   5
ENDBRANCH   3   4
ENDBRANCH   2   3
ENDBRANCH   1   2
BRANCH   1  29
ATOM     29  C   UNL A   1      37.613  21.238  24.977  1.00  0.00     0.021 C 
BRANCH  29  30
ATOM     30  C   UNL A   1      38.166  22.429  25.741  1.00  0.00     0.116 C 
BRANCH  30  31
ATOM     31  N   UNL A   1      39.533  22.252  26.180  1.00  0.00    -0.352 N 
ATOM     32  C   UNL A   1      40.485  23.200  26.528  1.00  0.00     0.251 C 
ATOM     33  H   UNL A   1      39.834  21.316  26.242  1.00  0.00     0.163 HD
ATOM     34  O   UNL A   1      41.646  22.853  26.593  1.00  0.00    -0.269 OA
BRANCH  32  35
ATOM     35  C   UNL A   1      40.060  24.565  26.955  1.00  0.00     0.039 A 
ATOM     36  C   UNL A   1      40.650  25.653  26.296  1.00  0.00     0.014 A 
ATOM     37  C   UNL A   1      39.282  24.789  28.087  1.00  0.00     0.014 A 
ATOM     38  C   UNL A   1      40.673  26.908  26.905  1.00  0.00     0.010 A 
ATOM     39  C   UNL A   1      39.367  26.003  28.731  1.00  0.00     0.010 A 
ATOM     40  C   UNL A   1      40.126  27.034  28.174  1.00  0.00    -0.014 A 
BRANCH  40  41
ATOM     41  C   UNL A   1      40.316  28.171  29.057  1.00  0.00     0.031 A 
ATOM     42  C   UNL A   1      39.433  29.341  28.959  1.00  0.00     0.074 A 
ATOM     43  C   UNL A   1      41.152  28.015  30.105  1.00  0.00     0.049 A 
ATOM     44  N   UNL A   1      39.630  30.451  29.582  1.00  0.00    -0.248 NA
ATOM     45  C   UNL A   1      38.268  29.359  28.088  1.00  0.00     0.031 C 
ATOM     46  C   UNL A   1      41.175  28.774  31.348  1.00  0.00     0.029 A 
ATOM     47  N   UNL A   1      42.324  27.252  30.145  1.00  0.00    -0.354 N 
ATOM     48  C   UNL A   1      38.497  31.220  29.424  1.00  0.00     0.074 A 
ATOM     49  C   UNL A   1      37.741  30.547  28.397  1.00  0.00     0.031 C 
ATOM     50  C   UNL A   1      42.398  28.672  31.888  1.00  0.00     0.029 A 
ATOM     51  C   UNL A   1      43.237  28.000  30.910  1.00  0.00     0.049 A 
ATOM     52  H   UNL A   1      42.479  26.376  29.725  1.00  0.00     0.167 HD
ATOM     53  C   UNL A   1      38.287  32.251  30.293  1.00  0.00     0.034 A 
ATOM     54  C   UNL A   1      44.416  28.479  30.420  1.00  0.00     0.034 A 
ATOM     55  C   UNL A   1      39.485  32.481  31.118  1.00  0.00     0.049 A 
ATOM     56  C   UNL A   1      44.546  29.986  30.543  1.00  0.00     0.074 A 
ATOM     57  C   UNL A   1      39.836  32.121  32.410  1.00  0.00     0.029 A 
ATOM     58  N   UNL A   1      40.649  32.940  30.509  1.00  0.00    -0.354 N 
ATOM     59  N   UNL A   1      43.572  30.784  30.888  1.00  0.00    -0.248 NA
ATOM     60  C   UNL A   1      45.781  30.716  30.272  1.00  0.00     0.031 C 
ATOM     61  C   UNL A   1      41.245  32.276  32.538  1.00  0.00     0.029 A 
ATOM     62  C   UNL A   1      41.743  32.765  31.342  1.00  0.00     0.049 A 
ATOM     63  H   UNL A   1      40.689  33.334  29.609  1.00  0.00     0.167 HD
ATOM     64  C   UNL A   1      43.969  32.090  30.772  1.00  0.00     0.074 A 
ATOM     65  C   UNL A   1      45.387  31.989  30.464  1.00  0.00     0.031 C 
ATOM     66  C   UNL A   1      43.081  33.130  30.879  1.00  0.00     0.034 A 
BRANCH  53  67
ATOM     67  C   UNL A   1      36.941  32.902  30.608  1.00  0.00     0.023 A 
ATOM     68  C   UNL A   1      36.443  32.741  31.923  1.00  0.00     0.012 A 
ATOM     69  C   UNL A   1      36.076  33.573  29.711  1.00  0.00     0.148 A 
ATOM     70  C   UNL A   1      35.154  33.141  32.300  1.00  0.00     0.002 A 
ATOM     71  C   UNL A   1      34.780  33.952  30.076  1.00  0.00     0.091 A 
ATOM     72  F   UNL A   1      36.490  33.893  28.490  1.00  0.00    -0.205 F 
ATOM     73  C   UNL A   1      34.311  33.729  31.369  1.00  0.00     0.022 A 
BRANCH  71  74
ATOM     74  S   UNL A   1      33.623  34.697  28.906  1.00  0.00     0.127 S 
ATOM     75  O   UNL A   1      33.398  33.601  27.962  1.00  0.00    -0.237 OA
ATOM     76  O   UNL A   1      32.477  35.012  29.758  1.00  0.00    -0.237 OA
ATOM     77  O   UNL A   1      34.298  35.855  28.332  1.00  0.00    -0.744 OA
ENDBRANCH  71  74
ENDBRANCH  53  67
BRANCH  54  78
ATOM     78  C   UNL A   1      44.998  27.638  29.331  1.00  0.00     0.023 A 
ATOM     79  C   UNL A   1      45.404  26.330  29.688  1.00  0.00     0.012 A 
ATOM     80  C   UNL A   1      44.777  27.932  27.972  1.00  0.00     0.148 A 
ATOM     81  C   UNL A   1      45.452  25.307  28.740  1.00  0.00     0.002 A 
ATOM     82  C   UNL A   1      44.831  26.904  27.030  1.00  0.00     0.091 A 
ATOM     83  F   UNL A   1      44.437  29.181  27.634  1.00  0.00    -0.205 F 
ATOM     84  C   UNL A   1      45.129  25.587  27.417  1.00  0.00     0.022 A 
BRANCH  82  85
ATOM     85  S   UNL A   1      44.387  27.178  25.308  1.00  0.00     0.127 S 
ATOM     86  O   UNL A   1      44.038  25.829  24.878  1.00  0.00    -0.237 OA
ATOM     87  O   UNL A   1      43.258  28.102  25.417  1.00  0.00    -0.237 OA
ATOM     88  O   UNL A   1      45.577  27.763  24.707  1.00  0.00    -0.744 OA
ENDBRANCH  82  85
ENDBRANCH  54  78
BRANCH  66  89
ATOM     89  C   UNL A   1      43.365  34.587  30.536  1.00  0.00     0.023 A 
ATOM     90  C   UNL A   1      43.836  35.514  31.484  1.00  0.00     0.012 A 
ATOM     91  C   UNL A   1      43.310  35.041  29.189  1.00  0.00     0.148 A 
ATOM     92  C   UNL A   1      44.182  36.827  31.138  1.00  0.00     0.002 A 
ATOM     93  C   UNL A   1      43.764  36.309  28.832  1.00  0.00     0.091 A 
ATOM     94  F   UNL A   1      42.793  34.252  28.235  1.00  0.00    -0.205 F 
ATOM     95  C   UNL A   1      44.172  37.218  29.808  1.00  0.00     0.022 A 
BRANCH  93  96
ATOM     96  S   UNL A   1      43.999  36.748  27.102  1.00  0.00     0.127 S 
ATOM     97  O   UNL A   1      44.798  35.630  26.607  1.00  0.00    -0.237 OA
ATOM     98  O   UNL A   1      42.626  36.786  26.594  1.00  0.00    -0.237 OA
ATOM     99  O   UNL A   1      44.655  38.050  27.136  1.00  0.00    -0.744 OA
ENDBRANCH  93  96
ENDBRANCH  66  89
ENDBRANCH  40  41
ENDBRANCH  32  35
ENDBRANCH  30  31
ENDBRANCH  29  30
ENDBRANCH   1  29
TORSDOF 18
ENDMDL
MODEL 2
REMARK VINA RESULT:     -13.0      4.236      9.944
REMARK SMILES Cc1ccc(S(=O)(=O)N2c3ccc(C(=O)NCCCCCCNC(=O)c4ccc(-c5c6nc(c(-c7cccc(S(=O)(=O)[O-])c7F)c7ccc([nH]7)c(-c7cccc(S(=O)(=O)[O-])c7F)c7nc(c(-c8cccc(S(=O)(=O)[O-])c8F)c8ccc5[nH]8)C=C7)C=C6)cc4)cc3C[C@H]2C)cc1
REMARK SMILES IDX 20 1 19 2 18 3 17 4 16 5 14 6 15 7 13 9 9 10 10 11 92 12
REMARK SMILES IDX 11 13 90 14 91 15 93 16 12 17 89 18 6 19 7 20 8 21 5 22 1 23
REMARK SMILES IDX 2 24 3 25 95 26 4 27 94 28 21 29 22 30 23 31 24 32 25 34
REMARK SMILES IDX 26 35 27 36 88 37 28 38 87 39 29 40 30 41 31 42 81 43 32 44
REMARK SMILES IDX 86 45 80 46 82 47 33 48 85 49 79 50 78 51 34 53 66 54 46 55
REMARK SMILES IDX 65 56 47 57 50 58 64 59 83 60 48 61 49 62 63 64 84 65 51 66
REMARK SMILES IDX 35 67 36 68 44 69 37 70 39 71 45 72 38 73 40 74 41 75 42 76
REMARK SMILES IDX 43 77 67 78 68 79 76 80 69 81 71 82 77 83 70 84 72 85 73 86
REMARK SMILES IDX 74 87 75 88 52 89 53 90 61 91 54 92 56 93 62 94 55 95 57 96
REMARK SMILES IDX 58 97 59 98 60 99
REMARK H PARENT 16 8 23 33 82 52 50 63
REMARK Flexibility Score: inf
ROOT
ATOM      1  C   UNL A   1      33.968  28.508  25.913  1.00  0.00     0.002 C 
ENDROOT
BRANCH   1   2
ATOM      2  C   UNL A   1      34.080  28.067  24.447  1.00  0.00     0.002 C 
BRANCH   2   3
ATOM      3  C   UNL A   1      33.380  28.907  23.378  1.00  0.00     0.021 C 
BRANCH   3   4
ATOM      4  C   UNL A   1      31.917  28.605  23.085  1.00  0.00     0.116 C 
BRANCH   4   5
ATOM      5  N   UNL A   1      31.663  27.828  21.890  1.00  0.00    -0.352 N 
ATOM      6  C   UNL A   1      31.774  26.466  21.710  1.00  0.00     0.251 C 
ATOM      7  O   UNL A   1      31.505  25.977  20.615  1.00  0.00    -0.269 OA
ATOM      8  H   UNL A   1      31.373  28.341  21.100  1.00  0.00     0.163 HD
BRANCH   6   9
ATOM      9  C   UNL A   1      32.281  25.582  22.799  1.00  0.00     0.040 A 
ATOM     10  N   UNL A   1      34.196  23.317  25.808  1.00  0.00    -0.263 N 
ATOM     11  C   UNL A   1      33.409  24.080  24.858  1.00  0.00     0.055 A 
ATOM     12  C   UNL A   1      35.504  23.053  25.080  1.00  0.00     0.101 C 
ATOM     13  C   UNL A   1      32.182  24.680  25.069  1.00  0.00     0.028 A 
ATOM     14  C   UNL A   1      34.038  24.170  23.619  1.00  0.00    -0.021 A 
ATOM     15  C   UNL A   1      35.250  23.307  23.580  1.00  0.00     0.063 C 
ATOM     16  C   UNL A   1      36.558  24.033  25.613  1.00  0.00     0.032 C 
ATOM     17  C   UNL A   1      31.595  25.385  24.013  1.00  0.00     0.016 A 
ATOM     18  C   UNL A   1      33.498  24.922  22.585  1.00  0.00     0.019 A 
BRANCH  10  19
ATOM     19  S   UNL A   1      33.338  21.949  26.404  1.00  0.00     0.264 S 
ATOM     20  O   UNL A   1      31.937  22.311  26.482  1.00  0.00    -0.201 OA
ATOM     21  O   UNL A   1      34.039  21.459  27.578  1.00  0.00    -0.201 OA
BRANCH  19  22
ATOM     22  C   UNL A   1      33.428  20.608  25.228  1.00  0.00     0.088 A 
ATOM     23  C   UNL A   1      33.644  16.930  22.994  1.00  0.00     0.044 C 
ATOM     24  C   UNL A   1      33.592  18.239  23.725  1.00  0.00    -0.051 A 
ATOM     25  C   UNL A   1      34.648  18.616  24.558  1.00  0.00     0.005 A 
ATOM     26  C   UNL A   1      32.496  19.096  23.587  1.00  0.00     0.005 A 
ATOM     27  C   UNL A   1      34.566  19.792  25.307  1.00  0.00     0.022 A 
ATOM     28  C   UNL A   1      32.417  20.282  24.328  1.00  0.00     0.022 A 
ENDBRANCH  19  22
ENDBRANCH  10  19
ENDBRANCH   6   9
ENDBRANCH   4   5
ENDBRANCH   3   4
ENDBRANCH   2   3
ENDBRANCH   1   2
BRANCH   1  29
ATOM     29  C   UNL A   1      33.265  29.830  26.214  1.00  0.00     0.021 C 
BRANCH  29  30
ATOM     30  C   UNL A   1      33.450  30.364  27.624  1.00  0.00     0.116 C 
BRANCH  30  31
ATOM     31  N   UNL A   1      34.302  31.531  27.695  1.00  0.00    -0.352 N 
ATOM     32  C   UNL A   1      35.603  31.655  28.162  1.00  0.00     0.251 C 
ATOM     33  H   UNL A   1      33.897  32.365  27.361  1.00  0.00     0.163 HD
ATOM     34  O   UNL A   1      36.028  32.768  28.394  1.00  0.00    -0.269 OA
BRANCH  32  35
ATOM     35  C   UNL A   1      36.491  30.458  28.226  1.00  0.00     0.039 A 
ATOM     36  C   UNL A   1      36.553  29.774  29.450  1.00  0.00     0.014 A 
ATOM     37  C   UNL A   1      37.387  30.132  27.213  1.00  0.00     0.014 A 
ATOM     38  C   UNL A   1      37.652  28.966  29.741  1.00  0.00     0.010 A 
ATOM     39  C   UNL A   1      38.512  29.400  27.520  1.00  0.00     0.010 A 
ATOM     40  C   UNL A   1      38.675  28.883  28.807  1.00  0.00    -0.014 A 
BRANCH  40  41
ATOM     41  C   UNL A   1      39.995  28.332  29.059  1.00  0.00     0.031 A 
ATOM     42  C   UNL A   1      40.295  26.937  28.708  1.00  0.00     0.074 A 
ATOM     43  C   UNL A   1      40.979  29.194  29.391  1.00  0.00     0.049 A 
ATOM     44  N   UNL A   1      41.375  26.322  29.044  1.00  0.00    -0.248 NA
ATOM     45  C   UNL A   1      39.350  26.102  27.981  1.00  0.00     0.031 C 
ATOM     46  C   UNL A   1      42.416  29.003  29.248  1.00  0.00     0.029 A 
ATOM     47  N   UNL A   1      40.860  30.361  30.153  1.00  0.00    -0.354 N 
ATOM     48  C   UNL A   1      41.401  25.126  28.358  1.00  0.00     0.074 A 
ATOM     49  C   UNL A   1      40.073  24.992  27.812  1.00  0.00     0.031 C 
ATOM     50  C   UNL A   1      43.042  29.820  30.108  1.00  0.00     0.029 A 
ATOM     51  C   UNL A   1      42.017  30.413  30.949  1.00  0.00     0.049 A 
ATOM     52  H   UNL A   1      40.120  31.010  30.136  1.00  0.00     0.167 HD
ATOM     53  C   UNL A   1      42.595  24.479  28.228  1.00  0.00     0.034 A 
ATOM     54  C   UNL A   1      41.995  30.375  32.313  1.00  0.00     0.034 A 
ATOM     55  C   UNL A   1      43.617  25.108  29.081  1.00  0.00     0.049 A 
ATOM     56  C   UNL A   1      42.806  29.230  32.892  1.00  0.00     0.074 A 
ATOM     57  C   UNL A   1      44.644  26.006  28.836  1.00  0.00     0.029 A 
ATOM     58  N   UNL A   1      43.479  25.039  30.464  1.00  0.00    -0.354 N 
ATOM     59  N   UNL A   1      43.310  28.255  32.186  1.00  0.00    -0.248 NA
ATOM     60  C   UNL A   1      43.099  29.085  34.314  1.00  0.00     0.031 C 
ATOM     61  C   UNL A   1      45.056  26.551  30.085  1.00  0.00     0.029 A 
ATOM     62  C   UNL A   1      44.308  25.957  31.089  1.00  0.00     0.049 A 
ATOM     63  H   UNL A   1      42.875  24.421  30.934  1.00  0.00     0.167 HD
ATOM     64  C   UNL A   1      43.865  27.313  33.013  1.00  0.00     0.074 A 
ATOM     65  C   UNL A   1      43.779  27.923  34.330  1.00  0.00     0.031 C 
ATOM     66  C   UNL A   1      44.285  26.094  32.545  1.00  0.00     0.034 A 
BRANCH  53  67
ATOM     67  C   UNL A   1      42.947  23.450  27.155  1.00  0.00     0.023 A 
ATOM     68  C   UNL A   1      43.591  23.930  25.990  1.00  0.00     0.012 A 
ATOM     69  C   UNL A   1      42.622  22.072  27.142  1.00  0.00     0.148 A 
ATOM     70  C   UNL A   1      43.820  23.128  24.864  1.00  0.00     0.002 A 
ATOM     71  C   UNL A   1      42.826  21.273  26.012  1.00  0.00     0.091 A 
ATOM     72  F   UNL A   1      42.134  21.486  28.230  1.00  0.00    -0.205 F 
ATOM     73  C   UNL A   1      43.418  21.801  24.866  1.00  0.00     0.022 A 
BRANCH  71  74
ATOM     74  S   UNL A   1      42.302  19.547  25.938  1.00  0.00     0.127 S 
ATOM     75  O   UNL A   1      43.065  19.046  24.793  1.00  0.00    -0.237 OA
ATOM     76  O   UNL A   1      42.740  19.031  27.235  1.00  0.00    -0.237 OA
ATOM     77  O   UNL A   1      40.858  19.558  25.738  1.00  0.00    -0.744 OA
ENDBRANCH  71  74
ENDBRANCH  53  67
BRANCH  54  78
ATOM     78  C   UNL A   1      40.754  30.955  32.909  1.00  0.00     0.023 A 
ATOM     79  C   UNL A   1      39.755  30.037  33.313  1.00  0.00     0.012 A 
ATOM     80  C   UNL A   1      40.726  32.260  33.435  1.00  0.00     0.148 A 
ATOM     81  C   UNL A   1      38.841  30.362  34.315  1.00  0.00     0.002 A 
ATOM     82  C   UNL A   1      39.806  32.579  34.434  1.00  0.00     0.091 A 
ATOM     83  F   UNL A   1      41.646  33.138  33.016  1.00  0.00    -0.205 F 
ATOM     84  C   UNL A   1      38.891  31.621  34.902  1.00  0.00     0.022 A 
BRANCH  82  85
ATOM     85  S   UNL A   1      39.835  34.172  35.269  1.00  0.00     0.127 S 
ATOM     86  O   UNL A   1      41.214  34.229  35.742  1.00  0.00    -0.237 OA
ATOM     87  O   UNL A   1      39.515  35.102  34.187  1.00  0.00    -0.237 OA
ATOM     88  O   UNL A   1      38.803  34.073  36.291  1.00  0.00    -0.744 OA
ENDBRANCH  82  85
ENDBRANCH  54  78
BRANCH  66  89
ATOM     89  C   UNL A   1      44.689  24.899  33.398  1.00  0.00     0.023 A 
ATOM     90  C   UNL A   1      43.858  23.777  33.579  1.00  0.00     0.012 A 
ATOM     91  C   UNL A   1      46.003  24.798  33.934  1.00  0.00     0.148 A 
ATOM     92  C   UNL A   1      44.275  22.644  34.289  1.00  0.00     0.002 A 
ATOM     93  C   UNL A   1      46.451  23.624  34.538  1.00  0.00     0.091 A 
ATOM     94  F   UNL A   1      46.832  25.851  33.882  1.00  0.00    -0.205 F 
ATOM     95  C   UNL A   1      45.581  22.555  34.746  1.00  0.00     0.022 A 
BRANCH  93  96
ATOM     96  S   UNL A   1      48.197  23.391  34.908  1.00  0.00     0.127 S 
ATOM     97  O   UNL A   1      48.341  24.108  36.173  1.00  0.00    -0.237 OA
ATOM     98  O   UNL A   1      48.307  21.935  35.019  1.00  0.00    -0.237 OA
ATOM     99  O   UNL A   1      48.898  23.953  33.760  1.00  0.00    -0.744 OA
ENDBRANCH  93  96
ENDBRANCH  66  89
ENDBRANCH  40  41
ENDBRANCH  32  35
ENDBRANCH  30  31
ENDBRANCH  29  30
ENDBRANCH   1  29
TORSDOF 18
ENDMDL
MODEL 3
REMARK VINA RESULT:     -12.9      1.191      1.881
REMARK SMILES Cc1ccc(S(=O)(=O)N2c3ccc(C(=O)NCCCCCCNC(=O)c4ccc(-c5c6nc(c(-c7cccc(S(=O)(=O)[O-])c7F)c7ccc([nH]7)c(-c7cccc(S(=O)(=O)[O-])c7F)c7nc(c(-c8cccc(S(=O)(=O)[O-])c8F)c8ccc5[nH]8)C=C7)C=C6)cc4)cc3C[C@H]2C)cc1
REMARK SMILES IDX 20 1 19 2 18 3 17 4 16 5 14 6 15 7 13 9 9 10 10 11 92 12
REMARK SMILES IDX 11 13 90 14 91 15 93 16 12 17 89 18 6 19 7 20 8 21 5 22 1 23
REMARK SMILES IDX 2 24 3 25 95 26 4 27 94 28 21 29 22 30 23 31 24 32 25 34
REMARK SMILES IDX 26 35 27 36 88 37 28 38 87 39 29 40 30 41 31 42 81 43 32 44
REMARK SMILES IDX 86 45 80 46 82 47 33 48 85 49 79 50 78 51 34 53 66 54 46 55
REMARK SMILES IDX 65 56 47 57 50 58 64 59 83 60 48 61 49 62 63 64 84 65 51 66
REMARK SMILES IDX 35 67 36 68 44 69 37 70 39 71 45 72 38 73 40 74 41 75 42 76
REMARK SMILES IDX 43 77 67 78 68 79 76 80 69 81 71 82 77 83 70 84 72 85 73 86
REMARK SMILES IDX 74 87 75 88 52 89 53 90 61 91 54 92 56 93 62 94 55 95 57 96
REMARK SMILES IDX 58 97 59 98 60 99
REMARK H PARENT 16 8 23 33 82 52 50 63
REMARK Flexibility Score: inf
ROOT
ATOM      1  C   UNL A   1      36.421  21.796  24.332  1.00  0.00     0.002 C 
ENDROOT
BRANCH   1   2
ATOM      2  C   UNL A   1      35.656  20.953  25.361  1.00  0.00     0.002 C 
BRANCH   2   3
ATOM      3  C   UNL A   1      34.413  21.555  26.017  1.00  0.00     0.021 C 
BRANCH   3   4
ATOM      4  C   UNL A   1      33.088  20.831  25.822  1.00  0.00     0.116 C 
BRANCH   4   5
ATOM      5  N   UNL A   1      32.826  20.350  24.482  1.00  0.00    -0.352 N 
ATOM      6  C   UNL A   1      32.432  21.067  23.373  1.00  0.00     0.251 C 
ATOM      7  O   UNL A   1      32.263  20.484  22.305  1.00  0.00    -0.269 OA
ATOM      8  H   UNL A   1      32.942  19.381  24.345  1.00  0.00     0.163 HD
BRANCH   6   9
ATOM      9  C   UNL A   1      32.140  22.527  23.461  1.00  0.00     0.040 A 
ATOM     10  N   UNL A   1      31.726  26.731  23.364  1.00  0.00    -0.263 N 
ATOM     11  C   UNL A   1      31.715  25.281  23.422  1.00  0.00     0.055 A 
ATOM     12  C   UNL A   1      33.201  27.094  23.415  1.00  0.00     0.101 C 
ATOM     13  C   UNL A   1      30.628  24.440  23.283  1.00  0.00     0.028 A 
ATOM     14  C   UNL A   1      32.989  24.763  23.642  1.00  0.00    -0.021 A 
ATOM     15  C   UNL A   1      33.958  25.854  23.932  1.00  0.00     0.063 C 
ATOM     16  C   UNL A   1      33.660  27.441  21.992  1.00  0.00     0.032 C 
ATOM     17  C   UNL A   1      30.840  23.060  23.360  1.00  0.00     0.016 A 
ATOM     18  C   UNL A   1      33.223  23.395  23.654  1.00  0.00     0.019 A 
BRANCH  10  19
ATOM     19  S   UNL A   1      30.703  27.430  24.560  1.00  0.00     0.264 S 
ATOM     20  O   UNL A   1      30.214  26.355  25.400  1.00  0.00    -0.201 OA
ATOM     21  O   UNL A   1      29.774  28.320  23.887  1.00  0.00    -0.201 OA
BRANCH  19  22
ATOM     22  C   UNL A   1      31.653  28.492  25.636  1.00  0.00     0.088 A 
ATOM     23  C   UNL A   1      34.543  30.700  27.946  1.00  0.00     0.044 C 
ATOM     24  C   UNL A   1      33.496  29.945  27.182  1.00  0.00    -0.051 A 
ATOM     25  C   UNL A   1      33.340  28.571  27.384  1.00  0.00     0.005 A 
ATOM     26  C   UNL A   1      32.666  30.596  26.264  1.00  0.00     0.005 A 
ATOM     27  C   UNL A   1      32.426  27.849  26.614  1.00  0.00     0.022 A 
ATOM     28  C   UNL A   1      31.741  29.874  25.500  1.00  0.00     0.022 A 
ENDBRANCH  19  22
ENDBRANCH  10  19
ENDBRANCH   6   9
ENDBRANCH   4   5
ENDBRANCH   3   4
ENDBRANCH   2   3
ENDBRANCH   1   2
BRANCH   1  29
ATOM     29  C   UNL A   1      37.708  22.485  24.781  1.00  0.00     0.021 C 
BRANCH  29  30
ATOM     30  C   UNL A   1      38.131  22.212  26.214  1.00  0.00     0.116 C 
BRANCH  30  31
ATOM     31  N   UNL A   1      39.566  22.145  26.392  1.00  0.00    -0.352 N 
ATOM     32  C   UNL A   1      40.496  23.168  26.502  1.00  0.00     0.251 C 
ATOM     33  H   UNL A   1      39.938  21.235  26.442  1.00  0.00     0.163 HD
ATOM     34  O   UNL A   1      41.670  22.897  26.361  1.00  0.00    -0.269 OA
BRANCH  32  35
ATOM     35  C   UNL A   1      40.063  24.530  26.934  1.00  0.00     0.039 A 
ATOM     36  C   UNL A   1      40.634  25.623  26.265  1.00  0.00     0.014 A 
ATOM     37  C   UNL A   1      39.298  24.748  28.075  1.00  0.00     0.014 A 
ATOM     38  C   UNL A   1      40.653  26.879  26.873  1.00  0.00     0.010 A 
ATOM     39  C   UNL A   1      39.380  25.963  28.718  1.00  0.00     0.010 A 
ATOM     40  C   UNL A   1      40.121  27.001  28.149  1.00  0.00    -0.014 A 
BRANCH  40  41
ATOM     41  C   UNL A   1      40.312  28.141  29.028  1.00  0.00     0.031 A 
ATOM     42  C   UNL A   1      39.423  29.308  28.932  1.00  0.00     0.074 A 
ATOM     43  C   UNL A   1      41.155  27.991  30.072  1.00  0.00     0.049 A 
ATOM     44  N   UNL A   1      39.619  30.420  29.552  1.00  0.00    -0.248 NA
ATOM     45  C   UNL A   1      38.252  29.318  28.068  1.00  0.00     0.031 C 
ATOM     46  C   UNL A   1      41.181  28.754  31.312  1.00  0.00     0.029 A 
ATOM     47  N   UNL A   1      42.330  27.234  30.107  1.00  0.00    -0.354 N 
ATOM     48  C   UNL A   1      38.481  31.184  29.398  1.00  0.00     0.074 A 
ATOM     49  C   UNL A   1      37.722  30.505  28.378  1.00  0.00     0.031 C 
ATOM     50  C   UNL A   1      42.408  28.658  31.846  1.00  0.00     0.029 A 
ATOM     51  C   UNL A   1      43.244  27.987  30.864  1.00  0.00     0.049 A 
ATOM     52  H   UNL A   1      42.486  26.357  29.688  1.00  0.00     0.167 HD
ATOM     53  C   UNL A   1      38.273  32.216  30.266  1.00  0.00     0.034 A 
ATOM     54  C   UNL A   1      44.419  28.470  30.366  1.00  0.00     0.034 A 
ATOM     55  C   UNL A   1      39.474  32.453  31.084  1.00  0.00     0.049 A 
ATOM     56  C   UNL A   1      44.543  29.978  30.485  1.00  0.00     0.074 A 
ATOM     57  C   UNL A   1      39.835  32.097  32.374  1.00  0.00     0.029 A 
ATOM     58  N   UNL A   1      40.633  32.915  30.467  1.00  0.00    -0.354 N 
ATOM     59  N   UNL A   1      43.567  30.772  30.833  1.00  0.00    -0.248 NA
ATOM     60  C   UNL A   1      45.772  30.712  30.204  1.00  0.00     0.031 C 
ATOM     61  C   UNL A   1      41.244  32.259  32.494  1.00  0.00     0.029 A 
ATOM     62  C   UNL A   1      41.733  32.747  31.293  1.00  0.00     0.049 A 
ATOM     63  H   UNL A   1      40.666  33.307  29.565  1.00  0.00     0.167 HD
ATOM     64  C   UNL A   1      43.958  32.080  30.712  1.00  0.00     0.074 A 
ATOM     65  C   UNL A   1      45.374  31.984  30.396  1.00  0.00     0.031 C 
ATOM     66  C   UNL A   1      43.067  33.116  30.822  1.00  0.00     0.034 A 
BRANCH  53  67
ATOM     67  C   UNL A   1      36.926  32.861  30.588  1.00  0.00     0.023 A 
ATOM     68  C   UNL A   1      36.398  32.635  31.881  1.00  0.00     0.012 A 
ATOM     69  C   UNL A   1      36.087  33.589  29.711  1.00  0.00     0.148 A 
ATOM     70  C   UNL A   1      35.105  33.027  32.252  1.00  0.00     0.002 A 
ATOM     71  C   UNL A   1      34.786  33.960  30.068  1.00  0.00     0.091 A 
ATOM     72  F   UNL A   1      36.530  33.970  28.517  1.00  0.00    -0.205 F 
ATOM     73  C   UNL A   1      34.288  33.672  31.337  1.00  0.00     0.022 A 
BRANCH  71  74
ATOM     74  S   UNL A   1      33.661  34.778  28.916  1.00  0.00     0.127 S 
ATOM     75  O   UNL A   1      33.415  33.724  27.931  1.00  0.00    -0.237 OA
ATOM     76  O   UNL A   1      32.517  35.095  29.769  1.00  0.00    -0.237 OA
ATOM     77  O   UNL A   1      34.373  35.937  28.390  1.00  0.00    -0.744 OA
ENDBRANCH  71  74
ENDBRANCH  53  67
BRANCH  54  78
ATOM     78  C   UNL A   1      44.997  27.629  29.275  1.00  0.00     0.023 A 
ATOM     79  C   UNL A   1      45.422  26.327  29.636  1.00  0.00     0.012 A 
ATOM     80  C   UNL A   1      44.758  27.911  27.918  1.00  0.00     0.148 A 
ATOM     81  C   UNL A   1      45.470  25.299  28.694  1.00  0.00     0.002 A 
ATOM     82  C   UNL A   1      44.813  26.878  26.981  1.00  0.00     0.091 A 
ATOM     83  F   UNL A   1      44.400  29.155  27.576  1.00  0.00    -0.205 F 
ATOM     84  C   UNL A   1      45.130  25.567  27.373  1.00  0.00     0.022 A 
BRANCH  82  85
ATOM     85  S   UNL A   1      44.347  27.137  25.263  1.00  0.00     0.127 S 
ATOM     86  O   UNL A   1      45.604  27.599  24.685  1.00  0.00    -0.237 OA
ATOM     87  O   UNL A   1      43.930  25.799  24.844  1.00  0.00    -0.237 OA
ATOM     88  O   UNL A   1      43.263  28.107  25.315  1.00  0.00    -0.744 OA
ENDBRANCH  82  85
ENDBRANCH  54  78
BRANCH  66  89
ATOM     89  C   UNL A   1      43.342  34.573  30.473  1.00  0.00     0.023 A 
ATOM     90  C   UNL A   1      43.782  35.513  31.424  1.00  0.00     0.012 A 
ATOM     91  C   UNL A   1      43.312  35.016  29.122  1.00  0.00     0.148 A 
ATOM     92  C   UNL A   1      44.121  36.827  31.075  1.00  0.00     0.002 A 
ATOM     93  C   UNL A   1      43.761  36.287  28.765  1.00  0.00     0.091 A 
ATOM     94  F   UNL A   1      42.826  34.214  28.163  1.00  0.00    -0.205 F 
ATOM     95  C   UNL A   1      44.137  37.207  29.742  1.00  0.00     0.022 A 
BRANCH  93  96
ATOM     96  S   UNL A   1      44.030  36.715  27.037  1.00  0.00     0.127 S 
ATOM     97  O   UNL A   1      44.760  35.550  26.543  1.00  0.00    -0.237 OA
ATOM     98  O   UNL A   1      42.664  36.839  26.524  1.00  0.00    -0.237 OA
ATOM     99  O   UNL A   1      44.766  37.973  27.078  1.00  0.00    -0.744 OA
ENDBRANCH  93  96
ENDBRANCH  66  89
ENDBRANCH  40  41
ENDBRANCH  32  35
ENDBRANCH  30  31
ENDBRANCH  29  30
ENDBRANCH   1  29
TORSDOF 18
ENDMDL
