MODEL 1
REMARK VINA RESULT:     -11.4      0.000      0.000
REMARK SMILES COc1c(N)cc(-c2ccccc2)cc1C(=O)NCCCCCCNC(=O)c1ccc(-c2c3nc(c(-c4cccc(S(=O)(=O)[O-])c4F)c4ccc([nH]4)c(-c4cccc(S(=O)(=O)[O-])c4F)c4nc(c(-c5cccc(S(=O)(=O)[O-])c5F)c5ccc2[nH]5)C=C4)C=C3)cc1
REMARK SMILES IDX 22 1 21 2 20 3 19 4 18 5 16 6 17 7 15 9 3 10 4 11 6 12 14 13
REMARK SMILES IDX 7 14 2 15 1 16 5 17 8 20 9 21 13 22 10 23 12 24 11 25 23 26
REMARK SMILES IDX 24 27 25 28 26 29 27 31 28 32 29 33 90 34 30 35 89 36 31 37
REMARK SMILES IDX 32 38 33 39 83 40 34 41 88 42 82 43 84 44 35 45 87 46 81 47
REMARK SMILES IDX 80 48 36 50 68 51 48 52 67 53 49 54 52 55 66 56 85 57 50 58
REMARK SMILES IDX 51 59 65 61 86 62 53 63 37 64 38 65 46 66 39 67 41 68 47 69
REMARK SMILES IDX 40 70 42 71 43 72 44 73 45 74 69 75 70 76 78 77 71 78 73 79
REMARK SMILES IDX 79 80 72 81 74 82 75 83 76 84 77 85 54 86 55 87 63 88 56 89
REMARK SMILES IDX 58 90 64 91 57 92 59 93 60 94 61 95 62 96
REMARK H PARENT 18 8 5 18 5 19 25 30 84 49 52 60
REMARK Flexibility Score: inf
ROOT
ATOM      1  C   UNL A   1      37.365  20.967  24.408  1.00  0.00     0.002 C 
ENDROOT
BRANCH   1   2
ATOM      2  C   UNL A   1      37.658  22.198  25.270  1.00  0.00     0.002 C 
BRANCH   2   3
ATOM      3  C   UNL A   1      36.473  22.925  25.904  1.00  0.00     0.021 C 
BRANCH   3   4
ATOM      4  C   UNL A   1      35.905  24.122  25.156  1.00  0.00     0.116 C 
BRANCH   4   5
ATOM      5  N   UNL A   1      35.523  23.926  23.786  1.00  0.00    -0.352 N 
ATOM      6  C   UNL A   1      34.397  23.300  23.292  1.00  0.00     0.255 C 
ATOM      7  O   UNL A   1      34.236  23.343  22.068  1.00  0.00    -0.269 OA
ATOM      8  H   UNL A   1      36.143  24.285  23.111  1.00  0.00     0.163 HD
BRANCH   6   9
ATOM      9  C   UNL A   1      33.427  22.488  24.113  1.00  0.00     0.084 A 
ATOM     10  C   UNL A   1      32.266  22.937  24.787  1.00  0.00     0.154 A 
ATOM     11  C   UNL A   1      31.436  22.006  25.458  1.00  0.00     0.076 A 
ATOM     12  C   UNL A   1      31.808  20.661  25.504  1.00  0.00     0.038 A 
ATOM     13  C   UNL A   1      33.714  21.095  24.119  1.00  0.00     0.026 A 
ATOM     14  C   UNL A   1      32.907  20.170  24.794  1.00  0.00    -0.015 A 
BRANCH  10  15
ATOM     15  O   UNL A   1      31.858  24.249  24.679  1.00  0.00    -0.494 OA
ATOM     16  C   UNL A   1      30.933  24.492  23.604  1.00  0.00     0.278 C 
ENDBRANCH  10  15
BRANCH  11  17
ATOM     17  N   UNL A   1      30.256  22.364  26.108  1.00  0.00    -0.396 N 
ATOM     18  H   UNL A   1      29.867  21.766  26.788  1.00  0.00     0.156 HD
ATOM     19  H   UNL A   1      29.812  23.214  25.888  1.00  0.00     0.156 HD
ENDBRANCH  11  17
BRANCH  14  20
ATOM     20  C   UNL A   1      33.122  18.713  24.740  1.00  0.00    -0.018 A 
ATOM     21  C   UNL A   1      33.495  18.106  23.523  1.00  0.00     0.009 A 
ATOM     22  C   UNL A   1      32.889  17.882  25.843  1.00  0.00     0.009 A 
ATOM     23  C   UNL A   1      33.585  16.720  23.398  1.00  0.00     0.001 A 
ATOM     24  C   UNL A   1      32.982  16.490  25.720  1.00  0.00     0.001 A 
ATOM     25  C   UNL A   1      33.319  15.911  24.496  1.00  0.00     0.000 A 
ENDBRANCH  14  20
ENDBRANCH   6   9
ENDBRANCH   4   5
ENDBRANCH   3   4
ENDBRANCH   2   3
ENDBRANCH   1   2
BRANCH   1  26
ATOM     26  C   UNL A   1      38.102  19.667  24.746  1.00  0.00     0.021 C 
BRANCH  26  27
ATOM     27  C   UNL A   1      38.850  19.624  26.075  1.00  0.00     0.116 C 
BRANCH  27  28
ATOM     28  N   UNL A   1      40.090  18.869  26.011  1.00  0.00    -0.352 N 
ATOM     29  C   UNL A   1      41.390  19.300  26.100  1.00  0.00     0.251 C 
ATOM     30  H   UNL A   1      39.981  17.899  25.882  1.00  0.00     0.163 HD
ATOM     31  O   UNL A   1      42.306  18.502  25.894  1.00  0.00    -0.269 OA
BRANCH  29  32
ATOM     32  C   UNL A   1      41.704  20.712  26.416  1.00  0.00     0.039 A 
ATOM     33  C   UNL A   1      42.167  21.023  27.699  1.00  0.00     0.014 A 
ATOM     34  C   UNL A   1      41.523  21.731  25.477  1.00  0.00     0.014 A 
ATOM     35  C   UNL A   1      42.505  22.341  28.020  1.00  0.00     0.010 A 
ATOM     36  C   UNL A   1      41.927  23.033  25.777  1.00  0.00     0.010 A 
ATOM     37  C   UNL A   1      42.417  23.355  27.052  1.00  0.00    -0.014 A 
BRANCH  37  38
ATOM     38  C   UNL A   1      42.853  24.745  27.354  1.00  0.00     0.031 A 
ATOM     39  C   UNL A   1      41.902  25.726  27.989  1.00  0.00     0.074 A 
ATOM     40  C   UNL A   1      44.083  25.153  26.978  1.00  0.00     0.049 A 
ATOM     41  N   UNL A   1      42.090  26.989  28.274  1.00  0.00    -0.248 NA
ATOM     42  C   UNL A   1      40.556  25.232  28.329  1.00  0.00     0.031 C 
ATOM     43  C   UNL A   1      45.073  24.328  26.280  1.00  0.00     0.029 A 
ATOM     44  N   UNL A   1      44.701  26.376  27.096  1.00  0.00    -0.354 N 
ATOM     45  C   UNL A   1      40.880  27.452  28.779  1.00  0.00     0.074 A 
ATOM     46  C   UNL A   1      39.958  26.339  28.751  1.00  0.00     0.031 C 
ATOM     47  C   UNL A   1      46.165  25.066  26.027  1.00  0.00     0.029 A 
ATOM     48  C   UNL A   1      45.946  26.424  26.511  1.00  0.00     0.049 A 
ATOM     49  H   UNL A   1      44.291  27.144  27.556  1.00  0.00     0.167 HD
ATOM     50  C   UNL A   1      40.572  28.686  29.242  1.00  0.00     0.034 A 
ATOM     51  C   UNL A   1      46.807  27.451  26.362  1.00  0.00     0.034 A 
ATOM     52  C   UNL A   1      41.506  29.777  29.320  1.00  0.00     0.049 A 
ATOM     53  C   UNL A   1      46.451  28.798  26.936  1.00  0.00     0.074 A 
ATOM     54  C   UNL A   1      41.316  31.027  29.884  1.00  0.00     0.029 A 
ATOM     55  N   UNL A   1      42.793  29.760  28.809  1.00  0.00    -0.354 N 
ATOM     56  N   UNL A   1      45.368  29.160  27.578  1.00  0.00    -0.248 NA
ATOM     57  C   UNL A   1      47.452  29.867  26.798  1.00  0.00     0.031 C 
ATOM     58  C   UNL A   1      42.475  31.780  29.677  1.00  0.00     0.029 A 
ATOM     59  C   UNL A   1      43.401  30.984  29.024  1.00  0.00     0.049 A 
ATOM     60  H   UNL A   1      43.212  28.991  28.360  1.00  0.00     0.167 HD
ATOM     61  C   UNL A   1      45.574  30.483  27.955  1.00  0.00     0.074 A 
ATOM     62  C   UNL A   1      46.894  30.850  27.490  1.00  0.00     0.031 C 
ATOM     63  C   UNL A   1      44.738  31.322  28.612  1.00  0.00     0.034 A 
BRANCH  50  64
ATOM     64  C   UNL A   1      39.173  28.936  29.742  1.00  0.00     0.023 A 
ATOM     65  C   UNL A   1      38.855  28.682  31.091  1.00  0.00     0.012 A 
ATOM     66  C   UNL A   1      38.212  29.534  28.903  1.00  0.00     0.148 A 
ATOM     67  C   UNL A   1      37.595  29.005  31.594  1.00  0.00     0.002 A 
ATOM     68  C   UNL A   1      36.975  29.896  29.424  1.00  0.00     0.091 A 
ATOM     69  F   UNL A   1      38.531  29.751  27.619  1.00  0.00    -0.205 F 
ATOM     70  C   UNL A   1      36.662  29.624  30.765  1.00  0.00     0.022 A 
BRANCH  68  71
ATOM     71  S   UNL A   1      35.737  30.774  28.465  1.00  0.00     0.127 S 
ATOM     72  O   UNL A   1      35.091  29.679  27.742  1.00  0.00    -0.237 OA
ATOM     73  O   UNL A   1      34.916  31.384  29.511  1.00  0.00    -0.237 OA
ATOM     74  O   UNL A   1      36.466  31.720  27.631  1.00  0.00    -0.744 OA
ENDBRANCH  68  71
ENDBRANCH  50  64
BRANCH  51  75
ATOM     75  C   UNL A   1      48.109  27.249  25.662  1.00  0.00     0.023 A 
ATOM     76  C   UNL A   1      49.246  26.859  26.397  1.00  0.00     0.012 A 
ATOM     77  C   UNL A   1      48.230  27.459  24.275  1.00  0.00     0.148 A 
ATOM     78  C   UNL A   1      50.488  26.733  25.773  1.00  0.00     0.002 A 
ATOM     79  C   UNL A   1      49.456  27.273  23.648  1.00  0.00     0.091 A 
ATOM     80  F   UNL A   1      47.141  27.844  23.593  1.00  0.00    -0.205 F 
ATOM     81  C   UNL A   1      50.591  26.932  24.398  1.00  0.00     0.022 A 
BRANCH  79  82
ATOM     82  S   UNL A   1      49.643  27.377  21.866  1.00  0.00     0.127 S 
ATOM     83  O   UNL A   1      48.642  26.420  21.402  1.00  0.00    -0.237 OA
ATOM     84  O   UNL A   1      49.320  28.781  21.607  1.00  0.00    -0.237 OA
ATOM     85  O   UNL A   1      51.032  27.028  21.599  1.00  0.00    -0.744 OA
ENDBRANCH  79  82
ENDBRANCH  51  75
BRANCH  63  86
ATOM     86  C   UNL A   1      45.234  32.710  28.923  1.00  0.00     0.023 A 
ATOM     87  C   UNL A   1      45.904  32.966  30.136  1.00  0.00     0.012 A 
ATOM     88  C   UNL A   1      45.100  33.743  27.975  1.00  0.00     0.148 A 
ATOM     89  C   UNL A   1      46.401  34.239  30.414  1.00  0.00     0.002 A 
ATOM     90  C   UNL A   1      45.644  34.994  28.237  1.00  0.00     0.091 A 
ATOM     91  F   UNL A   1      44.444  33.484  26.834  1.00  0.00    -0.205 F 
ATOM     92  C   UNL A   1      46.283  35.248  29.461  1.00  0.00     0.022 A 
BRANCH  90  93
ATOM     93  S   UNL A   1      45.630  36.323  27.027  1.00  0.00     0.127 S 
ATOM     94  O   UNL A   1      46.358  37.375  27.735  1.00  0.00    -0.237 OA
ATOM     95  O   UNL A   1      46.356  35.727  25.905  1.00  0.00    -0.237 OA
ATOM     96  O   UNL A   1      44.227  36.606  26.756  1.00  0.00    -0.744 OA
ENDBRANCH  90  93
ENDBRANCH  63  86
ENDBRANCH  37  38
ENDBRANCH  29  32
ENDBRANCH  27  28
ENDBRANCH  26  27
ENDBRANCH   1  26
TORSDOF 19
ENDMDL
MODEL 2
REMARK VINA RESULT:     -11.0      5.315      8.253
REMARK SMILES COc1c(N)cc(-c2ccccc2)cc1C(=O)NCCCCCCNC(=O)c1ccc(-c2c3nc(c(-c4cccc(S(=O)(=O)[O-])c4F)c4ccc([nH]4)c(-c4cccc(S(=O)(=O)[O-])c4F)c4nc(c(-c5cccc(S(=O)(=O)[O-])c5F)c5ccc2[nH]5)C=C4)C=C3)cc1
REMARK SMILES IDX 22 1 21 2 20 3 19 4 18 5 16 6 17 7 15 9 3 10 4 11 6 12 14 13
REMARK SMILES IDX 7 14 2 15 1 16 5 17 8 20 9 21 13 22 10 23 12 24 11 25 23 26
REMARK SMILES IDX 24 27 25 28 26 29 27 31 28 32 29 33 90 34 30 35 89 36 31 37
REMARK SMILES IDX 32 38 33 39 83 40 34 41 88 42 82 43 84 44 35 45 87 46 81 47
REMARK SMILES IDX 80 48 36 50 68 51 48 52 67 53 49 54 52 55 66 56 85 57 50 58
REMARK SMILES IDX 51 59 65 61 86 62 53 63 37 64 38 65 46 66 39 67 41 68 47 69
REMARK SMILES IDX 40 70 42 71 43 72 44 73 45 74 69 75 70 76 78 77 71 78 73 79
REMARK SMILES IDX 79 80 72 81 74 82 75 83 76 84 77 85 54 86 55 87 63 88 56 89
REMARK SMILES IDX 58 90 64 91 57 92 59 93 60 94 61 95 62 96
REMARK H PARENT 18 8 5 18 5 19 25 30 84 49 52 60
REMARK Flexibility Score: inf
ROOT
ATOM      1  C   UNL A   1      31.287  27.275  26.405  1.00  0.00     0.002 C 
ENDROOT
BRANCH   1   2
ATOM      2  C   UNL A   1      30.554  26.004  25.966  1.00  0.00     0.002 C 
BRANCH   2   3
ATOM      3  C   UNL A   1      30.577  25.642  24.481  1.00  0.00     0.021 C 
BRANCH   3   4
ATOM      4  C   UNL A   1      31.140  24.281  24.101  1.00  0.00     0.116 C 
BRANCH   4   5
ATOM      5  N   UNL A   1      31.849  24.182  22.857  1.00  0.00    -0.352 N 
ATOM      6  C   UNL A   1      32.985  23.451  22.575  1.00  0.00     0.255 C 
ATOM      7  O   UNL A   1      33.356  23.445  21.396  1.00  0.00    -0.269 OA
ATOM      8  H   UNL A   1      31.478  24.702  22.108  1.00  0.00     0.163 HD
BRANCH   6   9
ATOM      9  C   UNL A   1      33.850  22.763  23.601  1.00  0.00     0.084 A 
ATOM     10  C   UNL A   1      34.801  23.346  24.472  1.00  0.00     0.154 A 
ATOM     11  C   UNL A   1      35.475  22.538  25.421  1.00  0.00     0.076 A 
ATOM     12  C   UNL A   1      35.241  21.162  25.443  1.00  0.00     0.038 A 
ATOM     13  C   UNL A   1      33.587  21.370  23.723  1.00  0.00     0.026 A 
ATOM     14  C   UNL A   1      34.260  20.562  24.648  1.00  0.00    -0.015 A 
BRANCH  10  15
ATOM     15  O   UNL A   1      34.977  24.712  24.502  1.00  0.00    -0.494 OA
ATOM     16  C   UNL A   1      34.250  25.376  25.551  1.00  0.00     0.278 C 
ENDBRANCH  10  15
BRANCH  11  17
ATOM     17  N   UNL A   1      36.393  23.044  26.340  1.00  0.00    -0.396 N 
ATOM     18  H   UNL A   1      36.334  23.984  26.628  1.00  0.00     0.156 HD
ATOM     19  H   UNL A   1      37.099  22.462  26.701  1.00  0.00     0.156 HD
ENDBRANCH  11  17
BRANCH  14  20
ATOM     20  C   UNL A   1      33.945  19.139  24.866  1.00  0.00    -0.018 A 
ATOM     21  C   UNL A   1      34.810  18.147  24.362  1.00  0.00     0.009 A 
ATOM     22  C   UNL A   1      32.763  18.723  25.492  1.00  0.00     0.009 A 
ATOM     23  C   UNL A   1      34.486  16.792  24.436  1.00  0.00     0.001 A 
ATOM     24  C   UNL A   1      32.437  17.363  25.570  1.00  0.00     0.001 A 
ATOM     25  C   UNL A   1      33.292  16.401  25.033  1.00  0.00     0.000 A 
ENDBRANCH  14  20
ENDBRANCH   6   9
ENDBRANCH   4   5
ENDBRANCH   3   4
ENDBRANCH   2   3
ENDBRANCH   1   2
BRANCH   1  26
ATOM     26  C   UNL A   1      31.401  28.418  25.393  1.00  0.00     0.021 C 
BRANCH  26  27
ATOM     27  C   UNL A   1      32.631  29.313  25.498  1.00  0.00     0.116 C 
BRANCH  27  28
ATOM     28  N   UNL A   1      32.323  30.662  25.942  1.00  0.00    -0.352 N 
ATOM     29  C   UNL A   1      32.944  31.443  26.883  1.00  0.00     0.251 C 
ATOM     30  H   UNL A   1      31.549  31.079  25.499  1.00  0.00     0.163 HD
ATOM     31  O   UNL A   1      32.442  32.523  27.199  1.00  0.00    -0.269 OA
BRANCH  29  32
ATOM     32  C   UNL A   1      34.194  30.996  27.540  1.00  0.00     0.039 A 
ATOM     33  C   UNL A   1      35.124  31.962  27.937  1.00  0.00     0.014 A 
ATOM     34  C   UNL A   1      34.471  29.641  27.745  1.00  0.00     0.014 A 
ATOM     35  C   UNL A   1      36.298  31.576  28.590  1.00  0.00     0.010 A 
ATOM     36  C   UNL A   1      35.608  29.263  28.458  1.00  0.00     0.010 A 
ATOM     37  C   UNL A   1      36.538  30.224  28.884  1.00  0.00    -0.014 A 
BRANCH  37  38
ATOM     38  C   UNL A   1      37.742  29.806  29.653  1.00  0.00     0.031 A 
ATOM     39  C   UNL A   1      37.981  30.328  31.046  1.00  0.00     0.074 A 
ATOM     40  C   UNL A   1      38.668  29.021  29.065  1.00  0.00     0.049 A 
ATOM     41  N   UNL A   1      38.997  30.116  31.842  1.00  0.00    -0.248 NA
ATOM     42  C   UNL A   1      36.957  31.223  31.613  1.00  0.00     0.031 C 
ATOM     43  C   UNL A   1      38.598  28.513  27.691  1.00  0.00     0.029 A 
ATOM     44  N   UNL A   1      39.867  28.538  29.532  1.00  0.00    -0.354 N 
ATOM     45  C   UNL A   1      38.762  30.883  32.978  1.00  0.00     0.074 A 
ATOM     46  C   UNL A   1      37.512  31.578  32.764  1.00  0.00     0.031 C 
ATOM     47  C   UNL A   1      39.705  27.800  27.427  1.00  0.00     0.029 A 
ATOM     48  C   UNL A   1      40.579  27.825  28.594  1.00  0.00     0.049 A 
ATOM     49  H   UNL A   1      40.186  28.688  30.451  1.00  0.00     0.167 HD
ATOM     50  C   UNL A   1      39.509  30.984  34.101  1.00  0.00     0.034 A 
ATOM     51  C   UNL A   1      41.807  27.272  28.658  1.00  0.00     0.034 A 
ATOM     52  C   UNL A   1      40.724  30.250  34.334  1.00  0.00     0.049 A 
ATOM     53  C   UNL A   1      42.587  27.361  29.943  1.00  0.00     0.074 A 
ATOM     54  C   UNL A   1      41.485  30.198  35.490  1.00  0.00     0.029 A 
ATOM     55  N   UNL A   1      41.365  29.457  33.398  1.00  0.00    -0.354 N 
ATOM     56  N   UNL A   1      42.255  27.939  31.071  1.00  0.00    -0.248 NA
ATOM     57  C   UNL A   1      43.894  26.688  29.978  1.00  0.00     0.031 C 
ATOM     58  C   UNL A   1      42.608  29.406  35.238  1.00  0.00     0.029 A 
ATOM     59  C   UNL A   1      42.524  28.930  33.940  1.00  0.00     0.049 A 
ATOM     60  H   UNL A   1      41.044  29.293  32.481  1.00  0.00     0.167 HD
ATOM     61  C   UNL A   1      43.291  27.667  31.958  1.00  0.00     0.074 A 
ATOM     62  C   UNL A   1      44.250  26.851  31.244  1.00  0.00     0.031 C 
ATOM     63  C   UNL A   1      43.441  28.069  33.243  1.00  0.00     0.034 A 
BRANCH  50  64
ATOM     64  C   UNL A   1      39.030  31.895  35.201  1.00  0.00     0.023 A 
ATOM     65  C   UNL A   1      38.150  31.403  36.186  1.00  0.00     0.012 A 
ATOM     66  C   UNL A   1      39.547  33.200  35.324  1.00  0.00     0.148 A 
ATOM     67  C   UNL A   1      37.780  32.202  37.267  1.00  0.00     0.002 A 
ATOM     68  C   UNL A   1      39.210  33.973  36.428  1.00  0.00     0.091 A 
ATOM     69  F   UNL A   1      40.369  33.653  34.366  1.00  0.00    -0.205 F 
ATOM     70  C   UNL A   1      38.320  33.479  37.395  1.00  0.00     0.022 A 
BRANCH  68  71
ATOM     71  S   UNL A   1      39.918  35.595  36.731  1.00  0.00     0.127 S 
ATOM     72  O   UNL A   1      39.228  35.995  37.957  1.00  0.00    -0.237 OA
ATOM     73  O   UNL A   1      41.337  35.282  36.903  1.00  0.00    -0.237 OA
ATOM     74  O   UNL A   1      39.607  36.399  35.557  1.00  0.00    -0.744 OA
ENDBRANCH  68  71
ENDBRANCH  50  64
BRANCH  51  75
ATOM     75  C   UNL A   1      42.374  26.555  27.478  1.00  0.00     0.023 A 
ATOM     76  C   UNL A   1      43.114  27.269  26.515  1.00  0.00     0.012 A 
ATOM     77  C   UNL A   1      42.167  25.174  27.297  1.00  0.00     0.148 A 
ATOM     78  C   UNL A   1      43.593  26.631  25.370  1.00  0.00     0.002 A 
ATOM     79  C   UNL A   1      42.699  24.533  26.185  1.00  0.00     0.091 A 
ATOM     80  F   UNL A   1      41.448  24.513  28.216  1.00  0.00    -0.205 F 
ATOM     81  C   UNL A   1      43.393  25.263  25.209  1.00  0.00     0.022 A 
BRANCH  79  82
ATOM     82  S   UNL A   1      42.600  22.752  25.973  1.00  0.00     0.127 S 
ATOM     83  O   UNL A   1      41.159  22.525  26.013  1.00  0.00    -0.237 OA
ATOM     84  O   UNL A   1      43.218  22.568  24.659  1.00  0.00    -0.237 OA
ATOM     85  O   UNL A   1      43.366  22.186  27.075  1.00  0.00    -0.744 OA
ENDBRANCH  79  82
ENDBRANCH  51  75
BRANCH  63  86
ATOM     86  C   UNL A   1      44.660  27.596  33.991  1.00  0.00     0.023 A 
ATOM     87  C   UNL A   1      45.821  28.394  34.028  1.00  0.00     0.012 A 
ATOM     88  C   UNL A   1      44.626  26.390  34.719  1.00  0.00     0.148 A 
ATOM     89  C   UNL A   1      46.941  27.981  34.751  1.00  0.00     0.002 A 
ATOM     90  C   UNL A   1      45.725  26.012  35.479  1.00  0.00     0.091 A 
ATOM     91  F   UNL A   1      43.518  25.636  34.656  1.00  0.00    -0.205 F 
ATOM     92  C   UNL A   1      46.888  26.799  35.485  1.00  0.00     0.022 A 
BRANCH  90  93
ATOM     93  S   UNL A   1      45.711  24.560  36.537  1.00  0.00     0.127 S 
ATOM     94  O   UNL A   1      46.101  23.507  35.600  1.00  0.00    -0.237 OA
ATOM     95  O   UNL A   1      46.726  24.895  37.536  1.00  0.00    -0.237 OA
ATOM     96  O   UNL A   1      44.356  24.457  37.063  1.00  0.00    -0.744 OA
ENDBRANCH  90  93
ENDBRANCH  63  86
ENDBRANCH  37  38
ENDBRANCH  29  32
ENDBRANCH  27  28
ENDBRANCH  26  27
ENDBRANCH   1  26
TORSDOF 19
ENDMDL
MODEL 3
REMARK VINA RESULT:     -11.0      6.344     10.199
REMARK SMILES COc1c(N)cc(-c2ccccc2)cc1C(=O)NCCCCCCNC(=O)c1ccc(-c2c3nc(c(-c4cccc(S(=O)(=O)[O-])c4F)c4ccc([nH]4)c(-c4cccc(S(=O)(=O)[O-])c4F)c4nc(c(-c5cccc(S(=O)(=O)[O-])c5F)c5ccc2[nH]5)C=C4)C=C3)cc1
REMARK SMILES IDX 22 1 21 2 20 3 19 4 18 5 16 6 17 7 15 9 3 10 4 11 6 12 14 13
REMARK SMILES IDX 7 14 2 15 1 16 5 17 8 20 9 21 13 22 10 23 12 24 11 25 23 26
REMARK SMILES IDX 24 27 25 28 26 29 27 31 28 32 29 33 90 34 30 35 89 36 31 37
REMARK SMILES IDX 32 38 33 39 83 40 34 41 88 42 82 43 84 44 35 45 87 46 81 47
REMARK SMILES IDX 80 48 36 50 68 51 48 52 67 53 49 54 52 55 66 56 85 57 50 58
REMARK SMILES IDX 51 59 65 61 86 62 53 63 37 64 38 65 46 66 39 67 41 68 47 69
REMARK SMILES IDX 40 70 42 71 43 72 44 73 45 74 69 75 70 76 78 77 71 78 73 79
REMARK SMILES IDX 79 80 72 81 74 82 75 83 76 84 77 85 54 86 55 87 63 88 56 89
REMARK SMILES IDX 58 90 64 91 57 92 59 93 60 94 61 95 62 96
REMARK H PARENT 18 8 5 18 5 19 25 30 84 49 52 60
REMARK Flexibility Score: inf
ROOT
ATOM      1  C   UNL A   1      31.725  30.419  27.060  1.00  0.00     0.002 C 
ENDROOT
BRANCH   1   2
ATOM      2  C   UNL A   1      31.974  29.552  25.822  1.00  0.00     0.002 C 
BRANCH   2   3
ATOM      3  C   UNL A   1      33.324  28.843  25.706  1.00  0.00     0.021 C 
BRANCH   3   4
ATOM      4  C   UNL A   1      33.308  27.358  25.375  1.00  0.00     0.116 C 
BRANCH   4   5
ATOM      5  N   UNL A   1      33.543  26.983  24.009  1.00  0.00    -0.352 N 
ATOM      6  C   UNL A   1      32.666  27.029  22.945  1.00  0.00     0.255 C 
ATOM      7  O   UNL A   1      33.131  26.746  21.836  1.00  0.00    -0.269 OA
ATOM      8  H   UNL A   1      34.447  26.650  23.804  1.00  0.00     0.163 HD
BRANCH   6   9
ATOM      9  C   UNL A   1      31.184  27.287  23.055  1.00  0.00     0.084 A 
ATOM     10  C   UNL A   1      30.189  26.440  23.598  1.00  0.00     0.154 A 
ATOM     11  C   UNL A   1      28.847  26.888  23.673  1.00  0.00     0.076 A 
ATOM     12  C   UNL A   1      28.508  28.137  23.151  1.00  0.00     0.038 A 
ATOM     13  C   UNL A   1      30.800  28.584  22.615  1.00  0.00     0.026 A 
ATOM     14  C   UNL A   1      29.472  29.029  22.672  1.00  0.00    -0.015 A 
BRANCH  10  15
ATOM     15  O   UNL A   1      30.534  25.240  24.181  1.00  0.00    -0.494 OA
ATOM     16  C   UNL A   1      30.546  24.126  23.272  1.00  0.00     0.278 C 
ENDBRANCH  10  15
BRANCH  11  17
ATOM     17  N   UNL A   1      27.819  26.130  24.232  1.00  0.00    -0.396 N 
ATOM     18  H   UNL A   1      27.940  25.163  24.371  1.00  0.00     0.156 HD
ATOM     19  H   UNL A   1      26.972  26.562  24.488  1.00  0.00     0.156 HD
ENDBRANCH  11  17
BRANCH  14  20
ATOM     20  C   UNL A   1      29.057  30.397  22.315  1.00  0.00    -0.018 A 
ATOM     21  C   UNL A   1      29.103  31.416  23.288  1.00  0.00     0.009 A 
ATOM     22  C   UNL A   1      28.536  30.715  21.055  1.00  0.00     0.009 A 
ATOM     23  C   UNL A   1      28.602  32.692  23.029  1.00  0.00     0.001 A 
ATOM     24  C   UNL A   1      28.035  31.996  20.793  1.00  0.00     0.001 A 
ATOM     25  C   UNL A   1      28.058  32.979  21.782  1.00  0.00     0.000 A 
ENDBRANCH  14  20
ENDBRANCH   6   9
ENDBRANCH   4   5
ENDBRANCH   3   4
ENDBRANCH   2   3
ENDBRANCH   1   2
BRANCH   1  26
ATOM     26  C   UNL A   1      31.553  31.926  26.851  1.00  0.00     0.021 C 
BRANCH  26  27
ATOM     27  C   UNL A   1      32.824  32.770  26.834  1.00  0.00     0.116 C 
BRANCH  27  28
ATOM     28  N   UNL A   1      32.710  33.994  27.608  1.00  0.00    -0.352 N 
ATOM     29  C   UNL A   1      33.405  34.404  28.718  1.00  0.00     0.251 C 
ATOM     30  H   UNL A   1      32.028  34.628  27.286  1.00  0.00     0.163 HD
ATOM     31  O   UNL A   1      33.062  35.434  29.299  1.00  0.00    -0.269 OA
BRANCH  29  32
ATOM     32  C   UNL A   1      34.542  33.611  29.239  1.00  0.00     0.039 A 
ATOM     33  C   UNL A   1      35.842  34.038  28.951  1.00  0.00     0.014 A 
ATOM     34  C   UNL A   1      34.343  32.445  29.983  1.00  0.00     0.014 A 
ATOM     35  C   UNL A   1      36.938  33.332  29.455  1.00  0.00     0.010 A 
ATOM     36  C   UNL A   1      35.436  31.782  30.544  1.00  0.00     0.010 A 
ATOM     37  C   UNL A   1      36.746  32.214  30.283  1.00  0.00    -0.014 A 
BRANCH  37  38
ATOM     38  C   UNL A   1      37.900  31.504  30.897  1.00  0.00     0.031 A 
ATOM     39  C   UNL A   1      38.309  31.791  32.318  1.00  0.00     0.074 A 
ATOM     40  C   UNL A   1      38.636  30.658  30.146  1.00  0.00     0.049 A 
ATOM     41  N   UNL A   1      39.317  31.309  32.999  1.00  0.00    -0.248 NA
ATOM     42  C   UNL A   1      37.495  32.763  33.068  1.00  0.00     0.031 C 
ATOM     43  C   UNL A   1      38.398  30.353  28.733  1.00  0.00     0.029 A 
ATOM     44  N   UNL A   1      39.757  29.924  30.455  1.00  0.00    -0.354 N 
ATOM     45  C   UNL A   1      39.289  31.949  34.232  1.00  0.00     0.074 A 
ATOM     46  C   UNL A   1      38.171  32.866  34.205  1.00  0.00     0.031 C 
ATOM     47  C   UNL A   1      39.344  29.506  28.297  1.00  0.00     0.029 A 
ATOM     48  C   UNL A   1      40.276  29.231  29.384  1.00  0.00     0.049 A 
ATOM     49  H   UNL A   1      40.151  29.897  31.357  1.00  0.00     0.167 HD
ATOM     50  C   UNL A   1      40.107  31.776  35.296  1.00  0.00     0.034 A 
ATOM     51  C   UNL A   1      41.388  28.477  29.282  1.00  0.00     0.034 A 
ATOM     52  C   UNL A   1      41.185  30.825  35.341  1.00  0.00     0.049 A 
ATOM     53  C   UNL A   1      42.247  28.264  30.502  1.00  0.00     0.074 A 
ATOM     54  C   UNL A   1      41.991  30.495  36.417  1.00  0.00     0.029 A 
ATOM     55  N   UNL A   1      41.619  30.065  34.268  1.00  0.00    -0.354 N 
ATOM     56  N   UNL A   1      42.089  28.738  31.713  1.00  0.00    -0.248 NA
ATOM     57  C   UNL A   1      43.414  27.383  30.351  1.00  0.00     0.031 C 
ATOM     58  C   UNL A   1      42.940  29.566  35.983  1.00  0.00     0.029 A 
ATOM     59  C   UNL A   1      42.697  29.285  34.649  1.00  0.00     0.049 A 
ATOM     60  H   UNL A   1      41.221  30.079  33.368  1.00  0.00     0.167 HD
ATOM     61  C   UNL A   1      43.111  28.181  32.475  1.00  0.00     0.074 A 
ATOM     62  C   UNL A   1      43.867  27.317  31.594  1.00  0.00     0.031 C 
ATOM     63  C   UNL A   1      43.406  28.381  33.782  1.00  0.00     0.034 A 
BRANCH  50  64
ATOM     64  C   UNL A   1      39.862  32.602  36.532  1.00  0.00     0.023 A 
ATOM     65  C   UNL A   1      40.542  33.824  36.705  1.00  0.00     0.012 A 
ATOM     66  C   UNL A   1      38.870  32.223  37.459  1.00  0.00     0.148 A 
ATOM     67  C   UNL A   1      40.250  34.648  37.791  1.00  0.00     0.002 A 
ATOM     68  C   UNL A   1      38.553  33.072  38.512  1.00  0.00     0.091 A 
ATOM     69  F   UNL A   1      38.248  31.048  37.283  1.00  0.00    -0.205 F 
ATOM     70  C   UNL A   1      39.247  34.280  38.684  1.00  0.00     0.022 A 
BRANCH  68  71
ATOM     71  S   UNL A   1      37.220  32.731  39.666  1.00  0.00     0.127 S 
ATOM     72  O   UNL A   1      37.649  31.458  40.245  1.00  0.00    -0.237 OA
ATOM     73  O   UNL A   1      37.303  33.874  40.575  1.00  0.00    -0.237 OA
ATOM     74  O   UNL A   1      36.001  32.669  38.872  1.00  0.00    -0.744 OA
ENDBRANCH  68  71
ENDBRANCH  50  64
BRANCH  51  75
ATOM     75  C   UNL A   1      41.749  27.836  27.984  1.00  0.00     0.023 A 
ATOM     76  C   UNL A   1      42.159  28.636  26.899  1.00  0.00     0.012 A 
ATOM     77  C   UNL A   1      41.671  26.440  27.815  1.00  0.00     0.148 A 
ATOM     78  C   UNL A   1      42.434  28.062  25.656  1.00  0.00     0.002 A 
ATOM     79  C   UNL A   1      42.005  25.869  26.592  1.00  0.00     0.091 A 
ATOM     80  F   UNL A   1      41.265  25.696  28.853  1.00  0.00    -0.205 F 
ATOM     81  C   UNL A   1      42.365  26.680  25.505  1.00  0.00     0.022 A 
BRANCH  79  82
ATOM     82  S   UNL A   1      42.070  24.091  26.356  1.00  0.00     0.127 S 
ATOM     83  O   UNL A   1      42.851  23.663  27.514  1.00  0.00    -0.237 OA
ATOM     84  O   UNL A   1      40.654  23.725  26.398  1.00  0.00    -0.237 OA
ATOM     85  O   UNL A   1      42.698  23.894  25.056  1.00  0.00    -0.744 OA
ENDBRANCH  79  82
ENDBRANCH  51  75
BRANCH  63  86
ATOM     86  C   UNL A   1      44.564  27.616  34.368  1.00  0.00     0.023 A 
ATOM     87  C   UNL A   1      45.865  28.154  34.313  1.00  0.00     0.012 A 
ATOM     88  C   UNL A   1      44.346  26.396  35.039  1.00  0.00     0.148 A 
ATOM     89  C   UNL A   1      46.938  27.471  34.887  1.00  0.00     0.002 A 
ATOM     90  C   UNL A   1      45.410  25.749  35.654  1.00  0.00     0.091 A 
ATOM     91  F   UNL A   1      43.104  25.893  35.064  1.00  0.00    -0.205 F 
ATOM     92  C   UNL A   1      46.708  26.277  35.567  1.00  0.00     0.022 A 
BRANCH  90  93
ATOM     93  S   UNL A   1      45.193  24.262  36.638  1.00  0.00     0.127 S 
ATOM     94  O   UNL A   1      44.510  23.379  35.694  1.00  0.00    -0.237 OA
ATOM     95  O   UNL A   1      46.574  23.884  36.938  1.00  0.00    -0.237 OA
ATOM     96  O   UNL A   1      44.409  24.659  37.800  1.00  0.00    -0.744 OA
ENDBRANCH  90  93
ENDBRANCH  63  86
ENDBRANCH  37  38
ENDBRANCH  29  32
ENDBRANCH  27  28
ENDBRANCH  26  27
ENDBRANCH   1  26
TORSDOF 19
ENDMDL
