MODEL 1
REMARK VINA RESULT:     -11.8      0.000      0.000
REMARK SMILES NS(=O)(=O)c1ccc(N2N=C(C(=O)NCCCCCCNC(=O)c3ccc(-c4c5nc(c(-c6cccc(S(=O)(=O)[O-])c6F)c6ccc([nH]6)c(-c6cccc(S(=O)(=O)[O-])c6F)c6nc(c(-c7cccc(S(=O)(=O)[O-])c7F)c7ccc4[nH]7)C=C6)C=C5)cc3)C[C@H]2c2ccco2)cc1
REMARK SMILES IDX 17 1 16 2 15 3 14 4 12 5 13 6 11 8 9 9 10 10 88 11 87 12
REMARK SMILES IDX 8 13 5 14 6 15 95 16 7 17 94 18 2 19 3 20 4 21 1 22 89 25
REMARK SMILES IDX 90 26 93 27 91 28 92 29 18 30 19 31 20 32 21 33 22 34 23 36
REMARK SMILES IDX 24 37 25 38 86 39 26 40 85 41 27 42 28 43 29 44 79 45 30 46
REMARK SMILES IDX 84 47 78 48 80 49 31 50 83 51 77 52 76 53 32 55 64 56 44 57
REMARK SMILES IDX 63 58 45 59 48 60 62 61 81 62 46 63 47 64 61 66 82 67 49 68
REMARK SMILES IDX 33 69 34 70 42 71 35 72 37 73 43 74 36 75 38 76 39 77 40 78
REMARK SMILES IDX 41 79 65 80 66 81 74 82 67 83 69 84 75 85 68 86 70 87 71 88
REMARK SMILES IDX 72 89 73 90 50 91 51 92 59 93 52 94 54 95 60 96 53 97 55 98
REMARK SMILES IDX 56 99 57 100 58 101
REMARK H PARENT 14 7 1 23 1 24 21 35 80 54 48 65
REMARK Flexibility Score: inf
ROOT
ATOM      1  C   UNL A   1      31.994  29.586  25.285  1.00  0.00     0.002 C 
ENDROOT
BRANCH   1   2
ATOM      2  C   UNL A   1      32.180  28.070  25.376  1.00  0.00     0.021 C 
BRANCH   2   3
ATOM      3  C   UNL A   1      33.541  27.584  24.890  1.00  0.00     0.116 C 
BRANCH   3   4
ATOM      4  N   UNL A   1      33.454  27.069  23.536  1.00  0.00    -0.351 N 
ATOM      5  C   UNL A   1      33.755  25.867  22.949  1.00  0.00     0.267 C 
ATOM      6  O   UNL A   1      33.661  25.792  21.725  1.00  0.00    -0.268 OA
ATOM      7  H   UNL A   1      33.101  27.730  22.898  1.00  0.00     0.163 HD
BRANCH   5   8
ATOM      8  C   UNL A   1      34.148  24.620  23.728  1.00  0.00     0.128 C 
ATOM      9  N   UNL A   1      35.366  22.981  24.358  1.00  0.00    -0.254 N 
ATOM     10  N   UNL A   1      35.375  24.193  23.734  1.00  0.00    -0.171 NA
ATOM     11  C   UNL A   1      34.076  22.654  24.984  1.00  0.00     0.180 C 
ATOM     12  C   UNL A   1      33.181  23.793  24.498  1.00  0.00     0.099 C 
BRANCH   9  13
ATOM     13  C   UNL A   1      36.554  22.455  24.861  1.00  0.00     0.060 A 
ATOM     14  C   UNL A   1      38.999  21.476  25.830  1.00  0.00     0.082 A 
ATOM     15  C   UNL A   1      38.179  20.648  25.059  1.00  0.00     0.024 A 
ATOM     16  C   UNL A   1      38.603  22.774  26.142  1.00  0.00     0.024 A 
ATOM     17  C   UNL A   1      36.955  21.138  24.589  1.00  0.00     0.029 A 
ATOM     18  C   UNL A   1      37.383  23.248  25.664  1.00  0.00     0.029 A 
BRANCH  14  19
ATOM     19  S   UNL A   1      40.544  20.873  26.433  1.00  0.00     0.238 S 
ATOM     20  O   UNL A   1      40.548  20.917  27.879  1.00  0.00    -0.207 OA
ATOM     21  O   UNL A   1      41.608  21.431  25.638  1.00  0.00    -0.207 OA
BRANCH  19  22
ATOM     22  N   UNL A   1      40.474  19.239  26.051  1.00  0.00    -0.225 NA
ATOM     23  H   UNL A   1      40.023  18.732  26.813  1.00  0.00     0.137 HD
ATOM     24  H   UNL A   1      41.420  18.881  25.917  1.00  0.00     0.137 HD
ENDBRANCH  19  22
ENDBRANCH  14  19
ENDBRANCH   9  13
BRANCH  11  25
ATOM     25  C   UNL A   1      33.478  21.300  24.724  1.00  0.00     0.128 A 
ATOM     26  C   UNL A   1      32.633  20.818  23.741  1.00  0.00     0.048 A 
ATOM     27  O   UNL A   1      33.833  20.270  25.552  1.00  0.00    -0.467 OA
ATOM     28  C   UNL A   1      32.454  19.438  23.995  1.00  0.00     0.042 A 
ATOM     29  C   UNL A   1      33.227  19.148  25.093  1.00  0.00     0.195 A 
ENDBRANCH  11  25
ENDBRANCH   5   8
ENDBRANCH   3   4
ENDBRANCH   2   3
ENDBRANCH   1   2
BRANCH   1  30
ATOM     30  C   UNL A   1      31.600  30.267  26.600  1.00  0.00     0.002 C 
BRANCH  30  31
ATOM     31  C   UNL A   1      31.670  31.796  26.587  1.00  0.00     0.021 C 
BRANCH  31  32
ATOM     32  C   UNL A   1      32.900  32.380  27.272  1.00  0.00     0.116 C 
BRANCH  32  33
ATOM     33  N   UNL A   1      32.676  33.746  27.713  1.00  0.00    -0.352 N 
ATOM     34  C   UNL A   1      33.262  34.433  28.745  1.00  0.00     0.251 C 
ATOM     35  H   UNL A   1      32.005  34.250  27.197  1.00  0.00     0.163 HD
ATOM     36  O   UNL A   1      32.790  35.506  29.110  1.00  0.00    -0.269 OA
BRANCH  34  37
ATOM     37  C   UNL A   1      34.452  33.874  29.421  1.00  0.00     0.039 A 
ATOM     38  C   UNL A   1      34.270  32.938  30.440  1.00  0.00     0.014 A 
ATOM     39  C   UNL A   1      35.740  34.283  29.062  1.00  0.00     0.014 A 
ATOM     40  C   UNL A   1      35.384  32.377  31.068  1.00  0.00     0.010 A 
ATOM     41  C   UNL A   1      36.848  33.663  29.634  1.00  0.00     0.010 A 
ATOM     42  C   UNL A   1      36.683  32.713  30.652  1.00  0.00    -0.014 A 
BRANCH  42  43
ATOM     43  C   UNL A   1      37.872  32.071  31.268  1.00  0.00     0.031 A 
ATOM     44  C   UNL A   1      38.479  32.634  32.525  1.00  0.00     0.074 A 
ATOM     45  C   UNL A   1      38.448  31.016  30.655  1.00  0.00     0.049 A 
ATOM     46  N   UNL A   1      39.529  32.221  33.188  1.00  0.00    -0.248 NA
ATOM     47  C   UNL A   1      37.842  33.830  33.101  1.00  0.00     0.031 C 
ATOM     48  C   UNL A   1      38.003  30.429  29.389  1.00  0.00     0.029 A 
ATOM     49  N   UNL A   1      39.545  30.267  31.000  1.00  0.00    -0.354 N 
ATOM     50  C   UNL A   1      39.699  33.122  34.231  1.00  0.00     0.074 A 
ATOM     51  C   UNL A   1      38.664  34.123  34.098  1.00  0.00     0.031 C 
ATOM     52  C   UNL A   1      38.814  29.408  29.069  1.00  0.00     0.029 A 
ATOM     53  C   UNL A   1      39.856  29.290  30.082  1.00  0.00     0.049 A 
ATOM     54  H   UNL A   1      40.060  30.414  31.827  1.00  0.00     0.167 HD
ATOM     55  C   UNL A   1      40.619  33.106  35.226  1.00  0.00     0.034 A 
ATOM     56  C   UNL A   1      40.875  28.409  30.053  1.00  0.00     0.034 A 
ATOM     57  C   UNL A   1      41.625  32.089  35.375  1.00  0.00     0.049 A 
ATOM     58  C   UNL A   1      41.859  28.390  31.190  1.00  0.00     0.074 A 
ATOM     59  C   UNL A   1      42.541  31.931  36.400  1.00  0.00     0.029 A 
ATOM     60  N   UNL A   1      41.862  31.069  34.468  1.00  0.00    -0.354 N 
ATOM     61  N   UNL A   1      41.903  29.151  32.256  1.00  0.00    -0.248 NA
ATOM     62  C   UNL A   1      42.914  27.367  31.140  1.00  0.00     0.031 C 
ATOM     63  C   UNL A   1      43.359  30.840  36.092  1.00  0.00     0.029 A 
ATOM     64  C   UNL A   1      42.921  30.289  34.899  1.00  0.00     0.049 A 
ATOM     65  H   UNL A   1      41.353  30.919  33.639  1.00  0.00     0.167 HD
ATOM     66  C   UNL A   1      42.963  28.676  33.021  1.00  0.00     0.074 A 
ATOM     67  C   UNL A   1      43.519  27.546  32.306  1.00  0.00     0.031 C 
ATOM     68  C   UNL A   1      43.439  29.140  34.202  1.00  0.00     0.034 A 
BRANCH  55  69
ATOM     69  C   UNL A   1      40.564  34.203  36.257  1.00  0.00     0.023 A 
ATOM     70  C   UNL A   1      40.980  35.507  35.917  1.00  0.00     0.012 A 
ATOM     71  C   UNL A   1      40.026  33.961  37.536  1.00  0.00     0.148 A 
ATOM     72  C   UNL A   1      40.895  36.545  36.845  1.00  0.00     0.002 A 
ATOM     73  C   UNL A   1      39.899  35.010  38.439  1.00  0.00     0.091 A 
ATOM     74  F   UNL A   1      39.652  32.712  37.846  1.00  0.00    -0.205 F 
ATOM     75  C   UNL A   1      40.343  36.299  38.100  1.00  0.00     0.022 A 
BRANCH  73  76
ATOM     76  S   UNL A   1      39.125  34.817  40.048  1.00  0.00     0.127 S 
ATOM     77  O   UNL A   1      38.012  33.922  39.734  1.00  0.00    -0.237 OA
ATOM     78  O   UNL A   1      40.197  34.206  40.832  1.00  0.00    -0.237 OA
ATOM     79  O   UNL A   1      38.743  36.156  40.475  1.00  0.00    -0.744 OA
ENDBRANCH  73  76
ENDBRANCH  55  69
BRANCH  56  80
ATOM     80  C   UNL A   1      40.992  27.442  28.924  1.00  0.00     0.023 A 
ATOM     81  C   UNL A   1      40.175  26.295  28.898  1.00  0.00     0.012 A 
ATOM     82  C   UNL A   1      41.902  27.661  27.873  1.00  0.00     0.148 A 
ATOM     83  C   UNL A   1      40.293  25.363  27.866  1.00  0.00     0.002 A 
ATOM     84  C   UNL A   1      41.971  26.761  26.816  1.00  0.00     0.091 A 
ATOM     85  F   UNL A   1      42.677  28.755  27.921  1.00  0.00    -0.205 F 
ATOM     86  C   UNL A   1      41.182  25.600  26.821  1.00  0.00     0.022 A 
BRANCH  84  87
ATOM     87  S   UNL A   1      42.989  27.056  25.367  1.00  0.00     0.127 S 
ATOM     88  O   UNL A   1      42.900  25.774  24.673  1.00  0.00    -0.237 OA
ATOM     89  O   UNL A   1      42.279  28.159  24.720  1.00  0.00    -0.237 OA
ATOM     90  O   UNL A   1      44.307  27.409  25.876  1.00  0.00    -0.744 OA
ENDBRANCH  84  87
ENDBRANCH  56  80
BRANCH  68  91
ATOM     91  C   UNL A   1      44.594  28.402  34.829  1.00  0.00     0.023 A 
ATOM     92  C   UNL A   1      45.918  28.812  34.574  1.00  0.00     0.012 A 
ATOM     93  C   UNL A   1      44.360  27.339  35.724  1.00  0.00     0.148 A 
ATOM     94  C   UNL A   1      46.991  28.149  35.169  1.00  0.00     0.002 A 
ATOM     95  C   UNL A   1      45.431  26.721  36.355  1.00  0.00     0.091 A 
ATOM     96  F   UNL A   1      43.094  26.953  35.940  1.00  0.00    -0.205 F 
ATOM     97  C   UNL A   1      46.748  27.113  36.067  1.00  0.00     0.022 A 
BRANCH  95  98
ATOM     98  S   UNL A   1      45.210  25.446  37.601  1.00  0.00     0.127 S 
ATOM     99  O   UNL A   1      44.260  26.083  38.513  1.00  0.00    -0.237 OA
ATOM    100  O   UNL A   1      44.656  24.341  36.818  1.00  0.00    -0.237 OA
ATOM    101  O   UNL A   1      46.532  25.192  38.157  1.00  0.00    -0.744 OA
ENDBRANCH  95  98
ENDBRANCH  68  91
ENDBRANCH  42  43
ENDBRANCH  34  37
ENDBRANCH  32  33
ENDBRANCH  31  32
ENDBRANCH  30  31
ENDBRANCH   1  30
TORSDOF 20
ENDMDL
MODEL 2
REMARK VINA RESULT:     -11.6      2.189      3.437
REMARK SMILES NS(=O)(=O)c1ccc(N2N=C(C(=O)NCCCCCCNC(=O)c3ccc(-c4c5nc(c(-c6cccc(S(=O)(=O)[O-])c6F)c6ccc([nH]6)c(-c6cccc(S(=O)(=O)[O-])c6F)c6nc(c(-c7cccc(S(=O)(=O)[O-])c7F)c7ccc4[nH]7)C=C6)C=C5)cc3)C[C@H]2c2ccco2)cc1
REMARK SMILES IDX 17 1 16 2 15 3 14 4 12 5 13 6 11 8 9 9 10 10 88 11 87 12
REMARK SMILES IDX 8 13 5 14 6 15 95 16 7 17 94 18 2 19 3 20 4 21 1 22 89 25
REMARK SMILES IDX 90 26 93 27 91 28 92 29 18 30 19 31 20 32 21 33 22 34 23 36
REMARK SMILES IDX 24 37 25 38 86 39 26 40 85 41 27 42 28 43 29 44 79 45 30 46
REMARK SMILES IDX 84 47 78 48 80 49 31 50 83 51 77 52 76 53 32 55 64 56 44 57
REMARK SMILES IDX 63 58 45 59 48 60 62 61 81 62 46 63 47 64 61 66 82 67 49 68
REMARK SMILES IDX 33 69 34 70 42 71 35 72 37 73 43 74 36 75 38 76 39 77 40 78
REMARK SMILES IDX 41 79 65 80 66 81 74 82 67 83 69 84 75 85 68 86 70 87 71 88
REMARK SMILES IDX 72 89 73 90 50 91 51 92 59 93 52 94 54 95 60 96 53 97 55 98
REMARK SMILES IDX 56 99 57 100 58 101
REMARK H PARENT 14 7 1 23 1 24 21 35 80 54 48 65
REMARK Flexibility Score: inf
ROOT
ATOM      1  C   UNL A   1      31.676  28.619  27.092  1.00  0.00     0.002 C 
ENDROOT
BRANCH   1   2
ATOM      2  C   UNL A   1      31.689  27.184  26.562  1.00  0.00     0.021 C 
BRANCH   2   3
ATOM      3  C   UNL A   1      31.964  27.081  25.066  1.00  0.00     0.116 C 
BRANCH   3   4
ATOM      4  N   UNL A   1      30.964  26.259  24.410  1.00  0.00    -0.351 N 
ATOM      5  C   UNL A   1      30.986  25.032  23.798  1.00  0.00     0.267 C 
ATOM      6  O   UNL A   1      29.959  24.659  23.234  1.00  0.00    -0.268 OA
ATOM      7  H   UNL A   1      30.072  26.675  24.403  1.00  0.00     0.163 HD
BRANCH   5   8
ATOM      8  C   UNL A   1      32.185  24.096  23.821  1.00  0.00     0.128 C 
ATOM      9  N   UNL A   1      33.321  22.342  24.272  1.00  0.00    -0.254 N 
ATOM     10  N   UNL A   1      32.060  22.855  24.184  1.00  0.00    -0.171 NA
ATOM     11  C   UNL A   1      34.357  23.244  23.748  1.00  0.00     0.180 C 
ATOM     12  C   UNL A   1      33.566  24.521  23.470  1.00  0.00     0.099 C 
BRANCH   9  13
ATOM     13  C   UNL A   1      33.507  20.961  24.258  1.00  0.00     0.060 A 
ATOM     14  C   UNL A   1      33.790  18.170  24.284  1.00  0.00     0.082 A 
ATOM     15  C   UNL A   1      34.818  18.974  24.782  1.00  0.00     0.024 A 
ATOM     16  C   UNL A   1      32.636  18.741  23.752  1.00  0.00     0.024 A 
ATOM     17  C   UNL A   1      34.675  20.366  24.756  1.00  0.00     0.029 A 
ATOM     18  C   UNL A   1      32.509  20.129  23.735  1.00  0.00     0.029 A 
BRANCH  14  19
ATOM     19  S   UNL A   1      33.954  16.413  24.307  1.00  0.00     0.238 S 
ATOM     20  O   UNL A   1      34.844  16.026  25.381  1.00  0.00    -0.207 OA
ATOM     21  O   UNL A   1      34.118  15.938  22.957  1.00  0.00    -0.207 OA
BRANCH  19  22
ATOM     22  N   UNL A   1      32.432  15.909  24.806  1.00  0.00    -0.225 NA
ATOM     23  H   UNL A   1      31.930  16.697  25.216  1.00  0.00     0.137 HD
ATOM     24  H   UNL A   1      32.530  15.170  25.502  1.00  0.00     0.137 HD
ENDBRANCH  19  22
ENDBRANCH  14  19
ENDBRANCH   9  13
BRANCH  11  25
ATOM     25  C   UNL A   1      35.579  23.493  24.588  1.00  0.00     0.128 A 
ATOM     26  C   UNL A   1      35.752  23.942  25.884  1.00  0.00     0.048 A 
ATOM     27  O   UNL A   1      36.801  23.189  24.054  1.00  0.00    -0.467 OA
ATOM     28  C   UNL A   1      37.144  23.927  26.140  1.00  0.00     0.042 A 
ATOM     29  C   UNL A   1      37.736  23.436  25.002  1.00  0.00     0.195 A 
ENDBRANCH  11  25
ENDBRANCH   5   8
ENDBRANCH   3   4
ENDBRANCH   2   3
ENDBRANCH   1   2
BRANCH   1  30
ATOM     30  C   UNL A   1      31.632  29.704  26.009  1.00  0.00     0.002 C 
BRANCH  30  31
ATOM     31  C   UNL A   1      31.678  31.143  26.529  1.00  0.00     0.021 C 
BRANCH  31  32
ATOM     32  C   UNL A   1      32.905  31.474  27.371  1.00  0.00     0.116 C 
BRANCH  32  33
ATOM     33  N   UNL A   1      33.192  32.898  27.370  1.00  0.00    -0.352 N 
ATOM     34  C   UNL A   1      34.220  33.577  27.974  1.00  0.00     0.251 C 
ATOM     35  H   UNL A   1      32.558  33.456  26.865  1.00  0.00     0.163 HD
ATOM     36  O   UNL A   1      34.180  34.802  28.052  1.00  0.00    -0.269 OA
BRANCH  34  37
ATOM     37  C   UNL A   1      35.364  32.831  28.541  1.00  0.00     0.039 A 
ATOM     38  C   UNL A   1      36.637  33.398  28.473  1.00  0.00     0.014 A 
ATOM     39  C   UNL A   1      35.184  31.572  29.121  1.00  0.00     0.014 A 
ATOM     40  C   UNL A   1      37.724  32.722  29.030  1.00  0.00     0.010 A 
ATOM     41  C   UNL A   1      36.254  30.938  29.747  1.00  0.00     0.010 A 
ATOM     42  C   UNL A   1      37.539  31.499  29.697  1.00  0.00    -0.014 A 
BRANCH  42  43
ATOM     43  C   UNL A   1      38.677  30.806  30.351  1.00  0.00     0.031 A 
ATOM     44  C   UNL A   1      39.088  31.169  31.754  1.00  0.00     0.074 A 
ATOM     45  C   UNL A   1      39.386  29.893  29.657  1.00  0.00     0.049 A 
ATOM     46  N   UNL A   1      40.069  30.689  32.474  1.00  0.00    -0.248 NA
ATOM     47  C   UNL A   1      38.314  32.225  32.428  1.00  0.00     0.031 C 
ATOM     48  C   UNL A   1      39.139  29.514  28.263  1.00  0.00     0.029 A 
ATOM     49  N   UNL A   1      40.474  29.137  30.018  1.00  0.00    -0.354 N 
ATOM     50  C   UNL A   1      40.053  31.404  33.664  1.00  0.00     0.074 A 
ATOM     51  C   UNL A   1      38.985  32.374  33.560  1.00  0.00     0.031 C 
ATOM     52  C   UNL A   1      40.043  28.593  27.892  1.00  0.00     0.029 A 
ATOM     53  C   UNL A   1      40.955  28.343  29.002  1.00  0.00     0.049 A 
ATOM     54  H   UNL A   1      40.871  29.161  30.918  1.00  0.00     0.167 HD
ATOM     55  C   UNL A   1      40.840  31.253  34.757  1.00  0.00     0.034 A 
ATOM     56  C   UNL A   1      42.019  27.518  28.965  1.00  0.00     0.034 A 
ATOM     57  C   UNL A   1      41.878  30.264  34.870  1.00  0.00     0.049 A 
ATOM     58  C   UNL A   1      42.853  27.342  30.204  1.00  0.00     0.074 A 
ATOM     59  C   UNL A   1      42.666  29.968  35.968  1.00  0.00     0.029 A 
ATOM     60  N   UNL A   1      42.287  29.422  33.847  1.00  0.00    -0.354 N 
ATOM     61  N   UNL A   1      42.717  27.912  31.377  1.00  0.00    -0.248 NA
ATOM     62  C   UNL A   1      43.963  26.382  30.129  1.00  0.00     0.031 C 
ATOM     63  C   UNL A   1      43.579  28.976  35.598  1.00  0.00     0.029 A 
ATOM     64  C   UNL A   1      43.327  28.620  34.283  1.00  0.00     0.049 A 
ATOM     65  H   UNL A   1      41.895  29.397  32.945  1.00  0.00     0.167 HD
ATOM     66  C   UNL A   1      43.700  27.353  32.188  1.00  0.00     0.074 A 
ATOM     67  C   UNL A   1      44.407  26.383  31.378  1.00  0.00     0.031 C 
ATOM     68  C   UNL A   1      43.996  27.626  33.482  1.00  0.00     0.034 A 
BRANCH  55  69
ATOM     69  C   UNL A   1      40.592  32.156  35.937  1.00  0.00     0.023 A 
ATOM     70  C   UNL A   1      41.428  33.270  36.157  1.00  0.00     0.012 A 
ATOM     71  C   UNL A   1      39.484  31.947  36.781  1.00  0.00     0.148 A 
ATOM     72  C   UNL A   1      41.187  34.141  37.219  1.00  0.00     0.002 A 
ATOM     73  C   UNL A   1      39.221  32.847  37.807  1.00  0.00     0.091 A 
ATOM     74  F   UNL A   1      38.711  30.874  36.567  1.00  0.00    -0.205 F 
ATOM     75  C   UNL A   1      40.077  33.937  38.034  1.00  0.00     0.022 A 
BRANCH  73  76
ATOM     76  S   UNL A   1      37.771  32.721  38.860  1.00  0.00     0.127 S 
ATOM     77  O   UNL A   1      38.026  33.779  39.838  1.00  0.00    -0.237 OA
ATOM     78  O   UNL A   1      36.686  33.006  37.922  1.00  0.00    -0.237 OA
ATOM     79  O   UNL A   1      37.777  31.367  39.394  1.00  0.00    -0.744 OA
ENDBRANCH  73  76
ENDBRANCH  55  69
BRANCH  56  80
ATOM     80  C   UNL A   1      42.334  26.763  27.718  1.00  0.00     0.023 A 
ATOM     81  C   UNL A   1      42.950  27.422  26.637  1.00  0.00     0.012 A 
ATOM     82  C   UNL A   1      42.032  25.393  27.605  1.00  0.00     0.148 A 
ATOM     83  C   UNL A   1      43.224  26.740  25.452  1.00  0.00     0.002 A 
ATOM     84  C   UNL A   1      42.363  24.704  26.444  1.00  0.00     0.091 A 
ATOM     85  F   UNL A   1      41.438  24.784  28.642  1.00  0.00    -0.205 F 
ATOM     86  C   UNL A   1      42.939  25.380  25.358  1.00  0.00     0.022 A 
BRANCH  84  87
ATOM     87  S   UNL A   1      42.156  22.927  26.288  1.00  0.00     0.127 S 
ATOM     88  O   UNL A   1      42.985  22.432  27.385  1.00  0.00    -0.237 OA
ATOM     89  O   UNL A   1      40.715  22.773  26.485  1.00  0.00    -0.237 OA
ATOM     90  O   UNL A   1      42.617  22.592  24.948  1.00  0.00    -0.744 OA
ENDBRANCH  84  87
ENDBRANCH  56  80
BRANCH  68  91
ATOM     91  C   UNL A   1      45.105  26.836  34.128  1.00  0.00     0.023 A 
ATOM     92  C   UNL A   1      46.435  27.293  34.054  1.00  0.00     0.012 A 
ATOM     93  C   UNL A   1      44.814  25.670  34.864  1.00  0.00     0.148 A 
ATOM     94  C   UNL A   1      47.464  26.580  34.669  1.00  0.00     0.002 A 
ATOM     95  C   UNL A   1      45.836  24.997  35.520  1.00  0.00     0.091 A 
ATOM     96  F   UNL A   1      43.544  25.242  34.908  1.00  0.00    -0.205 F 
ATOM     97  C   UNL A   1      47.163  25.440  35.411  1.00  0.00     0.022 A 
BRANCH  95  98
ATOM     98  S   UNL A   1      45.530  23.579  36.579  1.00  0.00     0.127 S 
ATOM     99  O   UNL A   1      44.804  22.685  35.677  1.00  0.00    -0.237 OA
ATOM    100  O   UNL A   1      46.886  23.143  36.911  1.00  0.00    -0.237 OA
ATOM    101  O   UNL A   1      44.761  24.080  37.711  1.00  0.00    -0.744 OA
ENDBRANCH  95  98
ENDBRANCH  68  91
ENDBRANCH  42  43
ENDBRANCH  34  37
ENDBRANCH  32  33
ENDBRANCH  31  32
ENDBRANCH  30  31
ENDBRANCH   1  30
TORSDOF 20
ENDMDL
MODEL 3
REMARK VINA RESULT:     -10.8      1.959      7.931
REMARK SMILES NS(=O)(=O)c1ccc(N2N=C(C(=O)NCCCCCCNC(=O)c3ccc(-c4c5nc(c(-c6cccc(S(=O)(=O)[O-])c6F)c6ccc([nH]6)c(-c6cccc(S(=O)(=O)[O-])c6F)c6nc(c(-c7cccc(S(=O)(=O)[O-])c7F)c7ccc4[nH]7)C=C6)C=C5)cc3)C[C@H]2c2ccco2)cc1
REMARK SMILES IDX 17 1 16 2 15 3 14 4 12 5 13 6 11 8 9 9 10 10 88 11 87 12
REMARK SMILES IDX 8 13 5 14 6 15 95 16 7 17 94 18 2 19 3 20 4 21 1 22 89 25
REMARK SMILES IDX 90 26 93 27 91 28 92 29 18 30 19 31 20 32 21 33 22 34 23 36
REMARK SMILES IDX 24 37 25 38 86 39 26 40 85 41 27 42 28 43 29 44 79 45 30 46
REMARK SMILES IDX 84 47 78 48 80 49 31 50 83 51 77 52 76 53 32 55 64 56 44 57
REMARK SMILES IDX 63 58 45 59 48 60 62 61 81 62 46 63 47 64 61 66 82 67 49 68
REMARK SMILES IDX 33 69 34 70 42 71 35 72 37 73 43 74 36 75 38 76 39 77 40 78
REMARK SMILES IDX 41 79 65 80 66 81 74 82 67 83 69 84 75 85 68 86 70 87 71 88
REMARK SMILES IDX 72 89 73 90 50 91 51 92 59 93 52 94 54 95 60 96 53 97 55 98
REMARK SMILES IDX 56 99 57 100 58 101
REMARK H PARENT 14 7 1 23 1 24 21 35 80 54 48 65
REMARK Flexibility Score: inf
ROOT
ATOM      1  C   UNL A   1      34.187  29.503  26.736  1.00  0.00     0.002 C 
ENDROOT
BRANCH   1   2
ATOM      2  C   UNL A   1      33.057  28.527  27.073  1.00  0.00     0.021 C 
BRANCH   2   3
ATOM      3  C   UNL A   1      33.070  27.255  26.232  1.00  0.00     0.116 C 
BRANCH   3   4
ATOM      4  N   UNL A   1      32.011  26.352  26.642  1.00  0.00    -0.351 N 
ATOM      5  C   UNL A   1      31.782  25.010  26.479  1.00  0.00     0.267 C 
ATOM      6  O   UNL A   1      30.704  24.565  26.869  1.00  0.00    -0.268 OA
ATOM      7  H   UNL A   1      31.299  26.804  27.149  1.00  0.00     0.163 HD
BRANCH   5   8
ATOM      8  C   UNL A   1      32.800  24.043  25.891  1.00  0.00     0.128 C 
ATOM      9  N   UNL A   1      33.797  22.184  25.548  1.00  0.00    -0.254 N 
ATOM     10  N   UNL A   1      32.649  22.758  26.011  1.00  0.00    -0.171 NA
ATOM     11  C   UNL A   1      34.707  23.137  24.896  1.00  0.00     0.180 C 
ATOM     12  C   UNL A   1      34.031  24.478  25.179  1.00  0.00     0.099 C 
BRANCH   9  13
ATOM     13  C   UNL A   1      33.798  20.839  25.186  1.00  0.00     0.060 A 
ATOM     14  C   UNL A   1      33.742  18.108  24.542  1.00  0.00     0.082 A 
ATOM     15  C   UNL A   1      34.969  18.765  24.664  1.00  0.00     0.024 A 
ATOM     16  C   UNL A   1      32.546  18.801  24.714  1.00  0.00     0.024 A 
ATOM     17  C   UNL A   1      34.990  20.130  24.973  1.00  0.00     0.029 A 
ATOM     18  C   UNL A   1      32.584  20.159  25.024  1.00  0.00     0.029 A 
BRANCH  14  19
ATOM     19  S   UNL A   1      33.698  16.388  24.150  1.00  0.00     0.238 S 
ATOM     20  O   UNL A   1      34.033  16.202  22.755  1.00  0.00    -0.207 OA
ATOM     21  O   UNL A   1      32.528  15.799  24.750  1.00  0.00    -0.207 OA
BRANCH  19  22
ATOM     22  N   UNL A   1      35.018  15.786  24.995  1.00  0.00    -0.225 NA
ATOM     23  H   UNL A   1      35.423  15.004  24.481  1.00  0.00     0.137 HD
ATOM     24  H   UNL A   1      34.715  15.466  25.916  1.00  0.00     0.137 HD
ENDBRANCH  19  22
ENDBRANCH  14  19
ENDBRANCH   9  13
BRANCH  11  25
ATOM     25  C   UNL A   1      36.157  23.127  25.293  1.00  0.00     0.128 A 
ATOM     26  C   UNL A   1      36.910  23.938  26.123  1.00  0.00     0.048 A 
ATOM     27  O   UNL A   1      36.946  22.113  24.823  1.00  0.00    -0.467 OA
ATOM     28  C   UNL A   1      38.219  23.401  26.141  1.00  0.00     0.042 A 
ATOM     29  C   UNL A   1      38.182  22.276  25.355  1.00  0.00     0.195 A 
ENDBRANCH  11  25
ENDBRANCH   5   8
ENDBRANCH   3   4
ENDBRANCH   2   3
ENDBRANCH   1   2
BRANCH   1  30
ATOM     30  C   UNL A   1      34.436  30.587  27.791  1.00  0.00     0.002 C 
BRANCH  30  31
ATOM     31  C   UNL A   1      33.294  31.591  27.974  1.00  0.00     0.021 C 
BRANCH  31  32
ATOM     32  C   UNL A   1      33.489  32.913  27.242  1.00  0.00     0.116 C 
BRANCH  32  33
ATOM     33  N   UNL A   1      32.958  34.033  28.000  1.00  0.00    -0.352 N 
ATOM     34  C   UNL A   1      33.279  34.457  29.264  1.00  0.00     0.251 C 
ATOM     35  H   UNL A   1      32.266  34.563  27.540  1.00  0.00     0.163 HD
ATOM     36  O   UNL A   1      32.571  35.287  29.828  1.00  0.00    -0.269 OA
BRANCH  34  37
ATOM     37  C   UNL A   1      34.469  33.906  29.946  1.00  0.00     0.039 A 
ATOM     38  C   UNL A   1      34.286  33.035  31.021  1.00  0.00     0.014 A 
ATOM     39  C   UNL A   1      35.759  34.259  29.539  1.00  0.00     0.014 A 
ATOM     40  C   UNL A   1      35.398  32.480  31.658  1.00  0.00     0.010 A 
ATOM     41  C   UNL A   1      36.863  33.642  30.121  1.00  0.00     0.010 A 
ATOM     42  C   UNL A   1      36.696  32.757  31.196  1.00  0.00    -0.014 A 
BRANCH  42  43
ATOM     43  C   UNL A   1      37.881  32.119  31.823  1.00  0.00     0.031 A 
ATOM     44  C   UNL A   1      38.621  31.017  31.111  1.00  0.00     0.074 A 
ATOM     45  C   UNL A   1      38.253  32.486  33.066  1.00  0.00     0.049 A 
ATOM     46  N   UNL A   1      39.659  30.330  31.514  1.00  0.00    -0.248 NA
ATOM     47  C   UNL A   1      38.118  30.617  29.787  1.00  0.00     0.031 C 
ATOM     48  C   UNL A   1      37.567  33.483  33.893  1.00  0.00     0.029 A 
ATOM     49  N   UNL A   1      39.281  32.047  33.862  1.00  0.00    -0.354 N 
ATOM     50  C   UNL A   1      39.909  29.397  30.516  1.00  0.00     0.074 A 
ATOM     51  C   UNL A   1      38.897  29.584  29.500  1.00  0.00     0.031 C 
ATOM     52  C   UNL A   1      38.198  33.584  35.074  1.00  0.00     0.029 A 
ATOM     53  C   UNL A   1      39.306  32.636  35.105  1.00  0.00     0.049 A 
ATOM     54  H   UNL A   1      39.939  31.375  33.571  1.00  0.00     0.167 HD
ATOM     55  C   UNL A   1      40.906  28.483  30.437  1.00  0.00     0.034 A 
ATOM     56  C   UNL A   1      40.121  32.427  36.158  1.00  0.00     0.034 A 
ATOM     57  C   UNL A   1      41.932  28.324  31.433  1.00  0.00     0.049 A 
ATOM     58  C   UNL A   1      41.242  31.432  36.029  1.00  0.00     0.074 A 
ATOM     59  C   UNL A   1      43.038  27.494  31.401  1.00  0.00     0.029 A 
ATOM     60  N   UNL A   1      41.971  28.994  32.646  1.00  0.00    -0.354 N 
ATOM     61  N   UNL A   1      41.560  30.676  35.007  1.00  0.00    -0.248 NA
ATOM     62  C   UNL A   1      42.140  31.288  37.183  1.00  0.00     0.031 C 
ATOM     63  C   UNL A   1      43.723  27.630  32.612  1.00  0.00     0.029 A 
ATOM     64  C   UNL A   1      43.071  28.582  33.378  1.00  0.00     0.049 A 
ATOM     65  H   UNL A   1      41.314  29.664  32.943  1.00  0.00     0.167 HD
ATOM     66  C   UNL A   1      42.714  29.995  35.380  1.00  0.00     0.074 A 
ATOM     67  C   UNL A   1      43.051  30.447  36.714  1.00  0.00     0.031 C 
ATOM     68  C   UNL A   1      43.423  29.071  34.687  1.00  0.00     0.034 A 
BRANCH  55  69
ATOM     69  C   UNL A   1      40.961  27.601  29.218  1.00  0.00     0.023 A 
ATOM     70  C   UNL A   1      40.129  26.464  29.135  1.00  0.00     0.012 A 
ATOM     71  C   UNL A   1      41.778  27.940  28.121  1.00  0.00     0.148 A 
ATOM     72  C   UNL A   1      40.135  25.661  27.995  1.00  0.00     0.002 A 
ATOM     73  C   UNL A   1      41.741  27.162  26.970  1.00  0.00     0.091 A 
ATOM     74  F   UNL A   1      42.574  29.012  28.225  1.00  0.00    -0.205 F 
ATOM     75  C   UNL A   1      40.931  26.017  26.910  1.00  0.00     0.022 A 
BRANCH  73  76
ATOM     76  S   UNL A   1      42.663  27.582  25.487  1.00  0.00     0.127 S 
ATOM     77  O   UNL A   1      41.925  28.747  25.002  1.00  0.00    -0.237 OA
ATOM     78  O   UNL A   1      43.990  27.880  26.025  1.00  0.00    -0.237 OA
ATOM     79  O   UNL A   1      42.603  26.407  24.629  1.00  0.00    -0.744 OA
ENDBRANCH  73  76
ENDBRANCH  55  69
BRANCH  56  80
ATOM     80  C   UNL A   1      39.931  33.205  37.415  1.00  0.00     0.023 A 
ATOM     81  C   UNL A   1      38.914  32.839  38.318  1.00  0.00     0.012 A 
ATOM     82  C   UNL A   1      40.759  34.301  37.722  1.00  0.00     0.148 A 
ATOM     83  C   UNL A   1      38.700  33.574  39.484  1.00  0.00     0.002 A 
ATOM     84  C   UNL A   1      40.581  34.992  38.915  1.00  0.00     0.091 A 
ATOM     85  F   UNL A   1      41.717  34.639  36.846  1.00  0.00    -0.205 F 
ATOM     86  C   UNL A   1      39.539  34.644  39.787  1.00  0.00     0.022 A 
BRANCH  84  87
ATOM     87  S   UNL A   1      41.698  36.293  39.448  1.00  0.00     0.127 S 
ATOM     88  O   UNL A   1      43.003  35.666  39.254  1.00  0.00    -0.237 OA
ATOM     89  O   UNL A   1      41.382  37.365  38.504  1.00  0.00    -0.237 OA
ATOM     90  O   UNL A   1      41.335  36.584  40.828  1.00  0.00    -0.744 OA
ENDBRANCH  84  87
ENDBRANCH  56  80
BRANCH  68  91
ATOM     91  C   UNL A   1      44.666  28.515  35.332  1.00  0.00     0.023 A 
ATOM     92  C   UNL A   1      45.908  29.152  35.140  1.00  0.00     0.012 A 
ATOM     93  C   UNL A   1      44.588  27.395  36.182  1.00  0.00     0.148 A 
ATOM     94  C   UNL A   1      47.059  28.658  35.752  1.00  0.00     0.002 A 
ATOM     95  C   UNL A   1      45.728  26.942  36.833  1.00  0.00     0.091 A 
ATOM     96  F   UNL A   1      43.400  26.792  36.339  1.00  0.00    -0.205 F 
ATOM     97  C   UNL A   1      46.968  27.562  36.607  1.00  0.00     0.022 A 
BRANCH  95  98
ATOM     98  S   UNL A   1      45.688  25.602  38.028  1.00  0.00     0.127 S 
ATOM     99  O   UNL A   1      45.656  24.427  37.157  1.00  0.00    -0.237 OA
ATOM    100  O   UNL A   1      46.946  25.793  38.749  1.00  0.00    -0.237 OA
ATOM    101  O   UNL A   1      44.491  25.814  38.831  1.00  0.00    -0.744 OA
ENDBRANCH  95  98
ENDBRANCH  68  91
ENDBRANCH  42  43
ENDBRANCH  34  37
ENDBRANCH  32  33
ENDBRANCH  31  32
ENDBRANCH  30  31
ENDBRANCH   1  30
TORSDOF 20
ENDMDL
