MODEL 1
REMARK VINA RESULT:     -11.0      0.000      0.000
REMARK SMILES CCCc1cc(OCC(=O)NCCCCCCNC(=O)c2ccc(-c3c4nc(c(-c5cccc(S(=O)(=O)[O-])c5F)c5ccc([nH]5)c(-c5cccc(S(=O)(=O)[O-])c5F)c5nc(c(-c6cccc(S(=O)(=O)[O-])c6F)c6ccc3[nH]6)C=C5)C=C4)cc2)nc(Nc2ccc(C#N)cc2)n1
REMARK SMILES IDX 13 1 12 2 11 3 9 4 10 5 8 7 7 8 6 9 4 10 5 11 95 12 85 13
REMARK SMILES IDX 84 14 3 15 2 16 1 17 86 18 87 20 88 21 94 22 89 23 93 24
REMARK SMILES IDX 90 25 91 26 92 27 14 28 15 29 16 30 17 31 18 32 19 33 20 35
REMARK SMILES IDX 21 36 22 37 83 38 23 39 82 40 24 41 25 42 26 43 76 44 27 45
REMARK SMILES IDX 81 46 75 47 77 48 28 49 80 50 74 51 73 52 29 54 61 55 41 56
REMARK SMILES IDX 60 57 42 58 45 59 59 60 78 61 43 62 44 63 58 65 79 66 46 67
REMARK SMILES IDX 30 68 31 69 39 70 32 71 34 72 40 73 33 74 35 75 36 76 37 77
REMARK SMILES IDX 38 78 62 79 63 80 71 81 64 82 66 83 72 84 65 85 67 86 68 87
REMARK SMILES IDX 69 88 70 89 47 90 48 91 56 92 49 93 51 94 57 95 50 96 52 97
REMARK SMILES IDX 53 98 54 99 55 100
REMARK H PARENT 11 6 86 19 18 34 77 53 45 64
REMARK Flexibility Score: inf
ROOT
ATOM      1  C   UNL A   1      36.153  23.827  25.495  1.00  0.00     0.021 C 
ENDROOT
BRANCH   1   2
ATOM      2  C   UNL A   1      34.731  23.272  25.473  1.00  0.00     0.116 C 
BRANCH   2   3
ATOM      3  N   UNL A   1      34.285  22.895  26.801  1.00  0.00    -0.353 N 
ATOM      4  C   UNL A   1      33.005  22.801  27.253  1.00  0.00     0.258 C 
ATOM      5  O   UNL A   1      32.804  22.442  28.416  1.00  0.00    -0.271 OA
ATOM      6  H   UNL A   1      34.992  22.681  27.451  1.00  0.00     0.163 HD
BRANCH   4   7
ATOM      7  C   UNL A   1      31.845  23.145  26.307  1.00  0.00     0.331 C 
BRANCH   7   8
ATOM      8  O   UNL A   1      30.955  24.168  26.728  1.00  0.00    -0.467 OA
BRANCH   8   9
ATOM      9  C   UNL A   1      30.912  25.323  25.998  1.00  0.00     0.218 A 
ATOM     10  C   UNL A   1      30.013  26.858  24.481  1.00  0.00     0.050 A 
ATOM     11  C   UNL A   1      29.876  25.682  25.175  1.00  0.00     0.092 A 
ATOM     12  N   UNL A   1      31.085  27.648  24.634  1.00  0.00    -0.218 NA
ATOM     13  C   UNL A   1      32.055  27.239  25.471  1.00  0.00     0.230 A 
ATOM     14  N   UNL A   1      32.008  26.085  26.150  1.00  0.00    -0.177 NA
BRANCH  10  15
ATOM     15  C   UNL A   1      28.972  27.255  23.468  1.00  0.00     0.056 C 
BRANCH  15  16
ATOM     16  C   UNL A   1      29.271  28.589  22.770  1.00  0.00     0.003 C 
ATOM     17  C   UNL A   1      28.311  29.723  23.114  1.00  0.00     0.004 C 
ENDBRANCH  15  16
ENDBRANCH  10  15
BRANCH  13  18
ATOM     18  N   UNL A   1      33.220  27.993  25.587  1.00  0.00    -0.324 N 
ATOM     19  H   UNL A   1      33.973  27.713  25.018  1.00  0.00     0.170 HD
BRANCH  18  20
ATOM     20  C   UNL A   1      33.457  29.097  26.410  1.00  0.00     0.041 A 
ATOM     21  C   UNL A   1      34.666  29.204  27.105  1.00  0.00     0.027 A 
ATOM     22  C   UNL A   1      32.560  30.173  26.462  1.00  0.00     0.027 A 
ATOM     23  C   UNL A   1      34.986  30.372  27.809  1.00  0.00     0.021 A 
ATOM     24  C   UNL A   1      32.860  31.331  27.184  1.00  0.00     0.021 A 
ATOM     25  C   UNL A   1      34.084  31.441  27.845  1.00  0.00     0.052 A 
BRANCH  25  26
ATOM     26  C   UNL A   1      34.425  32.655  28.524  1.00  0.00     0.099 C 
ATOM     27  N   UNL A   1      34.696  33.653  29.055  1.00  0.00    -0.192 NA
ENDBRANCH  25  26
ENDBRANCH  18  20
ENDBRANCH  13  18
ENDBRANCH   8   9
ENDBRANCH   7   8
ENDBRANCH   4   7
ENDBRANCH   2   3
ENDBRANCH   1   2
BRANCH   1  28
ATOM     28  C   UNL A   1      37.244  22.752  25.573  1.00  0.00     0.002 C 
BRANCH  28  29
ATOM     29  C   UNL A   1      37.025  21.541  24.661  1.00  0.00     0.002 C 
BRANCH  29  30
ATOM     30  C   UNL A   1      37.932  20.346  24.955  1.00  0.00     0.021 C 
BRANCH  30  31
ATOM     31  C   UNL A   1      39.138  20.679  25.821  1.00  0.00     0.116 C 
BRANCH  31  32
ATOM     32  N   UNL A   1      40.030  19.539  25.971  1.00  0.00    -0.352 N 
ATOM     33  C   UNL A   1      41.394  19.532  26.135  1.00  0.00     0.251 C 
ATOM     34  H   UNL A   1      39.599  18.654  25.952  1.00  0.00     0.163 HD
ATOM     35  O   UNL A   1      42.026  18.484  26.035  1.00  0.00    -0.269 OA
BRANCH  33  36
ATOM     36  C   UNL A   1      42.091  20.805  26.414  1.00  0.00     0.039 A 
ATOM     37  C   UNL A   1      42.481  21.619  25.350  1.00  0.00     0.014 A 
ATOM     38  C   UNL A   1      42.332  21.201  27.732  1.00  0.00     0.014 A 
ATOM     39  C   UNL A   1      43.061  22.861  25.611  1.00  0.00     0.010 A 
ATOM     40  C   UNL A   1      42.822  22.475  27.990  1.00  0.00     0.010 A 
ATOM     41  C   UNL A   1      43.206  23.315  26.933  1.00  0.00    -0.014 A 
BRANCH  41  42
ATOM     42  C   UNL A   1      43.772  24.654  27.241  1.00  0.00     0.031 A 
ATOM     43  C   UNL A   1      42.875  25.736  27.784  1.00  0.00     0.074 A 
ATOM     44  C   UNL A   1      45.065  24.920  26.965  1.00  0.00     0.049 A 
ATOM     45  N   UNL A   1      43.151  26.991  28.022  1.00  0.00    -0.248 NA
ATOM     46  C   UNL A   1      41.479  25.366  28.073  1.00  0.00     0.031 C 
ATOM     47  C   UNL A   1      46.024  23.972  26.392  1.00  0.00     0.029 A 
ATOM     48  N   UNL A   1      45.790  26.078  27.105  1.00  0.00    -0.354 N 
ATOM     49  C   UNL A   1      41.962  27.564  28.460  1.00  0.00     0.074 A 
ATOM     50  C   UNL A   1      40.951  26.532  28.411  1.00  0.00     0.031 C 
ATOM     51  C   UNL A   1      47.209  24.584  26.235  1.00  0.00     0.029 A 
ATOM     52  C   UNL A   1      47.085  25.978  26.648  1.00  0.00     0.049 A 
ATOM     53  H   UNL A   1      45.418  26.903  27.493  1.00  0.00     0.167 HD
ATOM     54  C   UNL A   1      41.738  28.826  28.893  1.00  0.00     0.034 A 
ATOM     55  C   UNL A   1      48.054  26.910  26.553  1.00  0.00     0.034 A 
ATOM     56  C   UNL A   1      42.749  29.844  28.961  1.00  0.00     0.049 A 
ATOM     57  C   UNL A   1      47.766  28.313  27.019  1.00  0.00     0.074 A 
ATOM     58  C   UNL A   1      42.632  31.140  29.433  1.00  0.00     0.029 A 
ATOM     59  N   UNL A   1      44.059  29.688  28.540  1.00  0.00    -0.354 N 
ATOM     60  N   UNL A   1      46.665  28.804  27.536  1.00  0.00    -0.248 NA
ATOM     61  C   UNL A   1      48.864  29.286  26.921  1.00  0.00     0.031 C 
ATOM     62  C   UNL A   1      43.860  31.780  29.256  1.00  0.00     0.029 A 
ATOM     63  C   UNL A   1      44.759  30.865  28.733  1.00  0.00     0.049 A 
ATOM     64  H   UNL A   1      44.436  28.862  28.159  1.00  0.00     0.167 HD
ATOM     65  C   UNL A   1      46.958  30.120  27.876  1.00  0.00     0.074 A 
ATOM     66  C   UNL A   1      48.341  30.347  27.518  1.00  0.00     0.031 C 
ATOM     67  C   UNL A   1      46.154  31.057  28.432  1.00  0.00     0.034 A 
BRANCH  54  68
ATOM     68  C   UNL A   1      40.351  29.172  29.369  1.00  0.00     0.023 A 
ATOM     69  C   UNL A   1      39.394  29.644  28.448  1.00  0.00     0.012 A 
ATOM     70  C   UNL A   1      39.973  28.958  30.709  1.00  0.00     0.148 A 
ATOM     71  C   UNL A   1      38.090  29.924  28.858  1.00  0.00     0.002 A 
ATOM     72  C   UNL A   1      38.661  29.191  31.099  1.00  0.00     0.091 A 
ATOM     73  F   UNL A   1      40.903  28.523  31.572  1.00  0.00    -0.205 F 
ATOM     74  C   UNL A   1      37.722  29.686  30.179  1.00  0.00     0.022 A 
BRANCH  72  75
ATOM     75  S   UNL A   1      38.062  28.840  32.756  1.00  0.00     0.127 S 
ATOM     76  O   UNL A   1      36.693  29.349  32.689  1.00  0.00    -0.237 OA
ATOM     77  O   UNL A   1      38.170  27.382  32.815  1.00  0.00    -0.237 OA
ATOM     78  O   UNL A   1      38.945  29.557  33.666  1.00  0.00    -0.744 OA
ENDBRANCH  72  75
ENDBRANCH  54  68
BRANCH  55  79
ATOM     79  C   UNL A   1      49.401  26.558  26.016  1.00  0.00     0.023 A 
ATOM     80  C   UNL A   1      50.280  25.780  26.795  1.00  0.00     0.012 A 
ATOM     81  C   UNL A   1      49.832  27.024  24.758  1.00  0.00     0.148 A 
ATOM     82  C   UNL A   1      51.582  25.525  26.362  1.00  0.00     0.002 A 
ATOM     83  C   UNL A   1      51.108  26.714  24.305  1.00  0.00     0.091 A 
ATOM     84  F   UNL A   1      48.985  27.766  24.032  1.00  0.00    -0.205 F 
ATOM     85  C   UNL A   1      51.994  25.987  25.115  1.00  0.00     0.022 A 
BRANCH  83  86
ATOM     86  S   UNL A   1      51.682  27.163  22.664  1.00  0.00     0.127 S 
ATOM     87  O   UNL A   1      52.885  26.345  22.533  1.00  0.00    -0.237 OA
ATOM     88  O   UNL A   1      50.558  26.744  21.827  1.00  0.00    -0.237 OA
ATOM     89  O   UNL A   1      51.899  28.603  22.702  1.00  0.00    -0.744 OA
ENDBRANCH  83  86
ENDBRANCH  55  79
BRANCH  67  90
ATOM     90  C   UNL A   1      46.758  32.392  28.779  1.00  0.00     0.023 A 
ATOM     91  C   UNL A   1      47.352  32.605  30.037  1.00  0.00     0.012 A 
ATOM     92  C   UNL A   1      46.805  33.414  27.809  1.00  0.00     0.148 A 
ATOM     93  C   UNL A   1      47.952  33.828  30.337  1.00  0.00     0.002 A 
ATOM     94  C   UNL A   1      47.456  34.606  28.093  1.00  0.00     0.091 A 
ATOM     95  F   UNL A   1      46.220  33.196  26.622  1.00  0.00    -0.205 F 
ATOM     96  C   UNL A   1      48.017  34.822  29.362  1.00  0.00     0.022 A 
BRANCH  94  97
ATOM     97  S   UNL A   1      47.677  35.901  26.869  1.00  0.00     0.127 S 
ATOM     98  O   UNL A   1      48.347  35.176  25.789  1.00  0.00    -0.237 OA
ATOM     99  O   UNL A   1      46.297  36.288  26.579  1.00  0.00    -0.237 OA
ATOM    100  O   UNL A   1      48.478  36.935  27.511  1.00  0.00    -0.744 OA
ENDBRANCH  94  97
ENDBRANCH  67  90
ENDBRANCH  41  42
ENDBRANCH  33  36
ENDBRANCH  31  32
ENDBRANCH  30  31
ENDBRANCH  29  30
ENDBRANCH  28  29
ENDBRANCH   1  28
TORSDOF 23
ENDMDL
MODEL 2
REMARK VINA RESULT:     -10.9      1.306      2.679
REMARK SMILES CCCc1cc(OCC(=O)NCCCCCCNC(=O)c2ccc(-c3c4nc(c(-c5cccc(S(=O)(=O)[O-])c5F)c5ccc([nH]5)c(-c5cccc(S(=O)(=O)[O-])c5F)c5nc(c(-c6cccc(S(=O)(=O)[O-])c6F)c6ccc3[nH]6)C=C5)C=C4)cc2)nc(Nc2ccc(C#N)cc2)n1
REMARK SMILES IDX 13 1 12 2 11 3 9 4 10 5 8 7 7 8 6 9 4 10 5 11 95 12 85 13
REMARK SMILES IDX 84 14 3 15 2 16 1 17 86 18 87 20 88 21 94 22 89 23 93 24
REMARK SMILES IDX 90 25 91 26 92 27 14 28 15 29 16 30 17 31 18 32 19 33 20 35
REMARK SMILES IDX 21 36 22 37 83 38 23 39 82 40 24 41 25 42 26 43 76 44 27 45
REMARK SMILES IDX 81 46 75 47 77 48 28 49 80 50 74 51 73 52 29 54 61 55 41 56
REMARK SMILES IDX 60 57 42 58 45 59 59 60 78 61 43 62 44 63 58 65 79 66 46 67
REMARK SMILES IDX 30 68 31 69 39 70 32 71 34 72 40 73 33 74 35 75 36 76 37 77
REMARK SMILES IDX 38 78 62 79 63 80 71 81 64 82 66 83 72 84 65 85 67 86 68 87
REMARK SMILES IDX 69 88 70 89 47 90 48 91 56 92 49 93 51 94 57 95 50 96 52 97
REMARK SMILES IDX 53 98 54 99 55 100
REMARK H PARENT 11 6 86 19 18 34 77 53 45 64
REMARK Flexibility Score: inf
ROOT
ATOM      1  C   UNL A   1      35.146  23.255  24.841  1.00  0.00     0.021 C 
ENDROOT
BRANCH   1   2
ATOM      2  C   UNL A   1      34.266  22.600  23.779  1.00  0.00     0.116 C 
BRANCH   2   3
ATOM      3  N   UNL A   1      33.610  21.412  24.289  1.00  0.00    -0.353 N 
ATOM      4  C   UNL A   1      32.325  21.292  24.723  1.00  0.00     0.258 C 
ATOM      5  O   UNL A   1      31.921  20.192  25.108  1.00  0.00    -0.271 OA
ATOM      6  H   UNL A   1      34.158  20.595  24.325  1.00  0.00     0.163 HD
BRANCH   4   7
ATOM      7  C   UNL A   1      31.413  22.528  24.726  1.00  0.00     0.331 C 
BRANCH   7   8
ATOM      8  O   UNL A   1      31.400  23.314  25.909  1.00  0.00    -0.467 OA
BRANCH   8   9
ATOM      9  C   UNL A   1      31.252  24.667  25.780  1.00  0.00     0.218 A 
ATOM     10  C   UNL A   1      31.541  26.913  26.363  1.00  0.00     0.050 A 
ATOM     11  C   UNL A   1      31.828  25.593  26.609  1.00  0.00     0.092 A 
ATOM     12  N   UNL A   1      30.773  27.288  25.331  1.00  0.00    -0.218 NA
ATOM     13  C   UNL A   1      30.254  26.324  24.549  1.00  0.00     0.230 A 
ATOM     14  N   UNL A   1      30.458  25.016  24.753  1.00  0.00    -0.177 NA
BRANCH  10  15
ATOM     15  C   UNL A   1      32.040  27.976  27.305  1.00  0.00     0.056 C 
BRANCH  15  16
ATOM     16  C   UNL A   1      31.897  29.401  26.753  1.00  0.00     0.003 C 
ATOM     17  C   UNL A   1      33.215  30.133  26.518  1.00  0.00     0.004 C 
ENDBRANCH  15  16
ENDBRANCH  10  15
BRANCH  13  18
ATOM     18  N   UNL A   1      29.382  26.674  23.521  1.00  0.00    -0.324 N 
ATOM     19  H   UNL A   1      28.922  25.927  23.074  1.00  0.00     0.170 HD
BRANCH  18  20
ATOM     20  C   UNL A   1      29.077  27.951  23.043  1.00  0.00     0.041 A 
ATOM     21  C   UNL A   1      27.798  28.483  23.241  1.00  0.00     0.027 A 
ATOM     22  C   UNL A   1      30.061  28.772  22.477  1.00  0.00     0.027 A 
ATOM     23  C   UNL A   1      27.519  29.816  22.909  1.00  0.00     0.021 A 
ATOM     24  C   UNL A   1      29.783  30.094  22.119  1.00  0.00     0.021 A 
ATOM     25  C   UNL A   1      28.514  30.626  22.353  1.00  0.00     0.052 A 
BRANCH  25  26
ATOM     26  C   UNL A   1      28.247  32.001  22.056  1.00  0.00     0.099 C 
ATOM     27  N   UNL A   1      28.043  33.124  21.835  1.00  0.00    -0.192 NA
ENDBRANCH  25  26
ENDBRANCH  18  20
ENDBRANCH  13  18
ENDBRANCH   8   9
ENDBRANCH   7   8
ENDBRANCH   4   7
ENDBRANCH   2   3
ENDBRANCH   1   2
BRANCH   1  28
ATOM     28  C   UNL A   1      36.193  22.316  25.454  1.00  0.00     0.002 C 
BRANCH  28  29
ATOM     29  C   UNL A   1      37.204  21.739  24.459  1.00  0.00     0.002 C 
BRANCH  29  30
ATOM     30  C   UNL A   1      37.888  20.450  24.917  1.00  0.00     0.021 C 
BRANCH  30  31
ATOM     31  C   UNL A   1      38.969  20.659  25.968  1.00  0.00     0.116 C 
BRANCH  31  32
ATOM     32  N   UNL A   1      39.904  19.544  26.014  1.00  0.00    -0.352 N 
ATOM     33  C   UNL A   1      41.275  19.576  26.080  1.00  0.00     0.251 C 
ATOM     34  H   UNL A   1      39.499  18.646  25.994  1.00  0.00     0.163 HD
ATOM     35  O   UNL A   1      41.930  18.554  25.898  1.00  0.00    -0.269 OA
BRANCH  33  36
ATOM     36  C   UNL A   1      41.952  20.861  26.353  1.00  0.00     0.039 A 
ATOM     37  C   UNL A   1      42.243  21.721  25.293  1.00  0.00     0.014 A 
ATOM     38  C   UNL A   1      42.271  21.224  27.665  1.00  0.00     0.014 A 
ATOM     39  C   UNL A   1      42.802  22.972  25.555  1.00  0.00     0.010 A 
ATOM     40  C   UNL A   1      42.739  22.504  27.931  1.00  0.00     0.010 A 
ATOM     41  C   UNL A   1      43.024  23.388  26.879  1.00  0.00    -0.014 A 
BRANCH  41  42
ATOM     42  C   UNL A   1      43.570  24.734  27.193  1.00  0.00     0.031 A 
ATOM     43  C   UNL A   1      42.665  25.790  27.773  1.00  0.00     0.074 A 
ATOM     44  C   UNL A   1      44.850  25.032  26.889  1.00  0.00     0.049 A 
ATOM     45  N   UNL A   1      42.920  27.047  28.022  1.00  0.00    -0.248 NA
ATOM     46  C   UNL A   1      41.284  25.387  28.091  1.00  0.00     0.031 C 
ATOM     47  C   UNL A   1      45.813  24.113  26.279  1.00  0.00     0.029 A 
ATOM     48  N   UNL A   1      45.554  26.203  27.028  1.00  0.00    -0.354 N 
ATOM     49  C   UNL A   1      41.731  27.589  28.498  1.00  0.00     0.074 A 
ATOM     50  C   UNL A   1      40.740  26.536  28.459  1.00  0.00     0.031 C 
ATOM     51  C   UNL A   1      46.981  24.751  26.102  1.00  0.00     0.029 A 
ATOM     52  C   UNL A   1      46.839  26.137  26.539  1.00  0.00     0.049 A 
ATOM     53  H   UNL A   1      45.175  27.014  27.437  1.00  0.00     0.167 HD
ATOM     54  C   UNL A   1      41.491  28.840  28.954  1.00  0.00     0.034 A 
ATOM     55  C   UNL A   1      47.786  27.090  26.433  1.00  0.00     0.034 A 
ATOM     56  C   UNL A   1      42.482  29.878  29.013  1.00  0.00     0.049 A 
ATOM     57  C   UNL A   1      47.480  28.480  26.927  1.00  0.00     0.074 A 
ATOM     58  C   UNL A   1      42.350  31.164  29.506  1.00  0.00     0.029 A 
ATOM     59  N   UNL A   1      43.785  29.755  28.557  1.00  0.00    -0.354 N 
ATOM     60  N   UNL A   1      46.383  28.940  27.477  1.00  0.00    -0.248 NA
ATOM     61  C   UNL A   1      48.556  29.477  26.816  1.00  0.00     0.031 C 
ATOM     62  C   UNL A   1      43.560  31.832  29.309  1.00  0.00     0.029 A 
ATOM     63  C   UNL A   1      44.464  30.944  28.751  1.00  0.00     0.049 A 
ATOM     64  H   UNL A   1      44.169  28.943  28.155  1.00  0.00     0.167 HD
ATOM     65  C   UNL A   1      46.657  30.257  27.829  1.00  0.00     0.074 A 
ATOM     66  C   UNL A   1      48.025  30.518  27.441  1.00  0.00     0.031 C 
ATOM     67  C   UNL A   1      45.847  31.169  28.418  1.00  0.00     0.034 A 
BRANCH  54  68
ATOM     68  C   UNL A   1      40.109  29.150  29.469  1.00  0.00     0.023 A 
ATOM     69  C   UNL A   1      39.032  29.242  28.565  1.00  0.00     0.012 A 
ATOM     70  C   UNL A   1      39.865  29.272  30.851  1.00  0.00     0.148 A 
ATOM     71  C   UNL A   1      37.737  29.481  29.025  1.00  0.00     0.002 A 
ATOM     72  C   UNL A   1      38.565  29.459  31.305  1.00  0.00     0.091 A 
ATOM     73  F   UNL A   1      40.905  29.196  31.693  1.00  0.00    -0.205 F 
ATOM     74  C   UNL A   1      37.503  29.576  30.394  1.00  0.00     0.022 A 
BRANCH  72  75
ATOM     75  S   UNL A   1      38.144  29.515  33.050  1.00  0.00     0.127 S 
ATOM     76  O   UNL A   1      37.742  30.911  33.212  1.00  0.00    -0.237 OA
ATOM     77  O   UNL A   1      37.047  28.550  33.129  1.00  0.00    -0.237 OA
ATOM     78  O   UNL A   1      39.350  29.130  33.770  1.00  0.00    -0.744 OA
ENDBRANCH  72  75
ENDBRANCH  54  68
BRANCH  55  79
ATOM     79  C   UNL A   1      49.127  26.774  25.859  1.00  0.00     0.023 A 
ATOM     80  C   UNL A   1      50.088  26.120  26.653  1.00  0.00     0.012 A 
ATOM     81  C   UNL A   1      49.468  27.155  24.546  1.00  0.00     0.148 A 
ATOM     82  C   UNL A   1      51.382  25.905  26.176  1.00  0.00     0.002 A 
ATOM     83  C   UNL A   1      50.738  26.883  24.055  1.00  0.00     0.091 A 
ATOM     84  F   UNL A   1      48.543  27.780  23.805  1.00  0.00    -0.205 F 
ATOM     85  C   UNL A   1      51.706  26.282  24.876  1.00  0.00     0.022 A 
BRANCH  83  86
ATOM     86  S   UNL A   1      51.206  27.223  22.355  1.00  0.00     0.127 S 
ATOM     87  O   UNL A   1      52.455  26.475  22.233  1.00  0.00    -0.237 OA
ATOM     88  O   UNL A   1      50.077  26.662  21.614  1.00  0.00    -0.237 OA
ATOM     89  O   UNL A   1      51.326  28.672  22.260  1.00  0.00    -0.744 OA
ENDBRANCH  83  86
ENDBRANCH  55  79
BRANCH  67  90
ATOM     90  C   UNL A   1      46.432  32.512  28.770  1.00  0.00     0.023 A 
ATOM     91  C   UNL A   1      47.068  32.715  30.009  1.00  0.00     0.012 A 
ATOM     92  C   UNL A   1      46.418  33.554  27.820  1.00  0.00     0.148 A 
ATOM     93  C   UNL A   1      47.650  33.946  30.311  1.00  0.00     0.002 A 
ATOM     94  C   UNL A   1      47.050  34.756  28.105  1.00  0.00     0.091 A 
ATOM     95  F   UNL A   1      45.793  33.344  26.652  1.00  0.00    -0.205 F 
ATOM     96  C   UNL A   1      47.653  34.960  29.356  1.00  0.00     0.022 A 
BRANCH  94  97
ATOM     97  S   UNL A   1      47.194  36.079  26.899  1.00  0.00     0.127 S 
ATOM     98  O   UNL A   1      48.154  36.969  27.549  1.00  0.00    -0.237 OA
ATOM     99  O   UNL A   1      47.711  35.372  25.729  1.00  0.00    -0.237 OA
ATOM    100  O   UNL A   1      45.854  36.627  26.735  1.00  0.00    -0.744 OA
ENDBRANCH  94  97
ENDBRANCH  67  90
ENDBRANCH  41  42
ENDBRANCH  33  36
ENDBRANCH  31  32
ENDBRANCH  30  31
ENDBRANCH  29  30
ENDBRANCH  28  29
ENDBRANCH   1  28
TORSDOF 23
ENDMDL
MODEL 3
REMARK VINA RESULT:     -10.5      5.427     11.157
REMARK SMILES CCCc1cc(OCC(=O)NCCCCCCNC(=O)c2ccc(-c3c4nc(c(-c5cccc(S(=O)(=O)[O-])c5F)c5ccc([nH]5)c(-c5cccc(S(=O)(=O)[O-])c5F)c5nc(c(-c6cccc(S(=O)(=O)[O-])c6F)c6ccc3[nH]6)C=C5)C=C4)cc2)nc(Nc2ccc(C#N)cc2)n1
REMARK SMILES IDX 13 1 12 2 11 3 9 4 10 5 8 7 7 8 6 9 4 10 5 11 95 12 85 13
REMARK SMILES IDX 84 14 3 15 2 16 1 17 86 18 87 20 88 21 94 22 89 23 93 24
REMARK SMILES IDX 90 25 91 26 92 27 14 28 15 29 16 30 17 31 18 32 19 33 20 35
REMARK SMILES IDX 21 36 22 37 83 38 23 39 82 40 24 41 25 42 26 43 76 44 27 45
REMARK SMILES IDX 81 46 75 47 77 48 28 49 80 50 74 51 73 52 29 54 61 55 41 56
REMARK SMILES IDX 60 57 42 58 45 59 59 60 78 61 43 62 44 63 58 65 79 66 46 67
REMARK SMILES IDX 30 68 31 69 39 70 32 71 34 72 40 73 33 74 35 75 36 76 37 77
REMARK SMILES IDX 38 78 62 79 63 80 71 81 64 82 66 83 72 84 65 85 67 86 68 87
REMARK SMILES IDX 69 88 70 89 47 90 48 91 56 92 49 93 51 94 57 95 50 96 52 97
REMARK SMILES IDX 53 98 54 99 55 100
REMARK H PARENT 11 6 86 19 18 34 77 53 45 64
REMARK Flexibility Score: inf
ROOT
ATOM      1  C   UNL A   1      32.766  26.903  25.582  1.00  0.00     0.021 C 
ENDROOT
BRANCH   1   2
ATOM      2  C   UNL A   1      32.808  25.600  26.377  1.00  0.00     0.116 C 
BRANCH   2   3
ATOM      3  N   UNL A   1      31.499  25.246  26.892  1.00  0.00    -0.353 N 
ATOM      4  C   UNL A   1      30.803  24.097  26.676  1.00  0.00     0.258 C 
ATOM      5  O   UNL A   1      29.702  23.952  27.212  1.00  0.00    -0.271 OA
ATOM      6  H   UNL A   1      31.063  25.917  27.466  1.00  0.00     0.163 HD
BRANCH   4   7
ATOM      7  C   UNL A   1      31.403  23.012  25.769  1.00  0.00     0.331 C 
BRANCH   7   8
ATOM      8  O   UNL A   1      30.960  22.986  24.419  1.00  0.00    -0.467 OA
BRANCH   8   9
ATOM      9  C   UNL A   1      31.002  24.152  23.707  1.00  0.00     0.218 A 
ATOM     10  C   UNL A   1      31.933  25.745  22.271  1.00  0.00     0.050 A 
ATOM     11  C   UNL A   1      32.032  24.519  22.881  1.00  0.00     0.092 A 
ATOM     12  N   UNL A   1      30.859  26.530  22.433  1.00  0.00    -0.218 NA
ATOM     13  C   UNL A   1      29.880  26.098  23.246  1.00  0.00     0.230 A 
ATOM     14  N   UNL A   1      29.926  24.932  23.905  1.00  0.00    -0.177 NA
BRANCH  10  15
ATOM     15  C   UNL A   1      33.081  26.266  21.448  1.00  0.00     0.056 C 
BRANCH  15  16
ATOM     16  C   UNL A   1      34.034  27.179  22.232  1.00  0.00     0.003 C 
ATOM     17  C   UNL A   1      33.568  28.625  22.371  1.00  0.00     0.004 C 
ENDBRANCH  15  16
ENDBRANCH  10  15
BRANCH  13  18
ATOM     18  N   UNL A   1      28.790  26.926  23.505  1.00  0.00    -0.324 N 
ATOM     19  H   UNL A   1      28.008  26.493  23.917  1.00  0.00     0.170 HD
BRANCH  18  20
ATOM     20  C   UNL A   1      28.666  28.295  23.254  1.00  0.00     0.041 A 
ATOM     21  C   UNL A   1      29.736  29.002  22.695  1.00  0.00     0.027 A 
ATOM     22  C   UNL A   1      27.446  28.961  23.430  1.00  0.00     0.027 A 
ATOM     23  C   UNL A   1      29.581  30.335  22.293  1.00  0.00     0.021 A 
ATOM     24  C   UNL A   1      27.291  30.299  23.056  1.00  0.00     0.021 A 
ATOM     25  C   UNL A   1      28.355  30.984  22.468  1.00  0.00     0.052 A 
BRANCH  25  26
ATOM     26  C   UNL A   1      28.177  32.331  22.016  1.00  0.00     0.099 C 
ATOM     27  N   UNL A   1      28.032  33.417  21.626  1.00  0.00    -0.192 NA
ENDBRANCH  25  26
ENDBRANCH  18  20
ENDBRANCH  13  18
ENDBRANCH   8   9
ENDBRANCH   7   8
ENDBRANCH   4   7
ENDBRANCH   2   3
ENDBRANCH   1   2
BRANCH   1  28
ATOM     28  C   UNL A   1      31.569  27.803  25.917  1.00  0.00     0.002 C 
BRANCH  28  29
ATOM     29  C   UNL A   1      31.784  29.293  25.636  1.00  0.00     0.002 C 
BRANCH  29  30
ATOM     30  C   UNL A   1      31.779  30.185  26.878  1.00  0.00     0.021 C 
BRANCH  30  31
ATOM     31  C   UNL A   1      33.060  30.982  27.077  1.00  0.00     0.116 C 
BRANCH  31  32
ATOM     32  N   UNL A   1      32.806  32.414  27.134  1.00  0.00    -0.352 N 
ATOM     33  C   UNL A   1      33.364  33.352  27.969  1.00  0.00     0.251 C 
ATOM     34  H   UNL A   1      32.146  32.756  26.489  1.00  0.00     0.163 HD
ATOM     35  O   UNL A   1      32.890  34.482  28.036  1.00  0.00    -0.269 OA
BRANCH  33  36
ATOM     36  C   UNL A   1      34.527  32.975  28.798  1.00  0.00     0.039 A 
ATOM     37  C   UNL A   1      34.317  32.376  30.041  1.00  0.00     0.014 A 
ATOM     38  C   UNL A   1      35.826  33.192  28.329  1.00  0.00     0.014 A 
ATOM     39  C   UNL A   1      35.412  31.940  30.789  1.00  0.00     0.010 A 
ATOM     40  C   UNL A   1      36.907  32.674  29.030  1.00  0.00     0.010 A 
ATOM     41  C   UNL A   1      36.715  32.054  30.274  1.00  0.00    -0.014 A 
BRANCH  41  42
ATOM     42  C   UNL A   1      37.896  31.553  31.023  1.00  0.00     0.031 A 
ATOM     43  C   UNL A   1      38.735  30.447  30.439  1.00  0.00     0.074 A 
ATOM     44  C   UNL A   1      38.170  32.034  32.253  1.00  0.00     0.049 A 
ATOM     45  N   UNL A   1      39.741  29.805  30.974  1.00  0.00    -0.248 NA
ATOM     46  C   UNL A   1      38.383  29.982  29.086  1.00  0.00     0.031 C 
ATOM     47  C   UNL A   1      37.404  33.070  32.950  1.00  0.00     0.029 A 
ATOM     48  N   UNL A   1      39.154  31.694  33.148  1.00  0.00    -0.354 N 
ATOM     49  C   UNL A   1      40.121  28.848  30.040  1.00  0.00     0.074 A 
ATOM     50  C   UNL A   1      39.210  28.961  28.923  1.00  0.00     0.031 C 
ATOM     51  C   UNL A   1      37.950  33.285  34.158  1.00  0.00     0.029 A 
ATOM     52  C   UNL A   1      39.072  32.370  34.344  1.00  0.00     0.049 A 
ATOM     53  H   UNL A   1      39.853  31.028  32.954  1.00  0.00     0.167 HD
ATOM     54  C   UNL A   1      41.153  27.975  30.091  1.00  0.00     0.034 A 
ATOM     55  C   UNL A   1      39.803  32.251  35.470  1.00  0.00     0.034 A 
ATOM     56  C   UNL A   1      42.071  27.880  31.192  1.00  0.00     0.049 A 
ATOM     57  C   UNL A   1      40.929  31.251  35.507  1.00  0.00     0.074 A 
ATOM     58  C   UNL A   1      43.180  27.061  31.317  1.00  0.00     0.029 A 
ATOM     59  N   UNL A   1      41.985  28.618  32.361  1.00  0.00    -0.354 N 
ATOM     60  N   UNL A   1      41.341  30.435  34.568  1.00  0.00    -0.248 NA
ATOM     61  C   UNL A   1      41.715  31.179  36.747  1.00  0.00     0.031 C 
ATOM     62  C   UNL A   1      43.738  27.274  32.579  1.00  0.00     0.029 A 
ATOM     63  C   UNL A   1      43.015  28.270  33.215  1.00  0.00     0.049 A 
ATOM     64  H   UNL A   1      41.292  29.291  32.555  1.00  0.00     0.167 HD
ATOM     65  C   UNL A   1      42.465  29.798  35.083  1.00  0.00     0.074 A 
ATOM     66  C   UNL A   1      42.676  30.330  36.411  1.00  0.00     0.031 C 
ATOM     67  C   UNL A   1      43.250  28.855  34.509  1.00  0.00     0.034 A 
BRANCH  54  68
ATOM     68  C   UNL A   1      41.376  27.075  28.903  1.00  0.00     0.023 A 
ATOM     69  C   UNL A   1      40.656  25.869  28.796  1.00  0.00     0.012 A 
ATOM     70  C   UNL A   1      42.238  27.461  27.858  1.00  0.00     0.148 A 
ATOM     71  C   UNL A   1      40.811  25.044  27.682  1.00  0.00     0.002 A 
ATOM     72  C   UNL A   1      42.349  26.660  26.728  1.00  0.00     0.091 A 
ATOM     73  F   UNL A   1      42.925  28.605  27.986  1.00  0.00    -0.205 F 
ATOM     74  C   UNL A   1      41.647  25.447  26.644  1.00  0.00     0.022 A 
BRANCH  72  75
ATOM     75  S   UNL A   1      43.336  27.125  25.301  1.00  0.00     0.127 S 
ATOM     76  O   UNL A   1      43.474  25.844  24.609  1.00  0.00    -0.237 OA
ATOM     77  O   UNL A   1      42.464  28.090  24.631  1.00  0.00    -0.237 OA
ATOM     78  O   UNL A   1      44.574  27.681  25.828  1.00  0.00    -0.744 OA
ENDBRANCH  72  75
ENDBRANCH  54  68
BRANCH  55  79
ATOM     79  C   UNL A   1      39.521  33.108  36.659  1.00  0.00     0.023 A 
ATOM     80  C   UNL A   1      40.117  34.381  36.757  1.00  0.00     0.012 A 
ATOM     81  C   UNL A   1      38.700  32.655  37.710  1.00  0.00     0.148 A 
ATOM     82  C   UNL A   1      39.953  35.160  37.903  1.00  0.00     0.002 A 
ATOM     83  C   UNL A   1      38.490  33.461  38.822  1.00  0.00     0.091 A 
ATOM     84  F   UNL A   1      38.144  31.440  37.603  1.00  0.00    -0.205 F 
ATOM     85  C   UNL A   1      39.136  34.702  38.933  1.00  0.00     0.022 A 
BRANCH  83  86
ATOM     86  S   UNL A   1      37.360  33.006  40.140  1.00  0.00     0.127 S 
ATOM     87  O   UNL A   1      36.111  32.805  39.409  1.00  0.00    -0.237 OA
ATOM     88  O   UNL A   1      37.975  31.783  40.657  1.00  0.00    -0.237 OA
ATOM     89  O   UNL A   1      37.371  34.125  41.074  1.00  0.00    -0.744 OA
ENDBRANCH  83  86
ENDBRANCH  55  79
BRANCH  67  90
ATOM     90  C   UNL A   1      44.468  28.394  35.265  1.00  0.00     0.023 A 
ATOM     91  C   UNL A   1      45.708  29.038  35.090  1.00  0.00     0.012 A 
ATOM     92  C   UNL A   1      44.353  27.360  36.218  1.00  0.00     0.148 A 
ATOM     93  C   UNL A   1      46.822  28.638  35.828  1.00  0.00     0.002 A 
ATOM     94  C   UNL A   1      45.451  27.007  36.989  1.00  0.00     0.091 A 
ATOM     95  F   UNL A   1      43.167  26.749  36.356  1.00  0.00    -0.205 F 
ATOM     96  C   UNL A   1      46.691  27.634  36.785  1.00  0.00     0.022 A 
BRANCH  94  97
ATOM     97  S   UNL A   1      45.351  25.799  38.314  1.00  0.00     0.127 S 
ATOM     98  O   UNL A   1      46.549  26.112  39.092  1.00  0.00    -0.237 OA
ATOM     99  O   UNL A   1      44.090  26.160  38.962  1.00  0.00    -0.237 OA
ATOM    100  O   UNL A   1      45.352  24.492  37.673  1.00  0.00    -0.744 OA
ENDBRANCH  94  97
ENDBRANCH  67  90
ENDBRANCH  41  42
ENDBRANCH  33  36
ENDBRANCH  31  32
ENDBRANCH  30  31
ENDBRANCH  29  30
ENDBRANCH  28  29
ENDBRANCH   1  28
TORSDOF 23
ENDMDL
