MODEL 1
REMARK VINA RESULT:     -10.1      0.000      0.000
REMARK SMILES NS(=O)(=O)c1ccc(N2N=C(C(=O)NCCCCCCNC(=O)c3ccc(-c4c5nc(c(-c6cccc(S(=O)(=O)[O-])c6F)c6ccc([nH]6)c(-c6cccc(S(=O)(=O)[O-])c6F)c6nc(c(-c7cccc(S(=O)(=O)[O-])c7F)c7ccc4[nH]7)C=C6)C=C5)cc3)C[C@H]2c2cccs2)cc1
REMARK SMILES IDX 17 1 16 2 15 3 14 4 12 5 13 6 11 8 9 9 10 10 88 11 87 12
REMARK SMILES IDX 8 13 5 14 6 15 95 16 7 17 94 18 2 19 3 20 4 21 1 22 89 25
REMARK SMILES IDX 90 26 93 27 91 28 92 29 18 30 19 31 20 32 21 33 22 34 23 36
REMARK SMILES IDX 24 37 25 38 86 39 26 40 85 41 27 42 28 43 29 44 79 45 30 46
REMARK SMILES IDX 84 47 78 48 80 49 31 50 83 51 77 52 76 53 32 55 64 56 44 57
REMARK SMILES IDX 63 58 45 59 48 60 62 61 81 62 46 63 47 64 61 66 82 67 49 68
REMARK SMILES IDX 33 69 34 70 42 71 35 72 37 73 43 74 36 75 38 76 39 77 40 78
REMARK SMILES IDX 41 79 65 80 66 81 74 82 67 83 69 84 75 85 68 86 70 87 71 88
REMARK SMILES IDX 72 89 73 90 50 91 51 92 59 93 52 94 54 95 60 96 53 97 55 98
REMARK SMILES IDX 56 99 57 100 58 101
REMARK H PARENT 14 7 1 23 1 24 21 35 80 54 48 65
REMARK Flexibility Score: inf
ROOT
ATOM      1  C   UNL A   1      39.196  26.923  28.809  1.00  0.00     0.002 C 
ENDROOT
BRANCH   1   2
ATOM      2  C   UNL A   1      40.006  25.926  27.981  1.00  0.00     0.021 C 
BRANCH   2   3
ATOM      3  C   UNL A   1      39.247  25.324  26.804  1.00  0.00     0.116 C 
BRANCH   3   4
ATOM      4  N   UNL A   1      39.536  23.910  26.660  1.00  0.00    -0.351 N 
ATOM      5  C   UNL A   1      38.828  22.833  26.190  1.00  0.00     0.267 C 
ATOM      6  O   UNL A   1      39.343  21.722  26.301  1.00  0.00    -0.268 OA
ATOM      7  H   UNL A   1      40.441  23.671  26.966  1.00  0.00     0.163 HD
BRANCH   5   8
ATOM      8  C   UNL A   1      37.474  22.942  25.502  1.00  0.00     0.128 C 
ATOM      9  N   UNL A   1      35.486  23.644  25.136  1.00  0.00    -0.256 N 
ATOM     10  N   UNL A   1      36.654  23.908  25.790  1.00  0.00    -0.171 NA
ATOM     11  C   UNL A   1      35.564  22.478  24.243  1.00  0.00     0.154 C 
ATOM     12  C   UNL A   1      36.994  21.986  24.468  1.00  0.00     0.097 C 
BRANCH   9  13
ATOM     13  C   UNL A   1      34.610  24.690  24.838  1.00  0.00     0.060 A 
ATOM     14  C   UNL A   1      32.763  26.736  24.300  1.00  0.00     0.082 A 
ATOM     15  C   UNL A   1      33.327  26.016  23.243  1.00  0.00     0.024 A 
ATOM     16  C   UNL A   1      33.126  26.462  25.616  1.00  0.00     0.024 A 
ATOM     17  C   UNL A   1      34.256  25.006  23.518  1.00  0.00     0.029 A 
ATOM     18  C   UNL A   1      34.049  25.448  25.874  1.00  0.00     0.029 A 
BRANCH  14  19
ATOM     19  S   UNL A   1      31.592  28.015  23.971  1.00  0.00     0.238 S 
ATOM     20  O   UNL A   1      30.282  27.427  23.773  1.00  0.00    -0.207 OA
ATOM     21  O   UNL A   1      32.169  28.952  23.044  1.00  0.00    -0.207 OA
BRANCH  19  22
ATOM     22  N   UNL A   1      31.484  28.812  25.446  1.00  0.00    -0.225 NA
ATOM     23  H   UNL A   1      32.348  28.675  25.970  1.00  0.00     0.137 HD
ATOM     24  H   UNL A   1      30.699  28.435  25.978  1.00  0.00     0.137 HD
ENDBRANCH  19  22
ENDBRANCH  14  19
ENDBRANCH   9  13
BRANCH  11  25
ATOM     25  C   UNL A   1      34.496  21.404  24.393  1.00  0.00     0.030 A 
ATOM     26  C   UNL A   1      34.654  20.154  24.972  1.00  0.00     0.017 A 
ATOM     27  S   UNL A   1      32.875  21.603  23.849  1.00  0.00    -0.147 S 
ATOM     28  C   UNL A   1      33.449  19.397  25.006  1.00  0.00     0.012 A 
ATOM     29  C   UNL A   1      32.388  20.100  24.486  1.00  0.00     0.065 A 
ENDBRANCH  11  25
ENDBRANCH   5   8
ENDBRANCH   3   4
ENDBRANCH   2   3
ENDBRANCH   1   2
BRANCH   1  30
ATOM     30  C   UNL A   1      39.026  28.307  28.173  1.00  0.00     0.002 C 
BRANCH  30  31
ATOM     31  C   UNL A   1      37.666  28.973  28.402  1.00  0.00     0.021 C 
BRANCH  31  32
ATOM     32  C   UNL A   1      37.727  30.339  29.078  1.00  0.00     0.116 C 
BRANCH  32  33
ATOM     33  N   UNL A   1      36.967  30.368  30.316  1.00  0.00    -0.352 N 
ATOM     34  C   UNL A   1      37.289  29.856  31.547  1.00  0.00     0.251 C 
ATOM     35  H   UNL A   1      36.094  30.820  30.263  1.00  0.00     0.163 HD
ATOM     36  O   UNL A   1      36.429  29.793  32.423  1.00  0.00    -0.269 OA
BRANCH  34  37
ATOM     37  C   UNL A   1      38.659  29.371  31.815  1.00  0.00     0.039 A 
ATOM     38  C   UNL A   1      38.850  28.015  32.091  1.00  0.00     0.014 A 
ATOM     39  C   UNL A   1      39.749  30.246  31.816  1.00  0.00     0.014 A 
ATOM     40  C   UNL A   1      40.138  27.530  32.324  1.00  0.00     0.010 A 
ATOM     41  C   UNL A   1      41.041  29.748  31.972  1.00  0.00     0.010 A 
ATOM     42  C   UNL A   1      41.248  28.387  32.240  1.00  0.00    -0.014 A 
BRANCH  42  43
ATOM     43  C   UNL A   1      42.628  27.865  32.419  1.00  0.00     0.031 A 
ATOM     44  C   UNL A   1      43.457  27.467  31.227  1.00  0.00     0.074 A 
ATOM     45  C   UNL A   1      43.110  27.685  33.665  1.00  0.00     0.049 A 
ATOM     46  N   UNL A   1      44.669  26.978  31.195  1.00  0.00    -0.248 NA
ATOM     47  C   UNL A   1      42.838  27.612  29.899  1.00  0.00     0.031 C 
ATOM     48  C   UNL A   1      42.374  27.951  34.904  1.00  0.00     0.029 A 
ATOM     49  N   UNL A   1      44.325  27.214  34.098  1.00  0.00    -0.354 N 
ATOM     50  C   UNL A   1      44.945  26.724  29.857  1.00  0.00     0.074 A 
ATOM     51  C   UNL A   1      43.761  27.085  29.108  1.00  0.00     0.031 C 
ATOM     52  C   UNL A   1      43.153  27.644  35.953  1.00  0.00     0.029 A 
ATOM     53  C   UNL A   1      44.429  27.130  35.467  1.00  0.00     0.049 A 
ATOM     54  H   UNL A   1      45.053  26.960  33.485  1.00  0.00     0.167 HD
ATOM     55  C   UNL A   1      46.086  26.256  29.299  1.00  0.00     0.034 A 
ATOM     56  C   UNL A   1      45.432  26.680  36.245  1.00  0.00     0.034 A 
ATOM     57  C   UNL A   1      47.275  25.936  30.043  1.00  0.00     0.049 A 
ATOM     58  C   UNL A   1      46.706  26.210  35.596  1.00  0.00     0.074 A 
ATOM     59  C   UNL A   1      48.513  25.551  29.559  1.00  0.00     0.029 A 
ATOM     60  N   UNL A   1      47.371  25.944  31.425  1.00  0.00    -0.354 N 
ATOM     61  N   UNL A   1      47.006  26.142  34.322  1.00  0.00    -0.248 NA
ATOM     62  C   UNL A   1      47.794  25.794  36.492  1.00  0.00     0.031 C 
ATOM     63  C   UNL A   1      49.347  25.290  30.651  1.00  0.00     0.029 A 
ATOM     64  C   UNL A   1      48.642  25.554  31.813  1.00  0.00     0.049 A 
ATOM     65  H   UNL A   1      46.644  26.191  32.041  1.00  0.00     0.167 HD
ATOM     66  C   UNL A   1      48.326  25.710  34.265  1.00  0.00     0.074 A 
ATOM     67  C   UNL A   1      48.775  25.557  35.633  1.00  0.00     0.031 C 
ATOM     68  C   UNL A   1      49.092  25.450  33.177  1.00  0.00     0.034 A 
BRANCH  55  69
ATOM     69  C   UNL A   1      46.127  26.096  27.801  1.00  0.00     0.023 A 
ATOM     70  C   UNL A   1      46.625  27.142  26.998  1.00  0.00     0.012 A 
ATOM     71  C   UNL A   1      45.747  24.881  27.197  1.00  0.00     0.148 A 
ATOM     72  C   UNL A   1      46.716  26.993  25.613  1.00  0.00     0.002 A 
ATOM     73  C   UNL A   1      45.885  24.724  25.823  1.00  0.00     0.091 A 
ATOM     74  F   UNL A   1      45.257  23.906  27.974  1.00  0.00    -0.205 F 
ATOM     75  C   UNL A   1      46.358  25.782  25.029  1.00  0.00     0.022 A 
BRANCH  73  76
ATOM     76  S   UNL A   1      45.529  23.176  24.983  1.00  0.00     0.127 S 
ATOM     77  O   UNL A   1      46.278  22.220  25.798  1.00  0.00    -0.237 OA
ATOM     78  O   UNL A   1      44.074  23.084  25.116  1.00  0.00    -0.237 OA
ATOM     79  O   UNL A   1      46.007  23.338  23.618  1.00  0.00    -0.744 OA
ENDBRANCH  73  76
ENDBRANCH  55  69
BRANCH  56  80
ATOM     80  C   UNL A   1      45.289  26.691  37.728  1.00  0.00     0.023 A 
ATOM     81  C   UNL A   1      44.964  25.500  38.408  1.00  0.00     0.012 A 
ATOM     82  C   UNL A   1      45.489  27.871  38.469  1.00  0.00     0.148 A 
ATOM     83  C   UNL A   1      44.801  25.495  39.793  1.00  0.00     0.002 A 
ATOM     84  C   UNL A   1      45.385  27.846  39.854  1.00  0.00     0.091 A 
ATOM     85  F   UNL A   1      45.789  28.995  37.803  1.00  0.00    -0.205 F 
ATOM     86  C   UNL A   1      45.020  26.665  40.517  1.00  0.00     0.022 A 
BRANCH  84  87
ATOM     87  S   UNL A   1      45.785  29.269  40.873  1.00  0.00     0.127 S 
ATOM     88  O   UNL A   1      44.673  30.170  40.580  1.00  0.00    -0.237 OA
ATOM     89  O   UNL A   1      45.773  28.692  42.217  1.00  0.00    -0.237 OA
ATOM     90  O   UNL A   1      47.098  29.717  40.427  1.00  0.00    -0.744 OA
ENDBRANCH  84  87
ENDBRANCH  56  80
BRANCH  68  91
ATOM     91  C   UNL A   1      50.516  25.011  33.414  1.00  0.00     0.023 A 
ATOM     92  C   UNL A   1      51.524  25.972  33.629  1.00  0.00     0.012 A 
ATOM     93  C   UNL A   1      50.839  23.643  33.484  1.00  0.00     0.148 A 
ATOM     94  C   UNL A   1      52.840  25.576  33.869  1.00  0.00     0.002 A 
ATOM     95  C   UNL A   1      52.141  23.256  33.778  1.00  0.00     0.091 A 
ATOM     96  F   UNL A   1      49.869  22.743  33.260  1.00  0.00    -0.205 F 
ATOM     97  C   UNL A   1      53.145  24.221  33.956  1.00  0.00     0.022 A 
BRANCH  95  98
ATOM     98  S   UNL A   1      52.605  21.535  34.009  1.00  0.00     0.127 S 
ATOM     99  O   UNL A   1      52.314  20.971  32.692  1.00  0.00    -0.237 OA
ATOM    100  O   UNL A   1      54.029  21.639  34.326  1.00  0.00    -0.237 OA
ATOM    101  O   UNL A   1      51.777  21.039  35.099  1.00  0.00    -0.744 OA
ENDBRANCH  95  98
ENDBRANCH  68  91
ENDBRANCH  42  43
ENDBRANCH  34  37
ENDBRANCH  32  33
ENDBRANCH  31  32
ENDBRANCH  30  31
ENDBRANCH   1  30
TORSDOF 20
ENDMDL
MODEL 2
REMARK VINA RESULT:      -9.9      5.592      8.994
REMARK SMILES NS(=O)(=O)c1ccc(N2N=C(C(=O)NCCCCCCNC(=O)c3ccc(-c4c5nc(c(-c6cccc(S(=O)(=O)[O-])c6F)c6ccc([nH]6)c(-c6cccc(S(=O)(=O)[O-])c6F)c6nc(c(-c7cccc(S(=O)(=O)[O-])c7F)c7ccc4[nH]7)C=C6)C=C5)cc3)C[C@H]2c2cccs2)cc1
REMARK SMILES IDX 17 1 16 2 15 3 14 4 12 5 13 6 11 8 9 9 10 10 88 11 87 12
REMARK SMILES IDX 8 13 5 14 6 15 95 16 7 17 94 18 2 19 3 20 4 21 1 22 89 25
REMARK SMILES IDX 90 26 93 27 91 28 92 29 18 30 19 31 20 32 21 33 22 34 23 36
REMARK SMILES IDX 24 37 25 38 86 39 26 40 85 41 27 42 28 43 29 44 79 45 30 46
REMARK SMILES IDX 84 47 78 48 80 49 31 50 83 51 77 52 76 53 32 55 64 56 44 57
REMARK SMILES IDX 63 58 45 59 48 60 62 61 81 62 46 63 47 64 61 66 82 67 49 68
REMARK SMILES IDX 33 69 34 70 42 71 35 72 37 73 43 74 36 75 38 76 39 77 40 78
REMARK SMILES IDX 41 79 65 80 66 81 74 82 67 83 69 84 75 85 68 86 70 87 71 88
REMARK SMILES IDX 72 89 73 90 50 91 51 92 59 93 52 94 54 95 60 96 53 97 55 98
REMARK SMILES IDX 56 99 57 100 58 101
REMARK H PARENT 14 7 1 23 1 24 21 35 80 54 48 65
REMARK Flexibility Score: inf
ROOT
ATOM      1  C   UNL A   1      37.430  22.906  25.248  1.00  0.00     0.002 C 
ENDROOT
BRANCH   1   2
ATOM      2  C   UNL A   1      36.133  23.016  24.448  1.00  0.00     0.021 C 
BRANCH   2   3
ATOM      3  C   UNL A   1      34.883  23.210  25.300  1.00  0.00     0.116 C 
BRANCH   3   4
ATOM      4  N   UNL A   1      33.706  22.687  24.635  1.00  0.00    -0.351 N 
ATOM      5  C   UNL A   1      32.449  23.178  24.392  1.00  0.00     0.267 C 
ATOM      6  O   UNL A   1      31.632  22.418  23.874  1.00  0.00    -0.268 OA
ATOM      7  H   UNL A   1      33.839  21.779  24.279  1.00  0.00     0.163 HD
BRANCH   5   8
ATOM      8  C   UNL A   1      32.026  24.612  24.682  1.00  0.00     0.128 C 
ATOM      9  N   UNL A   1      31.516  26.650  24.275  1.00  0.00    -0.256 N 
ATOM     10  N   UNL A   1      31.686  25.416  23.720  1.00  0.00    -0.171 NA
ATOM     11  C   UNL A   1      31.630  26.653  25.742  1.00  0.00     0.154 C 
ATOM     12  C   UNL A   1      31.959  25.192  26.050  1.00  0.00     0.097 C 
BRANCH   9  13
ATOM     13  C   UNL A   1      30.699  27.587  23.640  1.00  0.00     0.060 A 
ATOM     14  C   UNL A   1      29.097  29.555  22.437  1.00  0.00     0.082 A 
ATOM     15  C   UNL A   1      28.496  28.451  23.049  1.00  0.00     0.024 A 
ATOM     16  C   UNL A   1      30.484  29.675  22.399  1.00  0.00     0.024 A 
ATOM     17  C   UNL A   1      29.301  27.468  23.636  1.00  0.00     0.029 A 
ATOM     18  C   UNL A   1      31.272  28.690  22.993  1.00  0.00     0.029 A 
BRANCH  14  19
ATOM     19  S   UNL A   1      28.097  30.802  21.689  1.00  0.00     0.238 S 
ATOM     20  O   UNL A   1      27.070  31.218  22.623  1.00  0.00    -0.207 OA
ATOM     21  O   UNL A   1      27.802  30.417  20.334  1.00  0.00    -0.207 OA
BRANCH  19  22
ATOM     22  N   UNL A   1      29.143  32.113  21.592  1.00  0.00    -0.225 NA
ATOM     23  H   UNL A   1      28.623  32.942  21.305  1.00  0.00     0.137 HD
ATOM     24  H   UNL A   1      29.874  31.915  20.908  1.00  0.00     0.137 HD
ENDBRANCH  19  22
ENDBRANCH  14  19
ENDBRANCH   9  13
BRANCH  11  25
ATOM     25  C   UNL A   1      32.581  27.661  26.372  1.00  0.00     0.030 A 
ATOM     26  C   UNL A   1      32.236  28.729  27.186  1.00  0.00     0.017 A 
ATOM     27  S   UNL A   1      34.288  27.608  26.156  1.00  0.00    -0.147 S 
ATOM     28  C   UNL A   1      33.364  29.459  27.659  1.00  0.00     0.012 A 
ATOM     29  C   UNL A   1      34.547  28.910  27.225  1.00  0.00     0.065 A 
ENDBRANCH  11  25
ENDBRANCH   5   8
ENDBRANCH   3   4
ENDBRANCH   2   3
ENDBRANCH   1   2
BRANCH   1  30
ATOM     30  C   UNL A   1      38.003  21.490  25.363  1.00  0.00     0.002 C 
BRANCH  30  31
ATOM     31  C   UNL A   1      39.488  21.411  25.732  1.00  0.00     0.021 C 
BRANCH  31  32
ATOM     32  C   UNL A   1      39.873  20.206  26.585  1.00  0.00     0.116 C 
BRANCH  32  33
ATOM     33  N   UNL A   1      41.089  19.569  26.107  1.00  0.00    -0.352 N 
ATOM     34  C   UNL A   1      42.316  20.123  25.845  1.00  0.00     0.251 C 
ATOM     35  H   UNL A   1      41.023  18.600  25.950  1.00  0.00     0.163 HD
ATOM     36  O   UNL A   1      43.166  19.465  25.249  1.00  0.00    -0.269 OA
BRANCH  34  37
ATOM     37  C   UNL A   1      42.611  21.509  26.266  1.00  0.00     0.039 A 
ATOM     38  C   UNL A   1      42.715  21.788  27.631  1.00  0.00     0.014 A 
ATOM     39  C   UNL A   1      42.764  22.534  25.328  1.00  0.00     0.014 A 
ATOM     40  C   UNL A   1      43.015  23.085  28.052  1.00  0.00     0.010 A 
ATOM     41  C   UNL A   1      43.140  23.809  25.746  1.00  0.00     0.010 A 
ATOM     42  C   UNL A   1      43.257  24.101  27.112  1.00  0.00    -0.014 A 
BRANCH  42  43
ATOM     43  C   UNL A   1      43.645  25.467  27.551  1.00  0.00     0.031 A 
ATOM     44  C   UNL A   1      45.095  25.857  27.649  1.00  0.00     0.074 A 
ATOM     45  C   UNL A   1      42.686  26.338  27.929  1.00  0.00     0.049 A 
ATOM     46  N   UNL A   1      45.617  26.995  28.028  1.00  0.00    -0.248 NA
ATOM     47  C   UNL A   1      46.093  24.831  27.300  1.00  0.00     0.031 C 
ATOM     48  C   UNL A   1      41.250  26.052  27.962  1.00  0.00     0.029 A 
ATOM     49  N   UNL A   1      42.776  27.631  28.378  1.00  0.00    -0.354 N 
ATOM     50  C   UNL A   1      46.994  26.814  27.999  1.00  0.00     0.074 A 
ATOM     51  C   UNL A   1      47.229  25.445  27.593  1.00  0.00     0.031 C 
ATOM     52  C   UNL A   1      40.595  27.137  28.403  1.00  0.00     0.029 A 
ATOM     53  C   UNL A   1      41.562  28.184  28.715  1.00  0.00     0.049 A 
ATOM     54  H   UNL A   1      43.629  28.118  28.454  1.00  0.00     0.167 HD
ATOM     55  C   UNL A   1      47.975  27.710  28.262  1.00  0.00     0.034 A 
ATOM     56  C   UNL A   1      41.260  29.393  29.227  1.00  0.00     0.034 A 
ATOM     57  C   UNL A   1      47.737  29.080  28.626  1.00  0.00     0.049 A 
ATOM     58  C   UNL A   1      42.367  30.384  29.464  1.00  0.00     0.074 A 
ATOM     59  C   UNL A   1      48.663  30.092  28.815  1.00  0.00     0.029 A 
ATOM     60  N   UNL A   1      46.490  29.630  28.875  1.00  0.00    -0.354 N 
ATOM     61  N   UNL A   1      43.656  30.245  29.263  1.00  0.00    -0.248 NA
ATOM     62  C   UNL A   1      41.977  31.711  29.959  1.00  0.00     0.031 C 
ATOM     63  C   UNL A   1      47.978  31.243  29.215  1.00  0.00     0.029 A 
ATOM     64  C   UNL A   1      46.623  30.961  29.233  1.00  0.00     0.049 A 
ATOM     65  H   UNL A   1      45.636  29.146  28.807  1.00  0.00     0.167 HD
ATOM     66  C   UNL A   1      44.224  31.474  29.574  1.00  0.00     0.074 A 
ATOM     67  C   UNL A   1      43.136  32.354  29.951  1.00  0.00     0.031 C 
ATOM     68  C   UNL A   1      45.530  31.839  29.561  1.00  0.00     0.034 A 
BRANCH  55  69
ATOM     69  C   UNL A   1      49.405  27.252  28.129  1.00  0.00     0.023 A 
ATOM     70  C   UNL A   1      49.997  26.494  29.160  1.00  0.00     0.012 A 
ATOM     71  C   UNL A   1      50.134  27.504  26.950  1.00  0.00     0.148 A 
ATOM     72  C   UNL A   1      51.303  26.020  29.033  1.00  0.00     0.002 A 
ATOM     73  C   UNL A   1      51.417  26.987  26.811  1.00  0.00     0.091 A 
ATOM     74  F   UNL A   1      49.562  28.243  25.990  1.00  0.00    -0.205 F 
ATOM     75  C   UNL A   1      52.007  26.256  27.856  1.00  0.00     0.022 A 
BRANCH  73  76
ATOM     76  S   UNL A   1      52.377  27.165  25.304  1.00  0.00     0.127 S 
ATOM     77  O   UNL A   1      53.707  26.757  25.751  1.00  0.00    -0.237 OA
ATOM     78  O   UNL A   1      51.716  26.215  24.407  1.00  0.00    -0.237 OA
ATOM     79  O   UNL A   1      52.255  28.560  24.909  1.00  0.00    -0.744 OA
ENDBRANCH  73  76
ENDBRANCH  55  69
BRANCH  56  80
ATOM     80  C   UNL A   1      39.842  29.750  29.511  1.00  0.00     0.023 A 
ATOM     81  C   UNL A   1      38.977  30.077  28.448  1.00  0.00     0.012 A 
ATOM     82  C   UNL A   1      39.342  29.752  30.827  1.00  0.00     0.148 A 
ATOM     83  C   UNL A   1      37.653  30.440  28.695  1.00  0.00     0.002 A 
ATOM     84  C   UNL A   1      38.006  30.054  31.061  1.00  0.00     0.091 A 
ATOM     85  F   UNL A   1      40.184  29.447  31.825  1.00  0.00    -0.205 F 
ATOM     86  C   UNL A   1      37.165  30.420  30.000  1.00  0.00     0.022 A 
BRANCH  84  87
ATOM     87  S   UNL A   1      37.263  29.919  32.690  1.00  0.00     0.127 S 
ATOM     88  O   UNL A   1      35.914  30.422  32.447  1.00  0.00    -0.237 OA
ATOM     89  O   UNL A   1      37.349  28.480  32.942  1.00  0.00    -0.237 OA
ATOM     90  O   UNL A   1      38.094  30.731  33.570  1.00  0.00    -0.744 OA
ENDBRANCH  84  87
ENDBRANCH  56  80
BRANCH  68  91
ATOM     91  C   UNL A   1      45.860  33.265  29.926  1.00  0.00     0.023 A 
ATOM     92  C   UNL A   1      46.205  33.592  31.252  1.00  0.00     0.012 A 
ATOM     93  C   UNL A   1      45.889  34.267  28.937  1.00  0.00     0.148 A 
ATOM     94  C   UNL A   1      46.532  34.904  31.596  1.00  0.00     0.002 A 
ATOM     95  C   UNL A   1      46.269  35.560  29.276  1.00  0.00     0.091 A 
ATOM     96  F   UNL A   1      45.542  33.939  27.683  1.00  0.00    -0.205 F 
ATOM     97  C   UNL A   1      46.576  35.883  30.607  1.00  0.00     0.022 A 
BRANCH  95  98
ATOM     98  S   UNL A   1      46.451  36.862  28.051  1.00  0.00     0.127 S 
ATOM     99  O   UNL A   1      45.069  37.052  27.613  1.00  0.00    -0.237 OA
ATOM    100  O   UNL A   1      46.995  37.961  28.848  1.00  0.00    -0.237 OA
ATOM    101  O   UNL A   1      47.360  36.339  27.041  1.00  0.00    -0.744 OA
ENDBRANCH  95  98
ENDBRANCH  68  91
ENDBRANCH  42  43
ENDBRANCH  34  37
ENDBRANCH  32  33
ENDBRANCH  31  32
ENDBRANCH  30  31
ENDBRANCH   1  30
TORSDOF 20
ENDMDL
MODEL 3
REMARK VINA RESULT:      -9.9      5.655      8.961
REMARK SMILES NS(=O)(=O)c1ccc(N2N=C(C(=O)NCCCCCCNC(=O)c3ccc(-c4c5nc(c(-c6cccc(S(=O)(=O)[O-])c6F)c6ccc([nH]6)c(-c6cccc(S(=O)(=O)[O-])c6F)c6nc(c(-c7cccc(S(=O)(=O)[O-])c7F)c7ccc4[nH]7)C=C6)C=C5)cc3)C[C@H]2c2cccs2)cc1
REMARK SMILES IDX 17 1 16 2 15 3 14 4 12 5 13 6 11 8 9 9 10 10 88 11 87 12
REMARK SMILES IDX 8 13 5 14 6 15 95 16 7 17 94 18 2 19 3 20 4 21 1 22 89 25
REMARK SMILES IDX 90 26 93 27 91 28 92 29 18 30 19 31 20 32 21 33 22 34 23 36
REMARK SMILES IDX 24 37 25 38 86 39 26 40 85 41 27 42 28 43 29 44 79 45 30 46
REMARK SMILES IDX 84 47 78 48 80 49 31 50 83 51 77 52 76 53 32 55 64 56 44 57
REMARK SMILES IDX 63 58 45 59 48 60 62 61 81 62 46 63 47 64 61 66 82 67 49 68
REMARK SMILES IDX 33 69 34 70 42 71 35 72 37 73 43 74 36 75 38 76 39 77 40 78
REMARK SMILES IDX 41 79 65 80 66 81 74 82 67 83 69 84 75 85 68 86 70 87 71 88
REMARK SMILES IDX 72 89 73 90 50 91 51 92 59 93 52 94 54 95 60 96 53 97 55 98
REMARK SMILES IDX 56 99 57 100 58 101
REMARK H PARENT 14 7 1 23 1 24 21 35 80 54 48 65
REMARK Flexibility Score: inf
ROOT
ATOM      1  C   UNL A   1      37.579  23.035  25.568  1.00  0.00     0.002 C 
ENDROOT
BRANCH   1   2
ATOM      2  C   UNL A   1      36.091  23.170  25.246  1.00  0.00     0.021 C 
BRANCH   2   3
ATOM      3  C   UNL A   1      35.229  23.598  26.428  1.00  0.00     0.116 C 
BRANCH   3   4
ATOM      4  N   UNL A   1      33.860  23.146  26.271  1.00  0.00    -0.351 N 
ATOM      5  C   UNL A   1      32.674  23.773  25.986  1.00  0.00     0.267 C 
ATOM      6  O   UNL A   1      31.649  23.095  26.025  1.00  0.00    -0.268 OA
ATOM      7  H   UNL A   1      33.761  22.175  26.397  1.00  0.00     0.163 HD
BRANCH   5   8
ATOM      8  C   UNL A   1      32.563  25.237  25.582  1.00  0.00     0.128 C 
ATOM      9  N   UNL A   1      32.324  27.349  25.825  1.00  0.00    -0.256 N 
ATOM     10  N   UNL A   1      32.602  26.181  26.473  1.00  0.00    -0.171 NA
ATOM     11  C   UNL A   1      32.210  27.198  24.366  1.00  0.00     0.154 C 
ATOM     12  C   UNL A   1      32.415  25.695  24.174  1.00  0.00     0.097 C 
BRANCH   9  13
ATOM     13  C   UNL A   1      32.761  28.560  26.366  1.00  0.00     0.060 A 
ATOM     14  C   UNL A   1      33.648  30.942  27.559  1.00  0.00     0.082 A 
ATOM     15  C   UNL A   1      32.380  30.891  26.974  1.00  0.00     0.024 A 
ATOM     16  C   UNL A   1      34.484  29.828  27.536  1.00  0.00     0.024 A 
ATOM     17  C   UNL A   1      31.949  29.704  26.370  1.00  0.00     0.029 A 
ATOM     18  C   UNL A   1      34.037  28.651  26.935  1.00  0.00     0.029 A 
BRANCH  14  19
ATOM     19  S   UNL A   1      34.209  32.431  28.322  1.00  0.00     0.238 S 
ATOM     20  O   UNL A   1      34.596  32.153  29.691  1.00  0.00    -0.207 OA
ATOM     21  O   UNL A   1      33.315  33.503  27.973  1.00  0.00    -0.207 OA
BRANCH  19  22
ATOM     22  N   UNL A   1      35.655  32.740  27.524  1.00  0.00    -0.225 NA
ATOM     23  H   UNL A   1      35.742  33.742  27.356  1.00  0.00     0.137 HD
ATOM     24  H   UNL A   1      35.663  32.243  26.633  1.00  0.00     0.137 HD
ENDBRANCH  19  22
ENDBRANCH  14  19
ENDBRANCH   9  13
BRANCH  11  25
ATOM     25  C   UNL A   1      30.962  27.756  23.696  1.00  0.00     0.030 A 
ATOM     26  C   UNL A   1      29.656  27.333  23.894  1.00  0.00     0.017 A 
ATOM     27  S   UNL A   1      30.999  29.046  22.558  1.00  0.00    -0.147 S 
ATOM     28  C   UNL A   1      28.704  28.092  23.156  1.00  0.00     0.012 A 
ATOM     29  C   UNL A   1      29.301  29.102  22.438  1.00  0.00     0.065 A 
ENDBRANCH  11  25
ENDBRANCH   5   8
ENDBRANCH   3   4
ENDBRANCH   2   3
ENDBRANCH   1   2
BRANCH   1  30
ATOM     30  C   UNL A   1      38.113  21.598  25.572  1.00  0.00     0.002 C 
BRANCH  30  31
ATOM     31  C   UNL A   1      39.617  21.458  25.826  1.00  0.00     0.021 C 
BRANCH  31  32
ATOM     32  C   UNL A   1      40.015  20.251  26.669  1.00  0.00     0.116 C 
BRANCH  32  33
ATOM     33  N   UNL A   1      41.207  19.598  26.154  1.00  0.00    -0.352 N 
ATOM     34  C   UNL A   1      42.428  20.139  25.839  1.00  0.00     0.251 C 
ATOM     35  H   UNL A   1      41.127  18.628  26.012  1.00  0.00     0.163 HD
ATOM     36  O   UNL A   1      43.249  19.466  25.220  1.00  0.00    -0.269 OA
BRANCH  34  37
ATOM     37  C   UNL A   1      42.750  21.527  26.232  1.00  0.00     0.039 A 
ATOM     38  C   UNL A   1      42.916  21.820  27.587  1.00  0.00     0.014 A 
ATOM     39  C   UNL A   1      42.866  22.540  25.276  1.00  0.00     0.014 A 
ATOM     40  C   UNL A   1      43.243  23.119  27.980  1.00  0.00     0.010 A 
ATOM     41  C   UNL A   1      43.268  23.818  25.663  1.00  0.00     0.010 A 
ATOM     42  C   UNL A   1      43.449  24.124  27.019  1.00  0.00    -0.014 A 
BRANCH  42  43
ATOM     43  C   UNL A   1      43.864  25.492  27.425  1.00  0.00     0.031 A 
ATOM     44  C   UNL A   1      45.314  25.893  27.393  1.00  0.00     0.074 A 
ATOM     45  C   UNL A   1      42.937  26.354  27.890  1.00  0.00     0.049 A 
ATOM     46  N   UNL A   1      45.859  27.034  27.727  1.00  0.00    -0.248 NA
ATOM     47  C   UNL A   1      46.284  24.875  26.953  1.00  0.00     0.031 C 
ATOM     48  C   UNL A   1      41.511  26.056  28.052  1.00  0.00     0.029 A 
ATOM     49  N   UNL A   1      43.057  27.647  28.334  1.00  0.00    -0.354 N 
ATOM     50  C   UNL A   1      47.230  26.863  27.574  1.00  0.00     0.074 A 
ATOM     51  C   UNL A   1      47.438  25.497  27.144  1.00  0.00     0.031 C 
ATOM     52  C   UNL A   1      40.891  27.135  28.553  1.00  0.00     0.029 A 
ATOM     53  C   UNL A   1      41.874  28.189  28.780  1.00  0.00     0.049 A 
ATOM     54  H   UNL A   1      43.910  28.140  28.334  1.00  0.00     0.167 HD
ATOM     55  C   UNL A   1      48.223  27.766  27.750  1.00  0.00     0.034 A 
ATOM     56  C   UNL A   1      41.610  29.394  29.320  1.00  0.00     0.034 A 
ATOM     57  C   UNL A   1      48.009  29.134  28.138  1.00  0.00     0.049 A 
ATOM     58  C   UNL A   1      42.726  30.393  29.459  1.00  0.00     0.074 A 
ATOM     59  C   UNL A   1      48.940  30.152  28.245  1.00  0.00     0.029 A 
ATOM     60  N   UNL A   1      46.785  29.674  28.499  1.00  0.00    -0.354 N 
ATOM     61  N   UNL A   1      43.992  30.265  29.143  1.00  0.00    -0.248 NA
ATOM     62  C   UNL A   1      42.372  31.717  29.991  1.00  0.00     0.031 C 
ATOM     63  C   UNL A   1      48.285  31.298  28.709  1.00  0.00     0.029 A 
ATOM     64  C   UNL A   1      46.939  31.005  28.847  1.00  0.00     0.049 A 
ATOM     65  H   UNL A   1      45.932  29.183  28.508  1.00  0.00     0.167 HD
ATOM     66  C   UNL A   1      44.577  31.499  29.405  1.00  0.00     0.074 A 
ATOM     67  C   UNL A   1      43.521  32.369  29.881  1.00  0.00     0.031 C 
ATOM     68  C   UNL A   1      45.873  31.874  29.276  1.00  0.00     0.034 A 
BRANCH  55  69
ATOM     69  C   UNL A   1      49.639  27.320  27.487  1.00  0.00     0.023 A 
ATOM     70  C   UNL A   1      50.300  26.500  28.423  1.00  0.00     0.012 A 
ATOM     71  C   UNL A   1      50.284  27.647  26.278  1.00  0.00     0.148 A 
ATOM     72  C   UNL A   1      51.592  26.037  28.175  1.00  0.00     0.002 A 
ATOM     73  C   UNL A   1      51.552  27.142  26.016  1.00  0.00     0.091 A 
ATOM     74  F   UNL A   1      49.647  28.444  25.409  1.00  0.00    -0.205 F 
ATOM     75  C   UNL A   1      52.212  26.348  26.968  1.00  0.00     0.022 A 
BRANCH  73  76
ATOM     76  S   UNL A   1      52.403  27.416  24.458  1.00  0.00     0.127 S 
ATOM     77  O   UNL A   1      51.514  26.740  23.514  1.00  0.00    -0.237 OA
ATOM     78  O   UNL A   1      52.399  28.877  24.361  1.00  0.00    -0.237 OA
ATOM     79  O   UNL A   1      53.722  26.819  24.608  1.00  0.00    -0.744 OA
ENDBRANCH  73  76
ENDBRANCH  55  69
BRANCH  56  80
ATOM     80  C   UNL A   1      40.220  29.740  29.732  1.00  0.00     0.023 A 
ATOM     81  C   UNL A   1      39.286  30.154  28.761  1.00  0.00     0.012 A 
ATOM     82  C   UNL A   1      39.816  29.646  31.078  1.00  0.00     0.148 A 
ATOM     83  C   UNL A   1      37.988  30.507  29.131  1.00  0.00     0.002 A 
ATOM     84  C   UNL A   1      38.504  29.940  31.429  1.00  0.00     0.091 A 
ATOM     85  F   UNL A   1      40.723  29.260  31.987  1.00  0.00    -0.205 F 
ATOM     86  C   UNL A   1      37.594  30.391  30.462  1.00  0.00     0.022 A 
BRANCH  84  87
ATOM     87  S   UNL A   1      37.877  29.687  33.093  1.00  0.00     0.127 S 
ATOM     88  O   UNL A   1      39.072  29.914  33.901  1.00  0.00    -0.237 OA
ATOM     89  O   UNL A   1      36.858  30.732  33.192  1.00  0.00    -0.237 OA
ATOM     90  O   UNL A   1      37.347  28.330  33.111  1.00  0.00    -0.744 OA
ENDBRANCH  84  87
ENDBRANCH  56  80
BRANCH  68  91
ATOM     91  C   UNL A   1      46.225  33.301  29.613  1.00  0.00     0.023 A 
ATOM     92  C   UNL A   1      46.593  33.645  30.929  1.00  0.00     0.012 A 
ATOM     93  C   UNL A   1      46.249  34.287  28.608  1.00  0.00     0.148 A 
ATOM     94  C   UNL A   1      46.939  34.958  31.247  1.00  0.00     0.002 A 
ATOM     95  C   UNL A   1      46.648  35.581  28.922  1.00  0.00     0.091 A 
ATOM     96  F   UNL A   1      45.879  33.944  27.366  1.00  0.00    -0.205 F 
ATOM     97  C   UNL A   1      46.978  35.922  30.243  1.00  0.00     0.022 A 
BRANCH  95  98
ATOM     98  S   UNL A   1      46.825  36.862  27.674  1.00  0.00     0.127 S 
ATOM     99  O   UNL A   1      46.694  38.077  28.477  1.00  0.00    -0.237 OA
ATOM    100  O   UNL A   1      48.173  36.612  27.163  1.00  0.00    -0.237 OA
ATOM    101  O   UNL A   1      45.760  36.632  26.709  1.00  0.00    -0.744 OA
ENDBRANCH  95  98
ENDBRANCH  68  91
ENDBRANCH  42  43
ENDBRANCH  34  37
ENDBRANCH  32  33
ENDBRANCH  31  32
ENDBRANCH  30  31
ENDBRANCH   1  30
TORSDOF 20
ENDMDL
