MODEL 1
REMARK VINA RESULT:     -11.6      0.000      0.000
REMARK SMILES CCN(CC)C(=O)[C@@H]1CC=CC[C@H]1C(=O)Nc1ccc(C(=O)NCCCCCCNC(=O)c2ccc(-c3c4nc(c(-c5cccc(S(=O)(=O)[O-])c5F)c5ccc([nH]5)c(-c5cccc(S(=O)(=O)[O-])c5F)c5nc(c(-c6cccc(S(=O)(=O)[O-])c6F)c6ccc3[nH]6)C=C5)C=C4)cc2)cc1
REMARK SMILES IDX 26 1 25 2 24 3 23 4 21 5 22 6 20 8 17 9 18 10 97 11 19 12
REMARK SMILES IDX 96 13 16 14 14 15 15 16 13 18 8 19 9 20 10 21 12 22 11 23
REMARK SMILES IDX 6 24 3 25 7 26 2 27 1 28 4 29 5 30 27 31 28 32 29 33 30 34
REMARK SMILES IDX 31 35 32 37 33 38 34 39 95 40 35 41 94 42 36 43 37 44 38 45
REMARK SMILES IDX 88 46 39 47 93 48 87 49 89 50 40 51 92 52 86 53 85 54 41 56
REMARK SMILES IDX 73 57 53 58 72 59 54 60 57 61 71 62 90 63 55 64 56 65 70 67
REMARK SMILES IDX 91 68 58 69 42 70 43 71 51 72 44 73 46 74 52 75 45 76 47 77
REMARK SMILES IDX 48 78 49 79 50 80 74 81 75 82 83 83 76 84 78 85 84 86 77 87
REMARK SMILES IDX 79 88 80 89 81 90 82 91 59 92 60 93 68 94 61 95 63 96 69 97
REMARK SMILES IDX 62 98 64 99 65 100 66 101 67 102
REMARK H PARENT 23 7 16 17 30 36 89 55 57 66
REMARK Flexibility Score: inf
ROOT
ATOM      1  C   UNL A   1      30.904  28.124  24.874  1.00  0.00     0.002 C 
ENDROOT
BRANCH   1   2
ATOM      2  C   UNL A   1      30.998  27.685  23.407  1.00  0.00     0.021 C 
BRANCH   2   3
ATOM      3  C   UNL A   1      32.335  28.038  22.751  1.00  0.00     0.116 C 
BRANCH   3   4
ATOM      4  N   UNL A   1      32.525  27.240  21.548  1.00  0.00    -0.352 N 
ATOM      5  C   UNL A   1      32.921  25.939  21.375  1.00  0.00     0.251 C 
ATOM      6  O   UNL A   1      32.986  25.482  20.234  1.00  0.00    -0.269 OA
ATOM      7  H   UNL A   1      32.335  27.719  20.710  1.00  0.00     0.163 HD
BRANCH   5   8
ATOM      8  C   UNL A   1      33.170  25.041  22.529  1.00  0.00     0.039 A 
ATOM      9  C   UNL A   1      33.181  23.464  24.819  1.00  0.00     0.041 A 
ATOM     10  C   UNL A   1      32.519  23.011  23.679  1.00  0.00     0.027 A 
ATOM     11  C   UNL A   1      34.012  24.576  24.747  1.00  0.00     0.027 A 
ATOM     12  C   UNL A   1      32.493  23.815  22.540  1.00  0.00     0.016 A 
ATOM     13  C   UNL A   1      34.011  25.367  23.596  1.00  0.00     0.016 A 
BRANCH   9  14
ATOM     14  N   UNL A   1      32.998  22.769  26.012  1.00  0.00    -0.326 N 
ATOM     15  C   UNL A   1      33.906  22.047  26.734  1.00  0.00     0.228 C 
ATOM     16  O   UNL A   1      33.543  21.739  27.881  1.00  0.00    -0.274 OA
ATOM     17  H   UNL A   1      32.089  22.802  26.387  1.00  0.00     0.169 HD
BRANCH  15  18
ATOM     18  C   UNL A   1      35.358  21.747  26.320  1.00  0.00     0.095 C 
ATOM     19  C   UNL A   1      35.688  20.873  25.098  1.00  0.00     0.095 C 
ATOM     20  C   UNL A   1      37.231  20.858  24.835  1.00  0.00     0.041 C 
ATOM     21  C   UNL A   1      37.919  22.176  24.976  1.00  0.00    -0.030 C 
ATOM     22  C   UNL A   1      36.044  23.143  26.281  1.00  0.00     0.041 C 
ATOM     23  C   UNL A   1      37.377  23.212  25.618  1.00  0.00    -0.030 C 
BRANCH  19  24
ATOM     24  C   UNL A   1      35.257  19.402  24.837  1.00  0.00     0.226 C 
ATOM     25  N   UNL A   1      34.000  18.917  24.538  1.00  0.00    -0.343 N 
ATOM     26  O   UNL A   1      36.189  18.578  24.897  1.00  0.00    -0.275 OA
BRANCH  25  27
ATOM     27  C   UNL A   1      33.855  17.449  24.460  1.00  0.00     0.116 C 
ATOM     28  C   UNL A   1      32.893  16.894  25.506  1.00  0.00     0.027 C 
ENDBRANCH  25  27
BRANCH  25  29
ATOM     29  C   UNL A   1      32.771  19.656  24.293  1.00  0.00     0.116 C 
ATOM     30  C   UNL A   1      32.144  19.345  22.947  1.00  0.00     0.027 C 
ENDBRANCH  25  29
ENDBRANCH  19  24
ENDBRANCH  15  18
ENDBRANCH   9  14
ENDBRANCH   5   8
ENDBRANCH   3   4
ENDBRANCH   2   3
ENDBRANCH   1   2
BRANCH   1  31
ATOM     31  C   UNL A   1      31.721  27.275  25.854  1.00  0.00     0.002 C 
BRANCH  31  32
ATOM     32  C   UNL A   1      33.098  27.842  26.204  1.00  0.00     0.021 C 
BRANCH  32  33
ATOM     33  C   UNL A   1      33.170  28.525  27.565  1.00  0.00     0.116 C 
BRANCH  33  34
ATOM     34  N   UNL A   1      33.289  29.972  27.436  1.00  0.00    -0.352 N 
ATOM     35  C   UNL A   1      34.306  30.793  27.849  1.00  0.00     0.251 C 
ATOM     36  H   UNL A   1      32.534  30.421  26.990  1.00  0.00     0.163 HD
ATOM     37  O   UNL A   1      34.145  32.014  27.867  1.00  0.00    -0.269 OA
BRANCH  35  38
ATOM     38  C   UNL A   1      35.591  30.207  28.279  1.00  0.00     0.039 A 
ATOM     39  C   UNL A   1      36.667  30.189  27.389  1.00  0.00     0.014 A 
ATOM     40  C   UNL A   1      35.730  29.673  29.563  1.00  0.00     0.014 A 
ATOM     41  C   UNL A   1      37.900  29.679  27.806  1.00  0.00     0.010 A 
ATOM     42  C   UNL A   1      36.977  29.239  30.001  1.00  0.00     0.010 A 
ATOM     43  C   UNL A   1      38.071  29.225  29.124  1.00  0.00    -0.014 A 
BRANCH  43  44
ATOM     44  C   UNL A   1      39.383  28.723  29.606  1.00  0.00     0.031 A 
ATOM     45  C   UNL A   1      40.109  29.452  30.705  1.00  0.00     0.074 A 
ATOM     46  C   UNL A   1      39.960  27.668  28.998  1.00  0.00     0.049 A 
ATOM     47  N   UNL A   1      41.294  29.217  31.208  1.00  0.00    -0.248 NA
ATOM     48  C   UNL A   1      39.428  30.615  31.298  1.00  0.00     0.031 C 
ATOM     49  C   UNL A   1      39.388  26.922  27.875  1.00  0.00     0.029 A 
ATOM     50  N   UNL A   1      41.170  27.058  29.219  1.00  0.00    -0.354 N 
ATOM     51  C   UNL A   1      41.514  30.221  32.143  1.00  0.00     0.074 A 
ATOM     52  C   UNL A   1      40.358  31.088  32.115  1.00  0.00     0.031 C 
ATOM     53  C   UNL A   1      40.245  25.956  27.506  1.00  0.00     0.029 A 
ATOM     54  C   UNL A   1      41.441  26.035  28.340  1.00  0.00     0.049 A 
ATOM     55  H   UNL A   1      41.785  27.327  29.939  1.00  0.00     0.167 HD
ATOM     56  C   UNL A   1      42.573  30.393  32.970  1.00  0.00     0.034 A 
ATOM     57  C   UNL A   1      42.534  25.257  28.210  1.00  0.00     0.034 A 
ATOM     58  C   UNL A   1      43.704  29.506  33.022  1.00  0.00     0.049 A 
ATOM     59  C   UNL A   1      43.684  25.451  29.163  1.00  0.00     0.074 A 
ATOM     60  C   UNL A   1      44.787  29.543  33.882  1.00  0.00     0.029 A 
ATOM     61  N   UNL A   1      43.904  28.428  32.172  1.00  0.00    -0.354 N 
ATOM     62  N   UNL A   1      43.809  26.314  30.141  1.00  0.00    -0.248 NA
ATOM     63  C   UNL A   1      44.827  24.538  29.018  1.00  0.00     0.031 C 
ATOM     64  C   UNL A   1      45.658  28.508  33.531  1.00  0.00     0.029 A 
ATOM     65  C   UNL A   1      45.097  27.799  32.480  1.00  0.00     0.049 A 
ATOM     66  H   UNL A   1      43.287  28.152  31.457  1.00  0.00     0.167 HD
ATOM     67  C   UNL A   1      45.022  26.022  30.755  1.00  0.00     0.074 A 
ATOM     68  C   UNL A   1      45.587  24.892  30.047  1.00  0.00     0.031 C 
ATOM     69  C   UNL A   1      45.619  26.640  31.804  1.00  0.00     0.034 A 
BRANCH  56  70
ATOM     70  C   UNL A   1      42.542  31.563  33.920  1.00  0.00     0.023 A 
ATOM     71  C   UNL A   1      43.186  32.767  33.567  1.00  0.00     0.012 A 
ATOM     72  C   UNL A   1      41.826  31.493  35.132  1.00  0.00     0.148 A 
ATOM     73  C   UNL A   1      43.152  33.868  34.421  1.00  0.00     0.002 A 
ATOM     74  C   UNL A   1      41.755  32.612  35.954  1.00  0.00     0.091 A 
ATOM     75  F   UNL A   1      41.235  30.335  35.459  1.00  0.00    -0.205 F 
ATOM     76  C   UNL A   1      42.428  33.794  35.607  1.00  0.00     0.022 A 
BRANCH  74  77
ATOM     77  S   UNL A   1      40.780  32.646  37.462  1.00  0.00     0.127 S 
ATOM     78  O   UNL A   1      40.530  34.079  37.618  1.00  0.00    -0.237 OA
ATOM     79  O   UNL A   1      39.605  31.860  37.085  1.00  0.00    -0.237 OA
ATOM     80  O   UNL A   1      41.611  32.043  38.494  1.00  0.00    -0.744 OA
ENDBRANCH  74  77
ENDBRANCH  56  70
BRANCH  57  81
ATOM     81  C   UNL A   1      42.572  24.187  27.174  1.00  0.00     0.023 A 
ATOM     82  C   UNL A   1      43.204  24.439  25.940  1.00  0.00     0.012 A 
ATOM     83  C   UNL A   1      42.006  22.919  27.408  1.00  0.00     0.148 A 
ATOM     84  C   UNL A   1      43.235  23.464  24.943  1.00  0.00     0.002 A 
ATOM     85  C   UNL A   1      42.091  21.932  26.432  1.00  0.00     0.091 A 
ATOM     86  F   UNL A   1      41.403  22.700  28.585  1.00  0.00    -0.205 F 
ATOM     87  C   UNL A   1      42.687  22.208  25.193  1.00  0.00     0.022 A 
BRANCH  85  88
ATOM     88  S   UNL A   1      41.526  20.250  26.710  1.00  0.00     0.127 S 
ATOM     89  O   UNL A   1      41.943  19.587  25.478  1.00  0.00    -0.237 OA
ATOM     90  O   UNL A   1      42.285  19.871  27.902  1.00  0.00    -0.237 OA
ATOM     91  O   UNL A   1      40.088  20.345  26.920  1.00  0.00    -0.744 OA
ENDBRANCH  85  88
ENDBRANCH  57  81
BRANCH  69  92
ATOM     92  C   UNL A   1      46.927  26.079  32.298  1.00  0.00     0.023 A 
ATOM     93  C   UNL A   1      46.942  25.124  33.332  1.00  0.00     0.012 A 
ATOM     94  C   UNL A   1      48.137  26.444  31.674  1.00  0.00     0.148 A 
ATOM     95  C   UNL A   1      48.145  24.562  33.760  1.00  0.00     0.002 A 
ATOM     96  C   UNL A   1      49.325  25.841  32.069  1.00  0.00     0.091 A 
ATOM     97  F   UNL A   1      48.103  27.369  30.704  1.00  0.00    -0.205 F 
ATOM     98  C   UNL A   1      49.332  24.910  33.120  1.00  0.00     0.022 A 
BRANCH  96  99
ATOM     99  S   UNL A   1      50.886  26.150  31.236  1.00  0.00     0.127 S 
ATOM    100  O   UNL A   1      50.565  25.782  29.858  1.00  0.00    -0.237 OA
ATOM    101  O   UNL A   1      51.073  27.585  31.455  1.00  0.00    -0.237 OA
ATOM    102  O   UNL A   1      51.870  25.303  31.895  1.00  0.00    -0.744 OA
ENDBRANCH  96  99
ENDBRANCH  69  92
ENDBRANCH  43  44
ENDBRANCH  35  38
ENDBRANCH  33  34
ENDBRANCH  32  33
ENDBRANCH  31  32
ENDBRANCH   1  31
TORSDOF 21
ENDMDL
MODEL 2
REMARK VINA RESULT:     -11.6      1.835      2.082
REMARK SMILES CCN(CC)C(=O)[C@@H]1CC=CC[C@H]1C(=O)Nc1ccc(C(=O)NCCCCCCNC(=O)c2ccc(-c3c4nc(c(-c5cccc(S(=O)(=O)[O-])c5F)c5ccc([nH]5)c(-c5cccc(S(=O)(=O)[O-])c5F)c5nc(c(-c6cccc(S(=O)(=O)[O-])c6F)c6ccc3[nH]6)C=C5)C=C4)cc2)cc1
REMARK SMILES IDX 26 1 25 2 24 3 23 4 21 5 22 6 20 8 17 9 18 10 97 11 19 12
REMARK SMILES IDX 96 13 16 14 14 15 15 16 13 18 8 19 9 20 10 21 12 22 11 23
REMARK SMILES IDX 6 24 3 25 7 26 2 27 1 28 4 29 5 30 27 31 28 32 29 33 30 34
REMARK SMILES IDX 31 35 32 37 33 38 34 39 95 40 35 41 94 42 36 43 37 44 38 45
REMARK SMILES IDX 88 46 39 47 93 48 87 49 89 50 40 51 92 52 86 53 85 54 41 56
REMARK SMILES IDX 73 57 53 58 72 59 54 60 57 61 71 62 90 63 55 64 56 65 70 67
REMARK SMILES IDX 91 68 58 69 42 70 43 71 51 72 44 73 46 74 52 75 45 76 47 77
REMARK SMILES IDX 48 78 49 79 50 80 74 81 75 82 83 83 76 84 78 85 84 86 77 87
REMARK SMILES IDX 79 88 80 89 81 90 82 91 59 92 60 93 68 94 61 95 63 96 69 97
REMARK SMILES IDX 62 98 64 99 65 100 66 101 67 102
REMARK H PARENT 23 7 16 17 30 36 89 55 57 66
REMARK Flexibility Score: inf
ROOT
ATOM      1  C   UNL A   1      31.159  28.211  24.981  1.00  0.00     0.002 C 
ENDROOT
BRANCH   1   2
ATOM      2  C   UNL A   1      31.175  28.117  23.450  1.00  0.00     0.021 C 
BRANCH   2   3
ATOM      3  C   UNL A   1      32.576  28.242  22.848  1.00  0.00     0.116 C 
BRANCH   3   4
ATOM      4  N   UNL A   1      32.664  27.458  21.624  1.00  0.00    -0.352 N 
ATOM      5  C   UNL A   1      32.918  26.128  21.414  1.00  0.00     0.251 C 
ATOM      6  O   UNL A   1      32.918  25.694  20.262  1.00  0.00    -0.269 OA
ATOM      7  H   UNL A   1      32.514  27.976  20.800  1.00  0.00     0.163 HD
BRANCH   5   8
ATOM      8  C   UNL A   1      33.087  25.181  22.543  1.00  0.00     0.039 A 
ATOM      9  C   UNL A   1      33.047  23.657  24.869  1.00  0.00     0.041 A 
ATOM     10  C   UNL A   1      32.051  23.472  23.912  1.00  0.00     0.027 A 
ATOM     11  C   UNL A   1      34.166  24.425  24.570  1.00  0.00     0.027 A 
ATOM     12  C   UNL A   1      32.059  24.255  22.758  1.00  0.00     0.016 A 
ATOM     13  C   UNL A   1      34.190  25.187  23.400  1.00  0.00     0.016 A 
BRANCH   9  14
ATOM     14  N   UNL A   1      32.894  23.046  26.111  1.00  0.00    -0.326 N 
ATOM     15  C   UNL A   1      33.808  22.338  26.838  1.00  0.00     0.228 C 
ATOM     16  O   UNL A   1      33.488  22.117  28.017  1.00  0.00    -0.274 OA
ATOM     17  H   UNL A   1      32.004  23.137  26.522  1.00  0.00     0.169 HD
BRANCH  15  18
ATOM     18  C   UNL A   1      35.228  21.957  26.382  1.00  0.00     0.095 C 
ATOM     19  C   UNL A   1      35.475  21.108  25.123  1.00  0.00     0.095 C 
ATOM     20  C   UNL A   1      37.008  21.000  24.826  1.00  0.00     0.041 C 
ATOM     21  C   UNL A   1      37.786  22.264  24.999  1.00  0.00    -0.030 C 
ATOM     22  C   UNL A   1      36.006  23.304  26.378  1.00  0.00     0.041 C 
ATOM     23  C   UNL A   1      37.328  23.309  25.689  1.00  0.00    -0.030 C 
BRANCH  19  24
ATOM     24  C   UNL A   1      34.941  19.680  24.820  1.00  0.00     0.226 C 
ATOM     25  N   UNL A   1      33.665  19.301  24.453  1.00  0.00    -0.343 N 
ATOM     26  O   UNL A   1      35.799  18.783  24.913  1.00  0.00    -0.275 OA
BRANCH  25  27
ATOM     27  C   UNL A   1      33.407  17.851  24.346  1.00  0.00     0.116 C 
ATOM     28  C   UNL A   1      32.571  17.313  25.503  1.00  0.00     0.027 C 
ENDBRANCH  25  27
BRANCH  25  29
ATOM     29  C   UNL A   1      32.513  20.140  24.159  1.00  0.00     0.116 C 
ATOM     30  C   UNL A   1      32.142  20.152  22.688  1.00  0.00     0.027 C 
ENDBRANCH  25  29
ENDBRANCH  19  24
ENDBRANCH  15  18
ENDBRANCH   9  14
ENDBRANCH   5   8
ENDBRANCH   3   4
ENDBRANCH   2   3
ENDBRANCH   1   2
BRANCH   1  31
ATOM     31  C   UNL A   1      32.112  27.246  25.695  1.00  0.00     0.002 C 
BRANCH  31  32
ATOM     32  C   UNL A   1      33.391  27.889  26.237  1.00  0.00     0.021 C 
BRANCH  32  33
ATOM     33  C   UNL A   1      33.187  28.739  27.486  1.00  0.00     0.116 C 
BRANCH  33  34
ATOM     34  N   UNL A   1      33.442  30.150  27.226  1.00  0.00    -0.352 N 
ATOM     35  C   UNL A   1      34.527  30.909  27.581  1.00  0.00     0.251 C 
ATOM     36  H   UNL A   1      32.737  30.623  26.726  1.00  0.00     0.163 HD
ATOM     37  O   UNL A   1      34.480  32.135  27.483  1.00  0.00    -0.269 OA
BRANCH  35  38
ATOM     38  C   UNL A   1      35.746  30.250  28.089  1.00  0.00     0.039 A 
ATOM     39  C   UNL A   1      36.874  30.170  27.268  1.00  0.00     0.014 A 
ATOM     40  C   UNL A   1      35.774  29.710  29.378  1.00  0.00     0.014 A 
ATOM     41  C   UNL A   1      38.047  29.591  27.760  1.00  0.00     0.010 A 
ATOM     42  C   UNL A   1      36.963  29.206  29.892  1.00  0.00     0.010 A 
ATOM     43  C   UNL A   1      38.109  29.128  29.085  1.00  0.00    -0.014 A 
BRANCH  43  44
ATOM     44  C   UNL A   1      39.356  28.552  29.648  1.00  0.00     0.031 A 
ATOM     45  C   UNL A   1      39.997  29.181  30.856  1.00  0.00     0.074 A 
ATOM     46  C   UNL A   1      39.959  27.522  29.021  1.00  0.00     0.049 A 
ATOM     47  N   UNL A   1      41.123  28.874  31.446  1.00  0.00    -0.248 NA
ATOM     48  C   UNL A   1      39.295  30.323  31.465  1.00  0.00     0.031 C 
ATOM     49  C   UNL A   1      39.473  26.873  27.802  1.00  0.00     0.029 A 
ATOM     50  N   UNL A   1      41.127  26.859  29.307  1.00  0.00    -0.354 N 
ATOM     51  C   UNL A   1      41.284  29.805  32.465  1.00  0.00     0.074 A 
ATOM     52  C   UNL A   1      40.158  30.709  32.394  1.00  0.00     0.031 C 
ATOM     53  C   UNL A   1      40.335  25.906  27.445  1.00  0.00     0.029 A 
ATOM     54  C   UNL A   1      41.451  25.890  28.386  1.00  0.00     0.049 A 
ATOM     55  H   UNL A   1      41.680  27.058  30.096  1.00  0.00     0.167 HD
ATOM     56  C   UNL A   1      42.266  29.885  33.394  1.00  0.00     0.034 A 
ATOM     57  C   UNL A   1      42.529  25.087  28.301  1.00  0.00     0.034 A 
ATOM     58  C   UNL A   1      43.363  28.961  33.485  1.00  0.00     0.049 A 
ATOM     59  C   UNL A   1      43.592  25.178  29.365  1.00  0.00     0.074 A 
ATOM     60  C   UNL A   1      44.363  28.904  34.440  1.00  0.00     0.029 A 
ATOM     61  N   UNL A   1      43.612  27.937  32.584  1.00  0.00    -0.354 N 
ATOM     62  N   UNL A   1      43.649  25.969  30.408  1.00  0.00    -0.248 NA
ATOM     63  C   UNL A   1      44.719  24.241  29.260  1.00  0.00     0.031 C 
ATOM     64  C   UNL A   1      45.235  27.867  34.097  1.00  0.00     0.029 A 
ATOM     65  C   UNL A   1      44.755  27.250  32.952  1.00  0.00     0.049 A 
ATOM     66  H   UNL A   1      43.057  27.730  31.798  1.00  0.00     0.167 HD
ATOM     67  C   UNL A   1      44.792  25.597  31.107  1.00  0.00     0.074 A 
ATOM     68  C   UNL A   1      45.390  24.499  30.375  1.00  0.00     0.031 C 
ATOM     69  C   UNL A   1      45.306  26.122  32.246  1.00  0.00     0.034 A 
BRANCH  56  70
ATOM     70  C   UNL A   1      42.178  30.989  34.417  1.00  0.00     0.023 A 
ATOM     71  C   UNL A   1      41.597  30.731  35.676  1.00  0.00     0.012 A 
ATOM     72  C   UNL A   1      42.721  32.263  34.156  1.00  0.00     0.148 A 
ATOM     73  C   UNL A   1      41.524  31.732  36.644  1.00  0.00     0.002 A 
ATOM     74  C   UNL A   1      42.690  33.240  35.145  1.00  0.00     0.091 A 
ATOM     75  F   UNL A   1      43.253  32.496  32.948  1.00  0.00    -0.205 F 
ATOM     76  C   UNL A   1      42.080  32.981  36.382  1.00  0.00     0.022 A 
BRANCH  74  77
ATOM     77  S   UNL A   1      43.452  34.853  34.938  1.00  0.00     0.127 S 
ATOM     78  O   UNL A   1      42.703  35.389  33.800  1.00  0.00    -0.237 OA
ATOM     79  O   UNL A   1      43.158  35.497  36.218  1.00  0.00    -0.237 OA
ATOM     80  O   UNL A   1      44.865  34.604  34.691  1.00  0.00    -0.744 OA
ENDBRANCH  74  77
ENDBRANCH  56  70
BRANCH  57  81
ATOM     81  C   UNL A   1      42.636  24.089  27.200  1.00  0.00     0.023 A 
ATOM     82  C   UNL A   1      43.315  24.433  26.015  1.00  0.00     0.012 A 
ATOM     83  C   UNL A   1      42.085  22.799  27.325  1.00  0.00     0.148 A 
ATOM     84  C   UNL A   1      43.410  23.526  24.959  1.00  0.00     0.002 A 
ATOM     85  C   UNL A   1      42.232  21.880  26.292  1.00  0.00     0.091 A 
ATOM     86  F   UNL A   1      41.435  22.492  28.457  1.00  0.00    -0.205 F 
ATOM     87  C   UNL A   1      42.877  22.247  25.102  1.00  0.00     0.022 A 
BRANCH  85  88
ATOM     88  S   UNL A   1      41.690  20.174  26.433  1.00  0.00     0.127 S 
ATOM     89  O   UNL A   1      42.369  19.548  25.302  1.00  0.00    -0.237 OA
ATOM     90  O   UNL A   1      42.210  19.800  27.748  1.00  0.00    -0.237 OA
ATOM     91  O   UNL A   1      40.236  20.213  26.352  1.00  0.00    -0.744 OA
ENDBRANCH  85  88
ENDBRANCH  57  81
BRANCH  69  92
ATOM     92  C   UNL A   1      46.547  25.487  32.816  1.00  0.00     0.023 A 
ATOM     93  C   UNL A   1      47.820  25.961  32.444  1.00  0.00     0.012 A 
ATOM     94  C   UNL A   1      46.443  24.472  33.790  1.00  0.00     0.148 A 
ATOM     95  C   UNL A   1      48.972  25.412  33.007  1.00  0.00     0.002 A 
ATOM     96  C   UNL A   1      47.593  23.968  34.385  1.00  0.00     0.091 A 
ATOM     97  F   UNL A   1      45.223  24.024  34.117  1.00  0.00    -0.205 F 
ATOM     98  C   UNL A   1      48.858  24.427  33.985  1.00  0.00     0.022 A 
BRANCH  96  99
ATOM     99  S   UNL A   1      47.538  22.773  35.725  1.00  0.00     0.127 S 
ATOM    100  O   UNL A   1      47.553  21.507  34.996  1.00  0.00    -0.237 OA
ATOM    101  O   UNL A   1      48.772  23.072  36.454  1.00  0.00    -0.237 OA
ATOM    102  O   UNL A   1      46.315  23.052  36.465  1.00  0.00    -0.744 OA
ENDBRANCH  96  99
ENDBRANCH  69  92
ENDBRANCH  43  44
ENDBRANCH  35  38
ENDBRANCH  33  34
ENDBRANCH  32  33
ENDBRANCH  31  32
ENDBRANCH   1  31
TORSDOF 21
ENDMDL
MODEL 3
REMARK VINA RESULT:     -11.4      4.581      8.237
REMARK SMILES CCN(CC)C(=O)[C@@H]1CC=CC[C@H]1C(=O)Nc1ccc(C(=O)NCCCCCCNC(=O)c2ccc(-c3c4nc(c(-c5cccc(S(=O)(=O)[O-])c5F)c5ccc([nH]5)c(-c5cccc(S(=O)(=O)[O-])c5F)c5nc(c(-c6cccc(S(=O)(=O)[O-])c6F)c6ccc3[nH]6)C=C5)C=C4)cc2)cc1
REMARK SMILES IDX 26 1 25 2 24 3 23 4 21 5 22 6 20 8 17 9 18 10 97 11 19 12
REMARK SMILES IDX 96 13 16 14 14 15 15 16 13 18 8 19 9 20 10 21 12 22 11 23
REMARK SMILES IDX 6 24 3 25 7 26 2 27 1 28 4 29 5 30 27 31 28 32 29 33 30 34
REMARK SMILES IDX 31 35 32 37 33 38 34 39 95 40 35 41 94 42 36 43 37 44 38 45
REMARK SMILES IDX 88 46 39 47 93 48 87 49 89 50 40 51 92 52 86 53 85 54 41 56
REMARK SMILES IDX 73 57 53 58 72 59 54 60 57 61 71 62 90 63 55 64 56 65 70 67
REMARK SMILES IDX 91 68 58 69 42 70 43 71 51 72 44 73 46 74 52 75 45 76 47 77
REMARK SMILES IDX 48 78 49 79 50 80 74 81 75 82 83 83 76 84 78 85 84 86 77 87
REMARK SMILES IDX 79 88 80 89 81 90 82 91 59 92 60 93 68 94 61 95 63 96 69 97
REMARK SMILES IDX 62 98 64 99 65 100 66 101 67 102
REMARK H PARENT 23 7 16 17 30 36 89 55 57 66
REMARK Flexibility Score: inf
ROOT
ATOM      1  C   UNL A   1      35.216  19.790  24.659  1.00  0.00     0.002 C 
ENDROOT
BRANCH   1   2
ATOM      2  C   UNL A   1      33.935  18.949  24.718  1.00  0.00     0.021 C 
BRANCH   2   3
ATOM      3  C   UNL A   1      32.850  19.555  25.612  1.00  0.00     0.116 C 
BRANCH   3   4
ATOM      4  N   UNL A   1      33.461  20.365  26.656  1.00  0.00    -0.352 N 
ATOM      5  C   UNL A   1      33.277  21.676  27.012  1.00  0.00     0.251 C 
ATOM      6  O   UNL A   1      33.913  22.130  27.963  1.00  0.00    -0.269 OA
ATOM      7  H   UNL A   1      34.124  19.886  27.204  1.00  0.00     0.163 HD
BRANCH   5   8
ATOM      8  C   UNL A   1      32.259  22.526  26.350  1.00  0.00     0.039 A 
ATOM      9  C   UNL A   1      30.719  24.277  24.834  1.00  0.00     0.041 A 
ATOM     10  C   UNL A   1      31.116  23.060  24.282  1.00  0.00     0.027 A 
ATOM     11  C   UNL A   1      30.896  24.516  26.192  1.00  0.00     0.027 A 
ATOM     12  C   UNL A   1      31.910  22.196  25.035  1.00  0.00     0.016 A 
ATOM     13  C   UNL A   1      31.664  23.636  26.955  1.00  0.00     0.016 A 
BRANCH   9  14
ATOM     14  N   UNL A   1      30.136  25.225  23.997  1.00  0.00    -0.326 N 
ATOM     15  C   UNL A   1      30.401  26.562  23.897  1.00  0.00     0.228 C 
ATOM     16  O   UNL A   1      29.915  27.123  22.902  1.00  0.00    -0.274 OA
ATOM     17  H   UNL A   1      29.437  24.885  23.393  1.00  0.00     0.169 HD
BRANCH  15  18
ATOM     18  C   UNL A   1      31.362  27.363  24.793  1.00  0.00     0.095 C 
ATOM     19  C   UNL A   1      32.889  27.274  24.626  1.00  0.00     0.095 C 
ATOM     20  C   UNL A   1      33.604  28.299  25.569  1.00  0.00     0.041 C 
ATOM     21  C   UNL A   1      32.973  29.650  25.645  1.00  0.00    -0.030 C 
ATOM     22  C   UNL A   1      30.821  28.821  24.732  1.00  0.00     0.041 C 
ATOM     23  C   UNL A   1      31.720  29.889  25.255  1.00  0.00    -0.030 C 
BRANCH  19  24
ATOM     24  C   UNL A   1      33.783  26.005  24.717  1.00  0.00     0.226 C 
ATOM     25  N   UNL A   1      34.000  25.038  23.757  1.00  0.00    -0.343 N 
ATOM     26  O   UNL A   1      34.380  25.878  25.803  1.00  0.00    -0.275 OA
BRANCH  25  27
ATOM     27  C   UNL A   1      34.807  23.869  24.161  1.00  0.00     0.116 C 
ATOM     28  C   UNL A   1      35.505  23.198  22.983  1.00  0.00     0.027 C 
ENDBRANCH  25  27
BRANCH  25  29
ATOM     29  C   UNL A   1      33.532  24.998  22.380  1.00  0.00     0.116 C 
ATOM     30  C   UNL A   1      33.367  26.374  21.764  1.00  0.00     0.027 C 
ENDBRANCH  25  29
ENDBRANCH  19  24
ENDBRANCH  15  18
ENDBRANCH   9  14
ENDBRANCH   5   8
ENDBRANCH   3   4
ENDBRANCH   2   3
ENDBRANCH   1   2
BRANCH   1  31
ATOM     31  C   UNL A   1      36.504  19.026  24.984  1.00  0.00     0.002 C 
BRANCH  31  32
ATOM     32  C   UNL A   1      37.796  19.753  24.606  1.00  0.00     0.021 C 
BRANCH  32  33
ATOM     33  C   UNL A   1      38.675  20.132  25.792  1.00  0.00     0.116 C 
BRANCH  33  34
ATOM     34  N   UNL A   1      39.812  19.231  25.930  1.00  0.00    -0.352 N 
ATOM     35  C   UNL A   1      41.136  19.537  26.111  1.00  0.00     0.251 C 
ATOM     36  H   UNL A   1      39.600  18.270  25.888  1.00  0.00     0.163 HD
ATOM     37  O   UNL A   1      41.995  18.664  25.979  1.00  0.00    -0.269 OA
BRANCH  35  38
ATOM     38  C   UNL A   1      41.528  20.918  26.455  1.00  0.00     0.039 A 
ATOM     39  C   UNL A   1      41.953  21.205  27.755  1.00  0.00     0.014 A 
ATOM     40  C   UNL A   1      41.474  21.930  25.493  1.00  0.00     0.014 A 
ATOM     41  C   UNL A   1      42.371  22.500  28.075  1.00  0.00     0.010 A 
ATOM     42  C   UNL A   1      41.963  23.196  25.792  1.00  0.00     0.010 A 
ATOM     43  C   UNL A   1      42.405  23.499  27.089  1.00  0.00    -0.014 A 
BRANCH  43  44
ATOM     44  C   UNL A   1      42.889  24.870  27.390  1.00  0.00     0.031 A 
ATOM     45  C   UNL A   1      41.976  25.859  28.064  1.00  0.00     0.074 A 
ATOM     46  C   UNL A   1      44.115  25.252  26.980  1.00  0.00     0.049 A 
ATOM     47  N   UNL A   1      42.186  27.121  28.339  1.00  0.00    -0.248 NA
ATOM     48  C   UNL A   1      40.640  25.377  28.453  1.00  0.00     0.031 C 
ATOM     49  C   UNL A   1      45.065  24.406  26.254  1.00  0.00     0.029 A 
ATOM     50  N   UNL A   1      44.761  26.459  27.087  1.00  0.00    -0.354 N 
ATOM     51  C   UNL A   1      41.001  27.590  28.894  1.00  0.00     0.074 A 
ATOM     52  C   UNL A   1      40.064  26.489  28.886  1.00  0.00     0.031 C 
ATOM     53  C   UNL A   1      46.171  25.118  25.983  1.00  0.00     0.029 A 
ATOM     54  C   UNL A   1      45.995  26.480  26.481  1.00  0.00     0.049 A 
ATOM     55  H   UNL A   1      44.376  27.235  27.554  1.00  0.00     0.167 HD
ATOM     56  C   UNL A   1      40.726  28.819  29.392  1.00  0.00     0.034 A 
ATOM     57  C   UNL A   1      46.880  27.484  26.331  1.00  0.00     0.034 A 
ATOM     58  C   UNL A   1      41.673  29.900  29.432  1.00  0.00     0.049 A 
ATOM     59  C   UNL A   1      46.560  28.833  26.920  1.00  0.00     0.074 A 
ATOM     60  C   UNL A   1      41.521  31.156  29.992  1.00  0.00     0.029 A 
ATOM     61  N   UNL A   1      42.946  29.857  28.885  1.00  0.00    -0.354 N 
ATOM     62  N   UNL A   1      45.491  29.214  27.574  1.00  0.00    -0.248 NA
ATOM     63  C   UNL A   1      47.584  29.879  26.781  1.00  0.00     0.031 C 
ATOM     64  C   UNL A   1      42.689  31.885  29.753  1.00  0.00     0.029 A 
ATOM     65  C   UNL A   1      43.587  31.068  29.082  1.00  0.00     0.049 A 
ATOM     66  H   UNL A   1      43.337  29.080  28.424  1.00  0.00     0.167 HD
ATOM     67  C   UNL A   1      45.730  30.528  27.964  1.00  0.00     0.074 A 
ATOM     68  C   UNL A   1      47.053  30.872  27.483  1.00  0.00     0.031 C 
ATOM     69  C   UNL A   1      44.925  31.376  28.649  1.00  0.00     0.034 A 
BRANCH  56  70
ATOM     70  C   UNL A   1      39.354  29.052  29.971  1.00  0.00     0.023 A 
ATOM     71  C   UNL A   1      39.063  28.608  31.278  1.00  0.00     0.012 A 
ATOM     72  C   UNL A   1      38.373  29.760  29.248  1.00  0.00     0.148 A 
ATOM     73  C   UNL A   1      37.807  28.832  31.841  1.00  0.00     0.002 A 
ATOM     74  C   UNL A   1      37.141  30.022  29.836  1.00  0.00     0.091 A 
ATOM     75  F   UNL A   1      38.661  30.158  28.001  1.00  0.00    -0.205 F 
ATOM     76  C   UNL A   1      36.851  29.547  31.125  1.00  0.00     0.022 A 
BRANCH  74  77
ATOM     77  S   UNL A   1      35.873  31.007  29.031  1.00  0.00     0.127 S 
ATOM     78  O   UNL A   1      35.184  31.596  30.180  1.00  0.00    -0.237 OA
ATOM     79  O   UNL A   1      36.669  31.953  28.249  1.00  0.00    -0.237 OA
ATOM     80  O   UNL A   1      35.080  30.076  28.240  1.00  0.00    -0.744 OA
ENDBRANCH  74  77
ENDBRANCH  56  70
BRANCH  57  81
ATOM     81  C   UNL A   1      48.179  27.241  25.641  1.00  0.00     0.023 A 
ATOM     82  C   UNL A   1      49.287  26.793  26.387  1.00  0.00     0.012 A 
ATOM     83  C   UNL A   1      48.320  27.434  24.253  1.00  0.00     0.148 A 
ATOM     84  C   UNL A   1      50.521  26.580  25.772  1.00  0.00     0.002 A 
ATOM     85  C   UNL A   1      49.536  27.164  23.637  1.00  0.00     0.091 A 
ATOM     86  F   UNL A   1      47.256  27.867  23.561  1.00  0.00    -0.205 F 
ATOM     87  C   UNL A   1      50.642  26.756  24.396  1.00  0.00     0.022 A 
BRANCH  85  88
ATOM     88  S   UNL A   1      49.753  27.242  21.855  1.00  0.00     0.127 S 
ATOM     89  O   UNL A   1      49.513  28.657  21.585  1.00  0.00    -0.237 OA
ATOM     90  O   UNL A   1      51.143  26.811  21.702  1.00  0.00    -0.237 OA
ATOM     91  O   UNL A   1      48.774  26.318  21.297  1.00  0.00    -0.744 OA
ENDBRANCH  85  88
ENDBRANCH  57  81
BRANCH  69  92
ATOM     92  C   UNL A   1      45.462  32.744  28.978  1.00  0.00     0.023 A 
ATOM     93  C   UNL A   1      46.323  32.921  30.078  1.00  0.00     0.012 A 
ATOM     94  C   UNL A   1      45.174  33.841  28.140  1.00  0.00     0.148 A 
ATOM     95  C   UNL A   1      46.866  34.176  30.357  1.00  0.00     0.002 A 
ATOM     96  C   UNL A   1      45.760  35.075  28.394  1.00  0.00     0.091 A 
ATOM     97  F   UNL A   1      44.337  33.655  27.109  1.00  0.00    -0.205 F 
ATOM     98  C   UNL A   1      46.595  35.247  29.509  1.00  0.00     0.022 A 
BRANCH  96  99
ATOM     99  S   UNL A   1      45.552  36.484  27.299  1.00  0.00     0.127 S 
ATOM    100  O   UNL A   1      45.943  37.594  28.165  1.00  0.00    -0.237 OA
ATOM    101  O   UNL A   1      46.500  36.183  26.226  1.00  0.00    -0.237 OA
ATOM    102  O   UNL A   1      44.153  36.475  26.891  1.00  0.00    -0.744 OA
ENDBRANCH  96  99
ENDBRANCH  69  92
ENDBRANCH  43  44
ENDBRANCH  35  38
ENDBRANCH  33  34
ENDBRANCH  32  33
ENDBRANCH  31  32
ENDBRANCH   1  31
TORSDOF 21
ENDMDL
