MODEL 1
REMARK VINA RESULT:     -12.0      0.000      0.000
REMARK SMILES O=C(NCCCCCCNC(=O)[C@@H]1CSCN1C(=O)c1cccc(Cl)c1)c1ccc(-c2c3nc(c(-c4cccc(S(=O)(=O)[O-])c4F)c4ccc([nH]4)c(-c4cccc(S(=O)(=O)[O-])c4F)c4nc(c(-c5cccc(S(=O)(=O)[O-])c5F)c5ccc2[nH]5)C=C4)C=C3)cc1
REMARK SMILES IDX 6 1 5 2 4 3 3 4 1 5 2 6 27 8 28 9 89 10 29 11 88 12 30 13
REMARK SMILES IDX 31 14 32 15 82 16 33 17 87 18 81 19 83 20 34 21 86 22 80 23
REMARK SMILES IDX 79 24 35 26 67 27 47 28 66 29 48 30 51 31 65 32 84 33 49 34
REMARK SMILES IDX 50 35 64 37 85 38 52 39 36 40 37 41 45 42 38 43 40 44 46 45
REMARK SMILES IDX 39 46 41 47 42 48 43 49 44 50 68 51 69 52 77 53 70 54 72 55
REMARK SMILES IDX 78 56 71 57 73 58 74 59 75 60 76 61 53 62 54 63 62 64 55 65
REMARK SMILES IDX 57 66 63 67 56 68 58 69 59 70 60 71 61 72 7 73 8 74 9 75
REMARK SMILES IDX 10 76 11 77 12 79 13 80 14 81 17 82 15 83 16 84 18 85 19 86
REMARK SMILES IDX 20 87 21 88 26 89 22 90 24 91 23 92 25 93
REMARK H PARENT 3 7 83 25 51 36 10 78
REMARK Flexibility Score: inf
ROOT
ATOM      1  C   UNL A   1      31.253  29.017  24.399  1.00  0.00     0.002 C 
ENDROOT
BRANCH   1   2
ATOM      2  C   UNL A   1      32.774  29.127  24.522  1.00  0.00     0.021 C 
BRANCH   2   3
ATOM      3  C   UNL A   1      33.271  29.409  25.934  1.00  0.00     0.116 C 
BRANCH   3   4
ATOM      4  N   UNL A   1      32.962  30.768  26.354  1.00  0.00    -0.352 N 
ATOM      5  O   UNL A   1      33.023  32.577  27.696  1.00  0.00    -0.269 OA
ATOM      6  C   UNL A   1      33.570  31.546  27.310  1.00  0.00     0.251 C 
ATOM      7  H   UNL A   1      32.207  31.192  25.886  1.00  0.00     0.163 HD
BRANCH   6   8
ATOM      8  C   UNL A   1      34.867  31.126  27.882  1.00  0.00     0.039 A 
ATOM      9  C   UNL A   1      35.061  29.808  28.300  1.00  0.00     0.014 A 
ATOM     10  C   UNL A   1      35.902  32.058  28.003  1.00  0.00     0.014 A 
ATOM     11  C   UNL A   1      36.219  29.464  28.986  1.00  0.00     0.010 A 
ATOM     12  C   UNL A   1      37.108  31.682  28.603  1.00  0.00     0.010 A 
ATOM     13  C   UNL A   1      37.261  30.392  29.137  1.00  0.00    -0.014 A 
BRANCH  13  14
ATOM     14  C   UNL A   1      38.514  29.966  29.813  1.00  0.00     0.031 A 
ATOM     15  C   UNL A   1      38.869  30.460  31.190  1.00  0.00     0.074 A 
ATOM     16  C   UNL A   1      39.330  29.103  29.174  1.00  0.00     0.049 A 
ATOM     17  N   UNL A   1      39.894  30.137  31.938  1.00  0.00    -0.248 NA
ATOM     18  C   UNL A   1      37.972  31.449  31.804  1.00  0.00     0.031 C 
ATOM     19  C   UNL A   1      39.114  28.589  27.818  1.00  0.00     0.029 A 
ATOM     20  N   UNL A   1      40.493  28.498  29.575  1.00  0.00    -0.354 N 
ATOM     21  C   UNL A   1      39.794  30.915  33.085  1.00  0.00     0.074 A 
ATOM     22  C   UNL A   1      38.609  31.733  32.932  1.00  0.00     0.031 C 
ATOM     23  C   UNL A   1      40.088  27.718  27.517  1.00  0.00     0.029 A 
ATOM     24  C   UNL A   1      41.025  27.651  28.630  1.00  0.00     0.049 A 
ATOM     25  H   UNL A   1      40.908  28.655  30.454  1.00  0.00     0.167 HD
ATOM     26  C   UNL A   1      40.605  30.936  34.170  1.00  0.00     0.034 A 
ATOM     27  C   UNL A   1      42.147  26.909  28.652  1.00  0.00     0.034 A 
ATOM     28  C   UNL A   1      41.758  30.089  34.332  1.00  0.00     0.049 A 
ATOM     29  C   UNL A   1      43.005  26.925  29.884  1.00  0.00     0.074 A 
ATOM     30  C   UNL A   1      42.598  29.979  35.427  1.00  0.00     0.029 A 
ATOM     31  N   UNL A   1      42.241  29.213  33.371  1.00  0.00    -0.354 N 
ATOM     32  N   UNL A   1      42.816  27.565  31.012  1.00  0.00    -0.248 NA
ATOM     33  C   UNL A   1      44.215  26.093  29.859  1.00  0.00     0.031 C 
ATOM     34  C   UNL A   1      43.605  29.060  35.116  1.00  0.00     0.029 A 
ATOM     35  C   UNL A   1      43.374  28.570  33.842  1.00  0.00     0.049 A 
ATOM     36  H   UNL A   1      41.839  29.071  32.485  1.00  0.00     0.167 HD
ATOM     37  C   UNL A   1      43.862  27.187  31.844  1.00  0.00     0.074 A 
ATOM     38  C   UNL A   1      44.668  26.243  31.095  1.00  0.00     0.031 C 
ATOM     39  C   UNL A   1      44.137  27.593  33.107  1.00  0.00     0.034 A 
BRANCH  26  40
ATOM     40  C   UNL A   1      40.265  31.890  35.287  1.00  0.00     0.023 A 
ATOM     41  C   UNL A   1      40.944  33.121  35.391  1.00  0.00     0.012 A 
ATOM     42  C   UNL A   1      39.224  31.599  36.193  1.00  0.00     0.148 A 
ATOM     43  C   UNL A   1      40.617  34.032  36.397  1.00  0.00     0.002 A 
ATOM     44  C   UNL A   1      38.874  32.531  37.164  1.00  0.00     0.091 A 
ATOM     45  F   UNL A   1      38.600  30.417  36.092  1.00  0.00    -0.205 F 
ATOM     46  C   UNL A   1      39.577  33.742  37.275  1.00  0.00     0.022 A 
BRANCH  44  47
ATOM     47  S   UNL A   1      37.494  32.285  38.289  1.00  0.00     0.127 S 
ATOM     48  O   UNL A   1      37.995  32.916  39.510  1.00  0.00    -0.237 OA
ATOM     49  O   UNL A   1      36.419  33.020  37.622  1.00  0.00    -0.237 OA
ATOM     50  O   UNL A   1      37.289  30.846  38.365  1.00  0.00    -0.744 OA
ENDBRANCH  44  47
ENDBRANCH  26  40
BRANCH  27  51
ATOM     51  C   UNL A   1      42.487  26.044  27.488  1.00  0.00     0.023 A 
ATOM     52  C   UNL A   1      43.285  26.561  26.450  1.00  0.00     0.012 A 
ATOM     53  C   UNL A   1      42.056  24.704  27.422  1.00  0.00     0.148 A 
ATOM     54  C   UNL A   1      43.622  25.769  25.350  1.00  0.00     0.002 A 
ATOM     55  C   UNL A   1      42.445  23.904  26.355  1.00  0.00     0.091 A 
ATOM     56  F   UNL A   1      41.288  24.235  28.415  1.00  0.00    -0.205 F 
ATOM     57  C   UNL A   1      43.212  24.439  25.310  1.00  0.00     0.022 A 
BRANCH  55  58
ATOM     58  S   UNL A   1      42.078  22.147  26.288  1.00  0.00     0.127 S 
ATOM     59  O   UNL A   1      40.637  22.153  26.057  1.00  0.00    -0.237 OA
ATOM     60  O   UNL A   1      42.885  21.715  25.146  1.00  0.00    -0.237 OA
ATOM     61  O   UNL A   1      42.514  21.607  27.568  1.00  0.00    -0.744 OA
ENDBRANCH  55  58
ENDBRANCH  27  51
BRANCH  39  62
ATOM     62  C   UNL A   1      45.338  26.984  33.784  1.00  0.00     0.023 A 
ATOM     63  C   UNL A   1      46.593  27.617  33.700  1.00  0.00     0.012 A 
ATOM     64  C   UNL A   1      45.207  25.807  34.546  1.00  0.00     0.148 A 
ATOM     65  C   UNL A   1      47.709  27.067  34.331  1.00  0.00     0.002 A 
ATOM     66  C   UNL A   1      46.310  25.293  35.216  1.00  0.00     0.091 A 
ATOM     67  F   UNL A   1      44.008  25.206  34.597  1.00  0.00    -0.205 F 
ATOM     68  C   UNL A   1      47.564  25.913  35.097  1.00  0.00     0.022 A 
BRANCH  66  69
ATOM     69  S   UNL A   1      46.192  23.869  36.304  1.00  0.00     0.127 S 
ATOM     70  O   UNL A   1      47.559  23.764  36.810  1.00  0.00    -0.237 OA
ATOM     71  O   UNL A   1      45.208  24.312  37.292  1.00  0.00    -0.237 OA
ATOM     72  O   UNL A   1      45.746  22.762  35.466  1.00  0.00    -0.744 OA
ENDBRANCH  66  69
ENDBRANCH  39  62
ENDBRANCH  13  14
ENDBRANCH   6   8
ENDBRANCH   3   4
ENDBRANCH   2   3
ENDBRANCH   1   2
BRANCH   1  73
ATOM     73  C   UNL A   1      30.707  27.590  24.249  1.00  0.00     0.002 C 
BRANCH  73  74
ATOM     74  C   UNL A   1      31.217  26.820  23.025  1.00  0.00     0.021 C 
BRANCH  74  75
ATOM     75  C   UNL A   1      30.856  25.335  23.041  1.00  0.00     0.116 C 
BRANCH  75  76
ATOM     76  N   UNL A   1      31.837  24.556  22.325  1.00  0.00    -0.354 N 
ATOM     77  C   UNL A   1      32.841  23.748  22.744  1.00  0.00     0.243 C 
ATOM     78  H   UNL A   1      31.763  24.625  21.346  1.00  0.00     0.163 HD
ATOM     79  O   UNL A   1      33.637  23.406  21.856  1.00  0.00    -0.273 OA
BRANCH  77  80
ATOM     80  C   UNL A   1      33.093  23.301  24.215  1.00  0.00     0.185 C 
ATOM     81  C   UNL A   1      34.071  24.323  24.828  1.00  0.00     0.106 C 
ATOM     82  N   UNL A   1      33.589  21.959  24.550  1.00  0.00    -0.317 N 
ATOM     83  S   UNL A   1      35.624  23.446  25.182  1.00  0.00    -0.138 SA
ATOM     84  C   UNL A   1      35.031  21.866  24.559  1.00  0.00     0.190 C 
BRANCH  82  85
ATOM     85  C   UNL A   1      32.705  20.922  24.815  1.00  0.00     0.255 C 
ATOM     86  O   UNL A   1      31.702  21.058  25.509  1.00  0.00    -0.269 OA
BRANCH  85  87
ATOM     87  C   UNL A   1      32.907  19.619  24.138  1.00  0.00     0.041 A 
ATOM     88  C   UNL A   1      32.307  19.334  22.910  1.00  0.00     0.014 A 
ATOM     89  C   UNL A   1      33.735  18.676  24.753  1.00  0.00     0.034 A 
ATOM     90  C   UNL A   1      32.499  18.078  22.327  1.00  0.00     0.002 A 
ATOM     91  C   UNL A   1      33.917  17.427  24.170  1.00  0.00     0.041 A 
ATOM     92  C   UNL A   1      33.296  17.120  22.962  1.00  0.00     0.020 A 
ATOM     93  Cl  UNL A   1      34.903  16.262  24.964  1.00  0.00    -0.084 Cl
ENDBRANCH  85  87
ENDBRANCH  82  85
ENDBRANCH  77  80
ENDBRANCH  75  76
ENDBRANCH  74  75
ENDBRANCH  73  74
ENDBRANCH   1  73
TORSDOF 18
ENDMDL
MODEL 2
REMARK VINA RESULT:     -11.9      5.287     10.266
REMARK SMILES O=C(NCCCCCCNC(=O)[C@@H]1CSCN1C(=O)c1cccc(Cl)c1)c1ccc(-c2c3nc(c(-c4cccc(S(=O)(=O)[O-])c4F)c4ccc([nH]4)c(-c4cccc(S(=O)(=O)[O-])c4F)c4nc(c(-c5cccc(S(=O)(=O)[O-])c5F)c5ccc2[nH]5)C=C4)C=C3)cc1
REMARK SMILES IDX 6 1 5 2 4 3 3 4 1 5 2 6 27 8 28 9 89 10 29 11 88 12 30 13
REMARK SMILES IDX 31 14 32 15 82 16 33 17 87 18 81 19 83 20 34 21 86 22 80 23
REMARK SMILES IDX 79 24 35 26 67 27 47 28 66 29 48 30 51 31 65 32 84 33 49 34
REMARK SMILES IDX 50 35 64 37 85 38 52 39 36 40 37 41 45 42 38 43 40 44 46 45
REMARK SMILES IDX 39 46 41 47 42 48 43 49 44 50 68 51 69 52 77 53 70 54 72 55
REMARK SMILES IDX 78 56 71 57 73 58 74 59 75 60 76 61 53 62 54 63 62 64 55 65
REMARK SMILES IDX 57 66 63 67 56 68 58 69 59 70 60 71 61 72 7 73 8 74 9 75
REMARK SMILES IDX 10 76 11 77 12 79 13 80 14 81 17 82 15 83 16 84 18 85 19 86
REMARK SMILES IDX 20 87 21 88 26 89 22 90 24 91 23 92 25 93
REMARK H PARENT 3 7 83 25 51 36 10 78
REMARK Flexibility Score: inf
ROOT
ATOM      1  C   UNL A   1      33.862  21.524  24.400  1.00  0.00     0.002 C 
ENDROOT
BRANCH   1   2
ATOM      2  C   UNL A   1      35.119  22.396  24.417  1.00  0.00     0.021 C 
BRANCH   2   3
ATOM      3  C   UNL A   1      35.957  22.265  25.682  1.00  0.00     0.116 C 
BRANCH   3   4
ATOM      4  N   UNL A   1      36.906  21.166  25.591  1.00  0.00    -0.352 N 
ATOM      5  O   UNL A   1      38.928  20.198  25.370  1.00  0.00    -0.269 OA
ATOM      6  C   UNL A   1      38.274  21.180  25.715  1.00  0.00     0.251 C 
ATOM      7  H   UNL A   1      36.510  20.282  25.413  1.00  0.00     0.163 HD
BRANCH   6   8
ATOM      8  C   UNL A   1      38.951  22.382  26.245  1.00  0.00     0.039 A 
ATOM      9  C   UNL A   1      38.543  23.656  25.843  1.00  0.00     0.014 A 
ATOM     10  C   UNL A   1      40.003  22.239  27.154  1.00  0.00     0.014 A 
ATOM     11  C   UNL A   1      39.287  24.769  26.214  1.00  0.00     0.010 A 
ATOM     12  C   UNL A   1      40.688  23.371  27.607  1.00  0.00     0.010 A 
ATOM     13  C   UNL A   1      40.362  24.643  27.109  1.00  0.00    -0.014 A 
BRANCH  13  14
ATOM     14  C   UNL A   1      41.089  25.865  27.540  1.00  0.00     0.031 A 
ATOM     15  C   UNL A   1      42.513  26.118  27.122  1.00  0.00     0.074 A 
ATOM     16  C   UNL A   1      40.440  26.767  28.304  1.00  0.00     0.049 A 
ATOM     17  N   UNL A   1      43.266  27.161  27.365  1.00  0.00    -0.248 NA
ATOM     18  C   UNL A   1      43.186  25.066  26.345  1.00  0.00     0.031 C 
ATOM     19  C   UNL A   1      39.072  26.610  28.809  1.00  0.00     0.029 A 
ATOM     20  N   UNL A   1      40.831  27.990  28.782  1.00  0.00    -0.354 N 
ATOM     21  C   UNL A   1      44.511  26.874  26.817  1.00  0.00     0.074 A 
ATOM     22  C   UNL A   1      44.415  25.553  26.233  1.00  0.00     0.031 C 
ATOM     23  C   UNL A   1      38.726  27.712  29.489  1.00  0.00     0.029 A 
ATOM     24  C   UNL A   1      39.858  28.627  29.518  1.00  0.00     0.049 A 
ATOM     25  H   UNL A   1      41.721  28.376  28.616  1.00  0.00     0.167 HD
ATOM     26  C   UNL A   1      45.625  27.644  26.791  1.00  0.00     0.034 A 
ATOM     27  C   UNL A   1      39.877  29.813  30.154  1.00  0.00     0.034 A 
ATOM     28  C   UNL A   1      45.699  28.974  27.338  1.00  0.00     0.049 A 
ATOM     29  C   UNL A   1      41.115  30.660  30.074  1.00  0.00     0.074 A 
ATOM     30  C   UNL A   1      46.758  29.865  27.292  1.00  0.00     0.029 A 
ATOM     31  N   UNL A   1      44.681  29.602  28.039  1.00  0.00    -0.354 N 
ATOM     32  N   UNL A   1      42.233  30.427  29.433  1.00  0.00    -0.248 NA
ATOM     33  C   UNL A   1      41.081  31.948  30.780  1.00  0.00     0.031 C 
ATOM     34  C   UNL A   1      46.390  31.019  27.991  1.00  0.00     0.029 A 
ATOM     35  C   UNL A   1      45.090  30.863  28.442  1.00  0.00     0.049 A 
ATOM     36  H   UNL A   1      43.798  29.210  28.224  1.00  0.00     0.167 HD
ATOM     37  C   UNL A   1      43.024  31.552  29.627  1.00  0.00     0.074 A 
ATOM     38  C   UNL A   1      42.245  32.475  30.427  1.00  0.00     0.031 C 
ATOM     39  C   UNL A   1      44.286  31.794  29.193  1.00  0.00     0.034 A 
BRANCH  26  40
ATOM     40  C   UNL A   1      46.856  27.082  26.126  1.00  0.00     0.023 A 
ATOM     41  C   UNL A   1      47.034  27.230  24.736  1.00  0.00     0.012 A 
ATOM     42  C   UNL A   1      47.872  26.470  26.889  1.00  0.00     0.148 A 
ATOM     43  C   UNL A   1      48.184  26.749  24.110  1.00  0.00     0.002 A 
ATOM     44  C   UNL A   1      49.035  26.032  26.265  1.00  0.00     0.091 A 
ATOM     45  F   UNL A   1      47.680  26.321  28.207  1.00  0.00    -0.205 F 
ATOM     46  C   UNL A   1      49.187  26.160  24.875  1.00  0.00     0.022 A 
BRANCH  44  47
ATOM     47  S   UNL A   1      50.420  25.337  27.175  1.00  0.00     0.127 S 
ATOM     48  O   UNL A   1      50.781  26.448  28.054  1.00  0.00    -0.237 OA
ATOM     49  O   UNL A   1      49.801  24.199  27.856  1.00  0.00    -0.237 OA
ATOM     50  O   UNL A   1      51.416  24.977  26.176  1.00  0.00    -0.744 OA
ENDBRANCH  44  47
ENDBRANCH  26  40
BRANCH  27  51
ATOM     51  C   UNL A   1      38.661  30.291  30.870  1.00  0.00     0.023 A 
ATOM     52  C   UNL A   1      38.546  30.078  32.257  1.00  0.00     0.012 A 
ATOM     53  C   UNL A   1      37.640  30.985  30.193  1.00  0.00     0.148 A 
ATOM     54  C   UNL A   1      37.419  30.520  32.952  1.00  0.00     0.002 A 
ATOM     55  C   UNL A   1      36.550  31.475  30.901  1.00  0.00     0.091 A 
ATOM     56  F   UNL A   1      37.765  31.167  28.871  1.00  0.00    -0.205 F 
ATOM     57  C   UNL A   1      36.428  31.229  32.277  1.00  0.00     0.022 A 
BRANCH  55  58
ATOM     58  S   UNL A   1      35.297  32.513  30.140  1.00  0.00     0.127 S 
ATOM     59  O   UNL A   1      34.829  31.663  29.049  1.00  0.00    -0.237 OA
ATOM     60  O   UNL A   1      34.345  32.689  31.237  1.00  0.00    -0.237 OA
ATOM     61  O   UNL A   1      35.986  33.733  29.743  1.00  0.00    -0.744 OA
ENDBRANCH  55  58
ENDBRANCH  27  51
BRANCH  39  62
ATOM     62  C   UNL A   1      44.890  33.131  29.534  1.00  0.00     0.023 A 
ATOM     63  C   UNL A   1      45.670  33.278  30.698  1.00  0.00     0.012 A 
ATOM     64  C   UNL A   1      44.726  34.231  28.670  1.00  0.00     0.148 A 
ATOM     65  C   UNL A   1      46.242  34.509  31.018  1.00  0.00     0.002 A 
ATOM     66  C   UNL A   1      45.343  35.439  28.966  1.00  0.00     0.091 A 
ATOM     67  F   UNL A   1      43.962  34.078  27.577  1.00  0.00    -0.205 F 
ATOM     68  C   UNL A   1      46.088  35.585  30.147  1.00  0.00     0.022 A 
BRANCH  66  69
ATOM     69  S   UNL A   1      45.279  36.846  27.851  1.00  0.00     0.127 S 
ATOM     70  O   UNL A   1      43.883  37.262  27.973  1.00  0.00    -0.237 OA
ATOM     71  O   UNL A   1      46.246  37.765  28.452  1.00  0.00    -0.237 OA
ATOM     72  O   UNL A   1      45.669  36.335  26.542  1.00  0.00    -0.744 OA
ENDBRANCH  66  69
ENDBRANCH  39  62
ENDBRANCH  13  14
ENDBRANCH   6   8
ENDBRANCH   3   4
ENDBRANCH   2   3
ENDBRANCH   1   2
BRANCH   1  73
ATOM     73  C   UNL A   1      32.869  21.823  23.268  1.00  0.00     0.002 C 
BRANCH  73  74
ATOM     74  C   UNL A   1      32.561  23.308  23.044  1.00  0.00     0.021 C 
BRANCH  74  75
ATOM     75  C   UNL A   1      31.146  23.710  23.458  1.00  0.00     0.116 C 
BRANCH  75  76
ATOM     76  N   UNL A   1      31.088  24.031  24.864  1.00  0.00    -0.354 N 
ATOM     77  C   UNL A   1      31.671  25.009  25.599  1.00  0.00     0.243 C 
ATOM     78  H   UNL A   1      30.517  23.425  25.388  1.00  0.00     0.163 HD
ATOM     79  O   UNL A   1      31.581  24.859  26.827  1.00  0.00    -0.273 OA
BRANCH  77  80
ATOM     80  C   UNL A   1      32.477  26.214  25.030  1.00  0.00     0.185 C 
ATOM     81  C   UNL A   1      33.472  26.642  26.127  1.00  0.00     0.106 C 
ATOM     82  N   UNL A   1      31.817  27.430  24.534  1.00  0.00    -0.317 N 
ATOM     83  S   UNL A   1      32.990  28.306  26.681  1.00  0.00    -0.138 SA
ATOM     84  C   UNL A   1      31.585  28.418  25.563  1.00  0.00     0.190 C 
BRANCH  82  85
ATOM     85  C   UNL A   1      31.471  27.553  23.195  1.00  0.00     0.255 C 
ATOM     86  O   UNL A   1      32.033  26.932  22.298  1.00  0.00    -0.269 OA
BRANCH  85  87
ATOM     87  C   UNL A   1      30.293  28.377  22.834  1.00  0.00     0.041 A 
ATOM     88  C   UNL A   1      30.422  29.539  22.070  1.00  0.00     0.014 A 
ATOM     89  C   UNL A   1      29.032  27.952  23.262  1.00  0.00     0.034 A 
ATOM     90  C   UNL A   1      29.286  30.302  21.784  1.00  0.00     0.002 A 
ATOM     91  C   UNL A   1      27.908  28.719  22.977  1.00  0.00     0.041 A 
ATOM     92  C   UNL A   1      28.030  29.898  22.246  1.00  0.00     0.020 A 
ATOM     93  Cl  UNL A   1      26.370  28.204  23.551  1.00  0.00    -0.084 Cl
ENDBRANCH  85  87
ENDBRANCH  82  85
ENDBRANCH  77  80
ENDBRANCH  75  76
ENDBRANCH  74  75
ENDBRANCH  73  74
ENDBRANCH   1  73
TORSDOF 18
ENDMDL
MODEL 3
REMARK VINA RESULT:     -11.9      5.199     10.142
REMARK SMILES O=C(NCCCCCCNC(=O)[C@@H]1CSCN1C(=O)c1cccc(Cl)c1)c1ccc(-c2c3nc(c(-c4cccc(S(=O)(=O)[O-])c4F)c4ccc([nH]4)c(-c4cccc(S(=O)(=O)[O-])c4F)c4nc(c(-c5cccc(S(=O)(=O)[O-])c5F)c5ccc2[nH]5)C=C4)C=C3)cc1
REMARK SMILES IDX 6 1 5 2 4 3 3 4 1 5 2 6 27 8 28 9 89 10 29 11 88 12 30 13
REMARK SMILES IDX 31 14 32 15 82 16 33 17 87 18 81 19 83 20 34 21 86 22 80 23
REMARK SMILES IDX 79 24 35 26 67 27 47 28 66 29 48 30 51 31 65 32 84 33 49 34
REMARK SMILES IDX 50 35 64 37 85 38 52 39 36 40 37 41 45 42 38 43 40 44 46 45
REMARK SMILES IDX 39 46 41 47 42 48 43 49 44 50 68 51 69 52 77 53 70 54 72 55
REMARK SMILES IDX 78 56 71 57 73 58 74 59 75 60 76 61 53 62 54 63 62 64 55 65
REMARK SMILES IDX 57 66 63 67 56 68 58 69 59 70 60 71 61 72 7 73 8 74 9 75
REMARK SMILES IDX 10 76 11 77 12 79 13 80 14 81 17 82 15 83 16 84 18 85 19 86
REMARK SMILES IDX 20 87 21 88 26 89 22 90 24 91 23 92 25 93
REMARK H PARENT 3 7 83 25 51 36 10 78
REMARK Flexibility Score: inf
ROOT
ATOM      1  C   UNL A   1      35.026  23.236  25.941  1.00  0.00     0.002 C 
ENDROOT
BRANCH   1   2
ATOM      2  C   UNL A   1      35.732  22.067  25.252  1.00  0.00     0.021 C 
BRANCH   2   3
ATOM      3  C   UNL A   1      37.215  22.295  24.991  1.00  0.00     0.116 C 
BRANCH   3   4
ATOM      4  N   UNL A   1      38.028  21.196  25.492  1.00  0.00    -0.352 N 
ATOM      5  O   UNL A   1      39.890  20.192  26.264  1.00  0.00    -0.269 OA
ATOM      6  C   UNL A   1      39.244  21.228  26.129  1.00  0.00     0.251 C 
ATOM      7  H   UNL A   1      37.651  20.297  25.353  1.00  0.00     0.163 HD
BRANCH   6   8
ATOM      8  C   UNL A   1      39.777  22.513  26.630  1.00  0.00     0.039 A 
ATOM      9  C   UNL A   1      39.270  23.722  26.149  1.00  0.00     0.014 A 
ATOM     10  C   UNL A   1      40.791  22.513  27.591  1.00  0.00     0.014 A 
ATOM     11  C   UNL A   1      39.886  24.918  26.499  1.00  0.00     0.010 A 
ATOM     12  C   UNL A   1      41.342  23.725  28.020  1.00  0.00     0.010 A 
ATOM     13  C   UNL A   1      40.922  24.936  27.446  1.00  0.00    -0.014 A 
BRANCH  13  14
ATOM     14  C   UNL A   1      41.508  26.240  27.850  1.00  0.00     0.031 A 
ATOM     15  C   UNL A   1      42.919  26.613  27.483  1.00  0.00     0.074 A 
ATOM     16  C   UNL A   1      40.739  27.106  28.541  1.00  0.00     0.049 A 
ATOM     17  N   UNL A   1      43.556  27.734  27.709  1.00  0.00    -0.248 NA
ATOM     18  C   UNL A   1      43.726  25.600  26.787  1.00  0.00     0.031 C 
ATOM     19  C   UNL A   1      39.370  26.839  28.994  1.00  0.00     0.029 A 
ATOM     20  N   UNL A   1      40.988  28.382  28.978  1.00  0.00    -0.354 N 
ATOM     21  C   UNL A   1      44.847  27.547  27.230  1.00  0.00     0.074 A 
ATOM     22  C   UNL A   1      44.906  26.199  26.705  1.00  0.00     0.031 C 
ATOM     23  C   UNL A   1      38.888  27.929  29.605  1.00  0.00     0.029 A 
ATOM     24  C   UNL A   1      39.925  28.952  29.640  1.00  0.00     0.049 A 
ATOM     25  H   UNL A   1      41.844  28.845  28.832  1.00  0.00     0.167 HD
ATOM     26  C   UNL A   1      45.883  28.421  27.216  1.00  0.00     0.034 A 
ATOM     27  C   UNL A   1      39.799  30.160  30.218  1.00  0.00     0.034 A 
ATOM     28  C   UNL A   1      45.804  29.774  27.702  1.00  0.00     0.049 A 
ATOM     29  C   UNL A   1      40.953  31.120  30.152  1.00  0.00     0.074 A 
ATOM     30  C   UNL A   1      46.773  30.761  27.660  1.00  0.00     0.029 A 
ATOM     31  N   UNL A   1      44.697  30.329  28.327  1.00  0.00    -0.354 N 
ATOM     32  N   UNL A   1      42.118  30.970  29.572  1.00  0.00    -0.248 NA
ATOM     33  C   UNL A   1      40.762  32.427  30.795  1.00  0.00     0.031 C 
ATOM     34  C   UNL A   1      46.263  31.903  28.287  1.00  0.00     0.029 A 
ATOM     35  C   UNL A   1      44.964  31.640  28.688  1.00  0.00     0.049 A 
ATOM     36  H   UNL A   1      43.848  29.861  28.492  1.00  0.00     0.167 HD
ATOM     37  C   UNL A   1      42.788  32.174  29.747  1.00  0.00     0.074 A 
ATOM     38  C   UNL A   1      41.886  33.050  30.468  1.00  0.00     0.031 C 
ATOM     39  C   UNL A   1      44.040  32.519  29.358  1.00  0.00     0.034 A 
BRANCH  26  40
ATOM     40  C   UNL A   1      47.193  27.954  26.633  1.00  0.00     0.023 A 
ATOM     41  C   UNL A   1      48.206  27.464  27.483  1.00  0.00     0.012 A 
ATOM     42  C   UNL A   1      47.395  27.932  25.238  1.00  0.00     0.148 A 
ATOM     43  C   UNL A   1      49.410  26.994  26.958  1.00  0.00     0.002 A 
ATOM     44  C   UNL A   1      48.581  27.421  24.720  1.00  0.00     0.091 A 
ATOM     45  F   UNL A   1      46.431  28.418  24.444  1.00  0.00    -0.205 F 
ATOM     46  C   UNL A   1      49.593  26.963  25.579  1.00  0.00     0.022 A 
BRANCH  44  47
ATOM     47  S   UNL A   1      48.877  27.261  22.955  1.00  0.00     0.127 S 
ATOM     48  O   UNL A   1      50.338  27.289  22.898  1.00  0.00    -0.237 OA
ATOM     49  O   UNL A   1      48.282  25.957  22.660  1.00  0.00    -0.237 OA
ATOM     50  O   UNL A   1      48.203  28.390  22.331  1.00  0.00    -0.744 OA
ENDBRANCH  44  47
ENDBRANCH  26  40
BRANCH  27  51
ATOM     51  C   UNL A   1      38.511  30.547  30.858  1.00  0.00     0.023 A 
ATOM     52  C   UNL A   1      38.291  30.242  32.214  1.00  0.00     0.012 A 
ATOM     53  C   UNL A   1      37.521  31.246  30.140  1.00  0.00     0.148 A 
ATOM     54  C   UNL A   1      37.094  30.598  32.838  1.00  0.00     0.002 A 
ATOM     55  C   UNL A   1      36.357  31.650  30.783  1.00  0.00     0.091 A 
ATOM     56  F   UNL A   1      37.745  31.516  28.847  1.00  0.00    -0.205 F 
ATOM     57  C   UNL A   1      36.134  31.312  32.126  1.00  0.00     0.022 A 
BRANCH  55  58
ATOM     58  S   UNL A   1      35.129  32.689  29.984  1.00  0.00     0.127 S 
ATOM     59  O   UNL A   1      34.198  32.946  31.079  1.00  0.00    -0.237 OA
ATOM     60  O   UNL A   1      35.931  33.841  29.572  1.00  0.00    -0.237 OA
ATOM     61  O   UNL A   1      34.606  31.897  28.879  1.00  0.00    -0.744 OA
ENDBRANCH  55  58
ENDBRANCH  27  51
BRANCH  39  62
ATOM     62  C   UNL A   1      44.497  33.922  29.661  1.00  0.00     0.023 A 
ATOM     63  C   UNL A   1      45.157  34.204  30.873  1.00  0.00     0.012 A 
ATOM     64  C   UNL A   1      44.314  34.952  28.718  1.00  0.00     0.148 A 
ATOM     65  C   UNL A   1      45.593  35.497  31.159  1.00  0.00     0.002 A 
ATOM     66  C   UNL A   1      44.798  36.226  28.986  1.00  0.00     0.091 A 
ATOM     67  F   UNL A   1      43.663  34.670  27.579  1.00  0.00    -0.205 F 
ATOM     68  C   UNL A   1      45.423  36.504  30.212  1.00  0.00     0.022 A 
BRANCH  66  69
ATOM     69  S   UNL A   1      44.711  37.557  27.782  1.00  0.00     0.127 S 
ATOM     70  O   UNL A   1      45.497  37.011  26.677  1.00  0.00    -0.237 OA
ATOM     71  O   UNL A   1      43.274  37.649  27.522  1.00  0.00    -0.237 OA
ATOM     72  O   UNL A   1      45.280  38.727  28.439  1.00  0.00    -0.744 OA
ENDBRANCH  66  69
ENDBRANCH  39  62
ENDBRANCH  13  14
ENDBRANCH   6   8
ENDBRANCH   3   4
ENDBRANCH   2   3
ENDBRANCH   1   2
BRANCH   1  73
ATOM     73  C   UNL A   1      34.845  24.495  25.080  1.00  0.00     0.002 C 
BRANCH  73  74
ATOM     74  C   UNL A   1      34.133  25.663  25.773  1.00  0.00     0.021 C 
BRANCH  74  75
ATOM     75  C   UNL A   1      33.985  26.901  24.888  1.00  0.00     0.116 C 
BRANCH  75  76
ATOM     76  N   UNL A   1      33.004  27.811  25.430  1.00  0.00    -0.354 N 
ATOM     77  C   UNL A   1      31.920  28.412  24.883  1.00  0.00     0.243 C 
ATOM     78  H   UNL A   1      33.152  28.037  26.376  1.00  0.00     0.163 HD
ATOM     79  O   UNL A   1      31.422  29.312  25.576  1.00  0.00    -0.273 OA
BRANCH  77  80
ATOM     80  C   UNL A   1      31.331  28.113  23.473  1.00  0.00     0.185 C 
ATOM     81  C   UNL A   1      30.512  29.353  23.061  1.00  0.00     0.106 C 
ATOM     82  N   UNL A   1      30.503  26.928  23.207  1.00  0.00    -0.317 N 
ATOM     83  S   UNL A   1      28.767  28.848  22.972  1.00  0.00    -0.138 SA
ATOM     84  C   UNL A   1      29.095  27.145  23.452  1.00  0.00     0.190 C 
BRANCH  82  85
ATOM     85  C   UNL A   1      31.080  25.744  22.770  1.00  0.00     0.255 C 
ATOM     86  O   UNL A   1      31.609  25.622  21.669  1.00  0.00    -0.269 OA
BRANCH  85  87
ATOM     87  C   UNL A   1      31.174  24.604  23.713  1.00  0.00     0.041 A 
ATOM     88  C   UNL A   1      30.720  24.706  25.029  1.00  0.00     0.014 A 
ATOM     89  C   UNL A   1      31.715  23.402  23.246  1.00  0.00     0.034 A 
ATOM     90  C   UNL A   1      30.861  23.614  25.891  1.00  0.00     0.002 A 
ATOM     91  C   UNL A   1      31.856  22.322  24.111  1.00  0.00     0.041 A 
ATOM     92  C   UNL A   1      31.439  22.425  25.435  1.00  0.00     0.020 A 
ATOM     93  Cl  UNL A   1      32.566  20.866  23.531  1.00  0.00    -0.084 Cl
ENDBRANCH  85  87
ENDBRANCH  82  85
ENDBRANCH  77  80
ENDBRANCH  75  76
ENDBRANCH  74  75
ENDBRANCH  73  74
ENDBRANCH   1  73
TORSDOF 18
ENDMDL
