MODEL 1
REMARK VINA RESULT:     -12.3      0.000      0.000
REMARK SMILES O=C(NCCCCCCNC(=O)c1cccc(Nc2ccc([N+](=O)[O-])cc2)c1)c1ccc(-c2c3nc(c(-c4cccc(S(=O)(=O)[O-])c4F)c4ccc([nH]4)c(-c4cccc(S(=O)(=O)[O-])c4F)c4nc(c(-c5cccc(S(=O)(=O)[O-])c5F)c5ccc2[nH]5)C=C4)C=C3)cc1
REMARK SMILES IDX 6 1 5 2 4 3 3 4 1 5 2 6 29 8 30 9 91 10 31 11 90 12 32 13
REMARK SMILES IDX 33 14 34 15 84 16 35 17 89 18 83 19 85 20 36 21 88 22 82 23
REMARK SMILES IDX 81 24 37 26 69 27 49 28 68 29 50 30 53 31 67 32 86 33 51 34
REMARK SMILES IDX 52 35 66 37 87 38 54 39 38 40 39 41 47 42 40 43 42 44 48 45
REMARK SMILES IDX 41 46 43 47 44 48 45 49 46 50 70 51 71 52 79 53 72 54 74 55
REMARK SMILES IDX 80 56 73 57 75 58 76 59 77 60 78 61 55 62 56 63 64 64 57 65
REMARK SMILES IDX 59 66 65 67 58 68 60 69 61 70 62 71 63 72 7 73 8 74 9 75
REMARK SMILES IDX 10 76 11 77 12 79 13 80 14 81 28 82 15 83 17 84 16 85 18 86
REMARK SMILES IDX 19 88 20 89 27 90 21 91 26 92 22 93 23 94 24 95 25 96
REMARK H PARENT 3 7 85 25 53 36 10 78 18 87
REMARK Flexibility Score: inf
ROOT
ATOM      1  C   UNL A   1      31.539  28.587  27.401  1.00  0.00     0.002 C 
ENDROOT
BRANCH   1   2
ATOM      2  C   UNL A   1      31.607  29.884  26.595  1.00  0.00     0.021 C 
BRANCH   2   3
ATOM      3  C   UNL A   1      32.965  30.574  26.588  1.00  0.00     0.116 C 
BRANCH   3   4
ATOM      4  N   UNL A   1      32.877  31.993  26.886  1.00  0.00    -0.352 N 
ATOM      5  O   UNL A   1      33.368  33.917  27.950  1.00  0.00    -0.269 OA
ATOM      6  C   UNL A   1      33.684  32.758  27.695  1.00  0.00     0.251 C 
ATOM      7  H   UNL A   1      32.137  32.473  26.449  1.00  0.00     0.163 HD
BRANCH   6   8
ATOM      8  C   UNL A   1      34.910  32.169  28.279  1.00  0.00     0.039 A 
ATOM      9  C   UNL A   1      34.876  30.918  28.901  1.00  0.00     0.014 A 
ATOM     10  C   UNL A   1      36.111  32.881  28.202  1.00  0.00     0.014 A 
ATOM     11  C   UNL A   1      36.002  30.446  29.567  1.00  0.00     0.010 A 
ATOM     12  C   UNL A   1      37.264  32.364  28.802  1.00  0.00     0.010 A 
ATOM     13  C   UNL A   1      37.213  31.158  29.519  1.00  0.00    -0.014 A 
BRANCH  13  14
ATOM     14  C   UNL A   1      38.423  30.585  30.161  1.00  0.00     0.031 A 
ATOM     15  C   UNL A   1      38.822  30.960  31.561  1.00  0.00     0.074 A 
ATOM     16  C   UNL A   1      39.167  29.705  29.461  1.00  0.00     0.049 A 
ATOM     17  N   UNL A   1      39.824  30.515  32.277  1.00  0.00    -0.248 NA
ATOM     18  C   UNL A   1      38.001  31.970  32.250  1.00  0.00     0.031 C 
ATOM     19  C   UNL A   1      38.907  29.303  28.076  1.00  0.00     0.029 A 
ATOM     20  N   UNL A   1      40.284  28.992  29.809  1.00  0.00    -0.354 N 
ATOM     21  C   UNL A   1      39.779  31.211  33.478  1.00  0.00     0.074 A 
ATOM     22  C   UNL A   1      38.653  32.117  33.395  1.00  0.00     0.031 C 
ATOM     23  C   UNL A   1      39.820  28.396  27.702  1.00  0.00     0.029 A 
ATOM     24  C   UNL A   1      40.755  28.185  28.801  1.00  0.00     0.049 A 
ATOM     25  H   UNL A   1      40.708  29.052  30.696  1.00  0.00     0.167 HD
ATOM     26  C   UNL A   1      40.591  31.092  34.557  1.00  0.00     0.034 A 
ATOM     27  C   UNL A   1      41.827  27.369  28.758  1.00  0.00     0.034 A 
ATOM     28  C   UNL A   1      41.686  30.162  34.649  1.00  0.00     0.049 A 
ATOM     29  C   UNL A   1      42.685  27.232  29.983  1.00  0.00     0.074 A 
ATOM     30  C   UNL A   1      42.522  29.920  35.725  1.00  0.00     0.029 A 
ATOM     31  N   UNL A   1      42.102  29.323  33.626  1.00  0.00    -0.354 N 
ATOM     32  N   UNL A   1      42.541  27.798  31.156  1.00  0.00    -0.248 NA
ATOM     33  C   UNL A   1      43.836  26.325  29.887  1.00  0.00     0.031 C 
ATOM     34  C   UNL A   1      43.453  28.946  35.348  1.00  0.00     0.029 A 
ATOM     35  C   UNL A   1      43.187  28.569  34.041  1.00  0.00     0.049 A 
ATOM     36  H   UNL A   1      41.688  29.272  32.734  1.00  0.00     0.167 HD
ATOM     37  C   UNL A   1      43.569  27.299  31.946  1.00  0.00     0.074 A 
ATOM     38  C   UNL A   1      44.310  26.362  31.125  1.00  0.00     0.031 C 
ATOM     39  C   UNL A   1      43.884  27.605  33.228  1.00  0.00     0.034 A 
BRANCH  26  40
ATOM     40  C   UNL A   1      40.299  31.957  35.757  1.00  0.00     0.023 A 
ATOM     41  C   UNL A   1      41.125  33.066  36.029  1.00  0.00     0.012 A 
ATOM     42  C   UNL A   1      39.169  31.723  36.566  1.00  0.00     0.148 A 
ATOM     43  C   UNL A   1      40.848  33.913  37.101  1.00  0.00     0.002 A 
ATOM     44  C   UNL A   1      38.878  32.593  37.611  1.00  0.00     0.091 A 
ATOM     45  F   UNL A   1      38.406  30.652  36.305  1.00  0.00    -0.205 F 
ATOM     46  C   UNL A   1      39.721  33.683  37.885  1.00  0.00     0.022 A 
BRANCH  44  47
ATOM     47  S   UNL A   1      37.409  32.421  38.631  1.00  0.00     0.127 S 
ATOM     48  O   UNL A   1      37.403  30.984  38.899  1.00  0.00    -0.237 OA
ATOM     49  O   UNL A   1      37.735  33.255  39.790  1.00  0.00    -0.237 OA
ATOM     50  O   UNL A   1      36.303  32.917  37.823  1.00  0.00    -0.744 OA
ENDBRANCH  44  47
ENDBRANCH  26  40
BRANCH  27  51
ATOM     51  C   UNL A   1      42.098  26.577  27.527  1.00  0.00     0.023 A 
ATOM     52  C   UNL A   1      42.712  27.200  26.424  1.00  0.00     0.012 A 
ATOM     53  C   UNL A   1      41.808  25.200  27.466  1.00  0.00     0.148 A 
ATOM     54  C   UNL A   1      43.015  26.469  25.274  1.00  0.00     0.002 A 
ATOM     55  C   UNL A   1      42.166  24.467  26.341  1.00  0.00     0.091 A 
ATOM     56  F   UNL A   1      41.205  24.629  28.518  1.00  0.00    -0.205 F 
ATOM     57  C   UNL A   1      42.756  25.101  25.239  1.00  0.00     0.022 A 
BRANCH  55  58
ATOM     58  S   UNL A   1      42.003  22.679  26.279  1.00  0.00     0.127 S 
ATOM     59  O   UNL A   1      40.553  22.510  26.287  1.00  0.00    -0.237 OA
ATOM     60  O   UNL A   1      42.656  22.355  25.010  1.00  0.00    -0.237 OA
ATOM     61  O   UNL A   1      42.710  22.186  27.454  1.00  0.00    -0.744 OA
ENDBRANCH  55  58
ENDBRANCH  27  51
BRANCH  39  62
ATOM     62  C   UNL A   1      45.074  26.909  33.832  1.00  0.00     0.023 A 
ATOM     63  C   UNL A   1      46.347  27.504  33.741  1.00  0.00     0.012 A 
ATOM     64  C   UNL A   1      44.925  25.698  34.536  1.00  0.00     0.148 A 
ATOM     65  C   UNL A   1      47.460  26.890  34.315  1.00  0.00     0.002 A 
ATOM     66  C   UNL A   1      46.031  25.115  35.143  1.00  0.00     0.091 A 
ATOM     67  F   UNL A   1      43.708  25.135  34.591  1.00  0.00    -0.205 F 
ATOM     68  C   UNL A   1      47.300  25.703  35.024  1.00  0.00     0.022 A 
BRANCH  66  69
ATOM     69  S   UNL A   1      45.895  23.633  36.150  1.00  0.00     0.127 S 
ATOM     70  O   UNL A   1      47.296  23.352  36.457  1.00  0.00    -0.237 OA
ATOM     71  O   UNL A   1      45.103  24.098  37.288  1.00  0.00    -0.237 OA
ATOM     72  O   UNL A   1      45.223  22.647  35.314  1.00  0.00    -0.744 OA
ENDBRANCH  66  69
ENDBRANCH  39  62
ENDBRANCH  13  14
ENDBRANCH   6   8
ENDBRANCH   3   4
ENDBRANCH   2   3
ENDBRANCH   1   2
BRANCH   1  73
ATOM     73  C   UNL A   1      31.568  27.295  26.580  1.00  0.00     0.002 C 
BRANCH  73  74
ATOM     74  C   UNL A   1      30.703  27.287  25.314  1.00  0.00     0.021 C 
BRANCH  74  75
ATOM     75  C   UNL A   1      30.081  25.939  24.955  1.00  0.00     0.116 C 
BRANCH  75  76
ATOM     76  N   UNL A   1      29.765  25.153  26.135  1.00  0.00    -0.352 N 
ATOM     77  C   UNL A   1      30.309  23.970  26.559  1.00  0.00     0.251 C 
ATOM     78  H   UNL A   1      29.058  25.523  26.712  1.00  0.00     0.163 HD
ATOM     79  O   UNL A   1      29.801  23.349  27.487  1.00  0.00    -0.269 OA
BRANCH  77  80
ATOM     80  C   UNL A   1      31.512  23.431  25.896  1.00  0.00     0.041 A 
ATOM     81  C   UNL A   1      32.709  24.141  26.005  1.00  0.00     0.014 A 
ATOM     82  C   UNL A   1      31.445  22.264  25.122  1.00  0.00     0.039 A 
ATOM     83  C   UNL A   1      33.848  23.657  25.373  1.00  0.00     0.003 A 
ATOM     84  C   UNL A   1      32.583  21.769  24.476  1.00  0.00     0.039 A 
ATOM     85  C   UNL A   1      33.784  22.478  24.623  1.00  0.00     0.026 A 
BRANCH  84  86
ATOM     86  N   UNL A   1      32.481  20.580  23.730  1.00  0.00    -0.356 N 
ATOM     87  H   UNL A   1      32.140  20.695  22.814  1.00  0.00     0.167 HD
BRANCH  86  88
ATOM     88  C   UNL A   1      32.788  19.256  24.082  1.00  0.00     0.039 A 
ATOM     89  C   UNL A   1      32.720  18.881  25.433  1.00  0.00     0.033 A 
ATOM     90  C   UNL A   1      33.060  18.271  23.124  1.00  0.00     0.033 A 
ATOM     91  C   UNL A   1      32.881  17.547  25.817  1.00  0.00     0.088 A 
ATOM     92  C   UNL A   1      33.233  16.933  23.494  1.00  0.00     0.088 A 
ATOM     93  C   UNL A   1      33.123  16.574  24.840  1.00  0.00     0.269 A 
BRANCH  93  94
ATOM     94  N   UNL A   1      33.220  15.162  25.230  1.00  0.00     0.062 N 
ATOM     95  O   UNL A   1      32.164  14.526  25.359  1.00  0.00    -0.258 OA
ATOM     96  O   UNL A   1      34.353  14.681  25.379  1.00  0.00    -0.258 OA
ENDBRANCH  93  94
ENDBRANCH  86  88
ENDBRANCH  84  86
ENDBRANCH  77  80
ENDBRANCH  75  76
ENDBRANCH  74  75
ENDBRANCH  73  74
ENDBRANCH   1  73
TORSDOF 19
ENDMDL
MODEL 2
REMARK VINA RESULT:     -12.2      3.210      5.471
REMARK SMILES O=C(NCCCCCCNC(=O)c1cccc(Nc2ccc([N+](=O)[O-])cc2)c1)c1ccc(-c2c3nc(c(-c4cccc(S(=O)(=O)[O-])c4F)c4ccc([nH]4)c(-c4cccc(S(=O)(=O)[O-])c4F)c4nc(c(-c5cccc(S(=O)(=O)[O-])c5F)c5ccc2[nH]5)C=C4)C=C3)cc1
REMARK SMILES IDX 6 1 5 2 4 3 3 4 1 5 2 6 29 8 30 9 91 10 31 11 90 12 32 13
REMARK SMILES IDX 33 14 34 15 84 16 35 17 89 18 83 19 85 20 36 21 88 22 82 23
REMARK SMILES IDX 81 24 37 26 69 27 49 28 68 29 50 30 53 31 67 32 86 33 51 34
REMARK SMILES IDX 52 35 66 37 87 38 54 39 38 40 39 41 47 42 40 43 42 44 48 45
REMARK SMILES IDX 41 46 43 47 44 48 45 49 46 50 70 51 71 52 79 53 72 54 74 55
REMARK SMILES IDX 80 56 73 57 75 58 76 59 77 60 78 61 55 62 56 63 64 64 57 65
REMARK SMILES IDX 59 66 65 67 58 68 60 69 61 70 62 71 63 72 7 73 8 74 9 75
REMARK SMILES IDX 10 76 11 77 12 79 13 80 14 81 28 82 15 83 17 84 16 85 18 86
REMARK SMILES IDX 19 88 20 89 27 90 21 91 26 92 22 93 23 94 24 95 25 96
REMARK H PARENT 3 7 85 25 53 36 10 78 18 87
REMARK Flexibility Score: inf
ROOT
ATOM      1  C   UNL A   1      31.469  30.177  25.614  1.00  0.00     0.002 C 
ENDROOT
BRANCH   1   2
ATOM      2  C   UNL A   1      31.329  31.428  26.481  1.00  0.00     0.021 C 
BRANCH   2   3
ATOM      3  C   UNL A   1      32.641  32.089  26.885  1.00  0.00     0.116 C 
BRANCH   3   4
ATOM      4  N   UNL A   1      32.475  33.479  27.273  1.00  0.00    -0.352 N 
ATOM      5  O   UNL A   1      32.781  35.329  28.522  1.00  0.00    -0.269 OA
ATOM      6  C   UNL A   1      33.160  34.199  28.223  1.00  0.00     0.251 C 
ATOM      7  H   UNL A   1      31.775  33.974  26.788  1.00  0.00     0.163 HD
BRANCH   6   8
ATOM      8  C   UNL A   1      34.330  33.596  28.901  1.00  0.00     0.039 A 
ATOM      9  C   UNL A   1      35.626  34.029  28.610  1.00  0.00     0.014 A 
ATOM     10  C   UNL A   1      34.124  32.582  29.842  1.00  0.00     0.014 A 
ATOM     11  C   UNL A   1      36.717  33.355  29.149  1.00  0.00     0.010 A 
ATOM     12  C   UNL A   1      35.223  31.961  30.445  1.00  0.00     0.010 A 
ATOM     13  C   UNL A   1      36.530  32.319  30.080  1.00  0.00    -0.014 A 
BRANCH  13  14
ATOM     14  C   UNL A   1      37.714  31.681  30.708  1.00  0.00     0.031 A 
ATOM     15  C   UNL A   1      38.117  31.991  32.123  1.00  0.00     0.074 A 
ATOM     16  C   UNL A   1      38.432  30.801  29.981  1.00  0.00     0.049 A 
ATOM     17  N   UNL A   1      39.098  31.485  32.827  1.00  0.00    -0.248 NA
ATOM     18  C   UNL A   1      37.327  33.003  32.843  1.00  0.00     0.031 C 
ATOM     19  C   UNL A   1      38.168  30.459  28.581  1.00  0.00     0.029 A 
ATOM     20  N   UNL A   1      39.521  30.037  30.309  1.00  0.00    -0.354 N 
ATOM     21  C   UNL A   1      39.069  32.138  34.053  1.00  0.00     0.074 A 
ATOM     22  C   UNL A   1      37.977  33.086  33.997  1.00  0.00     0.031 C 
ATOM     23  C   UNL A   1      39.051  29.534  28.178  1.00  0.00     0.029 A 
ATOM     24  C   UNL A   1      39.971  29.251  29.275  1.00  0.00     0.049 A 
ATOM     25  H   UNL A   1      39.941  30.050  31.199  1.00  0.00     0.167 HD
ATOM     26  C   UNL A   1      39.869  31.953  35.131  1.00  0.00     0.034 A 
ATOM     27  C   UNL A   1      41.013  28.400  29.208  1.00  0.00     0.034 A 
ATOM     28  C   UNL A   1      40.930  30.981  35.195  1.00  0.00     0.049 A 
ATOM     29  C   UNL A   1      41.858  28.189  30.432  1.00  0.00     0.074 A 
ATOM     30  C   UNL A   1      41.750  30.672  36.266  1.00  0.00     0.029 A 
ATOM     31  N   UNL A   1      41.324  30.166  34.145  1.00  0.00    -0.354 N 
ATOM     32  N   UNL A   1      41.725  28.716  31.624  1.00  0.00    -0.248 NA
ATOM     33  C   UNL A   1      42.977  27.245  30.309  1.00  0.00     0.031 C 
ATOM     34  C   UNL A   1      42.649  29.680  35.860  1.00  0.00     0.029 A 
ATOM     35  C   UNL A   1      42.379  29.360  34.539  1.00  0.00     0.049 A 
ATOM     36  H   UNL A   1      40.914  30.162  33.250  1.00  0.00     0.167 HD
ATOM     37  C   UNL A   1      42.730  28.153  32.401  1.00  0.00     0.074 A 
ATOM     38  C   UNL A   1      43.443  27.221  31.550  1.00  0.00     0.031 C 
ATOM     39  C   UNL A   1      43.047  28.402  33.695  1.00  0.00     0.034 A 
BRANCH  26  40
ATOM     40  C   UNL A   1      39.599  32.784  36.360  1.00  0.00     0.023 A 
ATOM     41  C   UNL A   1      40.193  34.057  36.480  1.00  0.00     0.012 A 
ATOM     42  C   UNL A   1      38.703  32.344  37.354  1.00  0.00     0.148 A 
ATOM     43  C   UNL A   1      39.921  34.868  37.580  1.00  0.00     0.002 A 
ATOM     44  C   UNL A   1      38.407  33.174  38.431  1.00  0.00     0.091 A 
ATOM     45  F   UNL A   1      38.163  31.123  37.235  1.00  0.00    -0.205 F 
ATOM     46  C   UNL A   1      39.021  34.432  38.549  1.00  0.00     0.022 A 
BRANCH  44  47
ATOM     47  S   UNL A   1      37.206  32.730  39.692  1.00  0.00     0.127 S 
ATOM     48  O   UNL A   1      35.974  32.649  38.909  1.00  0.00    -0.237 OA
ATOM     49  O   UNL A   1      37.713  31.440  40.164  1.00  0.00    -0.237 OA
ATOM     50  O   UNL A   1      37.256  33.797  40.682  1.00  0.00    -0.744 OA
ENDBRANCH  44  47
ENDBRANCH  26  40
BRANCH  27  51
ATOM     51  C   UNL A   1      41.265  27.643  27.950  1.00  0.00     0.023 A 
ATOM     52  C   UNL A   1      41.812  28.311  26.839  1.00  0.00     0.012 A 
ATOM     53  C   UNL A   1      41.023  26.257  27.871  1.00  0.00     0.148 A 
ATOM     54  C   UNL A   1      42.096  27.616  25.663  1.00  0.00     0.002 A 
ATOM     55  C   UNL A   1      41.364  25.561  26.717  1.00  0.00     0.091 A 
ATOM     56  F   UNL A   1      40.484  25.643  28.933  1.00  0.00    -0.205 F 
ATOM     57  C   UNL A   1      41.887  26.240  25.608  1.00  0.00     0.022 A 
BRANCH  55  58
ATOM     58  S   UNL A   1      41.265  23.770  26.624  1.00  0.00     0.127 S 
ATOM     59  O   UNL A   1      42.070  23.488  25.439  1.00  0.00    -0.237 OA
ATOM     60  O   UNL A   1      41.870  23.363  27.892  1.00  0.00    -0.237 OA
ATOM     61  O   UNL A   1      39.844  23.467  26.518  1.00  0.00    -0.744 OA
ENDBRANCH  55  58
ENDBRANCH  27  51
BRANCH  39  62
ATOM     62  C   UNL A   1      44.208  27.643  34.280  1.00  0.00     0.023 A 
ATOM     63  C   UNL A   1      45.515  28.142  34.121  1.00  0.00     0.012 A 
ATOM     64  C   UNL A   1      44.001  26.470  35.032  1.00  0.00     0.148 A 
ATOM     65  C   UNL A   1      46.603  27.470  34.676  1.00  0.00     0.002 A 
ATOM     66  C   UNL A   1      45.086  25.829  35.619  1.00  0.00     0.091 A 
ATOM     67  F   UNL A   1      42.751  25.997  35.151  1.00  0.00    -0.205 F 
ATOM     68  C   UNL A   1      46.388  26.321  35.433  1.00  0.00     0.022 A 
BRANCH  66  69
ATOM     69  S   UNL A   1      44.886  24.395  36.683  1.00  0.00     0.127 S 
ATOM     70  O   UNL A   1      44.233  23.446  35.783  1.00  0.00    -0.237 OA
ATOM     71  O   UNL A   1      46.268  24.061  37.023  1.00  0.00    -0.237 OA
ATOM     72  O   UNL A   1      44.082  24.848  37.810  1.00  0.00    -0.744 OA
ENDBRANCH  66  69
ENDBRANCH  39  62
ENDBRANCH  13  14
ENDBRANCH   6   8
ENDBRANCH   3   4
ENDBRANCH   2   3
ENDBRANCH   1   2
BRANCH   1  73
ATOM     73  C   UNL A   1      32.206  29.000  26.262  1.00  0.00     0.002 C 
BRANCH  73  74
ATOM     74  C   UNL A   1      33.546  28.617  25.624  1.00  0.00     0.021 C 
BRANCH  74  75
ATOM     75  C   UNL A   1      34.042  27.209  25.941  1.00  0.00     0.116 C 
BRANCH  75  76
ATOM     76  N   UNL A   1      34.184  26.398  24.743  1.00  0.00    -0.352 N 
ATOM     77  C   UNL A   1      33.238  25.665  24.077  1.00  0.00     0.251 C 
ATOM     78  H   UNL A   1      35.089  26.372  24.356  1.00  0.00     0.163 HD
ATOM     79  O   UNL A   1      33.567  24.894  23.181  1.00  0.00    -0.269 OA
BRANCH  77  80
ATOM     80  C   UNL A   1      31.814  25.795  24.438  1.00  0.00     0.041 A 
ATOM     81  C   UNL A   1      31.342  25.100  25.553  1.00  0.00     0.014 A 
ATOM     82  C   UNL A   1      30.938  26.551  23.647  1.00  0.00     0.039 A 
ATOM     83  C   UNL A   1      30.000  25.198  25.899  1.00  0.00     0.003 A 
ATOM     84  C   UNL A   1      29.582  26.653  23.981  1.00  0.00     0.039 A 
ATOM     85  C   UNL A   1      29.132  25.975  25.123  1.00  0.00     0.026 A 
BRANCH  84  86
ATOM     86  N   UNL A   1      28.740  27.444  23.177  1.00  0.00    -0.356 N 
ATOM     87  H   UNL A   1      28.110  26.937  22.616  1.00  0.00     0.167 HD
BRANCH  86  88
ATOM     88  C   UNL A   1      28.653  28.839  23.047  1.00  0.00     0.039 A 
ATOM     89  C   UNL A   1      29.668  29.520  22.358  1.00  0.00     0.033 A 
ATOM     90  C   UNL A   1      27.539  29.563  23.491  1.00  0.00     0.033 A 
ATOM     91  C   UNL A   1      29.557  30.886  22.082  1.00  0.00     0.088 A 
ATOM     92  C   UNL A   1      27.419  30.932  23.232  1.00  0.00     0.088 A 
ATOM     93  C   UNL A   1      28.423  31.585  22.510  1.00  0.00     0.269 A 
BRANCH  93  94
ATOM     94  N   UNL A   1      28.268  33.002  22.160  1.00  0.00     0.062 N 
ATOM     95  O   UNL A   1      27.631  33.276  21.132  1.00  0.00    -0.258 OA
ATOM     96  O   UNL A   1      28.757  33.843  22.928  1.00  0.00    -0.258 OA
ENDBRANCH  93  94
ENDBRANCH  86  88
ENDBRANCH  84  86
ENDBRANCH  77  80
ENDBRANCH  75  76
ENDBRANCH  74  75
ENDBRANCH  73  74
ENDBRANCH   1  73
TORSDOF 19
ENDMDL
MODEL 3
REMARK VINA RESULT:     -12.0      4.968      9.638
REMARK SMILES O=C(NCCCCCCNC(=O)c1cccc(Nc2ccc([N+](=O)[O-])cc2)c1)c1ccc(-c2c3nc(c(-c4cccc(S(=O)(=O)[O-])c4F)c4ccc([nH]4)c(-c4cccc(S(=O)(=O)[O-])c4F)c4nc(c(-c5cccc(S(=O)(=O)[O-])c5F)c5ccc2[nH]5)C=C4)C=C3)cc1
REMARK SMILES IDX 6 1 5 2 4 3 3 4 1 5 2 6 29 8 30 9 91 10 31 11 90 12 32 13
REMARK SMILES IDX 33 14 34 15 84 16 35 17 89 18 83 19 85 20 36 21 88 22 82 23
REMARK SMILES IDX 81 24 37 26 69 27 49 28 68 29 50 30 53 31 67 32 86 33 51 34
REMARK SMILES IDX 52 35 66 37 87 38 54 39 38 40 39 41 47 42 40 43 42 44 48 45
REMARK SMILES IDX 41 46 43 47 44 48 45 49 46 50 70 51 71 52 79 53 72 54 74 55
REMARK SMILES IDX 80 56 73 57 75 58 76 59 77 60 78 61 55 62 56 63 64 64 57 65
REMARK SMILES IDX 59 66 65 67 58 68 60 69 61 70 62 71 63 72 7 73 8 74 9 75
REMARK SMILES IDX 10 76 11 77 12 79 13 80 14 81 28 82 15 83 17 84 16 85 18 86
REMARK SMILES IDX 19 88 20 89 27 90 21 91 26 92 22 93 23 94 24 95 25 96
REMARK H PARENT 3 7 85 25 53 36 10 78 18 87
REMARK Flexibility Score: inf
ROOT
ATOM      1  C   UNL A   1      33.805  23.121  26.180  1.00  0.00     0.002 C 
ENDROOT
BRANCH   1   2
ATOM      2  C   UNL A   1      34.808  21.968  26.146  1.00  0.00     0.021 C 
BRANCH   2   3
ATOM      3  C   UNL A   1      36.183  22.320  25.592  1.00  0.00     0.116 C 
BRANCH   3   4
ATOM      4  N   UNL A   1      37.095  21.189  25.589  1.00  0.00    -0.352 N 
ATOM      5  O   UNL A   1      39.086  20.137  25.654  1.00  0.00    -0.269 OA
ATOM      6  C   UNL A   1      38.444  21.166  25.852  1.00  0.00     0.251 C 
ATOM      7  H   UNL A   1      36.691  20.319  25.367  1.00  0.00     0.163 HD
BRANCH   6   8
ATOM      8  C   UNL A   1      39.119  22.389  26.341  1.00  0.00     0.039 A 
ATOM      9  C   UNL A   1      38.686  23.655  25.938  1.00  0.00     0.014 A 
ATOM     10  C   UNL A   1      40.203  22.266  27.216  1.00  0.00     0.014 A 
ATOM     11  C   UNL A   1      39.419  24.783  26.293  1.00  0.00     0.010 A 
ATOM     12  C   UNL A   1      40.888  23.410  27.639  1.00  0.00     0.010 A 
ATOM     13  C   UNL A   1      40.523  24.676  27.155  1.00  0.00    -0.014 A 
BRANCH  13  14
ATOM     14  C   UNL A   1      41.230  25.907  27.591  1.00  0.00     0.031 A 
ATOM     15  C   UNL A   1      42.650  26.184  27.181  1.00  0.00     0.074 A 
ATOM     16  C   UNL A   1      40.568  26.788  28.367  1.00  0.00     0.049 A 
ATOM     17  N   UNL A   1      43.390  27.232  27.443  1.00  0.00    -0.248 NA
ATOM     18  C   UNL A   1      43.336  25.156  26.382  1.00  0.00     0.031 C 
ATOM     19  C   UNL A   1      39.205  26.602  28.871  1.00  0.00     0.029 A 
ATOM     20  N   UNL A   1      40.943  28.007  28.868  1.00  0.00    -0.354 N 
ATOM     21  C   UNL A   1      44.633  26.977  26.878  1.00  0.00     0.074 A 
ATOM     22  C   UNL A   1      44.553  25.669  26.263  1.00  0.00     0.031 C 
ATOM     23  C   UNL A   1      38.847  27.679  29.584  1.00  0.00     0.029 A 
ATOM     24  C   UNL A   1      39.969  28.611  29.627  1.00  0.00     0.049 A 
ATOM     25  H   UNL A   1      41.825  28.412  28.700  1.00  0.00     0.167 HD
ATOM     26  C   UNL A   1      45.734  27.768  26.859  1.00  0.00     0.034 A 
ATOM     27  C   UNL A   1      39.975  29.782  30.294  1.00  0.00     0.034 A 
ATOM     28  C   UNL A   1      45.796  29.084  27.439  1.00  0.00     0.049 A 
ATOM     29  C   UNL A   1      41.197  30.651  30.223  1.00  0.00     0.074 A 
ATOM     30  C   UNL A   1      46.844  29.988  27.412  1.00  0.00     0.029 A 
ATOM     31  N   UNL A   1      44.772  29.684  28.156  1.00  0.00    -0.354 N 
ATOM     32  N   UNL A   1      42.313  30.450  29.565  1.00  0.00    -0.248 NA
ATOM     33  C   UNL A   1      41.151  31.920  30.960  1.00  0.00     0.031 C 
ATOM     34  C   UNL A   1      46.458  31.129  28.124  1.00  0.00     0.029 A 
ATOM     35  C   UNL A   1      45.165  30.942  28.583  1.00  0.00     0.049 A 
ATOM     36  H   UNL A   1      43.895  29.275  28.337  1.00  0.00     0.167 HD
ATOM     37  C   UNL A   1      43.094  31.576  29.792  1.00  0.00     0.074 A 
ATOM     38  C   UNL A   1      42.310  32.469  30.622  1.00  0.00     0.031 C 
ATOM     39  C   UNL A   1      44.355  31.839  29.369  1.00  0.00     0.034 A 
BRANCH  26  40
ATOM     40  C   UNL A   1      46.957  27.255  26.142  1.00  0.00     0.023 A 
ATOM     41  C   UNL A   1      47.100  27.491  24.760  1.00  0.00     0.012 A 
ATOM     42  C   UNL A   1      47.996  26.611  26.843  1.00  0.00     0.148 A 
ATOM     43  C   UNL A   1      48.244  27.073  24.082  1.00  0.00     0.002 A 
ATOM     44  C   UNL A   1      49.151  26.230  26.168  1.00  0.00     0.091 A 
ATOM     45  F   UNL A   1      47.835  26.377  28.154  1.00  0.00    -0.205 F 
ATOM     46  C   UNL A   1      49.272  26.452  24.786  1.00  0.00     0.022 A 
BRANCH  44  47
ATOM     47  S   UNL A   1      50.559  25.490  27.002  1.00  0.00     0.127 S 
ATOM     48  O   UNL A   1      50.983  26.576  27.884  1.00  0.00    -0.237 OA
ATOM     49  O   UNL A   1      49.950  24.350  27.690  1.00  0.00    -0.237 OA
ATOM     50  O   UNL A   1      51.500  25.128  25.950  1.00  0.00    -0.744 OA
ENDBRANCH  44  47
ENDBRANCH  26  40
BRANCH  27  51
ATOM     51  C   UNL A   1      38.755  30.215  31.030  1.00  0.00     0.023 A 
ATOM     52  C   UNL A   1      38.651  29.957  32.410  1.00  0.00     0.012 A 
ATOM     53  C   UNL A   1      37.730  30.933  30.384  1.00  0.00     0.148 A 
ATOM     54  C   UNL A   1      37.537  30.389  33.131  1.00  0.00     0.002 A 
ATOM     55  C   UNL A   1      36.652  31.411  31.120  1.00  0.00     0.091 A 
ATOM     56  F   UNL A   1      37.838  31.151  29.066  1.00  0.00    -0.205 F 
ATOM     57  C   UNL A   1      36.547  31.129  32.490  1.00  0.00     0.022 A 
BRANCH  55  58
ATOM     58  S   UNL A   1      35.415  32.497  30.399  1.00  0.00     0.127 S 
ATOM     59  O   UNL A   1      34.416  32.558  31.462  1.00  0.00    -0.237 OA
ATOM     60  O   UNL A   1      36.174  33.731  30.193  1.00  0.00    -0.237 OA
ATOM     61  O   UNL A   1      34.998  31.842  29.167  1.00  0.00    -0.744 OA
ENDBRANCH  55  58
ENDBRANCH  27  51
BRANCH  39  62
ATOM     62  C   UNL A   1      44.963  33.152  29.782  1.00  0.00     0.023 A 
ATOM     63  C   UNL A   1      45.662  33.240  31.001  1.00  0.00     0.012 A 
ATOM     64  C   UNL A   1      44.893  34.279  28.941  1.00  0.00     0.148 A 
ATOM     65  C   UNL A   1      46.256  34.440  31.393  1.00  0.00     0.002 A 
ATOM     66  C   UNL A   1      45.524  35.459  29.318  1.00  0.00     0.091 A 
ATOM     67  F   UNL A   1      44.202  34.182  27.795  1.00  0.00    -0.205 F 
ATOM     68  C   UNL A   1      46.197  35.544  30.547  1.00  0.00     0.022 A 
BRANCH  66  69
ATOM     69  S   UNL A   1      45.572  36.900  28.246  1.00  0.00     0.127 S 
ATOM     70  O   UNL A   1      46.517  37.764  28.951  1.00  0.00    -0.237 OA
ATOM     71  O   UNL A   1      46.075  36.342  26.991  1.00  0.00    -0.237 OA
ATOM     72  O   UNL A   1      44.201  37.389  28.179  1.00  0.00    -0.744 OA
ENDBRANCH  66  69
ENDBRANCH  39  62
ENDBRANCH  13  14
ENDBRANCH   6   8
ENDBRANCH   3   4
ENDBRANCH   2   3
ENDBRANCH   1   2
BRANCH   1  73
ATOM     73  C   UNL A   1      32.355  22.728  26.478  1.00  0.00     0.002 C 
BRANCH  73  74
ATOM     74  C   UNL A   1      31.466  23.837  27.052  1.00  0.00     0.021 C 
BRANCH  74  75
ATOM     75  C   UNL A   1      31.694  25.228  26.464  1.00  0.00     0.116 C 
BRANCH  75  76
ATOM     76  N   UNL A   1      30.617  25.627  25.574  1.00  0.00    -0.352 N 
ATOM     77  C   UNL A   1      30.520  25.489  24.215  1.00  0.00     0.251 C 
ATOM     78  H   UNL A   1      29.847  26.060  26.010  1.00  0.00     0.163 HD
ATOM     79  O   UNL A   1      29.616  26.043  23.597  1.00  0.00    -0.269 OA
BRANCH  77  80
ATOM     80  C   UNL A   1      31.508  24.673  23.484  1.00  0.00     0.041 A 
ATOM     81  C   UNL A   1      32.698  25.277  23.074  1.00  0.00     0.014 A 
ATOM     82  C   UNL A   1      31.236  23.339  23.153  1.00  0.00     0.039 A 
ATOM     83  C   UNL A   1      33.635  24.528  22.371  1.00  0.00     0.003 A 
ATOM     84  C   UNL A   1      32.167  22.576  22.439  1.00  0.00     0.039 A 
ATOM     85  C   UNL A   1      33.371  23.188  22.065  1.00  0.00     0.026 A 
BRANCH  84  86
ATOM     86  N   UNL A   1      31.868  21.232  22.150  1.00  0.00    -0.356 N 
ATOM     87  H   UNL A   1      31.347  21.093  21.326  1.00  0.00     0.167 HD
BRANCH  86  88
ATOM     88  C   UNL A   1      32.194  20.056  22.845  1.00  0.00     0.039 A 
ATOM     89  C   UNL A   1      32.242  18.844  22.141  1.00  0.00     0.033 A 
ATOM     90  C   UNL A   1      32.572  20.066  24.194  1.00  0.00     0.033 A 
ATOM     91  C   UNL A   1      32.695  17.673  22.756  1.00  0.00     0.088 A 
ATOM     92  C   UNL A   1      33.018  18.901  24.826  1.00  0.00     0.088 A 
ATOM     93  C   UNL A   1      33.095  17.711  24.096  1.00  0.00     0.269 A 
BRANCH  93  94
ATOM     94  N   UNL A   1      33.640  16.501  24.725  1.00  0.00     0.062 N 
ATOM     95  O   UNL A   1      33.275  16.238  25.881  1.00  0.00    -0.258 OA
ATOM     96  O   UNL A   1      34.409  15.798  24.055  1.00  0.00    -0.258 OA
ENDBRANCH  93  94
ENDBRANCH  86  88
ENDBRANCH  84  86
ENDBRANCH  77  80
ENDBRANCH  75  76
ENDBRANCH  74  75
ENDBRANCH  73  74
ENDBRANCH   1  73
TORSDOF 19
ENDMDL
