MODEL 1
REMARK VINA RESULT:     -12.6      0.000      0.000
REMARK SMILES O=C(CNC(=O)N1CC(NCCCCCCNC(=O)c2ccc(-c3c4nc(c(-c5cccc(S(=O)(=O)[O-])c5F)c5ccc([nH]5)c(-c5cccc(S(=O)(=O)[O-])c5F)c5nc(c(-c6cccc(S(=O)(=O)[O-])c6F)c6ccc3[nH]6)C=C5)C=C4)cc2)=[NH+]c2ccccc21)N[C@H](C(=O)[O-])c1ccccc1
REMARK SMILES IDX 13 1 12 2 11 3 10 4 7 5 8 6 89 7 9 8 84 9 88 10 83 11 85 12
REMARK SMILES IDX 87 13 86 16 5 17 4 18 6 20 3 21 2 22 1 23 90 24 91 26 95 27
REMARK SMILES IDX 96 28 100 29 97 30 99 31 98 32 92 33 93 34 94 35 14 36 15 37
REMARK SMILES IDX 16 38 17 39 18 40 19 42 20 43 21 44 82 45 22 46 81 47 23 48
REMARK SMILES IDX 24 49 25 50 75 51 26 52 80 53 74 54 76 55 27 56 79 57 73 58
REMARK SMILES IDX 72 59 28 61 60 62 40 63 59 64 41 65 44 66 58 67 77 68 42 69
REMARK SMILES IDX 43 70 57 72 78 73 45 74 29 75 30 76 38 77 31 78 33 79 39 80
REMARK SMILES IDX 32 81 34 82 35 83 36 84 37 85 61 86 62 87 70 88 63 89 65 90
REMARK SMILES IDX 71 91 64 92 66 93 67 94 68 95 69 96 46 97 47 98 55 99 48 100
REMARK SMILES IDX 50 101 56 102 49 103 51 104 52 105 53 106 54 107
REMARK H PARENT 10 14 83 15 4 19 90 25 17 41 76 60 44 71
REMARK Flexibility Score: inf
ROOT
ATOM      1  C   UNL A   1      31.846  29.856  25.894  1.00  0.00     0.004 C 
ENDROOT
BRANCH   1   2
ATOM      2  C   UNL A   1      31.675  28.907  24.701  1.00  0.00     0.046 C 
BRANCH   2   3
ATOM      3  C   UNL A   1      31.270  27.481  25.066  1.00  0.00     0.233 C 
BRANCH   3   4
ATOM      4  N   UNL A   1      32.387  26.762  25.630  1.00  0.00    -0.277 N 
ATOM      5  N   UNL A   1      33.794  24.575  23.047  1.00  0.00    -0.278 N 
ATOM      6  C   UNL A   1      33.352  25.899  23.449  1.00  0.00     0.255 C 
ATOM      7  C   UNL A   1      34.957  24.124  23.719  1.00  0.00     0.093 A 
ATOM      8  C   UNL A   1      33.313  25.984  24.981  1.00  0.00     0.268 C 
ATOM      9  C   UNL A   1      35.120  24.523  25.060  1.00  0.00     0.148 A 
ATOM     10  C   UNL A   1      35.892  23.281  23.107  1.00  0.00     0.031 A 
ATOM     11  N   UNL A   1      34.193  25.358  25.721  1.00  0.00    -0.241 N 
ATOM     12  C   UNL A   1      36.176  23.982  25.796  1.00  0.00     0.054 A 
ATOM     13  C   UNL A   1      36.956  22.771  23.852  1.00  0.00     0.002 A 
ATOM     14  H   UNL A   1      32.498  26.839  26.605  1.00  0.00     0.304 HD
ATOM     15  H   UNL A   1      34.207  25.463  26.699  1.00  0.00     0.312 HD
ATOM     16  C   UNL A   1      37.084  23.103  25.200  1.00  0.00     0.005 A 
BRANCH   5  17
ATOM     17  C   UNL A   1      33.078  23.919  22.082  1.00  0.00     0.323 C 
ATOM     18  N   UNL A   1      31.909  23.302  22.394  1.00  0.00    -0.329 N 
ATOM     19  H   UNL A   1      31.563  22.703  21.693  1.00  0.00     0.165 HD
ATOM     20  O   UNL A   1      33.403  23.948  20.894  1.00  0.00    -0.248 OA
BRANCH  18  21
ATOM     21  C   UNL A   1      31.077  23.378  23.594  1.00  0.00     0.218 C 
BRANCH  21  22
ATOM     22  C   UNL A   1      31.376  22.407  24.734  1.00  0.00     0.240 C 
ATOM     23  O   UNL A   1      30.910  22.621  25.854  1.00  0.00    -0.273 OA
ATOM     24  N   UNL A   1      32.071  21.273  24.389  1.00  0.00    -0.342 N 
ATOM     25  H   UNL A   1      32.242  21.062  23.443  1.00  0.00     0.164 HD
BRANCH  24  26
ATOM     26  C   UNL A   1      32.559  20.375  25.455  1.00  0.00     0.158 C 
BRANCH  26  27
ATOM     27  C   UNL A   1      32.784  18.930  24.992  1.00  0.00    -0.020 A 
ATOM     28  C   UNL A   1      33.006  18.565  23.654  1.00  0.00     0.006 A 
ATOM     29  C   UNL A   1      32.736  17.893  25.944  1.00  0.00     0.006 A 
ATOM     30  C   UNL A   1      33.210  17.226  23.292  1.00  0.00     0.000 A 
ATOM     31  C   UNL A   1      32.948  16.558  25.585  1.00  0.00     0.000 A 
ATOM     32  C   UNL A   1      33.187  16.225  24.257  1.00  0.00     0.000 A 
ENDBRANCH  26  27
BRANCH  26  33
ATOM     33  C   UNL A   1      33.878  20.934  26.136  1.00  0.00     0.068 C 
ATOM     34  O   UNL A   1      33.711  21.585  27.213  1.00  0.00    -0.548 OA
ATOM     35  O   UNL A   1      34.958  20.687  25.510  1.00  0.00    -0.548 OA
ENDBRANCH  26  33
ENDBRANCH  24  26
ENDBRANCH  21  22
ENDBRANCH  18  21
ENDBRANCH   5  17
ENDBRANCH   3   4
ENDBRANCH   2   3
ENDBRANCH   1   2
BRANCH   1  36
ATOM     36  C   UNL A   1      31.170  31.223  25.746  1.00  0.00     0.002 C 
BRANCH  36  37
ATOM     37  C   UNL A   1      31.332  32.164  26.944  1.00  0.00     0.021 C 
BRANCH  37  38
ATOM     38  C   UNL A   1      32.689  32.855  27.039  1.00  0.00     0.116 C 
BRANCH  38  39
ATOM     39  N   UNL A   1      32.585  34.185  27.622  1.00  0.00    -0.352 N 
ATOM     40  C   UNL A   1      33.228  34.718  28.709  1.00  0.00     0.251 C 
ATOM     41  H   UNL A   1      31.960  34.794  27.166  1.00  0.00     0.163 HD
ATOM     42  O   UNL A   1      32.851  35.796  29.174  1.00  0.00    -0.269 OA
BRANCH  40  43
ATOM     43  C   UNL A   1      34.357  34.003  29.343  1.00  0.00     0.039 A 
ATOM     44  C   UNL A   1      35.662  34.357  28.991  1.00  0.00     0.014 A 
ATOM     45  C   UNL A   1      34.140  32.971  30.261  1.00  0.00     0.014 A 
ATOM     46  C   UNL A   1      36.745  33.713  29.595  1.00  0.00     0.010 A 
ATOM     47  C   UNL A   1      35.220  32.385  30.920  1.00  0.00     0.010 A 
ATOM     48  C   UNL A   1      36.534  32.743  30.589  1.00  0.00    -0.014 A 
BRANCH  48  49
ATOM     49  C   UNL A   1      37.682  32.115  31.296  1.00  0.00     0.031 A 
ATOM     50  C   UNL A   1      38.455  30.987  30.666  1.00  0.00     0.074 A 
ATOM     51  C   UNL A   1      37.990  32.521  32.545  1.00  0.00     0.049 A 
ATOM     52  N   UNL A   1      39.485  30.331  31.136  1.00  0.00    -0.248 NA
ATOM     53  C   UNL A   1      37.997  30.515  29.349  1.00  0.00     0.031 C 
ATOM     54  C   UNL A   1      37.261  33.539  33.306  1.00  0.00     0.029 A 
ATOM     55  N   UNL A   1      38.981  32.113  33.402  1.00  0.00    -0.354 N 
ATOM     56  C   UNL A   1      39.777  29.351  30.194  1.00  0.00     0.074 A 
ATOM     57  C   UNL A   1      38.794  29.476  29.141  1.00  0.00     0.031 C 
ATOM     58  C   UNL A   1      37.834  33.683  34.511  1.00  0.00     0.029 A 
ATOM     59  C   UNL A   1      38.951  32.750  34.621  1.00  0.00     0.049 A 
ATOM     60  H   UNL A   1      39.648  31.429  33.169  1.00  0.00     0.167 HD
ATOM     61  C   UNL A   1      40.787  28.447  30.191  1.00  0.00     0.034 A 
ATOM     62  C   UNL A   1      39.733  32.600  35.709  1.00  0.00     0.034 A 
ATOM     63  C   UNL A   1      41.783  28.347  31.225  1.00  0.00     0.049 A 
ATOM     64  C   UNL A   1      40.879  31.628  35.658  1.00  0.00     0.074 A 
ATOM     65  C   UNL A   1      42.902  27.534  31.266  1.00  0.00     0.029 A 
ATOM     66  N   UNL A   1      41.773  29.069  32.409  1.00  0.00    -0.354 N 
ATOM     67  N   UNL A   1      41.251  30.839  34.679  1.00  0.00    -0.248 NA
ATOM     68  C   UNL A   1      41.740  31.554  36.847  1.00  0.00     0.031 C 
ATOM     69  C   UNL A   1      43.550  27.740  32.489  1.00  0.00     0.029 A 
ATOM     70  C   UNL A   1      42.856  28.710  33.194  1.00  0.00     0.049 A 
ATOM     71  H   UNL A   1      41.095  29.739  32.655  1.00  0.00     0.167 HD
ATOM     72  C   UNL A   1      42.404  30.200  35.121  1.00  0.00     0.074 A 
ATOM     73  C   UNL A   1      42.684  30.717  36.444  1.00  0.00     0.031 C 
ATOM     74  C   UNL A   1      43.152  29.260  34.492  1.00  0.00     0.034 A 
BRANCH  61  75
ATOM     75  C   UNL A   1      40.892  27.518  29.007  1.00  0.00     0.023 A 
ATOM     76  C   UNL A   1      40.018  26.416  28.903  1.00  0.00     0.012 A 
ATOM     77  C   UNL A   1      41.809  27.769  27.967  1.00  0.00     0.148 A 
ATOM     78  C   UNL A   1      40.083  25.555  27.808  1.00  0.00     0.002 A 
ATOM     79  C   UNL A   1      41.834  26.936  26.854  1.00  0.00     0.091 A 
ATOM     80  F   UNL A   1      42.644  28.810  28.088  1.00  0.00    -0.205 F 
ATOM     81  C   UNL A   1      40.983  25.821  26.780  1.00  0.00     0.022 A 
BRANCH  79  82
ATOM     82  S   UNL A   1      42.883  27.249  25.430  1.00  0.00     0.127 S 
ATOM     83  O   UNL A   1      42.806  25.974  24.719  1.00  0.00    -0.237 OA
ATOM     84  O   UNL A   1      42.186  28.356  24.773  1.00  0.00    -0.237 OA
ATOM     85  O   UNL A   1      44.194  27.592  25.963  1.00  0.00    -0.744 OA
ENDBRANCH  79  82
ENDBRANCH  61  75
BRANCH  62  86
ATOM     86  C   UNL A   1      39.496  33.445  36.914  1.00  0.00     0.023 A 
ATOM     87  C   UNL A   1      39.968  34.772  36.935  1.00  0.00     0.012 A 
ATOM     88  C   UNL A   1      38.782  32.952  38.023  1.00  0.00     0.148 A 
ATOM     89  C   UNL A   1      39.762  35.583  38.053  1.00  0.00     0.002 A 
ATOM     90  C   UNL A   1      38.531  33.782  39.109  1.00  0.00     0.091 A 
ATOM     91  F   UNL A   1      38.349  31.684  37.987  1.00  0.00    -0.205 F 
ATOM     92  C   UNL A   1      39.036  35.092  39.133  1.00  0.00     0.022 A 
BRANCH  90  93
ATOM     93  S   UNL A   1      37.495  33.282  40.488  1.00  0.00     0.127 S 
ATOM     94  O   UNL A   1      38.274  32.187  41.064  1.00  0.00    -0.237 OA
ATOM     95  O   UNL A   1      37.462  34.503  41.297  1.00  0.00    -0.237 OA
ATOM     96  O   UNL A   1      36.215  32.910  39.907  1.00  0.00    -0.744 OA
ENDBRANCH  90  93
ENDBRANCH  62  86
BRANCH  74  97
ATOM     97  C   UNL A   1      44.371  28.743  35.215  1.00  0.00     0.023 A 
ATOM     98  C   UNL A   1      45.648  29.244  34.889  1.00  0.00     0.012 A 
ATOM     99  C   UNL A   1      44.247  27.797  36.253  1.00  0.00     0.148 A 
ATOM    100  C   UNL A   1      46.783  28.780  35.551  1.00  0.00     0.002 A 
ATOM    101  C   UNL A   1      45.378  27.378  36.944  1.00  0.00     0.091 A 
ATOM    102  F   UNL A   1      43.029  27.316  36.540  1.00  0.00    -0.205 F 
ATOM    103  C   UNL A   1      46.649  27.856  36.585  1.00  0.00     0.022 A 
BRANCH 101 104
ATOM    104  S   UNL A   1      45.289  26.265  38.351  1.00  0.00     0.127 S 
ATOM    105  O   UNL A   1      43.935  26.514  38.844  1.00  0.00    -0.237 OA
ATOM    106  O   UNL A   1      45.477  24.955  37.726  1.00  0.00    -0.237 OA
ATOM    107  O   UNL A   1      46.364  26.664  39.249  1.00  0.00    -0.744 OA
ENDBRANCH 101 104
ENDBRANCH  74  97
ENDBRANCH  48  49
ENDBRANCH  40  43
ENDBRANCH  38  39
ENDBRANCH  37  38
ENDBRANCH  36  37
ENDBRANCH   1  36
TORSDOF 21
ENDMDL
MODEL 2
REMARK VINA RESULT:     -12.1      1.414      3.337
REMARK SMILES O=C(CNC(=O)N1CC(NCCCCCCNC(=O)c2ccc(-c3c4nc(c(-c5cccc(S(=O)(=O)[O-])c5F)c5ccc([nH]5)c(-c5cccc(S(=O)(=O)[O-])c5F)c5nc(c(-c6cccc(S(=O)(=O)[O-])c6F)c6ccc3[nH]6)C=C5)C=C4)cc2)=[NH+]c2ccccc21)N[C@H](C(=O)[O-])c1ccccc1
REMARK SMILES IDX 13 1 12 2 11 3 10 4 7 5 8 6 89 7 9 8 84 9 88 10 83 11 85 12
REMARK SMILES IDX 87 13 86 16 5 17 4 18 6 20 3 21 2 22 1 23 90 24 91 26 95 27
REMARK SMILES IDX 96 28 100 29 97 30 99 31 98 32 92 33 93 34 94 35 14 36 15 37
REMARK SMILES IDX 16 38 17 39 18 40 19 42 20 43 21 44 82 45 22 46 81 47 23 48
REMARK SMILES IDX 24 49 25 50 75 51 26 52 80 53 74 54 76 55 27 56 79 57 73 58
REMARK SMILES IDX 72 59 28 61 60 62 40 63 59 64 41 65 44 66 58 67 77 68 42 69
REMARK SMILES IDX 43 70 57 72 78 73 45 74 29 75 30 76 38 77 31 78 33 79 39 80
REMARK SMILES IDX 32 81 34 82 35 83 36 84 37 85 61 86 62 87 70 88 63 89 65 90
REMARK SMILES IDX 71 91 64 92 66 93 67 94 68 95 69 96 46 97 47 98 55 99 48 100
REMARK SMILES IDX 50 101 56 102 49 103 51 104 52 105 53 106 54 107
REMARK H PARENT 10 14 83 15 4 19 90 25 17 41 76 60 44 71
REMARK Flexibility Score: inf
ROOT
ATOM      1  C   UNL A   1      34.915  30.420  27.419  1.00  0.00     0.004 C 
ENDROOT
BRANCH   1   2
ATOM      2  C   UNL A   1      34.200  29.071  27.264  1.00  0.00     0.046 C 
BRANCH   2   3
ATOM      3  C   UNL A   1      34.409  28.384  25.916  1.00  0.00     0.233 C 
BRANCH   3   4
ATOM      4  N   UNL A   1      33.648  29.044  24.883  1.00  0.00    -0.277 N 
ATOM      5  N   UNL A   1      30.382  27.402  24.607  1.00  0.00    -0.278 N 
ATOM      6  C   UNL A   1      31.393  28.028  25.443  1.00  0.00     0.255 C 
ATOM      7  C   UNL A   1      29.740  28.292  23.713  1.00  0.00     0.093 A 
ATOM      8  C   UNL A   1      32.321  28.885  24.572  1.00  0.00     0.268 C 
ATOM      9  C   UNL A   1      30.514  29.342  23.181  1.00  0.00     0.148 A 
ATOM     10  C   UNL A   1      28.404  28.126  23.326  1.00  0.00     0.031 A 
ATOM     11  N   UNL A   1      31.868  29.536  23.530  1.00  0.00    -0.241 N 
ATOM     12  C   UNL A   1      29.957  30.150  22.188  1.00  0.00     0.054 A 
ATOM     13  C   UNL A   1      27.856  28.960  22.352  1.00  0.00     0.002 A 
ATOM     14  H   UNL A   1      34.145  29.691  24.332  1.00  0.00     0.304 HD
ATOM     15  H   UNL A   1      32.449  30.136  23.009  1.00  0.00     0.312 HD
ATOM     16  C   UNL A   1      28.639  29.956  21.767  1.00  0.00     0.005 A 
BRANCH   5  17
ATOM     17  C   UNL A   1      30.149  26.063  24.769  1.00  0.00     0.323 C 
ATOM     18  N   UNL A   1      30.726  25.159  23.936  1.00  0.00    -0.329 N 
ATOM     19  H   UNL A   1      30.358  24.248  24.003  1.00  0.00     0.165 HD
ATOM     20  O   UNL A   1      29.500  25.623  25.720  1.00  0.00    -0.248 OA
BRANCH  18  21
ATOM     21  C   UNL A   1      31.803  25.310  22.959  1.00  0.00     0.218 C 
BRANCH  21  22
ATOM     22  C   UNL A   1      32.882  24.231  22.910  1.00  0.00     0.240 C 
ATOM     23  O   UNL A   1      33.581  24.113  21.903  1.00  0.00    -0.273 OA
ATOM     24  N   UNL A   1      33.074  23.523  24.072  1.00  0.00    -0.342 N 
ATOM     25  H   UNL A   1      32.623  23.797  24.903  1.00  0.00     0.164 HD
BRANCH  24  26
ATOM     26  C   UNL A   1      33.965  22.345  24.059  1.00  0.00     0.158 C 
BRANCH  26  27
ATOM     27  C   UNL A   1      35.342  22.603  24.684  1.00  0.00    -0.020 A 
ATOM     28  C   UNL A   1      35.663  23.758  25.414  1.00  0.00     0.006 A 
ATOM     29  C   UNL A   1      36.364  21.652  24.498  1.00  0.00     0.006 A 
ATOM     30  C   UNL A   1      36.939  23.936  25.966  1.00  0.00     0.000 A 
ATOM     31  C   UNL A   1      37.635  21.824  25.055  1.00  0.00     0.000 A 
ATOM     32  C   UNL A   1      37.923  22.967  25.792  1.00  0.00     0.000 A 
ENDBRANCH  26  27
BRANCH  26  33
ATOM     33  C   UNL A   1      33.286  21.088  24.749  1.00  0.00     0.068 C 
ATOM     34  O   UNL A   1      32.761  21.299  25.885  1.00  0.00    -0.548 OA
ATOM     35  O   UNL A   1      33.368  20.000  24.095  1.00  0.00    -0.548 OA
ENDBRANCH  26  33
ENDBRANCH  24  26
ENDBRANCH  21  22
ENDBRANCH  18  21
ENDBRANCH   5  17
ENDBRANCH   3   4
ENDBRANCH   2   3
ENDBRANCH   1   2
BRANCH   1  36
ATOM     36  C   UNL A   1      34.120  31.500  28.160  1.00  0.00     0.002 C 
BRANCH  36  37
ATOM     37  C   UNL A   1      33.746  32.726  27.321  1.00  0.00     0.021 C 
BRANCH  37  38
ATOM     38  C   UNL A   1      32.403  33.359  27.673  1.00  0.00     0.116 C 
BRANCH  38  39
ATOM     39  N   UNL A   1      32.539  34.762  28.038  1.00  0.00    -0.352 N 
ATOM     40  C   UNL A   1      33.349  35.349  28.974  1.00  0.00     0.251 C 
ATOM     41  H   UNL A   1      31.962  35.382  27.536  1.00  0.00     0.163 HD
ATOM     42  O   UNL A   1      33.169  36.530  29.284  1.00  0.00    -0.269 OA
BRANCH  40  43
ATOM     43  C   UNL A   1      34.425  34.576  29.633  1.00  0.00     0.039 A 
ATOM     44  C   UNL A   1      35.700  34.574  29.062  1.00  0.00     0.014 A 
ATOM     45  C   UNL A   1      34.180  33.833  30.792  1.00  0.00     0.014 A 
ATOM     46  C   UNL A   1      36.738  33.872  29.680  1.00  0.00     0.010 A 
ATOM     47  C   UNL A   1      35.234  33.199  31.449  1.00  0.00     0.010 A 
ATOM     48  C   UNL A   1      36.522  33.203  30.896  1.00  0.00    -0.014 A 
BRANCH  48  49
ATOM     49  C   UNL A   1      37.642  32.526  31.602  1.00  0.00     0.031 A 
ATOM     50  C   UNL A   1      38.374  31.375  30.964  1.00  0.00     0.074 A 
ATOM     51  C   UNL A   1      37.960  32.908  32.856  1.00  0.00     0.049 A 
ATOM     52  N   UNL A   1      39.377  30.676  31.431  1.00  0.00    -0.248 NA
ATOM     53  C   UNL A   1      37.904  30.933  29.640  1.00  0.00     0.031 C 
ATOM     54  C   UNL A   1      37.267  33.946  33.623  1.00  0.00     0.029 A 
ATOM     55  N   UNL A   1      38.931  32.454  33.713  1.00  0.00    -0.354 N 
ATOM     56  C   UNL A   1      39.635  29.695  30.481  1.00  0.00     0.074 A 
ATOM     57  C   UNL A   1      38.662  29.867  29.425  1.00  0.00     0.031 C 
ATOM     58  C   UNL A   1      37.840  34.056  34.832  1.00  0.00     0.029 A 
ATOM     59  C   UNL A   1      38.921  33.080  34.938  1.00  0.00     0.049 A 
ATOM     60  H   UNL A   1      39.573  31.747  33.476  1.00  0.00     0.167 HD
ATOM     61  C   UNL A   1      40.609  28.752  30.473  1.00  0.00     0.034 A 
ATOM     62  C   UNL A   1      39.691  32.891  36.026  1.00  0.00     0.034 A 
ATOM     63  C   UNL A   1      41.596  28.605  31.510  1.00  0.00     0.049 A 
ATOM     64  C   UNL A   1      40.800  31.876  35.971  1.00  0.00     0.074 A 
ATOM     65  C   UNL A   1      42.684  27.749  31.548  1.00  0.00     0.029 A 
ATOM     66  N   UNL A   1      41.609  29.315  32.701  1.00  0.00    -0.354 N 
ATOM     67  N   UNL A   1      41.145  31.082  34.986  1.00  0.00    -0.248 NA
ATOM     68  C   UNL A   1      41.652  31.758  37.163  1.00  0.00     0.031 C 
ATOM     69  C   UNL A   1      43.334  27.918  32.775  1.00  0.00     0.029 A 
ATOM     70  C   UNL A   1      42.674  28.908  33.487  1.00  0.00     0.049 A 
ATOM     71  H   UNL A   1      40.956  30.008  32.951  1.00  0.00     0.167 HD
ATOM     72  C   UNL A   1      42.271  30.396  35.426  1.00  0.00     0.074 A 
ATOM     73  C   UNL A   1      42.566  30.889  36.756  1.00  0.00     0.031 C 
ATOM     74  C   UNL A   1      42.986  29.433  34.792  1.00  0.00     0.034 A 
BRANCH  61  75
ATOM     75  C   UNL A   1      40.684  27.831  29.281  1.00  0.00     0.023 A 
ATOM     76  C   UNL A   1      39.822  26.717  29.203  1.00  0.00     0.012 A 
ATOM     77  C   UNL A   1      41.558  28.101  28.209  1.00  0.00     0.148 A 
ATOM     78  C   UNL A   1      39.859  25.863  28.101  1.00  0.00     0.002 A 
ATOM     79  C   UNL A   1      41.554  27.274  27.092  1.00  0.00     0.091 A 
ATOM     80  F   UNL A   1      42.382  29.153  28.305  1.00  0.00    -0.205 F 
ATOM     81  C   UNL A   1      40.716  26.147  27.043  1.00  0.00     0.022 A 
BRANCH  79  82
ATOM     82  S   UNL A   1      42.545  27.609  25.632  1.00  0.00     0.127 S 
ATOM     83  O   UNL A   1      41.976  28.875  25.171  1.00  0.00    -0.237 OA
ATOM     84  O   UNL A   1      43.892  27.717  26.194  1.00  0.00    -0.237 OA
ATOM     85  O   UNL A   1      42.350  26.473  24.743  1.00  0.00    -0.744 OA
ENDBRANCH  79  82
ENDBRANCH  61  75
BRANCH  62  86
ATOM     86  C   UNL A   1      39.482  33.732  37.239  1.00  0.00     0.023 A 
ATOM     87  C   UNL A   1      39.960  35.057  37.255  1.00  0.00     0.012 A 
ATOM     88  C   UNL A   1      38.787  33.238  38.361  1.00  0.00     0.148 A 
ATOM     89  C   UNL A   1      39.780  35.865  38.379  1.00  0.00     0.002 A 
ATOM     90  C   UNL A   1      38.562  34.067  39.453  1.00  0.00     0.091 A 
ATOM     91  F   UNL A   1      38.349  31.973  38.329  1.00  0.00    -0.205 F 
ATOM     92  C   UNL A   1      39.073  35.374  39.472  1.00  0.00     0.022 A 
BRANCH  90  93
ATOM     93  S   UNL A   1      37.550  33.566  40.851  1.00  0.00     0.127 S 
ATOM     94  O   UNL A   1      37.363  34.835  41.554  1.00  0.00    -0.237 OA
ATOM     95  O   UNL A   1      36.351  33.051  40.186  1.00  0.00    -0.237 OA
ATOM     96  O   UNL A   1      38.325  32.559  41.559  1.00  0.00    -0.744 OA
ENDBRANCH  90  93
ENDBRANCH  62  86
BRANCH  74  97
ATOM     97  C   UNL A   1      44.181  28.864  35.514  1.00  0.00     0.023 A 
ATOM     98  C   UNL A   1      45.462  29.410  35.295  1.00  0.00     0.012 A 
ATOM     99  C   UNL A   1      44.028  27.819  36.449  1.00  0.00     0.148 A 
ATOM    100  C   UNL A   1      46.576  28.897  35.958  1.00  0.00     0.002 A 
ATOM    101  C   UNL A   1      45.136  27.349  37.145  1.00  0.00     0.091 A 
ATOM    102  F   UNL A   1      42.807  27.298  36.633  1.00  0.00    -0.205 F 
ATOM    103  C   UNL A   1      46.412  27.876  36.891  1.00  0.00     0.022 A 
BRANCH 101 104
ATOM    104  S   UNL A   1      45.004  26.102  38.432  1.00  0.00     0.127 S 
ATOM    105  O   UNL A   1      44.079  26.737  39.369  1.00  0.00    -0.237 OA
ATOM    106  O   UNL A   1      44.447  24.960  37.706  1.00  0.00    -0.237 OA
ATOM    107  O   UNL A   1      46.358  25.896  38.931  1.00  0.00    -0.744 OA
ENDBRANCH 101 104
ENDBRANCH  74  97
ENDBRANCH  48  49
ENDBRANCH  40  43
ENDBRANCH  38  39
ENDBRANCH  37  38
ENDBRANCH  36  37
ENDBRANCH   1  36
TORSDOF 21
ENDMDL
MODEL 3
REMARK VINA RESULT:     -11.9      0.805      7.349
REMARK SMILES O=C(CNC(=O)N1CC(NCCCCCCNC(=O)c2ccc(-c3c4nc(c(-c5cccc(S(=O)(=O)[O-])c5F)c5ccc([nH]5)c(-c5cccc(S(=O)(=O)[O-])c5F)c5nc(c(-c6cccc(S(=O)(=O)[O-])c6F)c6ccc3[nH]6)C=C5)C=C4)cc2)=[NH+]c2ccccc21)N[C@H](C(=O)[O-])c1ccccc1
REMARK SMILES IDX 13 1 12 2 11 3 10 4 7 5 8 6 89 7 9 8 84 9 88 10 83 11 85 12
REMARK SMILES IDX 87 13 86 16 5 17 4 18 6 20 3 21 2 22 1 23 90 24 91 26 95 27
REMARK SMILES IDX 96 28 100 29 97 30 99 31 98 32 92 33 93 34 94 35 14 36 15 37
REMARK SMILES IDX 16 38 17 39 18 40 19 42 20 43 21 44 82 45 22 46 81 47 23 48
REMARK SMILES IDX 24 49 25 50 75 51 26 52 80 53 74 54 76 55 27 56 79 57 73 58
REMARK SMILES IDX 72 59 28 61 60 62 40 63 59 64 41 65 44 66 58 67 77 68 42 69
REMARK SMILES IDX 43 70 57 72 78 73 45 74 29 75 30 76 38 77 31 78 33 79 39 80
REMARK SMILES IDX 32 81 34 82 35 83 36 84 37 85 61 86 62 87 70 88 63 89 65 90
REMARK SMILES IDX 71 91 64 92 66 93 67 94 68 95 69 96 46 97 47 98 55 99 48 100
REMARK SMILES IDX 50 101 56 102 49 103 51 104 52 105 53 106 54 107
REMARK H PARENT 10 14 83 15 4 19 90 25 17 41 76 60 44 71
REMARK Flexibility Score: inf
ROOT
ATOM      1  C   UNL A   1      31.827  29.719  26.643  1.00  0.00     0.004 C 
ENDROOT
BRANCH   1   2
ATOM      2  C   UNL A   1      31.722  29.046  25.268  1.00  0.00     0.046 C 
BRANCH   2   3
ATOM      3  C   UNL A   1      31.383  27.557  25.305  1.00  0.00     0.233 C 
BRANCH   3   4
ATOM      4  N   UNL A   1      32.493  26.794  25.821  1.00  0.00    -0.277 N 
ATOM      5  N   UNL A   1      33.760  24.622  23.154  1.00  0.00    -0.278 N 
ATOM      6  C   UNL A   1      33.369  25.950  23.596  1.00  0.00     0.255 C 
ATOM      7  C   UNL A   1      34.927  24.124  23.782  1.00  0.00     0.093 A 
ATOM      8  C   UNL A   1      33.376  26.003  25.130  1.00  0.00     0.268 C 
ATOM      9  C   UNL A   1      35.141  24.489  25.126  1.00  0.00     0.148 A 
ATOM     10  C   UNL A   1      35.819  23.266  23.126  1.00  0.00     0.031 A 
ATOM     11  N   UNL A   1      34.258  25.336  25.830  1.00  0.00    -0.241 N 
ATOM     12  C   UNL A   1      36.200  23.901  25.819  1.00  0.00     0.054 A 
ATOM     13  C   UNL A   1      36.888  22.710  23.828  1.00  0.00     0.002 A 
ATOM     14  H   UNL A   1      32.635  26.847  26.794  1.00  0.00     0.304 HD
ATOM     15  H   UNL A   1      34.304  25.420  26.810  1.00  0.00     0.312 HD
ATOM     16  C   UNL A   1      37.064  23.009  25.179  1.00  0.00     0.005 A 
BRANCH   5  17
ATOM     17  C   UNL A   1      32.996  24.009  22.197  1.00  0.00     0.323 C 
ATOM     18  N   UNL A   1      31.841  23.383  22.537  1.00  0.00    -0.329 N 
ATOM     19  H   UNL A   1      31.461  22.814  21.829  1.00  0.00     0.165 HD
ATOM     20  O   UNL A   1      33.267  24.087  20.997  1.00  0.00    -0.248 OA
BRANCH  18  21
ATOM     21  C   UNL A   1      31.066  23.411  23.776  1.00  0.00     0.218 C 
BRANCH  21  22
ATOM     22  C   UNL A   1      31.373  22.355  24.836  1.00  0.00     0.240 C 
ATOM     23  O   UNL A   1      30.856  22.442  25.950  1.00  0.00    -0.273 OA
ATOM     24  N   UNL A   1      32.137  21.292  24.419  1.00  0.00    -0.342 N 
ATOM     25  H   UNL A   1      32.353  21.177  23.466  1.00  0.00     0.164 HD
BRANCH  24  26
ATOM     26  C   UNL A   1      32.632  20.324  25.419  1.00  0.00     0.158 C 
BRANCH  26  27
ATOM     27  C   UNL A   1      32.860  18.915  24.857  1.00  0.00    -0.020 A 
ATOM     28  C   UNL A   1      32.996  18.634  23.488  1.00  0.00     0.006 A 
ATOM     29  C   UNL A   1      32.905  17.825  25.747  1.00  0.00     0.006 A 
ATOM     30  C   UNL A   1      33.208  17.325  23.034  1.00  0.00     0.000 A 
ATOM     31  C   UNL A   1      33.124  16.519  25.297  1.00  0.00     0.000 A 
ATOM     32  C   UNL A   1      33.277  16.269  23.938  1.00  0.00     0.000 A 
ENDBRANCH  26  27
BRANCH  26  33
ATOM     33  C   UNL A   1      33.952  20.839  26.133  1.00  0.00     0.068 C 
ATOM     34  O   UNL A   1      33.780  21.492  27.208  1.00  0.00    -0.548 OA
ATOM     35  O   UNL A   1      35.038  20.561  25.531  1.00  0.00    -0.548 OA
ENDBRANCH  26  33
ENDBRANCH  24  26
ENDBRANCH  21  22
ENDBRANCH  18  21
ENDBRANCH   5  17
ENDBRANCH   3   4
ENDBRANCH   2   3
ENDBRANCH   1   2
BRANCH   1  36
ATOM     36  C   UNL A   1      31.809  31.251  26.625  1.00  0.00     0.002 C 
BRANCH  36  37
ATOM     37  C   UNL A   1      32.823  31.927  27.553  1.00  0.00     0.021 C 
BRANCH  37  38
ATOM     38  C   UNL A   1      33.236  33.335  27.136  1.00  0.00     0.116 C 
BRANCH  38  39
ATOM     39  N   UNL A   1      32.846  34.334  28.121  1.00  0.00    -0.352 N 
ATOM     40  C   UNL A   1      33.297  34.524  29.402  1.00  0.00     0.251 C 
ATOM     41  H   UNL A   1      32.155  34.968  27.823  1.00  0.00     0.163 HD
ATOM     42  O   UNL A   1      32.694  35.293  30.154  1.00  0.00    -0.269 OA
BRANCH  40  43
ATOM     43  C   UNL A   1      34.488  33.800  29.898  1.00  0.00     0.039 A 
ATOM     44  C   UNL A   1      35.756  34.259  29.533  1.00  0.00     0.014 A 
ATOM     45  C   UNL A   1      34.364  32.659  30.698  1.00  0.00     0.014 A 
ATOM     46  C   UNL A   1      36.896  33.606  30.011  1.00  0.00     0.010 A 
ATOM     47  C   UNL A   1      35.500  32.059  31.236  1.00  0.00     0.010 A 
ATOM     48  C   UNL A   1      36.779  32.519  30.892  1.00  0.00    -0.014 A 
BRANCH  48  49
ATOM     49  C   UNL A   1      37.988  31.874  31.470  1.00  0.00     0.031 A 
ATOM     50  C   UNL A   1      38.606  32.391  32.742  1.00  0.00     0.074 A 
ATOM     51  C   UNL A   1      38.574  30.856  30.808  1.00  0.00     0.049 A 
ATOM     52  N   UNL A   1      39.653  31.947  33.389  1.00  0.00    -0.248 NA
ATOM     53  C   UNL A   1      37.985  33.577  33.354  1.00  0.00     0.031 C 
ATOM     54  C   UNL A   1      38.130  30.321  29.518  1.00  0.00     0.029 A 
ATOM     55  N   UNL A   1      39.679  30.102  31.116  1.00  0.00    -0.354 N 
ATOM     56  C   UNL A   1      39.838  32.813  34.460  1.00  0.00     0.074 A 
ATOM     57  C   UNL A   1      38.814  33.830  34.358  1.00  0.00     0.031 C 
ATOM     58  C   UNL A   1      38.948  29.322  29.150  1.00  0.00     0.029 A 
ATOM     59  C   UNL A   1      39.989  29.162  30.161  1.00  0.00     0.049 A 
ATOM     60  H   UNL A   1      40.201  30.223  31.941  1.00  0.00     0.167 HD
ATOM     61  C   UNL A   1      40.757  32.755  35.454  1.00  0.00     0.034 A 
ATOM     62  C   UNL A   1      40.998  28.271  30.102  1.00  0.00     0.034 A 
ATOM     63  C   UNL A   1      41.753  31.722  35.571  1.00  0.00     0.049 A 
ATOM     64  C   UNL A   1      41.973  28.192  31.245  1.00  0.00     0.074 A 
ATOM     65  C   UNL A   1      42.664  31.517  36.593  1.00  0.00     0.029 A 
ATOM     66  N   UNL A   1      41.985  30.732  34.628  1.00  0.00    -0.354 N 
ATOM     67  N   UNL A   1      42.016  28.904  32.344  1.00  0.00    -0.248 NA
ATOM     68  C   UNL A   1      43.013  27.157  31.158  1.00  0.00     0.031 C 
ATOM     69  C   UNL A   1      43.468  30.424  36.252  1.00  0.00     0.029 A 
ATOM     70  C   UNL A   1      43.032  29.923  35.036  1.00  0.00     0.049 A 
ATOM     71  H   UNL A   1      41.478  30.621  33.792  1.00  0.00     0.167 HD
ATOM     72  C   UNL A   1      43.065  28.385  33.094  1.00  0.00     0.074 A 
ATOM     73  C   UNL A   1      43.612  27.279  32.335  1.00  0.00     0.031 C 
ATOM     74  C   UNL A   1      43.543  28.798  34.294  1.00  0.00     0.034 A 
BRANCH  61  75
ATOM     75  C   UNL A   1      40.701  33.816  36.525  1.00  0.00     0.023 A 
ATOM     76  C   UNL A   1      41.181  35.113  36.249  1.00  0.00     0.012 A 
ATOM     77  C   UNL A   1      40.115  33.551  37.779  1.00  0.00     0.148 A 
ATOM     78  C   UNL A   1      41.121  36.116  37.216  1.00  0.00     0.002 A 
ATOM     79  C   UNL A   1      40.012  34.570  38.720  1.00  0.00     0.091 A 
ATOM     80  F   UNL A   1      39.677  32.310  38.032  1.00  0.00    -0.205 F 
ATOM     81  C   UNL A   1      40.528  35.847  38.446  1.00  0.00     0.022 A 
BRANCH  79  82
ATOM     82  S   UNL A   1      39.175  34.356  40.294  1.00  0.00     0.127 S 
ATOM     83  O   UNL A   1      39.393  35.656  40.926  1.00  0.00    -0.237 OA
ATOM     84  O   UNL A   1      37.794  34.107  39.876  1.00  0.00    -0.237 OA
ATOM     85  O   UNL A   1      39.822  33.225  40.945  1.00  0.00    -0.744 OA
ENDBRANCH  79  82
ENDBRANCH  61  75
BRANCH  62  86
ATOM     86  C   UNL A   1      41.095  27.336  28.945  1.00  0.00     0.023 A 
ATOM     87  C   UNL A   1      40.258  26.204  28.897  1.00  0.00     0.012 A 
ATOM     88  C   UNL A   1      41.986  27.577  27.882  1.00  0.00     0.148 A 
ATOM     89  C   UNL A   1      40.330  25.310  27.826  1.00  0.00     0.002 A 
ATOM     90  C   UNL A   1      42.012  26.715  26.792  1.00  0.00     0.091 A 
ATOM     91  F   UNL A   1      42.780  28.654  27.951  1.00  0.00    -0.205 F 
ATOM     92  C   UNL A   1      41.199  25.571  26.771  1.00  0.00     0.022 A 
BRANCH  90  93
ATOM     93  S   UNL A   1      43.003  27.039  25.329  1.00  0.00     0.127 S 
ATOM     94  O   UNL A   1      44.300  27.376  25.915  1.00  0.00    -0.237 OA
ATOM     95  O   UNL A   1      42.958  25.745  24.644  1.00  0.00    -0.237 OA
ATOM     96  O   UNL A   1      42.328  28.117  24.625  1.00  0.00    -0.744 OA
ENDBRANCH  90  93
ENDBRANCH  62  86
BRANCH  74  97
ATOM     97  C   UNL A   1      44.701  28.032  34.884  1.00  0.00     0.023 A 
ATOM     98  C   UNL A   1      46.022  28.455  34.638  1.00  0.00     0.012 A 
ATOM     99  C   UNL A   1      44.477  26.921  35.723  1.00  0.00     0.148 A 
ATOM    100  C   UNL A   1      47.103  27.759  35.179  1.00  0.00     0.002 A 
ATOM    101  C   UNL A   1      45.557  26.264  36.301  1.00  0.00     0.091 A 
ATOM    102  F   UNL A   1      43.215  26.519  35.933  1.00  0.00    -0.205 F 
ATOM    103  C   UNL A   1      46.871  26.672  36.019  1.00  0.00     0.022 A 
BRANCH 101 104
ATOM    104  S   UNL A   1      45.351  24.916  37.470  1.00  0.00     0.127 S 
ATOM    105  O   UNL A   1      44.736  23.886  36.633  1.00  0.00    -0.237 OA
ATOM    106  O   UNL A   1      46.730  24.633  37.868  1.00  0.00    -0.237 OA
ATOM    107  O   UNL A   1      44.510  25.437  38.539  1.00  0.00    -0.744 OA
ENDBRANCH 101 104
ENDBRANCH  74  97
ENDBRANCH  48  49
ENDBRANCH  40  43
ENDBRANCH  38  39
ENDBRANCH  37  38
ENDBRANCH  36  37
ENDBRANCH   1  36
TORSDOF 21
ENDMDL
