MODEL 1
REMARK VINA RESULT:     -11.9      0.000      0.000
REMARK SMILES Cc1cc(NC(=O)c2sccc2/C=C/C(=O)NCCCCCCNC(=O)c2ccc(-c3c4nc(c(-c5cccc(S(=O)(=O)[O-])c5F)c5ccc([nH]5)c(-c5cccc(S(=O)(=O)[O-])c5F)c5nc(c(-c6cccc(S(=O)(=O)[O-])c6F)c6ccc3[nH]6)C=C5)C=C4)cc2)ccn1
REMARK SMILES IDX 20 1 19 2 18 3 17 4 15 5 16 6 14 8 13 9 12 10 8 11 9 12
REMARK SMILES IDX 10 13 11 14 6 15 5 16 7 18 4 19 1 20 2 21 3 22 92 23 91 24
REMARK SMILES IDX 90 25 21 26 22 27 23 28 24 29 25 30 26 32 27 33 28 34 89 35
REMARK SMILES IDX 29 36 88 37 30 38 31 39 32 40 82 41 33 42 87 43 81 44 83 45
REMARK SMILES IDX 34 46 86 47 80 48 79 49 35 51 67 52 47 53 66 54 48 55 51 56
REMARK SMILES IDX 65 57 84 58 49 59 50 60 64 62 85 63 52 64 36 65 37 66 45 67
REMARK SMILES IDX 38 68 40 69 46 70 39 71 41 72 42 73 43 74 44 75 68 76 69 77
REMARK SMILES IDX 77 78 70 79 72 80 78 81 71 82 73 83 74 84 75 85 76 86 53 87
REMARK SMILES IDX 54 88 62 89 55 90 57 91 63 92 56 93 58 94 59 95 60 96 61 97
REMARK H PARENT 17 7 5 17 24 31 83 50 51 61
REMARK Flexibility Score: inf
ROOT
ATOM      1  C   UNL A   1      31.612  27.958  24.788  1.00  0.00     0.002 C 
ENDROOT
BRANCH   1   2
ATOM      2  C   UNL A   1      30.534  27.374  23.870  1.00  0.00     0.021 C 
BRANCH   2   3
ATOM      3  C   UNL A   1      30.875  25.979  23.358  1.00  0.00     0.116 C 
BRANCH   3   4
ATOM      4  N   UNL A   1      31.543  26.043  22.075  1.00  0.00    -0.353 N 
ATOM      5  C   UNL A   1      32.746  25.552  21.678  1.00  0.00     0.243 C 
ATOM      6  O   UNL A   1      33.083  25.639  20.499  1.00  0.00    -0.270 OA
ATOM      7  H   UNL A   1      31.043  26.521  21.374  1.00  0.00     0.163 HD
BRANCH   5   8
ATOM      8  C   UNL A   1      33.614  24.814  22.620  1.00  0.00     0.072 C 
ATOM      9  C   UNL A   1      33.789  23.483  22.655  1.00  0.00     0.015 C 
BRANCH   9  10
ATOM     10  C   UNL A   1      34.696  22.832  23.552  1.00  0.00    -0.002 A 
ATOM     11  C   UNL A   1      34.302  22.167  24.704  1.00  0.00     0.099 A 
ATOM     12  S   UNL A   1      35.655  21.565  25.576  1.00  0.00    -0.138 S 
ATOM     13  C   UNL A   1      36.745  22.073  24.364  1.00  0.00     0.066 A 
ATOM     14  C   UNL A   1      36.109  22.745  23.345  1.00  0.00     0.020 A 
BRANCH  11  15
ATOM     15  C   UNL A   1      32.991  21.932  25.270  1.00  0.00     0.266 C 
ATOM     16  N   UNL A   1      32.278  20.782  24.989  1.00  0.00    -0.321 N 
ATOM     17  H   UNL A   1      31.375  20.777  25.383  1.00  0.00     0.170 HD
ATOM     18  O   UNL A   1      32.427  22.768  25.984  1.00  0.00    -0.268 OA
BRANCH  16  19
ATOM     19  C   UNL A   1      32.574  19.615  24.256  1.00  0.00     0.044 A 
ATOM     20  C   UNL A   1      33.811  16.129  25.089  1.00  0.00     0.067 C 
ATOM     21  C   UNL A   1      33.315  17.325  24.333  1.00  0.00     0.039 A 
ATOM     22  C   UNL A   1      33.145  18.554  24.965  1.00  0.00     0.049 A 
ATOM     23  N   UNL A   1      32.979  17.123  23.041  1.00  0.00    -0.261 NA
ATOM     24  C   UNL A   1      32.507  18.181  22.354  1.00  0.00     0.113 A 
ATOM     25  C   UNL A   1      32.303  19.434  22.908  1.00  0.00     0.046 A 
ENDBRANCH  16  19
ENDBRANCH  11  15
ENDBRANCH   9  10
ENDBRANCH   5   8
ENDBRANCH   3   4
ENDBRANCH   2   3
ENDBRANCH   1   2
BRANCH   1  26
ATOM     26  C   UNL A   1      32.128  26.992  25.864  1.00  0.00     0.002 C 
BRANCH  26  27
ATOM     27  C   UNL A   1      33.162  27.583  26.826  1.00  0.00     0.021 C 
BRANCH  27  28
ATOM     28  C   UNL A   1      34.103  28.605  26.196  1.00  0.00     0.116 C 
BRANCH  28  29
ATOM     29  N   UNL A   1      33.822  29.952  26.661  1.00  0.00    -0.352 N 
ATOM     30  C   UNL A   1      34.463  30.697  27.616  1.00  0.00     0.251 C 
ATOM     31  H   UNL A   1      33.058  30.396  26.226  1.00  0.00     0.163 HD
ATOM     32  O   UNL A   1      33.942  31.730  28.027  1.00  0.00    -0.269 OA
BRANCH  30  33
ATOM     33  C   UNL A   1      35.773  30.264  28.150  1.00  0.00     0.039 A 
ATOM     34  C   UNL A   1      36.920  30.491  27.384  1.00  0.00     0.014 A 
ATOM     35  C   UNL A   1      35.869  29.580  29.367  1.00  0.00     0.014 A 
ATOM     36  C   UNL A   1      38.161  30.044  27.842  1.00  0.00     0.010 A 
ATOM     37  C   UNL A   1      37.117  29.204  29.858  1.00  0.00     0.010 A 
ATOM     38  C   UNL A   1      38.270  29.398  29.084  1.00  0.00    -0.014 A 
BRANCH  38  39
ATOM     39  C   UNL A   1      39.574  28.869  29.558  1.00  0.00     0.031 A 
ATOM     40  C   UNL A   1      40.296  29.554  30.689  1.00  0.00     0.074 A 
ATOM     41  C   UNL A   1      40.132  27.808  28.941  1.00  0.00     0.049 A 
ATOM     42  N   UNL A   1      41.449  29.258  31.232  1.00  0.00    -0.248 NA
ATOM     43  C   UNL A   1      39.654  30.745  31.271  1.00  0.00     0.031 C 
ATOM     44  C   UNL A   1      39.569  27.108  27.786  1.00  0.00     0.029 A 
ATOM     45  N   UNL A   1      41.309  27.148  29.189  1.00  0.00    -0.354 N 
ATOM     46  C   UNL A   1      41.687  30.242  32.184  1.00  0.00     0.074 A 
ATOM     47  C   UNL A   1      40.578  31.167  32.122  1.00  0.00     0.031 C 
ATOM     48  C   UNL A   1      40.399  26.114  27.428  1.00  0.00     0.029 A 
ATOM     49  C   UNL A   1      41.560  26.118  28.313  1.00  0.00     0.049 A 
ATOM     50  H   UNL A   1      41.918  27.390  29.924  1.00  0.00     0.167 HD
ATOM     51  C   UNL A   1      42.717  30.350  33.056  1.00  0.00     0.034 A 
ATOM     52  C   UNL A   1      42.605  25.272  28.236  1.00  0.00     0.034 A 
ATOM     53  C   UNL A   1      43.788  29.397  33.154  1.00  0.00     0.049 A 
ATOM     54  C   UNL A   1      43.701  25.372  29.264  1.00  0.00     0.074 A 
ATOM     55  C   UNL A   1      44.835  29.368  34.058  1.00  0.00     0.029 A 
ATOM     56  N   UNL A   1      43.949  28.303  32.319  1.00  0.00    -0.354 N 
ATOM     57  N   UNL A   1      43.827  26.218  30.257  1.00  0.00    -0.248 NA
ATOM     58  C   UNL A   1      44.772  24.369  29.191  1.00  0.00     0.031 C 
ATOM     59  C   UNL A   1      45.640  28.263  33.759  1.00  0.00     0.029 A 
ATOM     60  C   UNL A   1      45.076  27.588  32.688  1.00  0.00     0.049 A 
ATOM     61  H   UNL A   1      43.350  28.068  31.574  1.00  0.00     0.167 HD
ATOM     62  C   UNL A   1      44.962  25.822  30.955  1.00  0.00     0.074 A 
ATOM     63  C   UNL A   1      45.476  24.648  30.280  1.00  0.00     0.031 C 
ATOM     64  C   UNL A   1      45.535  26.383  32.047  1.00  0.00     0.034 A 
BRANCH  51  65
ATOM     65  C   UNL A   1      42.707  31.512  34.017  1.00  0.00     0.023 A 
ATOM     66  C   UNL A   1      43.288  32.738  33.635  1.00  0.00     0.012 A 
ATOM     67  C   UNL A   1      42.067  31.411  35.268  1.00  0.00     0.148 A 
ATOM     68  C   UNL A   1      43.262  33.836  34.494  1.00  0.00     0.002 A 
ATOM     69  C   UNL A   1      42.004  32.523  36.100  1.00  0.00     0.091 A 
ATOM     70  F   UNL A   1      41.537  30.231  35.623  1.00  0.00    -0.205 F 
ATOM     71  C   UNL A   1      42.612  33.731  35.721  1.00  0.00     0.022 A 
BRANCH  69  72
ATOM     72  S   UNL A   1      41.118  32.519  37.662  1.00  0.00     0.127 S 
ATOM     73  O   UNL A   1      41.959  31.642  38.477  1.00  0.00    -0.237 OA
ATOM     74  O   UNL A   1      41.162  33.932  38.044  1.00  0.00    -0.237 OA
ATOM     75  O   UNL A   1      39.786  32.010  37.369  1.00  0.00    -0.744 OA
ENDBRANCH  69  72
ENDBRANCH  51  65
BRANCH  52  76
ATOM     76  C   UNL A   1      42.629  24.204  27.195  1.00  0.00     0.023 A 
ATOM     77  C   UNL A   1      43.318  24.429  25.987  1.00  0.00     0.012 A 
ATOM     78  C   UNL A   1      41.986  22.968  27.399  1.00  0.00     0.148 A 
ATOM     79  C   UNL A   1      43.328  23.460  24.983  1.00  0.00     0.002 A 
ATOM     80  C   UNL A   1      42.050  21.985  26.418  1.00  0.00     0.091 A 
ATOM     81  F   UNL A   1      41.328  22.776  28.551  1.00  0.00    -0.205 F 
ATOM     82  C   UNL A   1      42.703  22.236  25.201  1.00  0.00     0.022 A 
BRANCH  80  83
ATOM     83  S   UNL A   1      41.388  20.334  26.669  1.00  0.00     0.127 S 
ATOM     84  O   UNL A   1      41.747  19.674  25.417  1.00  0.00    -0.237 OA
ATOM     85  O   UNL A   1      42.136  19.882  27.842  1.00  0.00    -0.237 OA
ATOM     86  O   UNL A   1      39.961  20.519  26.905  1.00  0.00    -0.744 OA
ENDBRANCH  80  83
ENDBRANCH  52  76
BRANCH  64  87
ATOM     87  C   UNL A   1      46.748  25.706  32.627  1.00  0.00     0.023 A 
ATOM     88  C   UNL A   1      48.038  26.083  32.205  1.00  0.00     0.012 A 
ATOM     89  C   UNL A   1      46.608  24.738  33.642  1.00  0.00     0.148 A 
ATOM     90  C   UNL A   1      49.169  25.478  32.754  1.00  0.00     0.002 A 
ATOM     91  C   UNL A   1      47.739  24.177  34.220  1.00  0.00     0.091 A 
ATOM     92  F   UNL A   1      45.372  24.377  34.017  1.00  0.00    -0.205 F 
ATOM     93  C   UNL A   1      49.019  24.534  33.768  1.00  0.00     0.022 A 
BRANCH  91  94
ATOM     94  S   UNL A   1      47.638  23.033  35.601  1.00  0.00     0.127 S 
ATOM     95  O   UNL A   1      46.919  23.828  36.595  1.00  0.00    -0.237 OA
ATOM     96  O   UNL A   1      46.868  21.925  35.034  1.00  0.00    -0.237 OA
ATOM     97  O   UNL A   1      49.014  22.695  35.939  1.00  0.00    -0.744 OA
ENDBRANCH  91  94
ENDBRANCH  64  87
ENDBRANCH  38  39
ENDBRANCH  30  33
ENDBRANCH  28  29
ENDBRANCH  27  28
ENDBRANCH  26  27
ENDBRANCH   1  26
TORSDOF 19
ENDMDL
MODEL 2
REMARK VINA RESULT:     -11.7      1.596      2.021
REMARK SMILES Cc1cc(NC(=O)c2sccc2/C=C/C(=O)NCCCCCCNC(=O)c2ccc(-c3c4nc(c(-c5cccc(S(=O)(=O)[O-])c5F)c5ccc([nH]5)c(-c5cccc(S(=O)(=O)[O-])c5F)c5nc(c(-c6cccc(S(=O)(=O)[O-])c6F)c6ccc3[nH]6)C=C5)C=C4)cc2)ccn1
REMARK SMILES IDX 20 1 19 2 18 3 17 4 15 5 16 6 14 8 13 9 12 10 8 11 9 12
REMARK SMILES IDX 10 13 11 14 6 15 5 16 7 18 4 19 1 20 2 21 3 22 92 23 91 24
REMARK SMILES IDX 90 25 21 26 22 27 23 28 24 29 25 30 26 32 27 33 28 34 89 35
REMARK SMILES IDX 29 36 88 37 30 38 31 39 32 40 82 41 33 42 87 43 81 44 83 45
REMARK SMILES IDX 34 46 86 47 80 48 79 49 35 51 67 52 47 53 66 54 48 55 51 56
REMARK SMILES IDX 65 57 84 58 49 59 50 60 64 62 85 63 52 64 36 65 37 66 45 67
REMARK SMILES IDX 38 68 40 69 46 70 39 71 41 72 42 73 43 74 44 75 68 76 69 77
REMARK SMILES IDX 77 78 70 79 72 80 78 81 71 82 73 83 74 84 75 85 76 86 53 87
REMARK SMILES IDX 54 88 62 89 55 90 57 91 63 92 56 93 58 94 59 95 60 96 61 97
REMARK H PARENT 17 7 5 17 24 31 83 50 51 61
REMARK Flexibility Score: inf
ROOT
ATOM      1  C   UNL A   1      30.929  29.161  24.377  1.00  0.00     0.002 C 
ENDROOT
BRANCH   1   2
ATOM      2  C   UNL A   1      31.591  28.802  23.044  1.00  0.00     0.021 C 
BRANCH   2   3
ATOM      3  C   UNL A   1      32.480  27.566  23.131  1.00  0.00     0.116 C 
BRANCH   3   4
ATOM      4  N   UNL A   1      32.456  26.817  21.892  1.00  0.00    -0.353 N 
ATOM      5  C   UNL A   1      33.045  25.640  21.558  1.00  0.00     0.243 C 
ATOM      6  O   UNL A   1      32.811  25.128  20.465  1.00  0.00    -0.270 OA
ATOM      7  H   UNL A   1      31.924  27.229  21.172  1.00  0.00     0.163 HD
BRANCH   5   8
ATOM      8  C   UNL A   1      33.878  24.903  22.531  1.00  0.00     0.072 C 
ATOM      9  C   UNL A   1      33.951  23.568  22.659  1.00  0.00     0.015 C 
BRANCH   9  10
ATOM     10  C   UNL A   1      34.828  22.912  23.581  1.00  0.00    -0.002 A 
ATOM     11  C   UNL A   1      34.396  22.224  24.705  1.00  0.00     0.099 A 
ATOM     12  S   UNL A   1      35.720  21.622  25.621  1.00  0.00    -0.138 S 
ATOM     13  C   UNL A   1      36.851  22.161  24.462  1.00  0.00     0.066 A 
ATOM     14  C   UNL A   1      36.249  22.843  23.429  1.00  0.00     0.020 A 
BRANCH  11  15
ATOM     15  C   UNL A   1      33.066  21.966  25.215  1.00  0.00     0.266 C 
ATOM     16  N   UNL A   1      32.365  20.828  24.861  1.00  0.00    -0.321 N 
ATOM     17  H   UNL A   1      31.449  20.807  25.223  1.00  0.00     0.170 HD
ATOM     18  O   UNL A   1      32.476  22.771  25.942  1.00  0.00    -0.268 OA
BRANCH  16  19
ATOM     19  C   UNL A   1      32.688  19.693  24.092  1.00  0.00     0.044 A 
ATOM     20  C   UNL A   1      34.591  16.467  24.683  1.00  0.00     0.067 C 
ATOM     21  C   UNL A   1      33.777  17.545  24.034  1.00  0.00     0.039 A 
ATOM     22  C   UNL A   1      33.546  18.758  24.679  1.00  0.00     0.049 A 
ATOM     23  N   UNL A   1      33.229  17.246  22.836  1.00  0.00    -0.261 NA
ATOM     24  C   UNL A   1      32.472  18.195  22.251  1.00  0.00     0.113 A 
ATOM     25  C   UNL A   1      32.189  19.423  22.826  1.00  0.00     0.046 A 
ENDBRANCH  16  19
ENDBRANCH  11  15
ENDBRANCH   9  10
ENDBRANCH   5   8
ENDBRANCH   3   4
ENDBRANCH   2   3
ENDBRANCH   1   2
BRANCH   1  26
ATOM     26  C   UNL A   1      31.394  28.317  25.571  1.00  0.00     0.002 C 
BRANCH  26  27
ATOM     27  C   UNL A   1      32.029  29.108  26.719  1.00  0.00     0.021 C 
BRANCH  27  28
ATOM     28  C   UNL A   1      33.266  29.910  26.327  1.00  0.00     0.116 C 
BRANCH  28  29
ATOM     29  N   UNL A   1      33.147  31.304  26.717  1.00  0.00    -0.352 N 
ATOM     30  C   UNL A   1      33.879  32.021  27.627  1.00  0.00     0.251 C 
ATOM     31  H   UNL A   1      32.436  31.809  26.260  1.00  0.00     0.163 HD
ATOM     32  O   UNL A   1      33.485  33.129  27.981  1.00  0.00    -0.269 OA
BRANCH  30  33
ATOM     33  C   UNL A   1      35.135  31.468  28.181  1.00  0.00     0.039 A 
ATOM     34  C   UNL A   1      35.119  30.181  28.725  1.00  0.00     0.014 A 
ATOM     35  C   UNL A   1      36.305  32.233  28.224  1.00  0.00     0.014 A 
ATOM     36  C   UNL A   1      36.279  29.658  29.303  1.00  0.00     0.010 A 
ATOM     37  C   UNL A   1      37.480  31.680  28.730  1.00  0.00     0.010 A 
ATOM     38  C   UNL A   1      37.469  30.402  29.307  1.00  0.00    -0.014 A 
BRANCH  38  39
ATOM     39  C   UNL A   1      38.693  29.881  29.966  1.00  0.00     0.031 A 
ATOM     40  C   UNL A   1      39.097  30.403  31.321  1.00  0.00     0.074 A 
ATOM     41  C   UNL A   1      39.467  28.980  29.329  1.00  0.00     0.049 A 
ATOM     42  N   UNL A   1      40.138  30.091  32.049  1.00  0.00    -0.248 NA
ATOM     43  C   UNL A   1      38.236  31.433  31.926  1.00  0.00     0.031 C 
ATOM     44  C   UNL A   1      39.224  28.456  27.984  1.00  0.00     0.029 A 
ATOM     45  N   UNL A   1      40.627  28.362  29.722  1.00  0.00    -0.354 N 
ATOM     46  C   UNL A   1      40.078  30.908  33.172  1.00  0.00     0.074 A 
ATOM     47  C   UNL A   1      38.920  31.759  33.013  1.00  0.00     0.031 C 
ATOM     48  C   UNL A   1      40.204  27.593  27.665  1.00  0.00     0.029 A 
ATOM     49  C   UNL A   1      41.152  27.516  28.772  1.00  0.00     0.049 A 
ATOM     50  H   UNL A   1      41.046  28.510  30.601  1.00  0.00     0.167 HD
ATOM     51  C   UNL A   1      40.892  30.928  34.254  1.00  0.00     0.034 A 
ATOM     52  C   UNL A   1      42.269  26.764  28.795  1.00  0.00     0.034 A 
ATOM     53  C   UNL A   1      42.008  30.041  34.434  1.00  0.00     0.049 A 
ATOM     54  C   UNL A   1      43.115  26.752  30.040  1.00  0.00     0.074 A 
ATOM     55  C   UNL A   1      42.845  29.921  35.529  1.00  0.00     0.029 A 
ATOM     56  N   UNL A   1      42.443  29.120  33.494  1.00  0.00    -0.354 N 
ATOM     57  N   UNL A   1      42.951  27.420  31.157  1.00  0.00    -0.248 NA
ATOM     58  C   UNL A   1      44.272  25.846  30.049  1.00  0.00     0.031 C 
ATOM     59  C   UNL A   1      43.798  28.937  35.244  1.00  0.00     0.029 A 
ATOM     60  C   UNL A   1      43.535  28.424  33.984  1.00  0.00     0.049 A 
ATOM     61  H   UNL A   1      42.036  28.980  32.609  1.00  0.00     0.167 HD
ATOM     62  C   UNL A   1      43.952  26.981  32.015  1.00  0.00     0.074 A 
ATOM     63  C   UNL A   1      44.707  25.976  31.294  1.00  0.00     0.031 C 
ATOM     64  C   UNL A   1      44.231  27.379  33.280  1.00  0.00     0.034 A 
BRANCH  51  65
ATOM     65  C   UNL A   1      40.570  31.902  35.358  1.00  0.00     0.023 A 
ATOM     66  C   UNL A   1      41.335  33.079  35.493  1.00  0.00     0.012 A 
ATOM     67  C   UNL A   1      39.476  31.688  36.218  1.00  0.00     0.148 A 
ATOM     68  C   UNL A   1      41.037  34.011  36.487  1.00  0.00     0.002 A 
ATOM     69  C   UNL A   1      39.155  32.643  37.176  1.00  0.00     0.091 A 
ATOM     70  F   UNL A   1      38.772  30.554  36.088  1.00  0.00    -0.205 F 
ATOM     71  C   UNL A   1      39.942  33.798  37.320  1.00  0.00     0.022 A 
BRANCH  69  72
ATOM     72  S   UNL A   1      37.717  32.507  38.242  1.00  0.00     0.127 S 
ATOM     73  O   UNL A   1      38.020  33.496  39.276  1.00  0.00    -0.237 OA
ATOM     74  O   UNL A   1      36.629  32.883  37.340  1.00  0.00    -0.237 OA
ATOM     75  O   UNL A   1      37.681  31.123  38.695  1.00  0.00    -0.744 OA
ENDBRANCH  69  72
ENDBRANCH  51  65
BRANCH  52  76
ATOM     76  C   UNL A   1      42.610  25.896  27.632  1.00  0.00     0.023 A 
ATOM     77  C   UNL A   1      43.424  26.406  26.600  1.00  0.00     0.012 A 
ATOM     78  C   UNL A   1      42.146  24.569  27.546  1.00  0.00     0.148 A 
ATOM     79  C   UNL A   1      43.731  25.628  25.484  1.00  0.00     0.002 A 
ATOM     80  C   UNL A   1      42.504  23.780  26.459  1.00  0.00     0.091 A 
ATOM     81  F   UNL A   1      41.366  24.104  28.532  1.00  0.00    -0.205 F 
ATOM     82  C   UNL A   1      43.279  24.313  25.418  1.00  0.00     0.022 A 
BRANCH  80  83
ATOM     83  S   UNL A   1      42.079  22.037  26.357  1.00  0.00     0.127 S 
ATOM     84  O   UNL A   1      42.508  21.547  27.664  1.00  0.00    -0.237 OA
ATOM     85  O   UNL A   1      40.630  22.089  26.163  1.00  0.00    -0.237 OA
ATOM     86  O   UNL A   1      42.817  21.523  25.211  1.00  0.00    -0.744 OA
ENDBRANCH  80  83
ENDBRANCH  52  76
BRANCH  64  87
ATOM     87  C   UNL A   1      45.361  26.689  33.998  1.00  0.00     0.023 A 
ATOM     88  C   UNL A   1      46.661  27.229  33.956  1.00  0.00     0.012 A 
ATOM     89  C   UNL A   1      45.115  25.537  34.771  1.00  0.00     0.148 A 
ATOM     90  C   UNL A   1      47.708  26.610  34.638  1.00  0.00     0.002 A 
ATOM     91  C   UNL A   1      46.152  24.955  35.489  1.00  0.00     0.091 A 
ATOM     92  F   UNL A   1      43.875  25.025  34.783  1.00  0.00    -0.205 F 
ATOM     93  C   UNL A   1      47.451  25.481  35.413  1.00  0.00     0.022 A 
BRANCH  91  94
ATOM     94  S   UNL A   1      45.886  23.562  36.591  1.00  0.00     0.127 S 
ATOM     95  O   UNL A   1      44.914  24.110  37.535  1.00  0.00    -0.237 OA
ATOM     96  O   UNL A   1      45.349  22.544  35.686  1.00  0.00    -0.237 OA
ATOM     97  O   UNL A   1      47.193  23.240  37.148  1.00  0.00    -0.744 OA
ENDBRANCH  91  94
ENDBRANCH  64  87
ENDBRANCH  38  39
ENDBRANCH  30  33
ENDBRANCH  28  29
ENDBRANCH  27  28
ENDBRANCH  26  27
ENDBRANCH   1  26
TORSDOF 19
ENDMDL
MODEL 3
REMARK VINA RESULT:     -11.5      2.565      3.218
REMARK SMILES Cc1cc(NC(=O)c2sccc2/C=C/C(=O)NCCCCCCNC(=O)c2ccc(-c3c4nc(c(-c5cccc(S(=O)(=O)[O-])c5F)c5ccc([nH]5)c(-c5cccc(S(=O)(=O)[O-])c5F)c5nc(c(-c6cccc(S(=O)(=O)[O-])c6F)c6ccc3[nH]6)C=C5)C=C4)cc2)ccn1
REMARK SMILES IDX 20 1 19 2 18 3 17 4 15 5 16 6 14 8 13 9 12 10 8 11 9 12
REMARK SMILES IDX 10 13 11 14 6 15 5 16 7 18 4 19 1 20 2 21 3 22 92 23 91 24
REMARK SMILES IDX 90 25 21 26 22 27 23 28 24 29 25 30 26 32 27 33 28 34 89 35
REMARK SMILES IDX 29 36 88 37 30 38 31 39 32 40 82 41 33 42 87 43 81 44 83 45
REMARK SMILES IDX 34 46 86 47 80 48 79 49 35 51 67 52 47 53 66 54 48 55 51 56
REMARK SMILES IDX 65 57 84 58 49 59 50 60 64 62 85 63 52 64 36 65 37 66 45 67
REMARK SMILES IDX 38 68 40 69 46 70 39 71 41 72 42 73 43 74 44 75 68 76 69 77
REMARK SMILES IDX 77 78 70 79 72 80 78 81 71 82 73 83 74 84 75 85 76 86 53 87
REMARK SMILES IDX 54 88 62 89 55 90 57 91 63 92 56 93 58 94 59 95 60 96 61 97
REMARK H PARENT 17 7 5 17 24 31 83 50 51 61
REMARK Flexibility Score: inf
ROOT
ATOM      1  C   UNL A   1      31.469  25.961  25.691  1.00  0.00     0.002 C 
ENDROOT
BRANCH   1   2
ATOM      2  C   UNL A   1      30.888  26.404  24.345  1.00  0.00     0.021 C 
BRANCH   2   3
ATOM      3  C   UNL A   1      30.734  25.256  23.353  1.00  0.00     0.116 C 
BRANCH   3   4
ATOM      4  N   UNL A   1      31.453  25.528  22.125  1.00  0.00    -0.353 N 
ATOM      5  C   UNL A   1      32.742  25.274  21.779  1.00  0.00     0.243 C 
ATOM      6  O   UNL A   1      33.124  25.507  20.634  1.00  0.00    -0.270 OA
ATOM      7  H   UNL A   1      30.919  25.970  21.425  1.00  0.00     0.163 HD
BRANCH   5   8
ATOM      8  C   UNL A   1      33.668  24.618  22.726  1.00  0.00     0.072 C 
ATOM      9  C   UNL A   1      34.045  23.330  22.697  1.00  0.00     0.015 C 
BRANCH   9  10
ATOM     10  C   UNL A   1      34.999  22.768  23.606  1.00  0.00    -0.002 A 
ATOM     11  C   UNL A   1      34.660  22.167  24.810  1.00  0.00     0.099 A 
ATOM     12  S   UNL A   1      36.056  21.668  25.678  1.00  0.00    -0.138 S 
ATOM     13  C   UNL A   1      37.094  22.131  24.405  1.00  0.00     0.066 A 
ATOM     14  C   UNL A   1      36.407  22.715  23.364  1.00  0.00     0.020 A 
BRANCH  11  15
ATOM     15  C   UNL A   1      33.373  21.925  25.428  1.00  0.00     0.266 C 
ATOM     16  N   UNL A   1      32.597  20.836  25.080  1.00  0.00    -0.321 N 
ATOM     17  H   UNL A   1      31.718  20.826  25.525  1.00  0.00     0.170 HD
ATOM     18  O   UNL A   1      32.887  22.706  26.253  1.00  0.00    -0.268 OA
BRANCH  16  19
ATOM     19  C   UNL A   1      32.800  19.739  24.220  1.00  0.00     0.044 A 
ATOM     20  C   UNL A   1      34.458  16.340  24.504  1.00  0.00     0.067 C 
ATOM     21  C   UNL A   1      33.710  17.523  23.967  1.00  0.00     0.039 A 
ATOM     22  C   UNL A   1      33.601  18.699  24.704  1.00  0.00     0.049 A 
ATOM     23  N   UNL A   1      33.098  17.356  22.774  1.00  0.00    -0.261 NA
ATOM     24  C   UNL A   1      32.399  18.401  22.289  1.00  0.00     0.113 A 
ATOM     25  C   UNL A   1      32.236  19.601  22.960  1.00  0.00     0.046 A 
ENDBRANCH  16  19
ENDBRANCH  11  15
ENDBRANCH   9  10
ENDBRANCH   5   8
ENDBRANCH   3   4
ENDBRANCH   2   3
ENDBRANCH   1   2
BRANCH   1  26
ATOM     26  C   UNL A   1      32.061  27.096  26.537  1.00  0.00     0.002 C 
BRANCH  26  27
ATOM     27  C   UNL A   1      32.222  28.434  25.810  1.00  0.00     0.021 C 
BRANCH  27  28
ATOM     28  C   UNL A   1      33.516  29.176  26.129  1.00  0.00     0.116 C 
BRANCH  28  29
ATOM     29  N   UNL A   1      33.279  30.590  26.367  1.00  0.00    -0.352 N 
ATOM     30  C   UNL A   1      33.881  31.437  27.260  1.00  0.00     0.251 C 
ATOM     31  H   UNL A   1      32.582  30.999  25.805  1.00  0.00     0.163 HD
ATOM     32  O   UNL A   1      33.391  32.544  27.468  1.00  0.00    -0.269 OA
BRANCH  30  33
ATOM     33  C   UNL A   1      35.113  31.026  27.969  1.00  0.00     0.039 A 
ATOM     34  C   UNL A   1      35.131  29.791  28.623  1.00  0.00     0.014 A 
ATOM     35  C   UNL A   1      36.222  31.875  28.047  1.00  0.00     0.014 A 
ATOM     36  C   UNL A   1      36.263  29.404  29.345  1.00  0.00     0.010 A 
ATOM     37  C   UNL A   1      37.377  31.454  28.701  1.00  0.00     0.010 A 
ATOM     38  C   UNL A   1      37.396  30.232  29.387  1.00  0.00    -0.014 A 
BRANCH  38  39
ATOM     39  C   UNL A   1      38.585  29.858  30.195  1.00  0.00     0.031 A 
ATOM     40  C   UNL A   1      38.774  30.447  31.569  1.00  0.00     0.074 A 
ATOM     41  C   UNL A   1      39.517  29.034  29.677  1.00  0.00     0.049 A 
ATOM     42  N   UNL A   1      39.751  30.262  32.419  1.00  0.00    -0.248 NA
ATOM     43  C   UNL A   1      37.745  31.389  32.042  1.00  0.00     0.031 C 
ATOM     44  C   UNL A   1      39.487  28.462  28.330  1.00  0.00     0.029 A 
ATOM     45  N   UNL A   1      40.683  28.553  30.216  1.00  0.00    -0.354 N 
ATOM     46  C   UNL A   1      39.477  31.090  33.502  1.00  0.00     0.074 A 
ATOM     47  C   UNL A   1      38.262  31.807  33.188  1.00  0.00     0.031 C 
ATOM     48  C   UNL A   1      40.581  27.704  28.150  1.00  0.00     0.029 A 
ATOM     49  C   UNL A   1      41.399  27.751  29.358  1.00  0.00     0.049 A 
ATOM     50  H   UNL A   1      40.980  28.762  31.131  1.00  0.00     0.167 HD
ATOM     51  C   UNL A   1      40.155  31.218  34.667  1.00  0.00     0.034 A 
ATOM     52  C   UNL A   1      42.579  27.124  29.529  1.00  0.00     0.034 A 
ATOM     53  C   UNL A   1      41.330  30.460  34.999  1.00  0.00     0.049 A 
ATOM     54  C   UNL A   1      43.274  27.227  30.861  1.00  0.00     0.074 A 
ATOM     55  C   UNL A   1      42.044  30.453  36.183  1.00  0.00     0.029 A 
ATOM     56  N   UNL A   1      41.964  29.574  34.143  1.00  0.00    -0.354 N 
ATOM     57  N   UNL A   1      42.913  27.895  31.931  1.00  0.00    -0.248 NA
ATOM     58  C   UNL A   1      44.511  26.452  31.027  1.00  0.00     0.031 C 
ATOM     59  C   UNL A   1      43.122  29.572  36.038  1.00  0.00     0.029 A 
ATOM     60  C   UNL A   1      43.060  29.010  34.773  1.00  0.00     0.049 A 
ATOM     61  H   UNL A   1      41.678  29.375  33.222  1.00  0.00     0.167 HD
ATOM     62  C   UNL A   1      43.850  27.583  32.909  1.00  0.00     0.074 A 
ATOM     63  C   UNL A   1      44.784  26.652  32.309  1.00  0.00     0.031 C 
ATOM     64  C   UNL A   1      43.939  28.033  34.185  1.00  0.00     0.034 A 
BRANCH  51  65
ATOM     65  C   UNL A   1      39.608  32.173  35.698  1.00  0.00     0.023 A 
ATOM     66  C   UNL A   1      38.667  31.715  36.642  1.00  0.00     0.012 A 
ATOM     67  C   UNL A   1      40.073  33.501  35.775  1.00  0.00     0.148 A 
ATOM     68  C   UNL A   1      38.170  32.570  37.625  1.00  0.00     0.002 A 
ATOM     69  C   UNL A   1      39.609  34.335  36.786  1.00  0.00     0.091 A 
ATOM     70  F   UNL A   1      40.953  33.925  34.856  1.00  0.00    -0.205 F 
ATOM     71  C   UNL A   1      38.650  33.875  37.703  1.00  0.00     0.022 A 
BRANCH  69  72
ATOM     72  S   UNL A   1      40.224  36.005  37.026  1.00  0.00     0.127 S 
ATOM     73  O   UNL A   1      39.656  36.343  38.331  1.00  0.00    -0.237 OA
ATOM     74  O   UNL A   1      41.673  35.802  37.027  1.00  0.00    -0.237 OA
ATOM     75  O   UNL A   1      39.719  36.785  35.906  1.00  0.00    -0.744 OA
ENDBRANCH  69  72
ENDBRANCH  51  65
BRANCH  52  76
ATOM     76  C   UNL A   1      43.141  26.276  28.439  1.00  0.00     0.023 A 
ATOM     77  C   UNL A   1      42.614  24.987  28.222  1.00  0.00     0.012 A 
ATOM     78  C   UNL A   1      44.181  26.740  27.611  1.00  0.00     0.148 A 
ATOM     79  C   UNL A   1      43.143  24.159  27.231  1.00  0.00     0.002 A 
ATOM     80  C   UNL A   1      44.664  25.932  26.588  1.00  0.00     0.091 A 
ATOM     81  F   UNL A   1      44.676  27.965  27.839  1.00  0.00    -0.205 F 
ATOM     82  C   UNL A   1      44.161  24.634  26.409  1.00  0.00     0.022 A 
BRANCH  80  83
ATOM     83  S   UNL A   1      45.879  26.513  25.399  1.00  0.00     0.127 S 
ATOM     84  O   UNL A   1      46.008  25.358  24.515  1.00  0.00    -0.237 OA
ATOM     85  O   UNL A   1      45.200  27.668  24.811  1.00  0.00    -0.237 OA
ATOM     86  O   UNL A   1      47.061  26.849  26.183  1.00  0.00    -0.744 OA
ENDBRANCH  80  83
ENDBRANCH  52  76
BRANCH  64  87
ATOM     87  C   UNL A   1      45.044  27.483  35.046  1.00  0.00     0.023 A 
ATOM     88  C   UNL A   1      46.277  28.158  35.131  1.00  0.00     0.012 A 
ATOM     89  C   UNL A   1      44.834  26.326  35.823  1.00  0.00     0.148 A 
ATOM     90  C   UNL A   1      47.298  27.669  35.945  1.00  0.00     0.002 A 
ATOM     91  C   UNL A   1      45.837  25.873  36.670  1.00  0.00     0.091 A 
ATOM     92  F   UNL A   1      43.661  25.685  35.713  1.00  0.00    -0.205 F 
ATOM     93  C   UNL A   1      47.074  26.534  36.723  1.00  0.00     0.022 A 
BRANCH  91  94
ATOM     94  S   UNL A   1      45.594  24.482  37.779  1.00  0.00     0.127 S 
ATOM     95  O   UNL A   1      46.875  24.433  38.482  1.00  0.00    -0.237 OA
ATOM     96  O   UNL A   1      44.466  24.928  38.599  1.00  0.00    -0.237 OA
ATOM     97  O   UNL A   1      45.300  23.339  36.926  1.00  0.00    -0.744 OA
ENDBRANCH  91  94
ENDBRANCH  64  87
ENDBRANCH  38  39
ENDBRANCH  30  33
ENDBRANCH  28  29
ENDBRANCH  27  28
ENDBRANCH  26  27
ENDBRANCH   1  26
TORSDOF 19
ENDMDL
