MODEL 1
REMARK VINA RESULT:     -10.8      0.000      0.000
REMARK SMILES O=C(NCCCCCCNC(=O)[C@H](CO)NC(=O)[C@H](CS)NC(=O)c1ccc(F)cc1)c1ccc(-c2c3nc(c(-c4cccc(S(=O)(=O)[O-])c4F)c4ccc([nH]4)c(-c4cccc(S(=O)(=O)[O-])c4F)c4nc(c(-c5cccc(S(=O)(=O)[O-])c5F)c5ccc2[nH]5)C=C4)C=C3)cc1
REMARK SMILES IDX 7 1 6 2 5 3 4 4 3 5 1 6 2 7 32 9 33 10 94 11 34 12 93 13
REMARK SMILES IDX 35 14 36 15 37 16 87 17 38 18 92 19 86 20 88 21 39 22 91 23
REMARK SMILES IDX 85 24 84 25 40 27 72 28 52 29 71 30 53 31 56 32 70 33 89 34
REMARK SMILES IDX 54 35 55 36 69 38 90 39 57 40 41 41 42 42 50 43 43 44 45 45
REMARK SMILES IDX 51 46 44 47 46 48 47 49 48 50 49 51 73 52 74 53 82 54 75 55
REMARK SMILES IDX 77 56 83 57 76 58 78 59 79 60 80 61 81 62 58 63 59 64 67 65
REMARK SMILES IDX 60 66 62 67 68 68 61 69 63 70 64 71 65 72 66 73 8 74 9 75
REMARK SMILES IDX 10 76 11 77 12 79 13 80 16 81 17 82 18 84 19 85 22 86 23 87
REMARK SMILES IDX 24 89 25 90 26 91 31 92 27 93 30 94 28 95 29 96 20 97 21 98
REMARK SMILES IDX 14 100 15 101
REMARK H PARENT 3 8 88 26 56 37 10 78 16 83 22 88 21 99 15 102
REMARK Flexibility Score: inf
ROOT
ATOM      1  C   UNL A   1      35.040  24.292  24.228  1.00  0.00     0.002 C 
ENDROOT
BRANCH   1   2
ATOM      2  C   UNL A   1      35.455  23.123  23.323  1.00  0.00     0.002 C 
BRANCH   2   3
ATOM      3  C   UNL A   1      36.706  22.359  23.765  1.00  0.00     0.021 C 
BRANCH   3   4
ATOM      4  C   UNL A   1      36.982  22.401  25.264  1.00  0.00     0.116 C 
BRANCH   4   5
ATOM      5  N   UNL A   1      37.892  21.344  25.673  1.00  0.00    -0.352 N 
ATOM      6  O   UNL A   1      39.868  20.432  26.237  1.00  0.00    -0.269 OA
ATOM      7  C   UNL A   1      39.167  21.439  26.174  1.00  0.00     0.251 C 
ATOM      8  H   UNL A   1      37.545  20.427  25.576  1.00  0.00     0.163 HD
BRANCH   7   9
ATOM      9  C   UNL A   1      39.694  22.747  26.624  1.00  0.00     0.039 A 
ATOM     10  C   UNL A   1      40.559  22.828  27.717  1.00  0.00     0.014 A 
ATOM     11  C   UNL A   1      39.356  23.901  25.911  1.00  0.00     0.014 A 
ATOM     12  C   UNL A   1      40.998  24.071  28.163  1.00  0.00     0.010 A 
ATOM     13  C   UNL A   1      39.857  25.142  26.316  1.00  0.00     0.010 A 
ATOM     14  C   UNL A   1      40.667  25.239  27.456  1.00  0.00    -0.014 A 
BRANCH  14  15
ATOM     15  C   UNL A   1      41.271  26.530  27.869  1.00  0.00     0.031 A 
ATOM     16  C   UNL A   1      40.491  27.551  28.645  1.00  0.00     0.074 A 
ATOM     17  C   UNL A   1      42.555  26.770  27.536  1.00  0.00     0.049 A 
ATOM     18  N   UNL A   1      40.897  28.697  29.126  1.00  0.00    -0.248 NA
ATOM     19  C   UNL A   1      39.073  27.259  28.909  1.00  0.00     0.031 C 
ATOM     20  C   UNL A   1      43.392  25.869  26.739  1.00  0.00     0.029 A 
ATOM     21  N   UNL A   1      43.382  27.824  27.823  1.00  0.00    -0.354 N 
ATOM     22  C   UNL A   1      39.785  29.278  29.723  1.00  0.00     0.074 A 
ATOM     23  C   UNL A   1      38.682  28.361  29.537  1.00  0.00     0.031 C 
ATOM     24  C   UNL A   1      44.622  26.389  26.633  1.00  0.00     0.029 A 
ATOM     25  C   UNL A   1      44.651  27.681  27.313  1.00  0.00     0.049 A 
ATOM     26  H   UNL A   1      43.095  28.609  28.343  1.00  0.00     0.167 HD
ATOM     27  C   UNL A   1      39.702  30.458  30.383  1.00  0.00     0.034 A 
ATOM     28  C   UNL A   1      45.723  28.493  27.384  1.00  0.00     0.034 A 
ATOM     29  C   UNL A   1      40.817  31.344  30.596  1.00  0.00     0.049 A 
ATOM     30  C   UNL A   1      45.613  29.777  28.152  1.00  0.00     0.074 A 
ATOM     31  C   UNL A   1      40.844  32.531  31.308  1.00  0.00     0.029 A 
ATOM     32  N   UNL A   1      42.096  31.148  30.099  1.00  0.00    -0.354 N 
ATOM     33  N   UNL A   1      44.587  30.247  28.820  1.00  0.00    -0.248 NA
ATOM     34  C   UNL A   1      46.807  30.631  28.202  1.00  0.00     0.031 C 
ATOM     35  C   UNL A   1      42.137  33.058  31.231  1.00  0.00     0.029 A 
ATOM     36  C   UNL A   1      42.919  32.193  30.482  1.00  0.00     0.049 A 
ATOM     37  H   UNL A   1      42.378  30.377  29.553  1.00  0.00     0.167 HD
ATOM     38  C   UNL A   1      45.012  31.443  29.382  1.00  0.00     0.074 A 
ATOM     39  C   UNL A   1      46.400  31.614  28.998  1.00  0.00     0.031 C 
ATOM     40  C   UNL A   1      44.311  32.328  30.130  1.00  0.00     0.034 A 
BRANCH  27  41
ATOM     41  C   UNL A   1      38.375  30.846  30.979  1.00  0.00     0.023 A 
ATOM     42  C   UNL A   1      38.127  30.579  32.340  1.00  0.00     0.012 A 
ATOM     43  C   UNL A   1      37.421  31.562  30.229  1.00  0.00     0.148 A 
ATOM     44  C   UNL A   1      36.944  31.003  32.943  1.00  0.00     0.002 A 
ATOM     45  C   UNL A   1      36.259  32.013  30.847  1.00  0.00     0.091 A 
ATOM     46  F   UNL A   1      37.665  31.787  28.931  1.00  0.00    -0.205 F 
ATOM     47  C   UNL A   1      36.017  31.730  32.201  1.00  0.00     0.022 A 
BRANCH  45  48
ATOM     48  S   UNL A   1      35.041  33.022  29.993  1.00  0.00     0.127 S 
ATOM     49  O   UNL A   1      34.457  32.056  29.064  1.00  0.00    -0.237 OA
ATOM     50  O   UNL A   1      34.154  33.430  31.084  1.00  0.00    -0.237 OA
ATOM     51  O   UNL A   1      35.785  34.112  29.380  1.00  0.00    -0.744 OA
ENDBRANCH  45  48
ENDBRANCH  27  41
BRANCH  28  52
ATOM     52  C   UNL A   1      47.005  28.052  26.765  1.00  0.00     0.023 A 
ATOM     53  C   UNL A   1      47.967  27.404  27.563  1.00  0.00     0.012 A 
ATOM     54  C   UNL A   1      47.224  28.166  25.379  1.00  0.00     0.148 A 
ATOM     55  C   UNL A   1      49.125  26.877  26.990  1.00  0.00     0.002 A 
ATOM     56  C   UNL A   1      48.350  27.585  24.806  1.00  0.00     0.091 A 
ATOM     57  F   UNL A   1      46.303  28.801  24.641  1.00  0.00    -0.205 F 
ATOM     58  C   UNL A   1      49.308  26.952  25.611  1.00  0.00     0.022 A 
BRANCH  56  59
ATOM     59  S   UNL A   1      48.580  27.491  23.026  1.00  0.00     0.127 S 
ATOM     60  O   UNL A   1      49.869  28.156  22.857  1.00  0.00    -0.237 OA
ATOM     61  O   UNL A   1      48.598  26.045  22.800  1.00  0.00    -0.237 OA
ATOM     62  O   UNL A   1      47.432  28.172  22.446  1.00  0.00    -0.744 OA
ENDBRANCH  56  59
ENDBRANCH  28  52
BRANCH  40  63
ATOM     63  C   UNL A   1      45.019  33.571  30.595  1.00  0.00     0.023 A 
ATOM     64  C   UNL A   1      45.779  33.530  31.779  1.00  0.00     0.012 A 
ATOM     65  C   UNL A   1      45.027  34.737  29.804  1.00  0.00     0.148 A 
ATOM     66  C   UNL A   1      46.527  34.636  32.179  1.00  0.00     0.002 A 
ATOM     67  C   UNL A   1      45.807  35.821  30.186  1.00  0.00     0.091 A 
ATOM     68  F   UNL A   1      44.280  34.759  28.690  1.00  0.00    -0.205 F 
ATOM     69  C   UNL A   1      46.552  35.775  31.376  1.00  0.00     0.022 A 
BRANCH  67  70
ATOM     70  S   UNL A   1      45.975  37.292  29.169  1.00  0.00     0.127 S 
ATOM     71  O   UNL A   1      44.616  37.831  29.199  1.00  0.00    -0.237 OA
ATOM     72  O   UNL A   1      46.960  38.077  29.912  1.00  0.00    -0.237 OA
ATOM     73  O   UNL A   1      46.434  36.827  27.867  1.00  0.00    -0.744 OA
ENDBRANCH  67  70
ENDBRANCH  40  63
ENDBRANCH  14  15
ENDBRANCH   7   9
ENDBRANCH   4   5
ENDBRANCH   3   4
ENDBRANCH   2   3
ENDBRANCH   1   2
BRANCH   1  74
ATOM     74  C   UNL A   1      33.605  24.789  24.037  1.00  0.00     0.021 C 
BRANCH  74  75
ATOM     75  C   UNL A   1      33.384  25.556  22.738  1.00  0.00     0.116 C 
BRANCH  75  76
ATOM     76  N   UNL A   1      33.877  26.916  22.800  1.00  0.00    -0.354 N 
ATOM     77  C   UNL A   1      33.186  28.050  23.141  1.00  0.00     0.244 C 
ATOM     78  H   UNL A   1      34.826  27.042  22.569  1.00  0.00     0.163 HD
ATOM     79  O   UNL A   1      33.803  29.113  23.220  1.00  0.00    -0.273 OA
BRANCH  77  80
ATOM     80  C   UNL A   1      31.688  27.932  23.485  1.00  0.00     0.197 C 
BRANCH  80  81
ATOM     81  N   UNL A   1      31.544  27.732  24.941  1.00  0.00    -0.340 N 
ATOM     82  C   UNL A   1      30.969  26.776  25.720  1.00  0.00     0.244 C 
ATOM     83  H   UNL A   1      31.957  28.454  25.468  1.00  0.00     0.164 HD
ATOM     84  O   UNL A   1      30.918  27.029  26.930  1.00  0.00    -0.273 OA
BRANCH  82  85
ATOM     85  C   UNL A   1      30.580  25.352  25.239  1.00  0.00     0.181 C 
BRANCH  85  86
ATOM     86  N   UNL A   1      29.851  24.554  26.218  1.00  0.00    -0.339 N 
ATOM     87  C   UNL A   1      30.217  23.420  26.885  1.00  0.00     0.251 C 
ATOM     88  H   UNL A   1      28.949  24.887  26.433  1.00  0.00     0.164 HD
ATOM     89  O   UNL A   1      29.561  23.051  27.856  1.00  0.00    -0.269 OA
BRANCH  87  90
ATOM     90  C   UNL A   1      31.335  22.593  26.399  1.00  0.00     0.040 A 
ATOM     91  C   UNL A   1      31.248  21.823  25.236  1.00  0.00     0.017 A 
ATOM     92  C   UNL A   1      32.520  22.620  27.149  1.00  0.00     0.017 A 
ATOM     93  C   UNL A   1      32.336  21.034  24.856  1.00  0.00     0.040 A 
ATOM     94  C   UNL A   1      33.606  21.839  26.759  1.00  0.00     0.040 A 
ATOM     95  C   UNL A   1      33.500  21.047  25.621  1.00  0.00     0.123 A 
ATOM     96  F   UNL A   1      34.539  20.288  25.250  1.00  0.00    -0.207 F 
ENDBRANCH  87  90
ENDBRANCH  85  86
BRANCH  85  97
ATOM     97  C   UNL A   1      29.842  25.514  23.890  1.00  0.00     0.101 C 
BRANCH  97  98
ATOM     98  S   UNL A   1      28.282  26.460  23.969  1.00  0.00    -0.177 SA
ATOM     99  H   UNL A   1      28.348  27.513  23.110  1.00  0.00     0.102 HD
ENDBRANCH  97  98
ENDBRANCH  85  97
ENDBRANCH  82  85
ENDBRANCH  80  81
BRANCH  80 100
ATOM    100  C   UNL A   1      30.957  29.214  23.048  1.00  0.00     0.191 C 
BRANCH 100 101
ATOM    101  O   UNL A   1      31.502  29.732  21.831  1.00  0.00    -0.394 OA
ATOM    102  H   UNL A   1      30.949  30.464  21.515  1.00  0.00     0.210 HD
ENDBRANCH 100 101
ENDBRANCH  80 100
ENDBRANCH  77  80
ENDBRANCH  75  76
ENDBRANCH  74  75
ENDBRANCH   1  74
TORSDOF 24
ENDMDL
MODEL 2
REMARK VINA RESULT:     -10.7      5.532      8.214
REMARK SMILES O=C(NCCCCCCNC(=O)[C@H](CO)NC(=O)[C@H](CS)NC(=O)c1ccc(F)cc1)c1ccc(-c2c3nc(c(-c4cccc(S(=O)(=O)[O-])c4F)c4ccc([nH]4)c(-c4cccc(S(=O)(=O)[O-])c4F)c4nc(c(-c5cccc(S(=O)(=O)[O-])c5F)c5ccc2[nH]5)C=C4)C=C3)cc1
REMARK SMILES IDX 7 1 6 2 5 3 4 4 3 5 1 6 2 7 32 9 33 10 94 11 34 12 93 13
REMARK SMILES IDX 35 14 36 15 37 16 87 17 38 18 92 19 86 20 88 21 39 22 91 23
REMARK SMILES IDX 85 24 84 25 40 27 72 28 52 29 71 30 53 31 56 32 70 33 89 34
REMARK SMILES IDX 54 35 55 36 69 38 90 39 57 40 41 41 42 42 50 43 43 44 45 45
REMARK SMILES IDX 51 46 44 47 46 48 47 49 48 50 49 51 73 52 74 53 82 54 75 55
REMARK SMILES IDX 77 56 83 57 76 58 78 59 79 60 80 61 81 62 58 63 59 64 67 65
REMARK SMILES IDX 60 66 62 67 68 68 61 69 63 70 64 71 65 72 66 73 8 74 9 75
REMARK SMILES IDX 10 76 11 77 12 79 13 80 16 81 17 82 18 84 19 85 22 86 23 87
REMARK SMILES IDX 24 89 25 90 26 91 31 92 27 93 30 94 28 95 29 96 20 97 21 98
REMARK SMILES IDX 14 100 15 101
REMARK H PARENT 3 8 88 26 56 37 10 78 16 83 22 88 21 99 15 102
REMARK Flexibility Score: inf
ROOT
ATOM      1  C   UNL A   1      32.458  29.676  27.124  1.00  0.00     0.002 C 
ENDROOT
BRANCH   1   2
ATOM      2  C   UNL A   1      31.655  30.577  26.174  1.00  0.00     0.002 C 
BRANCH   2   3
ATOM      3  C   UNL A   1      31.550  32.047  26.591  1.00  0.00     0.021 C 
BRANCH   3   4
ATOM      4  C   UNL A   1      32.767  32.586  27.336  1.00  0.00     0.116 C 
BRANCH   4   5
ATOM      5  N   UNL A   1      32.590  33.977  27.718  1.00  0.00    -0.352 N 
ATOM      6  O   UNL A   1      32.753  35.785  29.045  1.00  0.00    -0.269 OA
ATOM      7  C   UNL A   1      33.203  34.690  28.718  1.00  0.00     0.251 C 
ATOM      8  H   UNL A   1      31.934  34.481  27.183  1.00  0.00     0.163 HD
BRANCH   7   9
ATOM      9  C   UNL A   1      34.392  34.136  29.404  1.00  0.00     0.039 A 
ATOM     10  C   UNL A   1      34.249  33.280  30.498  1.00  0.00     0.014 A 
ATOM     11  C   UNL A   1      35.666  34.438  28.913  1.00  0.00     0.014 A 
ATOM     12  C   UNL A   1      35.377  32.815  31.168  1.00  0.00     0.010 A 
ATOM     13  C   UNL A   1      36.798  33.911  29.543  1.00  0.00     0.010 A 
ATOM     14  C   UNL A   1      36.663  33.110  30.685  1.00  0.00    -0.014 A 
BRANCH  14  15
ATOM     15  C   UNL A   1      37.841  32.479  31.332  1.00  0.00     0.031 A 
ATOM     16  C   UNL A   1      38.358  32.953  32.659  1.00  0.00     0.074 A 
ATOM     17  C   UNL A   1      38.442  31.453  30.698  1.00  0.00     0.049 A 
ATOM     18  N   UNL A   1      39.337  32.466  33.375  1.00  0.00    -0.248 NA
ATOM     19  C   UNL A   1      37.702  34.126  33.259  1.00  0.00     0.031 C 
ATOM     20  C   UNL A   1      38.054  30.943  29.380  1.00  0.00     0.029 A 
ATOM     21  N   UNL A   1      39.491  30.651  31.069  1.00  0.00    -0.354 N 
ATOM     22  C   UNL A   1      39.439  33.285  34.493  1.00  0.00     0.074 A 
ATOM     23  C   UNL A   1      38.425  34.308  34.357  1.00  0.00     0.031 C 
ATOM     24  C   UNL A   1      38.827  29.894  29.070  1.00  0.00     0.029 A 
ATOM     25  C   UNL A   1      39.795  29.682  30.141  1.00  0.00     0.049 A 
ATOM     26  H   UNL A   1      39.980  30.760  31.916  1.00  0.00     0.167 HD
ATOM     27  C   UNL A   1      40.288  33.177  35.542  1.00  0.00     0.034 A 
ATOM     28  C   UNL A   1      40.744  28.727  30.149  1.00  0.00     0.034 A 
ATOM     29  C   UNL A   1      41.267  32.131  35.686  1.00  0.00     0.049 A 
ATOM     30  C   UNL A   1      41.647  28.608  31.341  1.00  0.00     0.074 A 
ATOM     31  C   UNL A   1      42.127  31.902  36.745  1.00  0.00     0.029 A 
ATOM     32  N   UNL A   1      41.521  31.145  34.745  1.00  0.00    -0.354 N 
ATOM     33  N   UNL A   1      41.641  29.313  32.447  1.00  0.00    -0.248 NA
ATOM     34  C   UNL A   1      42.668  27.552  31.305  1.00  0.00     0.031 C 
ATOM     35  C   UNL A   1      42.911  30.785  36.440  1.00  0.00     0.029 A 
ATOM     36  C   UNL A   1      42.528  30.308  35.195  1.00  0.00     0.049 A 
ATOM     37  H   UNL A   1      41.053  31.052  33.883  1.00  0.00     0.167 HD
ATOM     38  C   UNL A   1      42.644  28.780  33.244  1.00  0.00     0.074 A 
ATOM     39  C   UNL A   1      43.222  27.674  32.506  1.00  0.00     0.031 C 
ATOM     40  C   UNL A   1      43.062  29.184  34.469  1.00  0.00     0.034 A 
BRANCH  27  41
ATOM     41  C   UNL A   1      40.167  34.180  36.659  1.00  0.00     0.023 A 
ATOM     42  C   UNL A   1      40.512  35.525  36.415  1.00  0.00     0.012 A 
ATOM     43  C   UNL A   1      39.621  33.821  37.907  1.00  0.00     0.148 A 
ATOM     44  C   UNL A   1      40.330  36.495  37.401  1.00  0.00     0.002 A 
ATOM     45  C   UNL A   1      39.410  34.800  38.872  1.00  0.00     0.091 A 
ATOM     46  F   UNL A   1      39.320  32.534  38.127  1.00  0.00    -0.205 F 
ATOM     47  C   UNL A   1      39.768  36.135  38.623  1.00  0.00     0.022 A 
BRANCH  45  48
ATOM     48  S   UNL A   1      38.621  34.447  40.448  1.00  0.00     0.127 S 
ATOM     49  O   UNL A   1      39.683  33.733  41.155  1.00  0.00    -0.237 OA
ATOM     50  O   UNL A   1      38.342  35.788  40.964  1.00  0.00    -0.237 OA
ATOM     51  O   UNL A   1      37.436  33.661  40.134  1.00  0.00    -0.744 OA
ENDBRANCH  45  48
ENDBRANCH  27  41
BRANCH  28  52
ATOM     52  C   UNL A   1      40.814  27.771  29.008  1.00  0.00     0.023 A 
ATOM     53  C   UNL A   1      39.815  26.789  28.871  1.00  0.00     0.012 A 
ATOM     54  C   UNL A   1      41.793  27.902  28.003  1.00  0.00     0.148 A 
ATOM     55  C   UNL A   1      39.789  25.955  27.753  1.00  0.00     0.002 A 
ATOM     56  C   UNL A   1      41.725  27.110  26.863  1.00  0.00     0.091 A 
ATOM     57  F   UNL A   1      42.745  28.832  28.163  1.00  0.00    -0.205 F 
ATOM     58  C   UNL A   1      40.731  26.127  26.742  1.00  0.00     0.022 A 
BRANCH  56  59
ATOM     59  S   UNL A   1      42.795  27.375  25.445  1.00  0.00     0.127 S 
ATOM     60  O   UNL A   1      42.642  26.119  24.716  1.00  0.00    -0.237 OA
ATOM     61  O   UNL A   1      42.172  28.538  24.810  1.00  0.00    -0.237 OA
ATOM     62  O   UNL A   1      44.118  27.633  25.995  1.00  0.00    -0.744 OA
ENDBRANCH  56  59
ENDBRANCH  28  52
BRANCH  40  63
ATOM     63  C   UNL A   1      44.200  28.433  35.105  1.00  0.00     0.023 A 
ATOM     64  C   UNL A   1      45.524  28.774  34.769  1.00  0.00     0.012 A 
ATOM     65  C   UNL A   1      43.963  27.480  36.115  1.00  0.00     0.148 A 
ATOM     66  C   UNL A   1      46.598  28.167  35.418  1.00  0.00     0.002 A 
ATOM     67  C   UNL A   1      45.037  26.909  36.786  1.00  0.00     0.091 A 
ATOM     68  F   UNL A   1      42.694  27.158  36.405  1.00  0.00    -0.205 F 
ATOM     69  C   UNL A   1      46.354  27.245  36.435  1.00  0.00     0.022 A 
BRANCH  67  70
ATOM     70  S   UNL A   1      44.818  25.785  38.171  1.00  0.00     0.127 S 
ATOM     71  O   UNL A   1      44.203  24.628  37.521  1.00  0.00    -0.237 OA
ATOM     72  O   UNL A   1      46.192  25.573  38.623  1.00  0.00    -0.237 OA
ATOM     73  O   UNL A   1      43.971  26.488  39.126  1.00  0.00    -0.744 OA
ENDBRANCH  67  70
ENDBRANCH  40  63
ENDBRANCH  14  15
ENDBRANCH   7   9
ENDBRANCH   4   5
ENDBRANCH   3   4
ENDBRANCH   2   3
ENDBRANCH   1   2
BRANCH   1  74
ATOM     74  C   UNL A   1      31.704  28.456  27.659  1.00  0.00     0.021 C 
BRANCH  74  75
ATOM     75  C   UNL A   1      31.398  27.404  26.598  1.00  0.00     0.116 C 
BRANCH  75  76
ATOM     76  N   UNL A   1      32.472  26.448  26.432  1.00  0.00    -0.354 N 
ATOM     77  C   UNL A   1      32.381  25.083  26.332  1.00  0.00     0.244 C 
ATOM     78  H   UNL A   1      33.381  26.823  26.385  1.00  0.00     0.163 HD
ATOM     79  O   UNL A   1      33.406  24.440  26.106  1.00  0.00    -0.273 OA
BRANCH  77  80
ATOM     80  C   UNL A   1      30.991  24.423  26.427  1.00  0.00     0.197 C 
BRANCH  80  81
ATOM     81  N   UNL A   1      30.207  24.776  25.226  1.00  0.00    -0.340 N 
ATOM     82  C   UNL A   1      30.504  24.944  23.909  1.00  0.00     0.244 C 
ATOM     83  H   UNL A   1      29.254  24.925  25.424  1.00  0.00     0.164 HD
ATOM     84  O   UNL A   1      29.590  25.394  23.206  1.00  0.00    -0.273 OA
BRANCH  82  85
ATOM     85  C   UNL A   1      31.793  24.427  23.215  1.00  0.00     0.181 C 
BRANCH  85  86
ATOM     86  N   UNL A   1      31.684  23.090  22.641  1.00  0.00    -0.339 N 
ATOM     87  C   UNL A   1      32.393  21.953  22.906  1.00  0.00     0.251 C 
ATOM     88  H   UNL A   1      30.988  22.992  21.952  1.00  0.00     0.164 HD
ATOM     89  O   UNL A   1      31.974  20.872  22.501  1.00  0.00    -0.269 OA
BRANCH  87  90
ATOM     90  C   UNL A   1      33.692  22.023  23.597  1.00  0.00     0.040 A 
ATOM     91  C   UNL A   1      34.707  22.898  23.198  1.00  0.00     0.017 A 
ATOM     92  C   UNL A   1      33.872  21.180  24.703  1.00  0.00     0.017 A 
ATOM     93  C   UNL A   1      35.927  22.883  23.877  1.00  0.00     0.040 A 
ATOM     94  C   UNL A   1      35.088  21.178  25.383  1.00  0.00     0.040 A 
ATOM     95  C   UNL A   1      36.107  22.023  24.958  1.00  0.00     0.123 A 
ATOM     96  F   UNL A   1      37.279  22.016  25.604  1.00  0.00    -0.207 F 
ENDBRANCH  87  90
ENDBRANCH  85  86
BRANCH  85  97
ATOM     97  C   UNL A   1      32.227  25.510  22.200  1.00  0.00     0.101 C 
BRANCH  97  98
ATOM     98  S   UNL A   1      32.332  27.204  22.872  1.00  0.00    -0.177 SA
ATOM     99  H   UNL A   1      32.828  28.038  21.920  1.00  0.00     0.102 HD
ENDBRANCH  97  98
ENDBRANCH  85  97
ENDBRANCH  82  85
ENDBRANCH  80  81
BRANCH  80 100
ATOM    100  C   UNL A   1      31.152  22.896  26.529  1.00  0.00     0.191 C 
BRANCH 100 101
ATOM    101  O   UNL A   1      31.842  22.527  27.727  1.00  0.00    -0.394 OA
ATOM    102  H   UNL A   1      31.255  21.995  28.287  1.00  0.00     0.210 HD
ENDBRANCH 100 101
ENDBRANCH  80 100
ENDBRANCH  77  80
ENDBRANCH  75  76
ENDBRANCH  74  75
ENDBRANCH   1  74
TORSDOF 24
ENDMDL
MODEL 3
REMARK VINA RESULT:     -10.6      1.153      7.426
REMARK SMILES O=C(NCCCCCCNC(=O)[C@H](CO)NC(=O)[C@H](CS)NC(=O)c1ccc(F)cc1)c1ccc(-c2c3nc(c(-c4cccc(S(=O)(=O)[O-])c4F)c4ccc([nH]4)c(-c4cccc(S(=O)(=O)[O-])c4F)c4nc(c(-c5cccc(S(=O)(=O)[O-])c5F)c5ccc2[nH]5)C=C4)C=C3)cc1
REMARK SMILES IDX 7 1 6 2 5 3 4 4 3 5 1 6 2 7 32 9 33 10 94 11 34 12 93 13
REMARK SMILES IDX 35 14 36 15 37 16 87 17 38 18 92 19 86 20 88 21 39 22 91 23
REMARK SMILES IDX 85 24 84 25 40 27 72 28 52 29 71 30 53 31 56 32 70 33 89 34
REMARK SMILES IDX 54 35 55 36 69 38 90 39 57 40 41 41 42 42 50 43 43 44 45 45
REMARK SMILES IDX 51 46 44 47 46 48 47 49 48 50 49 51 73 52 74 53 82 54 75 55
REMARK SMILES IDX 77 56 83 57 76 58 78 59 79 60 80 61 81 62 58 63 59 64 67 65
REMARK SMILES IDX 60 66 62 67 68 68 61 69 63 70 64 71 65 72 66 73 8 74 9 75
REMARK SMILES IDX 10 76 11 77 12 79 13 80 16 81 17 82 18 84 19 85 22 86 23 87
REMARK SMILES IDX 24 89 25 90 26 91 31 92 27 93 30 94 28 95 29 96 20 97 21 98
REMARK SMILES IDX 14 100 15 101
REMARK H PARENT 3 8 88 26 56 37 10 78 16 83 22 88 21 99 15 102
REMARK Flexibility Score: inf
ROOT
ATOM      1  C   UNL A   1      35.335  24.472  25.094  1.00  0.00     0.002 C 
ENDROOT
BRANCH   1   2
ATOM      2  C   UNL A   1      35.706  23.537  23.934  1.00  0.00     0.002 C 
BRANCH   2   3
ATOM      3  C   UNL A   1      36.753  22.467  24.259  1.00  0.00     0.021 C 
BRANCH   3   4
ATOM      4  C   UNL A   1      37.109  22.353  25.737  1.00  0.00     0.116 C 
BRANCH   4   5
ATOM      5  N   UNL A   1      38.118  21.332  25.970  1.00  0.00    -0.352 N 
ATOM      6  O   UNL A   1      40.194  20.512  26.241  1.00  0.00    -0.269 OA
ATOM      7  C   UNL A   1      39.437  21.476  26.322  1.00  0.00     0.251 C 
ATOM      8  H   UNL A   1      37.811  20.403  25.858  1.00  0.00     0.163 HD
BRANCH   7   9
ATOM      9  C   UNL A   1      39.943  22.787  26.788  1.00  0.00     0.039 A 
ATOM     10  C   UNL A   1      40.879  22.863  27.822  1.00  0.00     0.014 A 
ATOM     11  C   UNL A   1      39.512  23.953  26.146  1.00  0.00     0.014 A 
ATOM     12  C   UNL A   1      41.300  24.105  28.287  1.00  0.00     0.010 A 
ATOM     13  C   UNL A   1      39.993  25.197  26.566  1.00  0.00     0.010 A 
ATOM     14  C   UNL A   1      40.877  25.284  27.651  1.00  0.00    -0.014 A 
BRANCH  14  15
ATOM     15  C   UNL A   1      41.458  26.583  28.074  1.00  0.00     0.031 A 
ATOM     16  C   UNL A   1      42.881  26.945  27.769  1.00  0.00     0.074 A 
ATOM     17  C   UNL A   1      40.668  27.447  28.742  1.00  0.00     0.049 A 
ATOM     18  N   UNL A   1      43.512  28.062  28.020  1.00  0.00    -0.248 NA
ATOM     19  C   UNL A   1      43.709  25.926  27.105  1.00  0.00     0.031 C 
ATOM     20  C   UNL A   1      39.282  27.177  29.137  1.00  0.00     0.029 A 
ATOM     21  N   UNL A   1      40.902  28.718  29.199  1.00  0.00    -0.354 N 
ATOM     22  C   UNL A   1      44.816  27.875  27.577  1.00  0.00     0.074 A 
ATOM     23  C   UNL A   1      44.889  26.531  27.045  1.00  0.00     0.031 C 
ATOM     24  C   UNL A   1      38.779  28.261  29.742  1.00  0.00     0.029 A 
ATOM     25  C   UNL A   1      39.815  29.286  29.821  1.00  0.00     0.049 A 
ATOM     26  H   UNL A   1      41.765  29.179  29.094  1.00  0.00     0.167 HD
ATOM     27  C   UNL A   1      45.846  28.753  27.593  1.00  0.00     0.034 A 
ATOM     28  C   UNL A   1      39.663  30.497  30.390  1.00  0.00     0.034 A 
ATOM     29  C   UNL A   1      45.751  30.102  28.088  1.00  0.00     0.049 A 
ATOM     30  C   UNL A   1      40.810  31.463  30.362  1.00  0.00     0.074 A 
ATOM     31  C   UNL A   1      46.723  31.086  28.088  1.00  0.00     0.029 A 
ATOM     32  N   UNL A   1      44.623  30.656  28.676  1.00  0.00    -0.354 N 
ATOM     33  N   UNL A   1      41.995  31.313  29.821  1.00  0.00    -0.248 NA
ATOM     34  C   UNL A   1      40.599  32.772  30.996  1.00  0.00     0.031 C 
ATOM     35  C   UNL A   1      46.189  32.231  28.686  1.00  0.00     0.029 A 
ATOM     36  C   UNL A   1      44.877  31.965  29.046  1.00  0.00     0.049 A 
ATOM     37  H   UNL A   1      43.767  30.187  28.809  1.00  0.00     0.167 HD
ATOM     38  C   UNL A   1      42.667  32.508  30.034  1.00  0.00     0.074 A 
ATOM     39  C   UNL A   1      41.747  33.385  30.732  1.00  0.00     0.031 C 
ATOM     40  C   UNL A   1      43.937  32.842  29.700  1.00  0.00     0.034 A 
BRANCH  27  41
ATOM     41  C   UNL A   1      47.163  28.314  27.009  1.00  0.00     0.023 A 
ATOM     42  C   UNL A   1      48.229  28.000  27.875  1.00  0.00     0.012 A 
ATOM     43  C   UNL A   1      47.315  28.113  25.623  1.00  0.00     0.148 A 
ATOM     44  C   UNL A   1      49.433  27.508  27.370  1.00  0.00     0.002 A 
ATOM     45  C   UNL A   1      48.505  27.589  25.131  1.00  0.00     0.091 A 
ATOM     46  F   UNL A   1      46.297  28.439  24.814  1.00  0.00    -0.205 F 
ATOM     47  C   UNL A   1      49.566  27.291  26.001  1.00  0.00     0.022 A 
BRANCH  45  48
ATOM     48  S   UNL A   1      48.744  27.203  23.391  1.00  0.00     0.127 S 
ATOM     49  O   UNL A   1      48.047  25.923  23.275  1.00  0.00    -0.237 OA
ATOM     50  O   UNL A   1      48.073  28.323  22.729  1.00  0.00    -0.237 OA
ATOM     51  O   UNL A   1      50.184  27.156  23.187  1.00  0.00    -0.744 OA
ENDBRANCH  45  48
ENDBRANCH  27  41
BRANCH  28  52
ATOM     52  C   UNL A   1      38.335  30.866  30.958  1.00  0.00     0.023 A 
ATOM     53  C   UNL A   1      38.101  30.685  32.334  1.00  0.00     0.012 A 
ATOM     54  C   UNL A   1      37.353  31.498  30.170  1.00  0.00     0.148 A 
ATOM     55  C   UNL A   1      36.912  31.128  32.915  1.00  0.00     0.002 A 
ATOM     56  C   UNL A   1      36.199  31.992  30.766  1.00  0.00     0.091 A 
ATOM     57  F   UNL A   1      37.590  31.644  28.859  1.00  0.00    -0.205 F 
ATOM     58  C   UNL A   1      35.971  31.796  32.136  1.00  0.00     0.022 A 
BRANCH  56  59
ATOM     59  S   UNL A   1      35.015  33.005  29.872  1.00  0.00     0.127 S 
ATOM     60  O   UNL A   1      34.104  33.411  30.939  1.00  0.00    -0.237 OA
ATOM     61  O   UNL A   1      35.867  34.074  29.348  1.00  0.00    -0.237 OA
ATOM     62  O   UNL A   1      34.449  32.137  28.849  1.00  0.00    -0.744 OA
ENDBRANCH  56  59
ENDBRANCH  28  52
BRANCH  40  63
ATOM     63  C   UNL A   1      44.426  34.213  30.077  1.00  0.00     0.023 A 
ATOM     64  C   UNL A   1      44.232  35.285  29.185  1.00  0.00     0.012 A 
ATOM     65  C   UNL A   1      44.966  34.462  31.355  1.00  0.00     0.148 A 
ATOM     66  C   UNL A   1      44.582  36.583  29.550  1.00  0.00     0.002 A 
ATOM     67  C   UNL A   1      45.274  35.764  31.728  1.00  0.00     0.091 A 
ATOM     68  F   UNL A   1      45.160  33.424  32.181  1.00  0.00    -0.205 F 
ATOM     69  C   UNL A   1      45.090  36.825  30.825  1.00  0.00     0.022 A 
BRANCH  67  70
ATOM     70  S   UNL A   1      45.844  36.182  33.380  1.00  0.00     0.127 S 
ATOM     71  O   UNL A   1      45.525  37.608  33.453  1.00  0.00    -0.237 OA
ATOM     72  O   UNL A   1      45.011  35.327  34.225  1.00  0.00    -0.237 OA
ATOM     73  O   UNL A   1      47.263  35.857  33.408  1.00  0.00    -0.744 OA
ENDBRANCH  67  70
ENDBRANCH  40  63
ENDBRANCH  14  15
ENDBRANCH   7   9
ENDBRANCH   4   5
ENDBRANCH   3   4
ENDBRANCH   2   3
ENDBRANCH   1   2
BRANCH   1  74
ATOM     74  C   UNL A   1      34.007  25.217  24.933  1.00  0.00     0.021 C 
BRANCH  74  75
ATOM     75  C   UNL A   1      33.726  25.676  23.506  1.00  0.00     0.116 C 
BRANCH  75  76
ATOM     76  N   UNL A   1      34.102  27.055  23.278  1.00  0.00    -0.354 N 
ATOM     77  C   UNL A   1      33.301  28.167  23.314  1.00  0.00     0.244 C 
ATOM     78  H   UNL A   1      35.051  27.215  23.071  1.00  0.00     0.163 HD
ATOM     79  O   UNL A   1      33.824  29.274  23.177  1.00  0.00    -0.273 OA
BRANCH  77  80
ATOM     80  C   UNL A   1      31.797  27.990  23.602  1.00  0.00     0.197 C 
BRANCH  80  81
ATOM     81  N   UNL A   1      31.609  27.747  25.046  1.00  0.00    -0.340 N 
ATOM     82  C   UNL A   1      30.979  26.789  25.778  1.00  0.00     0.244 C 
ATOM     83  H   UNL A   1      32.036  28.435  25.607  1.00  0.00     0.164 HD
ATOM     84  O   UNL A   1      30.908  27.003  26.995  1.00  0.00    -0.273 OA
BRANCH  82  85
ATOM     85  C   UNL A   1      30.549  25.397  25.240  1.00  0.00     0.181 C 
BRANCH  85  86
ATOM     86  N   UNL A   1      29.760  24.599  26.172  1.00  0.00    -0.339 N 
ATOM     87  C   UNL A   1      30.100  23.494  26.899  1.00  0.00     0.251 C 
ATOM     88  H   UNL A   1      28.832  24.906  26.296  1.00  0.00     0.164 HD
ATOM     89  O   UNL A   1      29.372  23.127  27.817  1.00  0.00    -0.269 OA
BRANCH  87  90
ATOM     90  C   UNL A   1      31.283  22.694  26.538  1.00  0.00     0.040 A 
ATOM     91  C   UNL A   1      32.437  22.665  27.326  1.00  0.00     0.017 A 
ATOM     92  C   UNL A   1      31.204  21.934  25.363  1.00  0.00     0.017 A 
ATOM     93  C   UNL A   1      33.535  21.913  26.903  1.00  0.00     0.040 A 
ATOM     94  C   UNL A   1      32.299  21.177  24.951  1.00  0.00     0.040 A 
ATOM     95  C   UNL A   1      33.457  21.181  25.720  1.00  0.00     0.123 A 
ATOM     96  F   UNL A   1      34.514  20.463  25.321  1.00  0.00    -0.207 F 
ENDBRANCH  87  90
ENDBRANCH  85  86
BRANCH  85  97
ATOM     97  C   UNL A   1      29.858  25.632  23.877  1.00  0.00     0.101 C 
BRANCH  97  98
ATOM     98  S   UNL A   1      28.300  26.580  23.951  1.00  0.00    -0.177 SA
ATOM     99  H   UNL A   1      28.578  27.889  24.197  1.00  0.00     0.102 HD
ENDBRANCH  97  98
ENDBRANCH  85  97
ENDBRANCH  82  85
ENDBRANCH  80  81
BRANCH  80 100
ATOM    100  C   UNL A   1      31.037  29.257  23.171  1.00  0.00     0.191 C 
BRANCH 100 101
ATOM    101  O   UNL A   1      31.372  29.632  21.832  1.00  0.00    -0.394 OA
ATOM    102  H   UNL A   1      30.669  30.192  21.468  1.00  0.00     0.210 HD
ENDBRANCH 100 101
ENDBRANCH  80 100
ENDBRANCH  77  80
ENDBRANCH  75  76
ENDBRANCH  74  75
ENDBRANCH   1  74
TORSDOF 24
ENDMDL
