MODEL 1
REMARK VINA RESULT:     -12.7      0.000      0.000
REMARK SMILES CC1=Nc2ncnn2[C@H](c2ccc(F)cc2)[C@@H]1C(=O)NCCCCCCNC(=O)c1ccc(-c2c3nc(c(-c4cccc(S(=O)(=O)[O-])c4F)c4ccc([nH]4)c(-c4cccc(S(=O)(=O)[O-])c4F)c4nc(c(-c5cccc(S(=O)(=O)[O-])c5F)c5ccc2[nH]5)C=C4)C=C3)cc1
REMARK SMILES IDX 24 1 23 2 22 3 21 4 20 5 18 6 19 7 17 9 1 10 2 11 3 12 4 13
REMARK SMILES IDX 9 14 5 15 8 16 6 17 7 18 10 19 11 20 16 21 12 22 15 23 13 24
REMARK SMILES IDX 14 25 25 26 26 27 27 28 28 29 29 31 30 32 31 33 92 34 32 35
REMARK SMILES IDX 91 36 33 37 34 38 35 39 85 40 36 41 90 42 84 43 86 44 37 45
REMARK SMILES IDX 89 46 83 47 82 48 38 50 70 51 50 52 69 53 51 54 54 55 68 56
REMARK SMILES IDX 87 57 52 58 53 59 67 61 88 62 55 63 39 64 40 65 48 66 41 67
REMARK SMILES IDX 43 68 49 69 42 70 44 71 45 72 46 73 47 74 71 75 72 76 80 77
REMARK SMILES IDX 73 78 75 79 81 80 74 81 76 82 77 83 78 84 79 85 56 86 57 87
REMARK SMILES IDX 65 88 58 89 60 90 66 91 59 92 61 93 62 94 63 95 64 96
REMARK H PARENT 20 8 27 30 86 49 54 60
REMARK Flexibility Score: inf
ROOT
ATOM      1  C   UNL A   1      36.618  20.423  24.991  1.00  0.00     0.002 C 
ENDROOT
BRANCH   1   2
ATOM      2  C   UNL A   1      36.778  21.828  24.393  1.00  0.00     0.002 C 
BRANCH   2   3
ATOM      3  C   UNL A   1      36.805  23.004  25.370  1.00  0.00     0.021 C 
BRANCH   3   4
ATOM      4  C   UNL A   1      35.571  23.899  25.394  1.00  0.00     0.116 C 
BRANCH   4   5
ATOM      5  N   UNL A   1      34.638  23.601  26.470  1.00  0.00    -0.355 N 
ATOM      6  C   UNL A   1      33.290  23.422  26.462  1.00  0.00     0.231 C 
ATOM      7  O   UNL A   1      32.749  23.123  27.531  1.00  0.00    -0.274 OA
ATOM      8  H   UNL A   1      35.055  23.516  27.357  1.00  0.00     0.163 HD
BRANCH   6   9
ATOM      9  C   UNL A   1      32.458  23.573  25.208  1.00  0.00     0.152 C 
ATOM     10  C   UNL A   1      33.008  21.111  24.526  1.00  0.00     0.063 C 
ATOM     11  C   UNL A   1      32.822  22.561  24.130  1.00  0.00     0.034 C 
ATOM     12  N   UNL A   1      33.021  22.836  22.881  1.00  0.00    -0.220 NA
ATOM     13  C   UNL A   1      32.952  24.123  22.475  1.00  0.00     0.248 A 
ATOM     14  C   UNL A   1      32.215  25.017  24.693  1.00  0.00     0.159 C 
ATOM     15  N   UNL A   1      33.137  24.605  21.267  1.00  0.00    -0.198 NA
ATOM     16  N   UNL A   1      32.660  25.173  23.310  1.00  0.00    -0.221 N 
ATOM     17  C   UNL A   1      32.908  25.948  21.404  1.00  0.00     0.248 A 
ATOM     18  N   UNL A   1      32.493  26.315  22.621  1.00  0.00    -0.157 NA
BRANCH  14  19
ATOM     19  C   UNL A   1      32.506  26.265  25.551  1.00  0.00    -0.022 A 
ATOM     20  C   UNL A   1      31.466  26.793  26.350  1.00  0.00     0.009 A 
ATOM     21  C   UNL A   1      33.719  26.970  25.568  1.00  0.00     0.009 A 
ATOM     22  C   UNL A   1      31.653  27.921  27.158  1.00  0.00     0.039 A 
ATOM     23  C   UNL A   1      33.924  28.075  26.403  1.00  0.00     0.039 A 
ATOM     24  C   UNL A   1      32.890  28.538  27.196  1.00  0.00     0.123 A 
ATOM     25  F   UNL A   1      33.091  29.596  27.993  1.00  0.00    -0.207 F 
ENDBRANCH  14  19
ENDBRANCH   6   9
ENDBRANCH   4   5
ENDBRANCH   3   4
ENDBRANCH   2   3
ENDBRANCH   1   2
BRANCH   1  26
ATOM     26  C   UNL A   1      37.832  19.486  24.944  1.00  0.00     0.021 C 
BRANCH  26  27
ATOM     27  C   UNL A   1      39.085  20.045  25.592  1.00  0.00     0.116 C 
BRANCH  27  28
ATOM     28  N   UNL A   1      40.147  19.048  25.738  1.00  0.00    -0.352 N 
ATOM     29  C   UNL A   1      41.494  19.272  25.982  1.00  0.00     0.251 C 
ATOM     30  H   UNL A   1      39.873  18.106  25.652  1.00  0.00     0.163 HD
ATOM     31  O   UNL A   1      42.331  18.424  25.737  1.00  0.00    -0.269 OA
BRANCH  29  32
ATOM     32  C   UNL A   1      41.879  20.575  26.560  1.00  0.00     0.039 A 
ATOM     33  C   UNL A   1      42.433  21.599  25.786  1.00  0.00     0.014 A 
ATOM     34  C   UNL A   1      41.605  20.768  27.907  1.00  0.00     0.014 A 
ATOM     35  C   UNL A   1      42.632  22.846  26.376  1.00  0.00     0.010 A 
ATOM     36  C   UNL A   1      41.591  22.037  28.413  1.00  0.00     0.010 A 
ATOM     37  C   UNL A   1      42.190  23.059  27.691  1.00  0.00    -0.014 A 
BRANCH  37  38
ATOM     38  C   UNL A   1      42.284  24.363  28.336  1.00  0.00     0.031 A 
ATOM     39  C   UNL A   1      41.107  25.243  28.129  1.00  0.00     0.074 A 
ATOM     40  C   UNL A   1      43.241  24.643  29.249  1.00  0.00     0.049 A 
ATOM     41  N   UNL A   1      41.045  26.322  27.421  1.00  0.00    -0.248 NA
ATOM     42  C   UNL A   1      39.807  24.805  28.659  1.00  0.00     0.031 C 
ATOM     43  C   UNL A   1      44.232  23.712  29.820  1.00  0.00     0.029 A 
ATOM     44  N   UNL A   1      43.438  25.769  29.988  1.00  0.00    -0.354 N 
ATOM     45  C   UNL A   1      39.768  26.834  27.646  1.00  0.00     0.074 A 
ATOM     46  C   UNL A   1      38.992  25.761  28.203  1.00  0.00     0.031 C 
ATOM     47  C   UNL A   1      44.705  24.210  30.981  1.00  0.00     0.029 A 
ATOM     48  C   UNL A   1      44.234  25.574  31.112  1.00  0.00     0.049 A 
ATOM     49  H   UNL A   1      43.052  26.642  29.748  1.00  0.00     0.167 HD
ATOM     50  C   UNL A   1      39.546  28.179  27.652  1.00  0.00     0.034 A 
ATOM     51  C   UNL A   1      44.478  26.468  32.095  1.00  0.00     0.034 A 
ATOM     52  C   UNL A   1      40.709  28.896  27.198  1.00  0.00     0.049 A 
ATOM     53  C   UNL A   1      44.238  27.810  31.530  1.00  0.00     0.074 A 
ATOM     54  C   UNL A   1      41.312  29.189  25.997  1.00  0.00     0.029 A 
ATOM     55  N   UNL A   1      41.632  29.105  28.188  1.00  0.00    -0.354 N 
ATOM     56  N   UNL A   1      44.940  28.311  30.552  1.00  0.00    -0.248 NA
ATOM     57  C   UNL A   1      42.996  28.508  31.836  1.00  0.00     0.031 C 
ATOM     58  C   UNL A   1      42.687  29.430  26.292  1.00  0.00     0.029 A 
ATOM     59  C   UNL A   1      42.881  29.311  27.667  1.00  0.00     0.049 A 
ATOM     60  H   UNL A   1      41.424  29.108  29.150  1.00  0.00     0.167 HD
ATOM     61  C   UNL A   1      44.025  29.069  29.848  1.00  0.00     0.074 A 
ATOM     62  C   UNL A   1      42.930  29.317  30.776  1.00  0.00     0.031 C 
ATOM     63  C   UNL A   1      44.060  29.133  28.488  1.00  0.00     0.034 A 
BRANCH  50  64
ATOM     64  C   UNL A   1      38.487  28.902  28.455  1.00  0.00     0.023 A 
ATOM     65  C   UNL A   1      37.597  29.744  27.751  1.00  0.00     0.012 A 
ATOM     66  C   UNL A   1      38.476  29.006  29.865  1.00  0.00     0.148 A 
ATOM     67  C   UNL A   1      36.751  30.644  28.411  1.00  0.00     0.002 A 
ATOM     68  C   UNL A   1      37.572  29.837  30.521  1.00  0.00     0.091 A 
ATOM     69  F   UNL A   1      39.436  28.414  30.583  1.00  0.00    -0.205 F 
ATOM     70  C   UNL A   1      36.724  30.678  29.798  1.00  0.00     0.022 A 
BRANCH  68  71
ATOM     71  S   UNL A   1      37.449  29.864  32.313  1.00  0.00     0.127 S 
ATOM     72  O   UNL A   1      36.283  30.718  32.515  1.00  0.00    -0.237 OA
ATOM     73  O   UNL A   1      37.241  28.448  32.620  1.00  0.00    -0.237 OA
ATOM     74  O   UNL A   1      38.726  30.390  32.777  1.00  0.00    -0.744 OA
ENDBRANCH  68  71
ENDBRANCH  50  64
BRANCH  51  75
ATOM     75  C   UNL A   1      44.691  26.264  33.542  1.00  0.00     0.023 A 
ATOM     76  C   UNL A   1      45.948  26.574  34.098  1.00  0.00     0.012 A 
ATOM     77  C   UNL A   1      43.589  26.104  34.410  1.00  0.00     0.148 A 
ATOM     78  C   UNL A   1      46.089  26.796  35.471  1.00  0.00     0.002 A 
ATOM     79  C   UNL A   1      43.734  26.335  35.774  1.00  0.00     0.091 A 
ATOM     80  F   UNL A   1      42.390  25.824  33.882  1.00  0.00    -0.205 F 
ATOM     81  C   UNL A   1      44.979  26.699  36.305  1.00  0.00     0.022 A 
BRANCH  79  82
ATOM     82  S   UNL A   1      42.344  26.285  36.912  1.00  0.00     0.127 S 
ATOM     83  O   UNL A   1      41.826  24.934  36.696  1.00  0.00    -0.237 OA
ATOM     84  O   UNL A   1      43.000  26.488  38.200  1.00  0.00    -0.237 OA
ATOM     85  O   UNL A   1      41.444  27.351  36.490  1.00  0.00    -0.744 OA
ENDBRANCH  79  82
ENDBRANCH  51  75
BRANCH  63  86
ATOM     86  C   UNL A   1      45.359  28.819  27.802  1.00  0.00     0.023 A 
ATOM     87  C   UNL A   1      46.477  29.675  27.836  1.00  0.00     0.012 A 
ATOM     88  C   UNL A   1      45.480  27.566  27.179  1.00  0.00     0.148 A 
ATOM     89  C   UNL A   1      47.686  29.292  27.247  1.00  0.00     0.002 A 
ATOM     90  C   UNL A   1      46.694  27.169  26.638  1.00  0.00     0.091 A 
ATOM     91  F   UNL A   1      44.399  26.773  27.140  1.00  0.00    -0.205 F 
ATOM     92  C   UNL A   1      47.799  28.033  26.660  1.00  0.00     0.022 A 
BRANCH  90  93
ATOM     93  S   UNL A   1      46.920  25.516  25.981  1.00  0.00     0.127 S 
ATOM     94  O   UNL A   1      45.992  25.505  24.853  1.00  0.00    -0.237 OA
ATOM     95  O   UNL A   1      48.336  25.515  25.610  1.00  0.00    -0.237 OA
ATOM     96  O   UNL A   1      46.595  24.608  27.074  1.00  0.00    -0.744 OA
ENDBRANCH  90  93
ENDBRANCH  63  86
ENDBRANCH  37  38
ENDBRANCH  29  32
ENDBRANCH  27  28
ENDBRANCH  26  27
ENDBRANCH   1  26
TORSDOF 17
ENDMDL
MODEL 2
REMARK VINA RESULT:     -12.4      1.860      3.124
REMARK SMILES CC1=Nc2ncnn2[C@H](c2ccc(F)cc2)[C@@H]1C(=O)NCCCCCCNC(=O)c1ccc(-c2c3nc(c(-c4cccc(S(=O)(=O)[O-])c4F)c4ccc([nH]4)c(-c4cccc(S(=O)(=O)[O-])c4F)c4nc(c(-c5cccc(S(=O)(=O)[O-])c5F)c5ccc2[nH]5)C=C4)C=C3)cc1
REMARK SMILES IDX 24 1 23 2 22 3 21 4 20 5 18 6 19 7 17 9 1 10 2 11 3 12 4 13
REMARK SMILES IDX 9 14 5 15 8 16 6 17 7 18 10 19 11 20 16 21 12 22 15 23 13 24
REMARK SMILES IDX 14 25 25 26 26 27 27 28 28 29 29 31 30 32 31 33 92 34 32 35
REMARK SMILES IDX 91 36 33 37 34 38 35 39 85 40 36 41 90 42 84 43 86 44 37 45
REMARK SMILES IDX 89 46 83 47 82 48 38 50 70 51 50 52 69 53 51 54 54 55 68 56
REMARK SMILES IDX 87 57 52 58 53 59 67 61 88 62 55 63 39 64 40 65 48 66 41 67
REMARK SMILES IDX 43 68 49 69 42 70 44 71 45 72 46 73 47 74 71 75 72 76 80 77
REMARK SMILES IDX 73 78 75 79 81 80 74 81 76 82 77 83 78 84 79 85 56 86 57 87
REMARK SMILES IDX 65 88 58 89 60 90 66 91 59 92 61 93 62 94 63 95 64 96
REMARK H PARENT 20 8 27 30 86 49 54 60
REMARK Flexibility Score: inf
ROOT
ATOM      1  C   UNL A   1      36.591  20.483  24.991  1.00  0.00     0.002 C 
ENDROOT
BRANCH   1   2
ATOM      2  C   UNL A   1      36.800  21.870  25.614  1.00  0.00     0.002 C 
BRANCH   2   3
ATOM      3  C   UNL A   1      35.591  22.524  26.284  1.00  0.00     0.021 C 
BRANCH   3   4
ATOM      4  C   UNL A   1      34.888  23.626  25.497  1.00  0.00     0.116 C 
BRANCH   4   5
ATOM      5  N   UNL A   1      34.918  23.440  24.055  1.00  0.00    -0.355 N 
ATOM      6  C   UNL A   1      33.932  23.515  23.122  1.00  0.00     0.231 C 
ATOM      7  O   UNL A   1      34.253  23.361  21.940  1.00  0.00    -0.274 OA
ATOM      8  H   UNL A   1      35.806  23.222  23.691  1.00  0.00     0.163 HD
BRANCH   6   9
ATOM      9  C   UNL A   1      32.487  23.777  23.487  1.00  0.00     0.152 C 
ATOM     10  C   UNL A   1      32.975  26.340  23.641  1.00  0.00     0.063 C 
ATOM     11  C   UNL A   1      32.288  25.110  24.197  1.00  0.00     0.034 C 
ATOM     12  N   UNL A   1      31.594  25.287  25.275  1.00  0.00    -0.220 NA
ATOM     13  C   UNL A   1      31.023  24.217  25.870  1.00  0.00     0.248 A 
ATOM     14  C   UNL A   1      31.685  22.591  24.085  1.00  0.00     0.159 C 
ATOM     15  N   UNL A   1      30.301  24.185  26.967  1.00  0.00    -0.198 NA
ATOM     16  N   UNL A   1      31.115  22.935  25.386  1.00  0.00    -0.221 N 
ATOM     17  C   UNL A   1      29.941  22.870  27.093  1.00  0.00     0.248 A 
ATOM     18  N   UNL A   1      30.322  22.094  26.073  1.00  0.00    -0.157 NA
BRANCH  14  19
ATOM     19  C   UNL A   1      32.187  21.134  24.027  1.00  0.00    -0.022 A 
ATOM     20  C   UNL A   1      32.002  20.403  22.831  1.00  0.00     0.009 A 
ATOM     21  C   UNL A   1      32.775  20.438  25.094  1.00  0.00     0.009 A 
ATOM     22  C   UNL A   1      32.433  19.078  22.699  1.00  0.00     0.039 A 
ATOM     23  C   UNL A   1      33.244  19.126  24.956  1.00  0.00     0.039 A 
ATOM     24  C   UNL A   1      33.073  18.458  23.757  1.00  0.00     0.123 A 
ATOM     25  F   UNL A   1      33.523  17.202  23.629  1.00  0.00    -0.207 F 
ENDBRANCH  14  19
ENDBRANCH   6   9
ENDBRANCH   4   5
ENDBRANCH   3   4
ENDBRANCH   2   3
ENDBRANCH   1   2
BRANCH   1  26
ATOM     26  C   UNL A   1      37.807  19.551  24.906  1.00  0.00     0.021 C 
BRANCH  26  27
ATOM     27  C   UNL A   1      39.057  20.079  25.584  1.00  0.00     0.116 C 
BRANCH  27  28
ATOM     28  N   UNL A   1      40.099  19.063  25.736  1.00  0.00    -0.352 N 
ATOM     29  C   UNL A   1      41.448  19.262  25.993  1.00  0.00     0.251 C 
ATOM     30  H   UNL A   1      39.809  18.127  25.644  1.00  0.00     0.163 HD
ATOM     31  O   UNL A   1      42.272  18.401  25.751  1.00  0.00    -0.269 OA
BRANCH  29  32
ATOM     32  C   UNL A   1      41.851  20.556  26.580  1.00  0.00     0.039 A 
ATOM     33  C   UNL A   1      42.390  21.589  25.807  1.00  0.00     0.014 A 
ATOM     34  C   UNL A   1      41.609  20.731  27.935  1.00  0.00     0.014 A 
ATOM     35  C   UNL A   1      42.607  22.827  26.410  1.00  0.00     0.010 A 
ATOM     36  C   UNL A   1      41.611  21.992  28.459  1.00  0.00     0.010 A 
ATOM     37  C   UNL A   1      42.197  23.023  27.737  1.00  0.00    -0.014 A 
BRANCH  37  38
ATOM     38  C   UNL A   1      42.309  24.317  28.398  1.00  0.00     0.031 A 
ATOM     39  C   UNL A   1      41.157  25.227  28.182  1.00  0.00     0.074 A 
ATOM     40  C   UNL A   1      43.258  24.566  29.330  1.00  0.00     0.049 A 
ATOM     41  N   UNL A   1      41.132  26.314  27.485  1.00  0.00    -0.248 NA
ATOM     42  C   UNL A   1      39.838  24.813  28.686  1.00  0.00     0.031 C 
ATOM     43  C   UNL A   1      44.218  23.605  29.907  1.00  0.00     0.029 A 
ATOM     44  N   UNL A   1      43.469  25.679  30.084  1.00  0.00    -0.354 N 
ATOM     45  C   UNL A   1      39.864  26.854  27.695  1.00  0.00     0.074 A 
ATOM     46  C   UNL A   1      39.054  25.793  28.228  1.00  0.00     0.031 C 
ATOM     47  C   UNL A   1      44.683  24.081  31.081  1.00  0.00     0.029 A 
ATOM     48  C   UNL A   1      44.242  25.453  31.218  1.00  0.00     0.049 A 
ATOM     49  H   UNL A   1      43.107  26.563  29.848  1.00  0.00     0.167 HD
ATOM     50  C   UNL A   1      39.672  28.203  27.712  1.00  0.00     0.034 A 
ATOM     51  C   UNL A   1      44.490  26.331  32.215  1.00  0.00     0.034 A 
ATOM     52  C   UNL A   1      40.859  28.897  27.284  1.00  0.00     0.049 A 
ATOM     53  C   UNL A   1      44.290  27.684  31.661  1.00  0.00     0.074 A 
ATOM     54  C   UNL A   1      41.488  29.189  26.097  1.00  0.00     0.029 A 
ATOM     55  N   UNL A   1      41.770  29.074  28.292  1.00  0.00    -0.354 N 
ATOM     56  N   UNL A   1      45.019  28.179  30.700  1.00  0.00    -0.248 NA
ATOM     57  C   UNL A   1      43.059  28.408  31.954  1.00  0.00     0.031 C 
ATOM     58  C   UNL A   1      42.863  29.395  26.417  1.00  0.00     0.029 A 
ATOM     59  C   UNL A   1      43.032  29.257  27.793  1.00  0.00     0.049 A 
ATOM     60  H   UNL A   1      41.547  29.072  29.250  1.00  0.00     0.167 HD
ATOM     61  C   UNL A   1      44.134  28.966  29.990  1.00  0.00     0.074 A 
ATOM     62  C   UNL A   1      43.029  29.229  30.902  1.00  0.00     0.031 C 
ATOM     63  C   UNL A   1      44.193  29.044  28.631  1.00  0.00     0.034 A 
BRANCH  50  64
ATOM     64  C   UNL A   1      38.617  28.942  28.506  1.00  0.00     0.023 A 
ATOM     65  C   UNL A   1      37.804  29.864  27.809  1.00  0.00     0.012 A 
ATOM     66  C   UNL A   1      38.548  28.978  29.917  1.00  0.00     0.148 A 
ATOM     67  C   UNL A   1      36.977  30.775  28.478  1.00  0.00     0.002 A 
ATOM     68  C   UNL A   1      37.660  29.823  30.576  1.00  0.00     0.091 A 
ATOM     69  F   UNL A   1      39.443  28.300  30.644  1.00  0.00    -0.205 F 
ATOM     70  C   UNL A   1      36.890  30.743  29.862  1.00  0.00     0.022 A 
BRANCH  68  71
ATOM     71  S   UNL A   1      37.458  29.769  32.361  1.00  0.00     0.127 S 
ATOM     72  O   UNL A   1      38.648  30.482  32.813  1.00  0.00    -0.237 OA
ATOM     73  O   UNL A   1      36.197  30.489  32.542  1.00  0.00    -0.237 OA
ATOM     74  O   UNL A   1      37.386  28.352  32.695  1.00  0.00    -0.744 OA
ENDBRANCH  68  71
ENDBRANCH  50  64
BRANCH  51  75
ATOM     75  C   UNL A   1      44.675  26.107  33.663  1.00  0.00     0.023 A 
ATOM     76  C   UNL A   1      45.936  26.360  34.239  1.00  0.00     0.012 A 
ATOM     77  C   UNL A   1      43.555  25.985  34.515  1.00  0.00     0.148 A 
ATOM     78  C   UNL A   1      46.067  26.565  35.615  1.00  0.00     0.002 A 
ATOM     79  C   UNL A   1      43.691  26.200  35.882  1.00  0.00     0.091 A 
ATOM     80  F   UNL A   1      42.352  25.760  33.969  1.00  0.00    -0.205 F 
ATOM     81  C   UNL A   1      44.942  26.507  36.434  1.00  0.00     0.022 A 
BRANCH  79  82
ATOM     82  S   UNL A   1      42.284  26.198  37.002  1.00  0.00     0.127 S 
ATOM     83  O   UNL A   1      42.921  26.486  38.287  1.00  0.00    -0.237 OA
ATOM     84  O   UNL A   1      41.470  27.286  36.467  1.00  0.00    -0.237 OA
ATOM     85  O   UNL A   1      41.697  24.868  36.903  1.00  0.00    -0.744 OA
ENDBRANCH  79  82
ENDBRANCH  51  75
BRANCH  63  86
ATOM     86  C   UNL A   1      45.496  28.706  27.963  1.00  0.00     0.023 A 
ATOM     87  C   UNL A   1      46.614  29.561  27.977  1.00  0.00     0.012 A 
ATOM     88  C   UNL A   1      45.617  27.435  27.380  1.00  0.00     0.148 A 
ATOM     89  C   UNL A   1      47.827  29.159  27.408  1.00  0.00     0.002 A 
ATOM     90  C   UNL A   1      46.834  27.019  26.858  1.00  0.00     0.091 A 
ATOM     91  F   UNL A   1      44.535  26.642  27.358  1.00  0.00    -0.205 F 
ATOM     92  C   UNL A   1      47.941  27.882  26.861  1.00  0.00     0.022 A 
BRANCH  90  93
ATOM     93  S   UNL A   1      47.061  25.347  26.253  1.00  0.00     0.127 S 
ATOM     94  O   UNL A   1      46.036  25.254  25.217  1.00  0.00    -0.237 OA
ATOM     95  O   UNL A   1      48.437  25.376  25.754  1.00  0.00    -0.237 OA
ATOM     96  O   UNL A   1      46.870  24.479  27.409  1.00  0.00    -0.744 OA
ENDBRANCH  90  93
ENDBRANCH  63  86
ENDBRANCH  37  38
ENDBRANCH  29  32
ENDBRANCH  27  28
ENDBRANCH  26  27
ENDBRANCH   1  26
TORSDOF 17
ENDMDL
MODEL 3
REMARK VINA RESULT:     -12.0      3.952      9.402
REMARK SMILES CC1=Nc2ncnn2[C@H](c2ccc(F)cc2)[C@@H]1C(=O)NCCCCCCNC(=O)c1ccc(-c2c3nc(c(-c4cccc(S(=O)(=O)[O-])c4F)c4ccc([nH]4)c(-c4cccc(S(=O)(=O)[O-])c4F)c4nc(c(-c5cccc(S(=O)(=O)[O-])c5F)c5ccc2[nH]5)C=C4)C=C3)cc1
REMARK SMILES IDX 24 1 23 2 22 3 21 4 20 5 18 6 19 7 17 9 1 10 2 11 3 12 4 13
REMARK SMILES IDX 9 14 5 15 8 16 6 17 7 18 10 19 11 20 16 21 12 22 15 23 13 24
REMARK SMILES IDX 14 25 25 26 26 27 27 28 28 29 29 31 30 32 31 33 92 34 32 35
REMARK SMILES IDX 91 36 33 37 34 38 35 39 85 40 36 41 90 42 84 43 86 44 37 45
REMARK SMILES IDX 89 46 83 47 82 48 38 50 70 51 50 52 69 53 51 54 54 55 68 56
REMARK SMILES IDX 87 57 52 58 53 59 67 61 88 62 55 63 39 64 40 65 48 66 41 67
REMARK SMILES IDX 43 68 49 69 42 70 44 71 45 72 46 73 47 74 71 75 72 76 80 77
REMARK SMILES IDX 73 78 75 79 81 80 74 81 76 82 77 83 78 84 79 85 56 86 57 87
REMARK SMILES IDX 65 88 58 89 60 90 66 91 59 92 61 93 62 94 63 95 64 96
REMARK H PARENT 20 8 27 30 86 49 54 60
REMARK Flexibility Score: inf
ROOT
ATOM      1  C   UNL A   1      31.427  30.627  26.688  1.00  0.00     0.002 C 
ENDROOT
BRANCH   1   2
ATOM      2  C   UNL A   1      32.696  29.972  26.126  1.00  0.00     0.002 C 
BRANCH   2   3
ATOM      3  C   UNL A   1      32.538  29.099  24.881  1.00  0.00     0.021 C 
BRANCH   3   4
ATOM      4  C   UNL A   1      33.377  27.826  24.829  1.00  0.00     0.116 C 
BRANCH   4   5
ATOM      5  N   UNL A   1      33.812  27.451  23.493  1.00  0.00    -0.355 N 
ATOM      6  C   UNL A   1      33.357  26.495  22.639  1.00  0.00     0.231 C 
ATOM      7  O   UNL A   1      33.886  26.428  21.525  1.00  0.00    -0.274 OA
ATOM      8  H   UNL A   1      34.566  27.980  23.147  1.00  0.00     0.163 HD
BRANCH   6   9
ATOM      9  C   UNL A   1      32.246  25.537  23.009  1.00  0.00     0.152 C 
ATOM     10  C   UNL A   1      30.462  27.358  22.434  1.00  0.00     0.063 C 
ATOM     11  C   UNL A   1      30.940  26.246  23.344  1.00  0.00     0.034 C 
ATOM     12  N   UNL A   1      30.198  26.000  24.375  1.00  0.00    -0.220 NA
ATOM     13  C   UNL A   1      30.608  25.076  25.272  1.00  0.00     0.248 A 
ATOM     14  C   UNL A   1      32.614  24.363  23.956  1.00  0.00     0.159 C 
ATOM     15  N   UNL A   1      30.012  24.698  26.380  1.00  0.00    -0.198 NA
ATOM     16  N   UNL A   1      31.770  24.354  25.149  1.00  0.00    -0.221 N 
ATOM     17  C   UNL A   1      30.826  23.716  26.879  1.00  0.00     0.248 A 
ATOM     18  N   UNL A   1      31.852  23.394  26.085  1.00  0.00    -0.157 NA
BRANCH  14  19
ATOM     19  C   UNL A   1      34.074  23.969  24.262  1.00  0.00    -0.022 A 
ATOM     20  C   UNL A   1      34.677  22.956  23.482  1.00  0.00     0.009 A 
ATOM     21  C   UNL A   1      34.853  24.498  25.302  1.00  0.00     0.009 A 
ATOM     22  C   UNL A   1      35.998  22.544  23.697  1.00  0.00     0.039 A 
ATOM     23  C   UNL A   1      36.187  24.119  25.497  1.00  0.00     0.039 A 
ATOM     24  C   UNL A   1      36.750  23.149  24.689  1.00  0.00     0.123 A 
ATOM     25  F   UNL A   1      38.027  22.788  24.879  1.00  0.00    -0.207 F 
ENDBRANCH  14  19
ENDBRANCH   6   9
ENDBRANCH   4   5
ENDBRANCH   3   4
ENDBRANCH   2   3
ENDBRANCH   1   2
BRANCH   1  26
ATOM     26  C   UNL A   1      31.365  32.160  26.706  1.00  0.00     0.021 C 
BRANCH  26  27
ATOM     27  C   UNL A   1      32.647  32.838  27.151  1.00  0.00     0.116 C 
BRANCH  27  28
ATOM     28  N   UNL A   1      32.424  34.171  27.713  1.00  0.00    -0.352 N 
ATOM     29  C   UNL A   1      33.070  34.756  28.793  1.00  0.00     0.251 C 
ATOM     30  H   UNL A   1      31.733  34.718  27.273  1.00  0.00     0.163 HD
ATOM     31  O   UNL A   1      32.580  35.697  29.388  1.00  0.00    -0.269 OA
BRANCH  29  32
ATOM     32  C   UNL A   1      34.379  34.203  29.191  1.00  0.00     0.039 A 
ATOM     33  C   UNL A   1      34.565  33.526  30.400  1.00  0.00     0.014 A 
ATOM     34  C   UNL A   1      35.416  34.326  28.276  1.00  0.00     0.014 A 
ATOM     35  C   UNL A   1      35.793  32.908  30.634  1.00  0.00     0.010 A 
ATOM     36  C   UNL A   1      36.524  33.539  28.408  1.00  0.00     0.010 A 
ATOM     37  C   UNL A   1      36.763  32.906  29.621  1.00  0.00    -0.014 A 
BRANCH  37  38
ATOM     38  C   UNL A   1      38.030  32.201  29.764  1.00  0.00     0.031 A 
ATOM     39  C   UNL A   1      38.023  30.803  29.266  1.00  0.00     0.074 A 
ATOM     40  C   UNL A   1      39.176  32.845  30.086  1.00  0.00     0.049 A 
ATOM     41  N   UNL A   1      38.084  29.718  29.964  1.00  0.00    -0.248 NA
ATOM     42  C   UNL A   1      37.781  30.575  27.833  1.00  0.00     0.031 C 
ATOM     43  C   UNL A   1      39.375  34.300  30.223  1.00  0.00     0.029 A 
ATOM     44  N   UNL A   1      40.444  32.363  30.199  1.00  0.00    -0.354 N 
ATOM     45  C   UNL A   1      38.164  28.686  29.030  1.00  0.00     0.074 A 
ATOM     46  C   UNL A   1      37.737  29.241  27.775  1.00  0.00     0.031 C 
ATOM     47  C   UNL A   1      40.688  34.589  30.109  1.00  0.00     0.029 A 
ATOM     48  C   UNL A   1      41.427  33.344  30.124  1.00  0.00     0.049 A 
ATOM     49  H   UNL A   1      40.646  31.408  30.322  1.00  0.00     0.167 HD
ATOM     50  C   UNL A   1      38.873  27.554  29.298  1.00  0.00     0.034 A 
ATOM     51  C   UNL A   1      42.763  33.146  30.062  1.00  0.00     0.034 A 
ATOM     52  C   UNL A   1      39.290  27.521  30.676  1.00  0.00     0.049 A 
ATOM     53  C   UNL A   1      43.030  31.811  30.631  1.00  0.00     0.074 A 
ATOM     54  C   UNL A   1      38.727  27.234  31.897  1.00  0.00     0.029 A 
ATOM     55  N   UNL A   1      40.442  28.225  30.905  1.00  0.00    -0.354 N 
ATOM     56  N   UNL A   1      42.786  31.500  31.874  1.00  0.00    -0.248 NA
ATOM     57  C   UNL A   1      43.288  30.687  29.740  1.00  0.00     0.031 C 
ATOM     58  C   UNL A   1      39.505  27.934  32.867  1.00  0.00     0.029 A 
ATOM     59  C   UNL A   1      40.541  28.601  32.218  1.00  0.00     0.049 A 
ATOM     60  H   UNL A   1      41.113  28.432  30.216  1.00  0.00     0.167 HD
ATOM     61  C   UNL A   1      42.409  30.173  31.810  1.00  0.00     0.074 A 
ATOM     62  C   UNL A   1      42.926  29.682  30.540  1.00  0.00     0.031 C 
ATOM     63  C   UNL A   1      41.421  29.682  32.610  1.00  0.00     0.034 A 
BRANCH  50  64
ATOM     64  C   UNL A   1      39.579  26.684  28.281  1.00  0.00     0.023 A 
ATOM     65  C   UNL A   1      39.271  25.305  28.278  1.00  0.00     0.012 A 
ATOM     66  C   UNL A   1      40.697  27.086  27.516  1.00  0.00     0.148 A 
ATOM     67  C   UNL A   1      40.038  24.377  27.560  1.00  0.00     0.002 A 
ATOM     68  C   UNL A   1      41.402  26.175  26.734  1.00  0.00     0.091 A 
ATOM     69  F   UNL A   1      41.182  28.325  27.646  1.00  0.00    -0.205 F 
ATOM     70  C   UNL A   1      41.093  24.815  26.773  1.00  0.00     0.022 A 
BRANCH  68  71
ATOM     71  S   UNL A   1      42.729  26.702  25.643  1.00  0.00     0.127 S 
ATOM     72  O   UNL A   1      42.041  27.659  24.783  1.00  0.00    -0.237 OA
ATOM     73  O   UNL A   1      43.679  27.289  26.589  1.00  0.00    -0.237 OA
ATOM     74  O   UNL A   1      43.206  25.482  25.004  1.00  0.00    -0.744 OA
ENDBRANCH  68  71
ENDBRANCH  50  64
BRANCH  51  75
ATOM     75  C   UNL A   1      43.811  33.913  29.359  1.00  0.00     0.023 A 
ATOM     76  C   UNL A   1      44.677  34.733  30.110  1.00  0.00     0.012 A 
ATOM     77  C   UNL A   1      44.175  33.577  28.037  1.00  0.00     0.148 A 
ATOM     78  C   UNL A   1      45.907  35.143  29.587  1.00  0.00     0.002 A 
ATOM     79  C   UNL A   1      45.404  33.981  27.526  1.00  0.00     0.091 A 
ATOM     80  F   UNL A   1      43.361  32.785  27.327  1.00  0.00    -0.205 F 
ATOM     81  C   UNL A   1      46.280  34.749  28.305  1.00  0.00     0.022 A 
BRANCH  79  82
ATOM     82  S   UNL A   1      45.987  33.472  25.904  1.00  0.00     0.127 S 
ATOM     83  O   UNL A   1      47.439  33.485  26.088  1.00  0.00    -0.237 OA
ATOM     84  O   UNL A   1      45.401  32.141  25.775  1.00  0.00    -0.237 OA
ATOM     85  O   UNL A   1      45.488  34.472  24.969  1.00  0.00    -0.744 OA
ENDBRANCH  79  82
ENDBRANCH  51  75
BRANCH  63  86
ATOM     86  C   UNL A   1      41.111  30.421  33.880  1.00  0.00     0.023 A 
ATOM     87  C   UNL A   1      41.969  30.428  34.997  1.00  0.00     0.012 A 
ATOM     88  C   UNL A   1      39.952  31.213  33.906  1.00  0.00     0.148 A 
ATOM     89  C   UNL A   1      41.666  31.201  36.123  1.00  0.00     0.002 A 
ATOM     90  C   UNL A   1      39.678  32.015  35.005  1.00  0.00     0.091 A 
ATOM     91  F   UNL A   1      39.137  31.178  32.841  1.00  0.00    -0.205 F 
ATOM     92  C   UNL A   1      40.528  32.006  36.122  1.00  0.00     0.022 A 
BRANCH  90  93
ATOM     93  S   UNL A   1      38.294  33.154  35.000  1.00  0.00     0.127 S 
ATOM     94  O   UNL A   1      38.613  34.019  33.867  1.00  0.00    -0.237 OA
ATOM     95  O   UNL A   1      37.152  32.263  34.788  1.00  0.00    -0.237 OA
ATOM     96  O   UNL A   1      38.306  33.797  36.309  1.00  0.00    -0.744 OA
ENDBRANCH  90  93
ENDBRANCH  63  86
ENDBRANCH  37  38
ENDBRANCH  29  32
ENDBRANCH  27  28
ENDBRANCH  26  27
ENDBRANCH   1  26
TORSDOF 17
ENDMDL
