MODEL 1
REMARK VINA RESULT:     -11.8      0.000      0.000
REMARK SMILES Cc1cc(N[C@@H]2C=C[C@@H](C(=O)NCCCCCCNC(=O)c3ccc(-c4c5nc(c(-c6cccc(S(=O)(=O)[O-])c6F)c6ccc([nH]6)c(-c6cccc(S(=O)(=O)[O-])c6F)c6nc(c(-c7cccc(S(=O)(=O)[O-])c7F)c7ccc4[nH]7)C=C6)C=C5)cc3)C2)nc(C)n1
REMARK SMILES IDX 16 1 15 2 14 3 13 4 12 5 10 6 11 7 9 9 6 10 7 11 85 12 8 13
REMARK SMILES IDX 5 14 4 16 1 17 2 18 3 19 89 20 87 21 86 22 88 23 17 24 18 25
REMARK SMILES IDX 19 26 20 27 21 29 22 30 23 31 84 32 24 33 83 34 25 35 26 36
REMARK SMILES IDX 27 37 77 38 28 39 82 40 76 41 78 42 29 43 81 44 75 45 74 46
REMARK SMILES IDX 30 48 62 49 42 50 61 51 43 52 46 53 60 54 79 55 44 56 45 57
REMARK SMILES IDX 59 59 80 60 47 61 31 62 32 63 40 64 33 65 35 66 41 67 34 68
REMARK SMILES IDX 36 69 37 70 38 71 39 72 63 73 64 74 72 75 65 76 67 77 73 78
REMARK SMILES IDX 66 79 68 80 69 81 70 82 71 83 48 84 49 85 57 86 50 87 52 88
REMARK SMILES IDX 58 89 51 90 53 91 54 92 55 93 56 94
REMARK H PARENT 12 8 5 15 19 28 78 47 46 58
REMARK Flexibility Score: inf
ROOT
ATOM      1  C   UNL A   1      31.686  30.884  26.082  1.00  0.00     0.002 C 
ENDROOT
BRANCH   1   2
ATOM      2  C   UNL A   1      32.083  29.685  26.949  1.00  0.00     0.002 C 
BRANCH   2   3
ATOM      3  C   UNL A   1      32.926  28.623  26.231  1.00  0.00     0.021 C 
BRANCH   3   4
ATOM      4  C   UNL A   1      32.852  27.242  26.869  1.00  0.00     0.116 C 
BRANCH   4   5
ATOM      5  N   UNL A   1      31.480  26.788  26.916  1.00  0.00    -0.356 N 
ATOM      6  C   UNL A   1      30.831  25.869  26.162  1.00  0.00     0.227 C 
ATOM      7  O   UNL A   1      29.621  25.720  26.363  1.00  0.00    -0.274 OA
ATOM      8  H   UNL A   1      30.927  27.216  27.609  1.00  0.00     0.163 HD
BRANCH   6   9
ATOM      9  C   UNL A   1      31.549  25.009  25.131  1.00  0.00     0.103 C 
ATOM     10  C   UNL A   1      31.039  23.536  23.232  1.00  0.00     0.104 C 
ATOM     11  C   UNL A   1      31.471  24.892  22.783  1.00  0.00    -0.006 C 
ATOM     12  C   UNL A   1      30.905  23.663  24.761  1.00  0.00     0.046 C 
ATOM     13  C   UNL A   1      31.738  25.706  23.812  1.00  0.00    -0.016 C 
BRANCH  10  14
ATOM     14  N   UNL A   1      31.962  22.514  22.788  1.00  0.00    -0.364 N 
ATOM     15  H   UNL A   1      32.037  22.448  21.809  1.00  0.00     0.162 HD
BRANCH  14  16
ATOM     16  C   UNL A   1      32.748  21.625  23.462  1.00  0.00     0.130 A 
ATOM     17  C   UNL A   1      35.904  21.292  25.438  1.00  0.00     0.067 C 
ATOM     18  C   UNL A   1      34.627  20.945  24.736  1.00  0.00     0.043 A 
ATOM     19  C   UNL A   1      33.967  21.921  24.019  1.00  0.00     0.070 A 
ATOM     20  N   UNL A   1      34.139  19.703  24.861  1.00  0.00    -0.238 NA
ATOM     21  C   UNL A   1      32.969  19.468  24.241  1.00  0.00     0.127 A 
ATOM     22  N   UNL A   1      32.246  20.387  23.565  1.00  0.00    -0.216 NA
ATOM     23  C   UNL A   1      32.439  18.071  24.277  1.00  0.00     0.090 C 
ENDBRANCH  14  16
ENDBRANCH  10  14
ENDBRANCH   6   9
ENDBRANCH   4   5
ENDBRANCH   3   4
ENDBRANCH   2   3
ENDBRANCH   1   2
BRANCH   1  24
ATOM     24  C   UNL A   1      31.463  32.187  26.853  1.00  0.00     0.021 C 
BRANCH  24  25
ATOM     25  C   UNL A   1      32.743  32.844  27.355  1.00  0.00     0.116 C 
BRANCH  25  26
ATOM     26  N   UNL A   1      32.519  34.232  27.723  1.00  0.00    -0.352 N 
ATOM     27  C   UNL A   1      33.096  34.936  28.746  1.00  0.00     0.251 C 
ATOM     28  H   UNL A   1      31.873  34.726  27.169  1.00  0.00     0.163 HD
ATOM     29  O   UNL A   1      32.658  36.032  29.081  1.00  0.00    -0.269 OA
BRANCH  27  30
ATOM     30  C   UNL A   1      34.254  34.347  29.444  1.00  0.00     0.039 A 
ATOM     31  C   UNL A   1      34.045  33.614  30.614  1.00  0.00     0.014 A 
ATOM     32  C   UNL A   1      35.539  34.511  28.918  1.00  0.00     0.014 A 
ATOM     33  C   UNL A   1      35.133  33.015  31.248  1.00  0.00     0.010 A 
ATOM     34  C   UNL A   1      36.615  33.876  29.527  1.00  0.00     0.010 A 
ATOM     35  C   UNL A   1      36.421  33.138  30.704  1.00  0.00    -0.014 A 
BRANCH  35  36
ATOM     36  C   UNL A   1      37.600  32.556  31.383  1.00  0.00     0.031 A 
ATOM     37  C   UNL A   1      38.327  31.411  30.736  1.00  0.00     0.074 A 
ATOM     38  C   UNL A   1      37.969  33.003  32.598  1.00  0.00     0.049 A 
ATOM     39  N   UNL A   1      39.321  30.702  31.200  1.00  0.00    -0.248 NA
ATOM     40  C   UNL A   1      37.864  30.999  29.400  1.00  0.00     0.031 C 
ATOM     41  C   UNL A   1      37.314  34.082  33.339  1.00  0.00     0.029 A 
ATOM     42  N   UNL A   1      38.973  32.584  33.433  1.00  0.00    -0.354 N 
ATOM     43  C   UNL A   1      39.585  29.747  30.228  1.00  0.00     0.074 A 
ATOM     44  C   UNL A   1      38.635  29.949  29.157  1.00  0.00     0.031 C 
ATOM     45  C   UNL A   1      37.933  34.239  34.522  1.00  0.00     0.029 A 
ATOM     46  C   UNL A   1      39.010  33.257  34.631  1.00  0.00     0.049 A 
ATOM     47  H   UNL A   1      39.606  31.868  33.198  1.00  0.00     0.167 HD
ATOM     48  C   UNL A   1      40.554  28.804  30.216  1.00  0.00     0.034 A 
ATOM     49  C   UNL A   1      39.818  33.096  35.697  1.00  0.00     0.034 A 
ATOM     50  C   UNL A   1      41.530  28.636  31.255  1.00  0.00     0.049 A 
ATOM     51  C   UNL A   1      40.890  32.043  35.654  1.00  0.00     0.074 A 
ATOM     52  C   UNL A   1      42.592  27.752  31.299  1.00  0.00     0.029 A 
ATOM     53  N   UNL A   1      41.563  29.368  32.431  1.00  0.00    -0.354 N 
ATOM     54  N   UNL A   1      41.195  31.218  34.680  1.00  0.00    -0.248 NA
ATOM     55  C   UNL A   1      41.742  31.908  36.846  1.00  0.00     0.031 C 
ATOM     56  C   UNL A   1      43.269  27.947  32.506  1.00  0.00     0.029 A 
ATOM     57  C   UNL A   1      42.627  28.954  33.210  1.00  0.00     0.049 A 
ATOM     58  H   UNL A   1      40.925  30.077  32.674  1.00  0.00     0.167 HD
ATOM     59  C   UNL A   1      42.283  30.481  35.133  1.00  0.00     0.074 A 
ATOM     60  C   UNL A   1      42.597  30.967  36.462  1.00  0.00     0.031 C 
ATOM     61  C   UNL A   1      42.950  29.480  34.510  1.00  0.00     0.034 A 
BRANCH  48  62
ATOM     62  C   UNL A   1      40.657  27.924  29.003  1.00  0.00     0.023 A 
ATOM     63  C   UNL A   1      39.742  26.865  28.849  1.00  0.00     0.012 A 
ATOM     64  C   UNL A   1      41.596  28.191  27.988  1.00  0.00     0.148 A 
ATOM     65  C   UNL A   1      39.763  26.073  27.703  1.00  0.00     0.002 A 
ATOM     66  C   UNL A   1      41.593  27.415  26.836  1.00  0.00     0.091 A 
ATOM     67  F   UNL A   1      42.465  29.195  28.170  1.00  0.00    -0.205 F 
ATOM     68  C   UNL A   1      40.681  26.355  26.693  1.00  0.00     0.022 A 
BRANCH  66  69
ATOM     69  S   UNL A   1      42.699  27.717  25.454  1.00  0.00     0.127 S 
ATOM     70  O   UNL A   1      42.711  26.411  24.795  1.00  0.00    -0.237 OA
ATOM     71  O   UNL A   1      41.992  28.766  24.720  1.00  0.00    -0.237 OA
ATOM     72  O   UNL A   1      43.971  28.124  26.035  1.00  0.00    -0.744 OA
ENDBRANCH  66  69
ENDBRANCH  48  62
BRANCH  49  73
ATOM     73  C   UNL A   1      39.682  34.003  36.868  1.00  0.00     0.023 A 
ATOM     74  C   UNL A   1      40.047  35.355  36.730  1.00  0.00     0.012 A 
ATOM     75  C   UNL A   1      39.150  33.551  38.091  1.00  0.00     0.148 A 
ATOM     76  C   UNL A   1      39.899  36.242  37.796  1.00  0.00     0.002 A 
ATOM     77  C   UNL A   1      38.969  34.448  39.136  1.00  0.00     0.091 A 
ATOM     78  F   UNL A   1      38.814  32.257  38.196  1.00  0.00    -0.205 F 
ATOM     79  C   UNL A   1      39.352  35.791  38.995  1.00  0.00     0.022 A 
BRANCH  77  80
ATOM     80  S   UNL A   1      38.183  33.988  40.685  1.00  0.00     0.127 S 
ATOM     81  O   UNL A   1      39.205  33.144  41.300  1.00  0.00    -0.237 OA
ATOM     82  O   UNL A   1      37.995  35.292  41.322  1.00  0.00    -0.237 OA
ATOM     83  O   UNL A   1      36.948  33.311  40.317  1.00  0.00    -0.744 OA
ENDBRANCH  77  80
ENDBRANCH  49  73
BRANCH  61  84
ATOM     84  C   UNL A   1      44.088  28.829  35.244  1.00  0.00     0.023 A 
ATOM     85  C   UNL A   1      45.377  29.387  35.142  1.00  0.00     0.012 A 
ATOM     86  C   UNL A   1      43.862  27.753  36.123  1.00  0.00     0.148 A 
ATOM     87  C   UNL A   1      46.428  28.878  35.902  1.00  0.00     0.002 A 
ATOM     88  C   UNL A   1      44.907  27.271  36.902  1.00  0.00     0.091 A 
ATOM     89  F   UNL A   1      42.627  27.234  36.192  1.00  0.00    -0.205 F 
ATOM     90  C   UNL A   1      46.192  27.831  36.790  1.00  0.00     0.022 A 
BRANCH  88  91
ATOM     91  S   UNL A   1      44.683  25.978  38.129  1.00  0.00     0.127 S 
ATOM     92  O   UNL A   1      45.990  25.963  38.785  1.00  0.00    -0.237 OA
ATOM     93  O   UNL A   1      43.594  26.514  38.948  1.00  0.00    -0.237 OA
ATOM     94  O   UNL A   1      44.346  24.772  37.386  1.00  0.00    -0.744 OA
ENDBRANCH  88  91
ENDBRANCH  61  84
ENDBRANCH  35  36
ENDBRANCH  27  30
ENDBRANCH  25  26
ENDBRANCH  24  25
ENDBRANCH   1  24
TORSDOF 18
ENDMDL
MODEL 2
REMARK VINA RESULT:     -11.6      2.158      4.190
REMARK SMILES Cc1cc(N[C@@H]2C=C[C@@H](C(=O)NCCCCCCNC(=O)c3ccc(-c4c5nc(c(-c6cccc(S(=O)(=O)[O-])c6F)c6ccc([nH]6)c(-c6cccc(S(=O)(=O)[O-])c6F)c6nc(c(-c7cccc(S(=O)(=O)[O-])c7F)c7ccc4[nH]7)C=C6)C=C5)cc3)C2)nc(C)n1
REMARK SMILES IDX 16 1 15 2 14 3 13 4 12 5 10 6 11 7 9 9 6 10 7 11 85 12 8 13
REMARK SMILES IDX 5 14 4 16 1 17 2 18 3 19 89 20 87 21 86 22 88 23 17 24 18 25
REMARK SMILES IDX 19 26 20 27 21 29 22 30 23 31 84 32 24 33 83 34 25 35 26 36
REMARK SMILES IDX 27 37 77 38 28 39 82 40 76 41 78 42 29 43 81 44 75 45 74 46
REMARK SMILES IDX 30 48 62 49 42 50 61 51 43 52 46 53 60 54 79 55 44 56 45 57
REMARK SMILES IDX 59 59 80 60 47 61 31 62 32 63 40 64 33 65 35 66 41 67 34 68
REMARK SMILES IDX 36 69 37 70 38 71 39 72 63 73 64 74 72 75 65 76 67 77 73 78
REMARK SMILES IDX 66 79 68 80 69 81 70 82 71 83 48 84 49 85 57 86 50 87 52 88
REMARK SMILES IDX 58 89 51 90 53 91 54 92 55 93 56 94
REMARK H PARENT 12 8 5 15 19 28 78 47 46 58
REMARK Flexibility Score: inf
ROOT
ATOM      1  C   UNL A   1      31.841  30.544  26.799  1.00  0.00     0.002 C 
ENDROOT
BRANCH   1   2
ATOM      2  C   UNL A   1      32.448  30.019  25.494  1.00  0.00     0.002 C 
BRANCH   2   3
ATOM      3  C   UNL A   1      33.343  28.783  25.652  1.00  0.00     0.021 C 
BRANCH   3   4
ATOM      4  C   UNL A   1      33.771  28.158  24.331  1.00  0.00     0.116 C 
BRANCH   4   5
ATOM      5  N   UNL A   1      33.323  26.785  24.261  1.00  0.00    -0.356 N 
ATOM      6  C   UNL A   1      32.077  26.261  24.336  1.00  0.00     0.227 C 
ATOM      7  O   UNL A   1      31.975  25.029  24.323  1.00  0.00    -0.274 OA
ATOM      8  H   UNL A   1      34.041  26.122  24.138  1.00  0.00     0.163 HD
BRANCH   6   9
ATOM      9  C   UNL A   1      30.830  27.133  24.394  1.00  0.00     0.103 C 
ATOM     10  C   UNL A   1      28.987  27.871  22.946  1.00  0.00     0.104 C 
ATOM     11  C   UNL A   1      28.570  26.765  23.857  1.00  0.00    -0.006 C 
ATOM     12  C   UNL A   1      30.508  27.989  23.158  1.00  0.00     0.046 C 
ATOM     13  C   UNL A   1      29.572  26.347  24.640  1.00  0.00    -0.016 C 
BRANCH  10  14
ATOM     14  N   UNL A   1      28.244  29.083  23.214  1.00  0.00    -0.364 N 
ATOM     15  H   UNL A   1      27.522  28.967  23.874  1.00  0.00     0.162 HD
BRANCH  14  16
ATOM     16  C   UNL A   1      28.347  30.355  22.731  1.00  0.00     0.130 A 
ATOM     17  C   UNL A   1      29.471  33.818  23.584  1.00  0.00     0.067 C 
ATOM     18  C   UNL A   1      28.901  32.658  22.826  1.00  0.00     0.043 A 
ATOM     19  C   UNL A   1      28.775  31.439  23.458  1.00  0.00     0.070 A 
ATOM     20  N   UNL A   1      28.569  32.829  21.539  1.00  0.00    -0.238 NA
ATOM     21  C   UNL A   1      28.104  31.738  20.904  1.00  0.00     0.127 A 
ATOM     22  N   UNL A   1      28.001  30.505  21.445  1.00  0.00    -0.216 NA
ATOM     23  C   UNL A   1      27.634  31.909  19.496  1.00  0.00     0.090 C 
ENDBRANCH  14  16
ENDBRANCH  10  14
ENDBRANCH   6   9
ENDBRANCH   4   5
ENDBRANCH   3   4
ENDBRANCH   2   3
ENDBRANCH   1   2
BRANCH   1  24
ATOM     24  C   UNL A   1      31.719  32.067  26.882  1.00  0.00     0.021 C 
BRANCH  24  25
ATOM     25  C   UNL A   1      32.976  32.769  27.377  1.00  0.00     0.116 C 
BRANCH  25  26
ATOM     26  N   UNL A   1      32.684  34.112  27.849  1.00  0.00    -0.352 N 
ATOM     27  C   UNL A   1      33.230  34.766  28.922  1.00  0.00     0.251 C 
ATOM     28  H   UNL A   1      32.011  34.614  27.336  1.00  0.00     0.163 HD
ATOM     29  O   UNL A   1      32.739  35.809  29.340  1.00  0.00    -0.269 OA
BRANCH  27  30
ATOM     30  C   UNL A   1      34.420  34.185  29.571  1.00  0.00     0.039 A 
ATOM     31  C   UNL A   1      35.691  34.552  29.123  1.00  0.00     0.014 A 
ATOM     32  C   UNL A   1      34.265  33.292  30.636  1.00  0.00     0.014 A 
ATOM     33  C   UNL A   1      36.817  34.042  29.767  1.00  0.00     0.010 A 
ATOM     34  C   UNL A   1      35.388  32.820  31.305  1.00  0.00     0.010 A 
ATOM     35  C   UNL A   1      36.671  33.179  30.864  1.00  0.00    -0.014 A 
BRANCH  35  36
ATOM     36  C   UNL A   1      37.848  32.582  31.534  1.00  0.00     0.031 A 
ATOM     37  C   UNL A   1      38.537  31.410  30.896  1.00  0.00     0.074 A 
ATOM     38  C   UNL A   1      38.248  33.042  32.734  1.00  0.00     0.049 A 
ATOM     39  N   UNL A   1      39.522  30.686  31.355  1.00  0.00    -0.248 NA
ATOM     40  C   UNL A   1      38.041  30.985  29.575  1.00  0.00     0.031 C 
ATOM     41  C   UNL A   1      37.631  34.150  33.466  1.00  0.00     0.029 A 
ATOM     42  N   UNL A   1      39.256  32.616  33.559  1.00  0.00    -0.354 N 
ATOM     43  C   UNL A   1      39.748  29.708  30.396  1.00  0.00     0.074 A 
ATOM     44  C   UNL A   1      38.784  29.913  29.339  1.00  0.00     0.031 C 
ATOM     45  C   UNL A   1      38.274  34.313  34.635  1.00  0.00     0.029 A 
ATOM     46  C   UNL A   1      39.329  33.309  34.744  1.00  0.00     0.049 A 
ATOM     47  H   UNL A   1      39.869  31.881  33.326  1.00  0.00     0.167 HD
ATOM     48  C   UNL A   1      40.694  28.744  30.384  1.00  0.00     0.034 A 
ATOM     49  C   UNL A   1      40.152  33.148  35.798  1.00  0.00     0.034 A 
ATOM     50  C   UNL A   1      41.684  28.571  31.410  1.00  0.00     0.049 A 
ATOM     51  C   UNL A   1      41.199  32.069  35.757  1.00  0.00     0.074 A 
ATOM     52  C   UNL A   1      42.726  27.664  31.452  1.00  0.00     0.029 A 
ATOM     53  N   UNL A   1      41.755  29.323  32.572  1.00  0.00    -0.354 N 
ATOM     54  N   UNL A   1      41.468  31.221  34.793  1.00  0.00    -0.248 NA
ATOM     55  C   UNL A   1      42.068  31.936  36.936  1.00  0.00     0.031 C 
ATOM     56  C   UNL A   1      43.429  27.865  32.644  1.00  0.00     0.029 A 
ATOM     57  C   UNL A   1      42.822  28.898  33.340  1.00  0.00     0.049 A 
ATOM     58  H   UNL A   1      41.138  30.051  32.812  1.00  0.00     0.167 HD
ATOM     59  C   UNL A   1      42.547  30.467  35.241  1.00  0.00     0.074 A 
ATOM     60  C   UNL A   1      42.895  30.970  36.554  1.00  0.00     0.031 C 
ATOM     61  C   UNL A   1      43.180  29.440  34.625  1.00  0.00     0.034 A 
BRANCH  48  62
ATOM     62  C   UNL A   1      40.757  27.840  29.187  1.00  0.00     0.023 A 
ATOM     63  C   UNL A   1      39.868  26.751  29.107  1.00  0.00     0.012 A 
ATOM     64  C   UNL A   1      41.628  28.113  28.114  1.00  0.00     0.148 A 
ATOM     65  C   UNL A   1      39.849  25.934  27.978  1.00  0.00     0.002 A 
ATOM     66  C   UNL A   1      41.584  27.311  26.980  1.00  0.00     0.091 A 
ATOM     67  F   UNL A   1      42.474  29.146  28.225  1.00  0.00    -0.205 F 
ATOM     68  C   UNL A   1      40.699  26.221  26.912  1.00  0.00     0.022 A 
BRANCH  66  69
ATOM     69  S   UNL A   1      42.599  27.615  25.531  1.00  0.00     0.127 S 
ATOM     70  O   UNL A   1      42.335  26.420  24.729  1.00  0.00    -0.237 OA
ATOM     71  O   UNL A   1      42.016  28.847  25.002  1.00  0.00    -0.237 OA
ATOM     72  O   UNL A   1      43.967  27.741  26.015  1.00  0.00    -0.744 OA
ENDBRANCH  66  69
ENDBRANCH  48  62
BRANCH  49  73
ATOM     73  C   UNL A   1      40.057  34.078  36.955  1.00  0.00     0.023 A 
ATOM     74  C   UNL A   1      40.548  35.390  36.817  1.00  0.00     0.012 A 
ATOM     75  C   UNL A   1      39.444  33.692  38.162  1.00  0.00     0.148 A 
ATOM     76  C   UNL A   1      40.443  36.301  37.869  1.00  0.00     0.002 A 
ATOM     77  C   UNL A   1      39.308  34.615  39.192  1.00  0.00     0.091 A 
ATOM     78  F   UNL A   1      38.989  32.435  38.267  1.00  0.00    -0.205 F 
ATOM     79  C   UNL A   1      39.815  35.916  39.051  1.00  0.00     0.022 A 
BRANCH  77  80
ATOM     80  S   UNL A   1      38.429  34.248  40.715  1.00  0.00     0.127 S 
ATOM     81  O   UNL A   1      39.445  33.527  41.480  1.00  0.00    -0.237 OA
ATOM     82  O   UNL A   1      38.120  35.589  41.212  1.00  0.00    -0.237 OA
ATOM     83  O   UNL A   1      37.267  33.464  40.324  1.00  0.00    -0.744 OA
ENDBRANCH  77  80
ENDBRANCH  49  73
BRANCH  61  84
ATOM     84  C   UNL A   1      44.316  28.776  35.350  1.00  0.00     0.023 A 
ATOM     85  C   UNL A   1      45.630  29.231  35.128  1.00  0.00     0.012 A 
ATOM     86  C   UNL A   1      44.074  27.798  36.334  1.00  0.00     0.148 A 
ATOM     87  C   UNL A   1      46.690  28.717  35.872  1.00  0.00     0.002 A 
ATOM     88  C   UNL A   1      45.130  27.314  37.094  1.00  0.00     0.091 A 
ATOM     89  F   UNL A   1      42.814  27.376  36.517  1.00  0.00    -0.205 F 
ATOM     90  C   UNL A   1      46.440  27.770  36.862  1.00  0.00     0.022 A 
BRANCH  88  91
ATOM     91  S   UNL A   1      44.898  26.150  38.443  1.00  0.00     0.127 S 
ATOM     92  O   UNL A   1      44.651  24.903  37.720  1.00  0.00    -0.237 OA
ATOM     93  O   UNL A   1      46.188  26.213  39.132  1.00  0.00    -0.237 OA
ATOM     94  O   UNL A   1      43.772  26.652  39.219  1.00  0.00    -0.744 OA
ENDBRANCH  88  91
ENDBRANCH  61  84
ENDBRANCH  35  36
ENDBRANCH  27  30
ENDBRANCH  25  26
ENDBRANCH  24  25
ENDBRANCH   1  24
TORSDOF 18
ENDMDL
MODEL 3
REMARK VINA RESULT:     -11.5      5.724     12.036
REMARK SMILES Cc1cc(N[C@@H]2C=C[C@@H](C(=O)NCCCCCCNC(=O)c3ccc(-c4c5nc(c(-c6cccc(S(=O)(=O)[O-])c6F)c6ccc([nH]6)c(-c6cccc(S(=O)(=O)[O-])c6F)c6nc(c(-c7cccc(S(=O)(=O)[O-])c7F)c7ccc4[nH]7)C=C6)C=C5)cc3)C2)nc(C)n1
REMARK SMILES IDX 16 1 15 2 14 3 13 4 12 5 10 6 11 7 9 9 6 10 7 11 85 12 8 13
REMARK SMILES IDX 5 14 4 16 1 17 2 18 3 19 89 20 87 21 86 22 88 23 17 24 18 25
REMARK SMILES IDX 19 26 20 27 21 29 22 30 23 31 84 32 24 33 83 34 25 35 26 36
REMARK SMILES IDX 27 37 77 38 28 39 82 40 76 41 78 42 29 43 81 44 75 45 74 46
REMARK SMILES IDX 30 48 62 49 42 50 61 51 43 52 46 53 60 54 79 55 44 56 45 57
REMARK SMILES IDX 59 59 80 60 47 61 31 62 32 63 40 64 33 65 35 66 41 67 34 68
REMARK SMILES IDX 36 69 37 70 38 71 39 72 63 73 64 74 72 75 65 76 67 77 73 78
REMARK SMILES IDX 66 79 68 80 69 81 70 82 71 83 48 84 49 85 57 86 50 87 52 88
REMARK SMILES IDX 58 89 51 90 53 91 54 92 55 93 56 94
REMARK H PARENT 12 8 5 15 19 28 78 47 46 58
REMARK Flexibility Score: inf
ROOT
ATOM      1  C   UNL A   1      37.363  21.173  24.659  1.00  0.00     0.002 C 
ENDROOT
BRANCH   1   2
ATOM      2  C   UNL A   1      36.048  21.102  25.442  1.00  0.00     0.002 C 
BRANCH   2   3
ATOM      3  C   UNL A   1      35.116  19.955  25.032  1.00  0.00     0.021 C 
BRANCH   3   4
ATOM      4  C   UNL A   1      33.635  20.287  25.160  1.00  0.00     0.116 C 
BRANCH   4   5
ATOM      5  N   UNL A   1      33.037  20.410  23.849  1.00  0.00    -0.356 N 
ATOM      6  C   UNL A   1      32.281  21.399  23.317  1.00  0.00     0.227 C 
ATOM      7  O   UNL A   1      31.826  21.220  22.181  1.00  0.00    -0.274 OA
ATOM      8  H   UNL A   1      33.208  19.652  23.245  1.00  0.00     0.163 HD
BRANCH   6   9
ATOM      9  C   UNL A   1      32.020  22.708  24.049  1.00  0.00     0.103 C 
ATOM     10  C   UNL A   1      31.809  23.567  26.341  1.00  0.00     0.104 C 
ATOM     11  C   UNL A   1      33.151  23.862  25.758  1.00  0.00    -0.006 C 
ATOM     12  C   UNL A   1      31.133  22.651  25.304  1.00  0.00     0.046 C 
ATOM     13  C   UNL A   1      33.280  23.384  24.514  1.00  0.00    -0.016 C 
BRANCH  10  14
ATOM     14  N   UNL A   1      31.084  24.784  26.637  1.00  0.00    -0.364 N 
ATOM     15  H   UNL A   1      30.440  24.691  27.376  1.00  0.00     0.162 HD
BRANCH  14  16
ATOM     16  C   UNL A   1      31.119  26.034  26.093  1.00  0.00     0.130 A 
ATOM     17  C   UNL A   1      30.070  28.056  23.128  1.00  0.00     0.067 C 
ATOM     18  C   UNL A   1      30.680  27.678  24.443  1.00  0.00     0.043 A 
ATOM     19  C   UNL A   1      30.649  26.360  24.844  1.00  0.00     0.070 A 
ATOM     20  N   UNL A   1      31.202  28.644  25.213  1.00  0.00    -0.238 NA
ATOM     21  C   UNL A   1      31.696  28.244  26.398  1.00  0.00     0.127 A 
ATOM     22  N   UNL A   1      31.654  26.981  26.876  1.00  0.00    -0.216 NA
ATOM     23  C   UNL A   1      32.372  29.274  27.245  1.00  0.00     0.090 C 
ENDBRANCH  14  16
ENDBRANCH  10  14
ENDBRANCH   6   9
ENDBRANCH   4   5
ENDBRANCH   3   4
ENDBRANCH   2   3
ENDBRANCH   1   2
BRANCH   1  24
ATOM     24  C   UNL A   1      38.331  20.019  24.928  1.00  0.00     0.021 C 
BRANCH  24  25
ATOM     25  C   UNL A   1      39.383  20.319  25.989  1.00  0.00     0.116 C 
BRANCH  25  26
ATOM     26  N   UNL A   1      40.396  19.279  26.042  1.00  0.00    -0.352 N 
ATOM     27  C   UNL A   1      41.757  19.429  26.098  1.00  0.00     0.251 C 
ATOM     28  H   UNL A   1      40.065  18.352  26.036  1.00  0.00     0.163 HD
ATOM     29  O   UNL A   1      42.504  18.473  25.918  1.00  0.00    -0.269 OA
BRANCH  27  30
ATOM     30  C   UNL A   1      42.308  20.769  26.373  1.00  0.00     0.039 A 
ATOM     31  C   UNL A   1      42.575  21.630  25.306  1.00  0.00     0.014 A 
ATOM     32  C   UNL A   1      42.538  21.169  27.693  1.00  0.00     0.014 A 
ATOM     33  C   UNL A   1      43.050  22.914  25.566  1.00  0.00     0.010 A 
ATOM     34  C   UNL A   1      42.968  22.464  27.952  1.00  0.00     0.010 A 
ATOM     35  C   UNL A   1      43.242  23.339  26.890  1.00  0.00    -0.014 A 
BRANCH  35  36
ATOM     36  C   UNL A   1      43.794  24.679  27.194  1.00  0.00     0.031 A 
ATOM     37  C   UNL A   1      42.878  25.743  27.728  1.00  0.00     0.074 A 
ATOM     38  C   UNL A   1      45.083  24.956  26.926  1.00  0.00     0.049 A 
ATOM     39  N   UNL A   1      43.134  27.000  27.974  1.00  0.00    -0.248 NA
ATOM     40  C   UNL A   1      41.487  25.346  28.007  1.00  0.00     0.031 C 
ATOM     41  C   UNL A   1      46.055  24.012  26.370  1.00  0.00     0.029 A 
ATOM     42  N   UNL A   1      45.790  26.122  27.063  1.00  0.00    -0.354 N 
ATOM     43  C   UNL A   1      41.937  27.549  28.410  1.00  0.00     0.074 A 
ATOM     44  C   UNL A   1      40.945  26.498  28.375  1.00  0.00     0.031 C 
ATOM     45  C   UNL A   1      47.232  24.640  26.211  1.00  0.00     0.029 A 
ATOM     46  C   UNL A   1      47.091  26.032  26.631  1.00  0.00     0.049 A 
ATOM     47  H   UNL A   1      45.402  26.947  27.435  1.00  0.00     0.167 HD
ATOM     48  C   UNL A   1      41.692  28.810  28.831  1.00  0.00     0.034 A 
ATOM     49  C   UNL A   1      48.058  26.969  26.575  1.00  0.00     0.034 A 
ATOM     50  C   UNL A   1      42.689  29.841  28.914  1.00  0.00     0.049 A 
ATOM     51  C   UNL A   1      47.760  28.363  27.054  1.00  0.00     0.074 A 
ATOM     52  C   UNL A   1      42.550  31.130  29.393  1.00  0.00     0.029 A 
ATOM     53  N   UNL A   1      44.006  29.697  28.511  1.00  0.00    -0.354 N 
ATOM     54  N   UNL A   1      46.649  28.837  27.566  1.00  0.00    -0.248 NA
ATOM     55  C   UNL A   1      48.851  29.346  26.968  1.00  0.00     0.031 C 
ATOM     56  C   UNL A   1      43.787  31.771  29.277  1.00  0.00     0.029 A 
ATOM     57  C   UNL A   1      44.693  30.877  28.727  1.00  0.00     0.049 A 
ATOM     58  H   UNL A   1      44.395  28.878  28.129  1.00  0.00     0.167 HD
ATOM     59  C   UNL A   1      46.911  30.166  27.878  1.00  0.00     0.074 A 
ATOM     60  C   UNL A   1      48.292  30.418  27.517  1.00  0.00     0.031 C 
ATOM     61  C   UNL A   1      46.078  31.096  28.402  1.00  0.00     0.034 A 
BRANCH  48  62
ATOM     62  C   UNL A   1      40.306  29.131  29.309  1.00  0.00     0.023 A 
ATOM     63  C   UNL A   1      39.349  29.576  28.377  1.00  0.00     0.012 A 
ATOM     64  C   UNL A   1      39.929  28.917  30.649  1.00  0.00     0.148 A 
ATOM     65  C   UNL A   1      38.034  29.815  28.771  1.00  0.00     0.002 A 
ATOM     66  C   UNL A   1      38.610  29.130  31.029  1.00  0.00     0.091 A 
ATOM     67  F   UNL A   1      40.865  28.509  31.518  1.00  0.00    -0.205 F 
ATOM     68  C   UNL A   1      37.663  29.582  30.094  1.00  0.00     0.022 A 
BRANCH  66  69
ATOM     69  S   UNL A   1      38.012  28.819  32.693  1.00  0.00     0.127 S 
ATOM     70  O   UNL A   1      36.641  29.323  32.613  1.00  0.00    -0.237 OA
ATOM     71  O   UNL A   1      38.124  27.365  32.791  1.00  0.00    -0.237 OA
ATOM     72  O   UNL A   1      38.890  29.565  33.584  1.00  0.00    -0.744 OA
ENDBRANCH  66  69
ENDBRANCH  48  62
BRANCH  49  73
ATOM     73  C   UNL A   1      49.419  26.595  26.106  1.00  0.00     0.023 A 
ATOM     74  C   UNL A   1      50.210  25.751  26.907  1.00  0.00     0.012 A 
ATOM     75  C   UNL A   1      49.912  27.026  24.859  1.00  0.00     0.148 A 
ATOM     76  C   UNL A   1      51.477  25.351  26.482  1.00  0.00     0.002 A 
ATOM     77  C   UNL A   1      51.158  26.593  24.424  1.00  0.00     0.091 A 
ATOM     78  F   UNL A   1      49.139  27.833  24.117  1.00  0.00    -0.205 F 
ATOM     79  C   UNL A   1      51.946  25.764  25.238  1.00  0.00     0.022 A 
BRANCH  77  80
ATOM     80  S   UNL A   1      51.811  26.989  22.798  1.00  0.00     0.127 S 
ATOM     81  O   UNL A   1      52.846  25.970  22.635  1.00  0.00    -0.237 OA
ATOM     82  O   UNL A   1      50.631  26.810  21.951  1.00  0.00    -0.237 OA
ATOM     83  O   UNL A   1      52.290  28.361  22.886  1.00  0.00    -0.744 OA
ENDBRANCH  77  80
ENDBRANCH  49  73
BRANCH  61  84
ATOM     84  C   UNL A   1      46.617  32.482  28.622  1.00  0.00     0.023 A 
ATOM     85  C   UNL A   1      47.196  32.802  29.865  1.00  0.00     0.012 A 
ATOM     86  C   UNL A   1      46.664  33.415  27.569  1.00  0.00     0.148 A 
ATOM     87  C   UNL A   1      47.810  34.038  30.059  1.00  0.00     0.002 A 
ATOM     88  C   UNL A   1      47.306  34.632  27.759  1.00  0.00     0.091 A 
ATOM     89  F   UNL A   1      46.095  33.087  26.399  1.00  0.00    -0.205 F 
ATOM     90  C   UNL A   1      47.876  34.947  29.005  1.00  0.00     0.022 A 
BRANCH  88  91
ATOM     91  S   UNL A   1      47.510  35.835  26.441  1.00  0.00     0.127 S 
ATOM     92  O   UNL A   1      48.326  35.089  25.483  1.00  0.00    -0.237 OA
ATOM     93  O   UNL A   1      46.129  36.068  26.016  1.00  0.00    -0.237 OA
ATOM     94  O   UNL A   1      48.160  36.989  27.046  1.00  0.00    -0.744 OA
ENDBRANCH  88  91
ENDBRANCH  61  84
ENDBRANCH  35  36
ENDBRANCH  27  30
ENDBRANCH  25  26
ENDBRANCH  24  25
ENDBRANCH   1  24
TORSDOF 18
ENDMDL
