MODEL 1
REMARK VINA RESULT:     -10.7      0.000      0.000
REMARK SMILES Cc1cc(C(=O)N2CCC[C@@H]2C)sc1/C=C/C(=O)NCCCCCCNC(=O)c1ccc(-c2c3nc(c(-c4cccc(S(=O)(=O)[O-])c4F)c4ccc([nH]4)c(-c4cccc(S(=O)(=O)[O-])c4F)c4nc(c(-c5cccc(S(=O)(=O)[O-])c5F)c5ccc2[nH]5)C=C4)C=C3)cc1
REMARK SMILES IDX 22 1 21 2 20 3 19 4 17 5 18 6 16 8 15 9 14 10 1 11 2 12 3 13
REMARK SMILES IDX 4 14 13 15 5 16 6 17 7 18 8 19 11 20 9 21 10 22 12 23 23 24
REMARK SMILES IDX 24 25 25 26 26 27 27 28 28 30 29 31 30 32 91 33 31 34 90 35
REMARK SMILES IDX 32 36 33 37 34 38 84 39 35 40 89 41 83 42 85 43 36 44 88 45
REMARK SMILES IDX 82 46 81 47 37 49 69 50 49 51 68 52 50 53 53 54 67 55 86 56
REMARK SMILES IDX 51 57 52 58 66 60 87 61 54 62 38 63 39 64 47 65 40 66 42 67
REMARK SMILES IDX 48 68 41 69 43 70 44 71 45 72 46 73 70 74 71 75 79 76 72 77
REMARK SMILES IDX 74 78 80 79 73 80 75 81 76 82 77 83 78 84 55 85 56 86 64 87
REMARK SMILES IDX 57 88 59 89 65 90 58 91 60 92 61 93 62 94 63 95
REMARK H PARENT 19 7 26 29 85 48 53 59
REMARK Flexibility Score: inf
ROOT
ATOM      1  C   UNL A   1      31.571  29.367  24.689  1.00  0.00     0.002 C 
ENDROOT
BRANCH   1   2
ATOM      2  C   UNL A   1      31.940  28.346  23.607  1.00  0.00     0.021 C 
BRANCH   2   3
ATOM      3  C   UNL A   1      30.942  28.299  22.450  1.00  0.00     0.116 C 
BRANCH   3   4
ATOM      4  N   UNL A   1      29.595  28.103  22.955  1.00  0.00    -0.353 N 
ATOM      5  C   UNL A   1      29.026  27.023  23.550  1.00  0.00     0.244 C 
ATOM      6  O   UNL A   1      27.873  27.091  23.970  1.00  0.00    -0.270 OA
ATOM      7  H   UNL A   1      28.998  28.877  22.847  1.00  0.00     0.163 HD
BRANCH   5   8
ATOM      8  C   UNL A   1      29.813  25.798  23.790  1.00  0.00     0.072 C 
ATOM      9  C   UNL A   1      30.177  25.354  25.003  1.00  0.00     0.025 C 
BRANCH   9  10
ATOM     10  C   UNL A   1      30.942  24.159  25.175  1.00  0.00     0.031 A 
ATOM     11  C   UNL A   1      29.712  23.051  27.149  1.00  0.00     0.046 C 
ATOM     12  C   UNL A   1      30.799  23.154  26.124  1.00  0.00    -0.032 A 
ATOM     13  C   UNL A   1      31.823  22.152  25.983  1.00  0.00     0.029 A 
ATOM     14  C   UNL A   1      32.685  22.379  24.924  1.00  0.00     0.093 A 
ATOM     15  S   UNL A   1      32.242  23.805  24.113  1.00  0.00    -0.130 S 
BRANCH  14  16
ATOM     16  C   UNL A   1      33.684  21.445  24.410  1.00  0.00     0.264 C 
ATOM     17  O   UNL A   1      33.345  20.494  23.700  1.00  0.00    -0.268 OA
BRANCH  16  18
ATOM     18  N   UNL A   1      35.041  21.654  24.633  1.00  0.00    -0.335 N 
ATOM     19  C   UNL A   1      35.810  20.627  25.301  1.00  0.00     0.120 C 
ATOM     20  C   UNL A   1      35.887  22.813  24.328  1.00  0.00     0.082 C 
ATOM     21  C   UNL A   1      37.190  20.804  24.694  1.00  0.00     0.024 C 
ATOM     22  C   UNL A   1      37.322  22.321  24.592  1.00  0.00     0.026 C 
ATOM     23  C   UNL A   1      35.540  24.005  25.215  1.00  0.00     0.031 C 
ENDBRANCH  16  18
ENDBRANCH  14  16
ENDBRANCH   9  10
ENDBRANCH   5   8
ENDBRANCH   3   4
ENDBRANCH   2   3
ENDBRANCH   1   2
BRANCH   1  24
ATOM     24  C   UNL A   1      31.672  28.849  26.129  1.00  0.00     0.002 C 
BRANCH  24  25
ATOM     25  C   UNL A   1      32.991  28.152  26.478  1.00  0.00     0.021 C 
BRANCH  25  26
ATOM     26  C   UNL A   1      34.226  29.043  26.378  1.00  0.00     0.116 C 
BRANCH  26  27
ATOM     27  N   UNL A   1      33.967  30.381  26.886  1.00  0.00    -0.352 N 
ATOM     28  C   UNL A   1      34.603  31.065  27.893  1.00  0.00     0.251 C 
ATOM     29  H   UNL A   1      33.232  30.865  26.445  1.00  0.00     0.163 HD
ATOM     30  O   UNL A   1      34.113  32.101  28.334  1.00  0.00    -0.269 OA
BRANCH  28  31
ATOM     31  C   UNL A   1      35.872  30.547  28.450  1.00  0.00     0.039 A 
ATOM     32  C   UNL A   1      35.826  29.660  29.529  1.00  0.00     0.014 A 
ATOM     33  C   UNL A   1      37.101  30.952  27.924  1.00  0.00     0.014 A 
ATOM     34  C   UNL A   1      37.014  29.140  30.048  1.00  0.00     0.010 A 
ATOM     35  C   UNL A   1      38.280  30.387  28.402  1.00  0.00     0.010 A 
ATOM     36  C   UNL A   1      38.249  29.482  29.474  1.00  0.00    -0.014 A 
BRANCH  36  37
ATOM     37  C   UNL A   1      39.521  28.901  29.977  1.00  0.00     0.031 A 
ATOM     38  C   UNL A   1      40.195  29.484  31.188  1.00  0.00     0.074 A 
ATOM     39  C   UNL A   1      40.115  27.908  29.286  1.00  0.00     0.049 A 
ATOM     40  N   UNL A   1      41.334  29.151  31.737  1.00  0.00    -0.248 NA
ATOM     41  C   UNL A   1      39.513  30.608  31.854  1.00  0.00     0.031 C 
ATOM     42  C   UNL A   1      39.602  27.314  28.050  1.00  0.00     0.029 A 
ATOM     43  N   UNL A   1      41.295  27.245  29.509  1.00  0.00    -0.354 N 
ATOM     44  C   UNL A   1      41.526  30.043  32.786  1.00  0.00     0.074 A 
ATOM     45  C   UNL A   1      40.400  30.952  32.778  1.00  0.00     0.031 C 
ATOM     46  C   UNL A   1      40.462  26.374  27.624  1.00  0.00     0.029 A 
ATOM     47  C   UNL A   1      41.597  26.315  28.541  1.00  0.00     0.049 A 
ATOM     48  H   UNL A   1      41.872  27.418  30.288  1.00  0.00     0.167 HD
ATOM     49  C   UNL A   1      42.530  30.084  33.693  1.00  0.00     0.034 A 
ATOM     50  C   UNL A   1      42.666  25.507  28.407  1.00  0.00     0.034 A 
ATOM     51  C   UNL A   1      43.619  29.146  33.731  1.00  0.00     0.049 A 
ATOM     52  C   UNL A   1      43.741  25.534  29.458  1.00  0.00     0.074 A 
ATOM     53  C   UNL A   1      44.632  29.040  34.668  1.00  0.00     0.029 A 
ATOM     54  N   UNL A   1      43.841  28.153  32.790  1.00  0.00    -0.354 N 
ATOM     55  N   UNL A   1      43.818  26.272  30.539  1.00  0.00    -0.248 NA
ATOM     56  C   UNL A   1      44.857  24.592  29.294  1.00  0.00     0.031 C 
ATOM     57  C   UNL A   1      45.475  27.990  34.284  1.00  0.00     0.029 A 
ATOM     58  C   UNL A   1      44.978  27.433  33.117  1.00  0.00     0.049 A 
ATOM     59  H   UNL A   1      43.273  27.984  32.003  1.00  0.00     0.167 HD
ATOM     60  C   UNL A   1      44.971  25.862  31.200  1.00  0.00     0.074 A 
ATOM     61  C   UNL A   1      45.548  24.796  30.408  1.00  0.00     0.031 C 
ATOM     62  C   UNL A   1      45.511  26.338  32.349  1.00  0.00     0.034 A 
BRANCH  49  63
ATOM     63  C   UNL A   1      42.462  31.143  34.762  1.00  0.00     0.023 A 
ATOM     64  C   UNL A   1      41.851  30.841  35.997  1.00  0.00     0.012 A 
ATOM     65  C   UNL A   1      43.041  32.412  34.570  1.00  0.00     0.148 A 
ATOM     66  C   UNL A   1      41.784  31.796  37.010  1.00  0.00     0.002 A 
ATOM     67  C   UNL A   1      43.008  33.345  35.601  1.00  0.00     0.091 A 
ATOM     68  F   UNL A   1      43.597  32.691  33.383  1.00  0.00    -0.205 F 
ATOM     69  C   UNL A   1      42.371  33.043  36.817  1.00  0.00     0.022 A 
BRANCH  67  70
ATOM     70  S   UNL A   1      43.800  34.953  35.473  1.00  0.00     0.127 S 
ATOM     71  O   UNL A   1      45.167  34.581  35.110  1.00  0.00    -0.237 OA
ATOM     72  O   UNL A   1      43.037  35.592  34.402  1.00  0.00    -0.237 OA
ATOM     73  O   UNL A   1      43.645  35.577  36.780  1.00  0.00    -0.744 OA
ENDBRANCH  67  70
ENDBRANCH  49  63
BRANCH  50  74
ATOM     74  C   UNL A   1      42.728  24.546  27.269  1.00  0.00     0.023 A 
ATOM     75  C   UNL A   1      43.402  24.920  26.090  1.00  0.00     0.012 A 
ATOM     76  C   UNL A   1      42.170  23.257  27.363  1.00  0.00     0.148 A 
ATOM     77  C   UNL A   1      43.497  24.036  25.015  1.00  0.00     0.002 A 
ATOM     78  C   UNL A   1      42.315  22.363  26.308  1.00  0.00     0.091 A 
ATOM     79  F   UNL A   1      41.522  22.925  28.488  1.00  0.00    -0.205 F 
ATOM     80  C   UNL A   1      42.964  22.755  25.128  1.00  0.00     0.022 A 
BRANCH  78  81
ATOM     81  S   UNL A   1      41.779  20.652  26.420  1.00  0.00     0.127 S 
ATOM     82  O   UNL A   1      42.594  20.014  25.390  1.00  0.00    -0.237 OA
ATOM     83  O   UNL A   1      42.142  20.309  27.795  1.00  0.00    -0.237 OA
ATOM     84  O   UNL A   1      40.343  20.676  26.171  1.00  0.00    -0.744 OA
ENDBRANCH  78  81
ENDBRANCH  50  74
BRANCH  62  85
ATOM     85  C   UNL A   1      46.782  25.697  32.840  1.00  0.00     0.023 A 
ATOM     86  C   UNL A   1      48.026  26.200  32.412  1.00  0.00     0.012 A 
ATOM     87  C   UNL A   1      46.746  24.651  33.784  1.00  0.00     0.148 A 
ATOM     88  C   UNL A   1      49.215  25.654  32.893  1.00  0.00     0.002 A 
ATOM     89  C   UNL A   1      47.935  24.142  34.293  1.00  0.00     0.091 A 
ATOM     90  F   UNL A   1      45.552  24.172  34.164  1.00  0.00    -0.205 F 
ATOM     91  C   UNL A   1      49.169  24.635  33.841  1.00  0.00     0.022 A 
BRANCH  89  92
ATOM     92  S   UNL A   1      47.967  22.895  35.586  1.00  0.00     0.127 S 
ATOM     93  O   UNL A   1      47.355  21.751  34.912  1.00  0.00    -0.237 OA
ATOM     94  O   UNL A   1      49.400  22.752  35.848  1.00  0.00    -0.237 OA
ATOM     95  O   UNL A   1      47.205  23.451  36.696  1.00  0.00    -0.744 OA
ENDBRANCH  89  92
ENDBRANCH  62  85
ENDBRANCH  36  37
ENDBRANCH  28  31
ENDBRANCH  26  27
ENDBRANCH  25  26
ENDBRANCH  24  25
ENDBRANCH   1  24
TORSDOF 19
ENDMDL
MODEL 2
REMARK VINA RESULT:     -10.4      5.364     10.298
REMARK SMILES Cc1cc(C(=O)N2CCC[C@@H]2C)sc1/C=C/C(=O)NCCCCCCNC(=O)c1ccc(-c2c3nc(c(-c4cccc(S(=O)(=O)[O-])c4F)c4ccc([nH]4)c(-c4cccc(S(=O)(=O)[O-])c4F)c4nc(c(-c5cccc(S(=O)(=O)[O-])c5F)c5ccc2[nH]5)C=C4)C=C3)cc1
REMARK SMILES IDX 22 1 21 2 20 3 19 4 17 5 18 6 16 8 15 9 14 10 1 11 2 12 3 13
REMARK SMILES IDX 4 14 13 15 5 16 6 17 7 18 8 19 11 20 9 21 10 22 12 23 23 24
REMARK SMILES IDX 24 25 25 26 26 27 27 28 28 30 29 31 30 32 91 33 31 34 90 35
REMARK SMILES IDX 32 36 33 37 34 38 84 39 35 40 89 41 83 42 85 43 36 44 88 45
REMARK SMILES IDX 82 46 81 47 37 49 69 50 49 51 68 52 50 53 53 54 67 55 86 56
REMARK SMILES IDX 51 57 52 58 66 60 87 61 54 62 38 63 39 64 47 65 40 66 42 67
REMARK SMILES IDX 48 68 41 69 43 70 44 71 45 72 46 73 70 74 71 75 79 76 72 77
REMARK SMILES IDX 74 78 80 79 73 80 75 81 76 82 77 83 78 84 55 85 56 86 64 87
REMARK SMILES IDX 57 88 59 89 65 90 58 91 60 92 61 93 62 94 63 95
REMARK H PARENT 19 7 26 29 85 48 53 59
REMARK Flexibility Score: inf
ROOT
ATOM      1  C   UNL A   1      40.587  22.805  26.856  1.00  0.00     0.002 C 
ENDROOT
BRANCH   1   2
ATOM      2  C   UNL A   1      39.305  23.586  27.172  1.00  0.00     0.021 C 
BRANCH   2   3
ATOM      3  C   UNL A   1      38.326  23.643  26.000  1.00  0.00     0.116 C 
BRANCH   3   4
ATOM      4  N   UNL A   1      38.171  22.326  25.408  1.00  0.00    -0.353 N 
ATOM      5  C   UNL A   1      37.050  21.615  25.123  1.00  0.00     0.244 C 
ATOM      6  O   UNL A   1      37.142  20.531  24.550  1.00  0.00    -0.270 OA
ATOM      7  H   UNL A   1      39.015  21.878  25.176  1.00  0.00     0.163 HD
BRANCH   5   8
ATOM      8  C   UNL A   1      35.714  22.176  25.402  1.00  0.00     0.072 C 
ATOM      9  C   UNL A   1      34.886  22.668  24.468  1.00  0.00     0.025 C 
BRANCH   9  10
ATOM     10  C   UNL A   1      33.601  23.201  24.798  1.00  0.00     0.031 A 
ATOM     11  C   UNL A   1      32.192  21.051  24.971  1.00  0.00     0.046 C 
ATOM     12  C   UNL A   1      32.396  22.536  24.981  1.00  0.00    -0.032 A 
ATOM     13  C   UNL A   1      31.323  23.459  25.243  1.00  0.00     0.029 A 
ATOM     14  C   UNL A   1      31.725  24.782  25.298  1.00  0.00     0.093 A 
ATOM     15  S   UNL A   1      33.401  24.888  25.032  1.00  0.00    -0.130 S 
BRANCH  14  16
ATOM     16  C   UNL A   1      30.914  25.912  25.742  1.00  0.00     0.264 C 
ATOM     17  O   UNL A   1      29.930  25.731  26.464  1.00  0.00    -0.268 OA
BRANCH  16  18
ATOM     18  N   UNL A   1      31.279  27.220  25.438  1.00  0.00    -0.335 N 
ATOM     19  C   UNL A   1      31.242  27.658  24.060  1.00  0.00     0.120 C 
ATOM     20  C   UNL A   1      31.761  28.299  26.307  1.00  0.00     0.082 C 
ATOM     21  C   UNL A   1      30.924  29.135  24.193  1.00  0.00     0.024 C 
ATOM     22  C   UNL A   1      31.747  29.549  25.409  1.00  0.00     0.026 C 
ATOM     23  C   UNL A   1      33.165  28.009  26.829  1.00  0.00     0.031 C 
ENDBRANCH  16  18
ENDBRANCH  14  16
ENDBRANCH   9  10
ENDBRANCH   5   8
ENDBRANCH   3   4
ENDBRANCH   2   3
ENDBRANCH   1   2
BRANCH   1  24
ATOM     24  C   UNL A   1      40.748  21.487  27.623  1.00  0.00     0.002 C 
BRANCH  24  25
ATOM     25  C   UNL A   1      40.948  20.245  26.749  1.00  0.00     0.021 C 
BRANCH  25  26
ATOM     26  C   UNL A   1      42.163  19.399  27.117  1.00  0.00     0.116 C 
BRANCH  26  27
ATOM     27  N   UNL A   1      42.994  19.115  25.957  1.00  0.00    -0.352 N 
ATOM     28  C   UNL A   1      43.682  19.986  25.149  1.00  0.00     0.251 C 
ATOM     29  H   UNL A   1      43.073  18.164  25.718  1.00  0.00     0.163 HD
ATOM     30  O   UNL A   1      44.156  19.591  24.087  1.00  0.00    -0.269 OA
BRANCH  28  31
ATOM     31  C   UNL A   1      43.845  21.399  25.556  1.00  0.00     0.039 A 
ATOM     32  C   UNL A   1      44.368  21.683  26.821  1.00  0.00     0.014 A 
ATOM     33  C   UNL A   1      43.464  22.437  24.702  1.00  0.00     0.014 A 
ATOM     34  C   UNL A   1      44.554  23.012  27.210  1.00  0.00     0.010 A 
ATOM     35  C   UNL A   1      43.707  23.759  25.067  1.00  0.00     0.010 A 
ATOM     36  C   UNL A   1      44.246  24.060  26.327  1.00  0.00    -0.014 A 
BRANCH  36  37
ATOM     37  C   UNL A   1      44.485  25.478  26.700  1.00  0.00     0.031 A 
ATOM     38  C   UNL A   1      45.870  26.060  26.620  1.00  0.00     0.074 A 
ATOM     39  C   UNL A   1      43.471  26.213  27.198  1.00  0.00     0.049 A 
ATOM     40  N   UNL A   1      46.281  27.254  26.957  1.00  0.00    -0.248 NA
ATOM     41  C   UNL A   1      46.937  25.175  26.122  1.00  0.00     0.031 C 
ATOM     42  C   UNL A   1      42.102  25.735  27.402  1.00  0.00     0.029 A 
ATOM     43  N   UNL A   1      43.443  27.507  27.652  1.00  0.00    -0.354 N 
ATOM     44  C   UNL A   1      47.656  27.255  26.751  1.00  0.00     0.074 A 
ATOM     45  C   UNL A   1      48.013  25.932  26.287  1.00  0.00     0.031 C 
ATOM     46  C   UNL A   1      41.368  26.723  27.939  1.00  0.00     0.029 A 
ATOM     47  C   UNL A   1      42.217  27.894  28.140  1.00  0.00     0.049 A 
ATOM     48  H   UNL A   1      44.226  28.103  27.630  1.00  0.00     0.167 HD
ATOM     49  C   UNL A   1      48.537  28.272  26.901  1.00  0.00     0.034 A 
ATOM     50  C   UNL A   1      41.822  29.058  28.689  1.00  0.00     0.034 A 
ATOM     51  C   UNL A   1      48.170  29.601  27.310  1.00  0.00     0.049 A 
ATOM     52  C   UNL A   1      42.807  30.191  28.795  1.00  0.00     0.074 A 
ATOM     53  C   UNL A   1      48.970  30.726  27.397  1.00  0.00     0.029 A 
ATOM     54  N   UNL A   1      46.897  29.984  27.704  1.00  0.00    -0.354 N 
ATOM     55  N   UNL A   1      44.066  30.223  28.433  1.00  0.00    -0.248 NA
ATOM     56  C   UNL A   1      42.308  31.458  29.348  1.00  0.00     0.031 C 
ATOM     57  C   UNL A   1      48.182  31.788  27.858  1.00  0.00     0.029 A 
ATOM     58  C   UNL A   1      46.889  31.327  28.043  1.00  0.00     0.049 A 
ATOM     59  H   UNL A   1      46.114  29.389  27.738  1.00  0.00     0.167 HD
ATOM     60  C   UNL A   1      44.502  31.519  28.683  1.00  0.00     0.074 A 
ATOM     61  C   UNL A   1      43.365  32.247  29.207  1.00  0.00     0.031 C 
ATOM     62  C   UNL A   1      45.737  32.053  28.511  1.00  0.00     0.034 A 
BRANCH  49  63
ATOM     63  C   UNL A   1      49.978  28.003  26.558  1.00  0.00     0.023 A 
ATOM     64  C   UNL A   1      50.898  27.736  27.594  1.00  0.00     0.012 A 
ATOM     65  C   UNL A   1      50.415  27.963  25.220  1.00  0.00     0.148 A 
ATOM     66  C   UNL A   1      52.236  27.470  27.306  1.00  0.00     0.002 A 
ATOM     67  C   UNL A   1      51.742  27.655  24.939  1.00  0.00     0.091 A 
ATOM     68  F   UNL A   1      49.535  28.243  24.249  1.00  0.00    -0.205 F 
ATOM     69  C   UNL A   1      52.656  27.419  25.981  1.00  0.00     0.022 A 
BRANCH  67  70
ATOM     70  S   UNL A   1      52.361  27.495  23.260  1.00  0.00     0.127 S 
ATOM     71  O   UNL A   1      53.585  26.724  23.468  1.00  0.00    -0.237 OA
ATOM     72  O   UNL A   1      51.282  26.760  22.599  1.00  0.00    -0.237 OA
ATOM     73  O   UNL A   1      52.550  28.855  22.774  1.00  0.00    -0.744 OA
ENDBRANCH  67  70
ENDBRANCH  49  63
BRANCH  50  74
ATOM     74  C   UNL A   1      40.401  29.235  29.105  1.00  0.00     0.023 A 
ATOM     75  C   UNL A   1      39.413  29.413  28.117  1.00  0.00     0.012 A 
ATOM     76  C   UNL A   1      40.018  29.181  30.458  1.00  0.00     0.148 A 
ATOM     77  C   UNL A   1      38.072  29.559  28.471  1.00  0.00     0.002 A 
ATOM     78  C   UNL A   1      38.674  29.275  30.800  1.00  0.00     0.091 A 
ATOM     79  F   UNL A   1      40.974  29.025  31.384  1.00  0.00    -0.205 F 
ATOM     80  C   UNL A   1      37.701  29.480  29.810  1.00  0.00     0.022 A 
BRANCH  78  81
ATOM     81  S   UNL A   1      38.094  29.047  32.485  1.00  0.00     0.127 S 
ATOM     82  O   UNL A   1      38.851  30.068  33.204  1.00  0.00    -0.237 OA
ATOM     83  O   UNL A   1      36.662  29.318  32.353  1.00  0.00    -0.237 OA
ATOM     84  O   UNL A   1      38.410  27.665  32.824  1.00  0.00    -0.744 OA
ENDBRANCH  78  81
ENDBRANCH  50  74
BRANCH  62  85
ATOM     85  C   UNL A   1      45.926  33.503  28.870  1.00  0.00     0.023 A 
ATOM     86  C   UNL A   1      46.399  33.848  30.151  1.00  0.00     0.012 A 
ATOM     87  C   UNL A   1      45.712  34.517  27.914  1.00  0.00     0.148 A 
ATOM     88  C   UNL A   1      46.629  35.182  30.486  1.00  0.00     0.002 A 
ATOM     89  C   UNL A   1      45.986  35.840  28.241  1.00  0.00     0.091 A 
ATOM     90  F   UNL A   1      45.242  34.170  26.707  1.00  0.00    -0.205 F 
ATOM     91  C   UNL A   1      46.434  36.174  29.529  1.00  0.00     0.022 A 
BRANCH  89  92
ATOM     92  S   UNL A   1      45.854  37.171  27.042  1.00  0.00     0.127 S 
ATOM     93  O   UNL A   1      44.418  37.185  26.770  1.00  0.00    -0.237 OA
ATOM     94  O   UNL A   1      46.343  38.324  27.798  1.00  0.00    -0.237 OA
ATOM     95  O   UNL A   1      46.701  36.783  25.921  1.00  0.00    -0.744 OA
ENDBRANCH  89  92
ENDBRANCH  62  85
ENDBRANCH  36  37
ENDBRANCH  28  31
ENDBRANCH  26  27
ENDBRANCH  25  26
ENDBRANCH  24  25
ENDBRANCH   1  24
TORSDOF 19
ENDMDL
MODEL 3
REMARK VINA RESULT:     -10.3      3.441      4.782
REMARK SMILES Cc1cc(C(=O)N2CCC[C@@H]2C)sc1/C=C/C(=O)NCCCCCCNC(=O)c1ccc(-c2c3nc(c(-c4cccc(S(=O)(=O)[O-])c4F)c4ccc([nH]4)c(-c4cccc(S(=O)(=O)[O-])c4F)c4nc(c(-c5cccc(S(=O)(=O)[O-])c5F)c5ccc2[nH]5)C=C4)C=C3)cc1
REMARK SMILES IDX 22 1 21 2 20 3 19 4 17 5 18 6 16 8 15 9 14 10 1 11 2 12 3 13
REMARK SMILES IDX 4 14 13 15 5 16 6 17 7 18 8 19 11 20 9 21 10 22 12 23 23 24
REMARK SMILES IDX 24 25 25 26 26 27 27 28 28 30 29 31 30 32 91 33 31 34 90 35
REMARK SMILES IDX 32 36 33 37 34 38 84 39 35 40 89 41 83 42 85 43 36 44 88 45
REMARK SMILES IDX 82 46 81 47 37 49 69 50 49 51 68 52 50 53 53 54 67 55 86 56
REMARK SMILES IDX 51 57 52 58 66 60 87 61 54 62 38 63 39 64 47 65 40 66 42 67
REMARK SMILES IDX 48 68 41 69 43 70 44 71 45 72 46 73 70 74 71 75 79 76 72 77
REMARK SMILES IDX 74 78 80 79 73 80 75 81 76 82 77 83 78 84 55 85 56 86 64 87
REMARK SMILES IDX 57 88 59 89 65 90 58 91 60 92 61 93 62 94 63 95
REMARK H PARENT 19 7 26 29 85 48 53 59
REMARK Flexibility Score: inf
ROOT
ATOM      1  C   UNL A   1      35.807  31.595  27.624  1.00  0.00     0.002 C 
ENDROOT
BRANCH   1   2
ATOM      2  C   UNL A   1      35.077  30.332  28.097  1.00  0.00     0.021 C 
BRANCH   2   3
ATOM      3  C   UNL A   1      34.149  29.735  27.039  1.00  0.00     0.116 C 
BRANCH   3   4
ATOM      4  N   UNL A   1      32.865  29.399  27.628  1.00  0.00    -0.353 N 
ATOM      5  C   UNL A   1      32.048  28.337  27.410  1.00  0.00     0.244 C 
ATOM      6  O   UNL A   1      31.022  28.207  28.075  1.00  0.00    -0.270 OA
ATOM      7  H   UNL A   1      32.533  30.046  28.291  1.00  0.00     0.163 HD
BRANCH   5   8
ATOM      8  C   UNL A   1      32.431  27.279  26.455  1.00  0.00     0.072 C 
ATOM      9  C   UNL A   1      32.054  27.245  25.168  1.00  0.00     0.025 C 
BRANCH   9  10
ATOM     10  C   UNL A   1      32.454  26.193  24.288  1.00  0.00     0.031 A 
ATOM     11  C   UNL A   1      33.652  27.516  22.429  1.00  0.00     0.046 C 
ATOM     12  C   UNL A   1      33.111  26.272  23.066  1.00  0.00    -0.032 A 
ATOM     13  C   UNL A   1      33.270  24.971  22.471  1.00  0.00     0.029 A 
ATOM     14  C   UNL A   1      32.782  23.937  23.251  1.00  0.00     0.093 A 
ATOM     15  S   UNL A   1      32.137  24.557  24.696  1.00  0.00    -0.130 S 
BRANCH  14  16
ATOM     16  C   UNL A   1      32.980  22.510  23.012  1.00  0.00     0.264 C 
ATOM     17  O   UNL A   1      32.530  21.977  21.995  1.00  0.00    -0.268 OA
BRANCH  16  18
ATOM     18  N   UNL A   1      33.754  21.740  23.876  1.00  0.00    -0.335 N 
ATOM     19  C   UNL A   1      33.106  20.745  24.702  1.00  0.00     0.120 C 
ATOM     20  C   UNL A   1      35.194  21.775  24.148  1.00  0.00     0.082 C 
ATOM     21  C   UNL A   1      34.184  19.688  24.849  1.00  0.00     0.024 C 
ATOM     22  C   UNL A   1      35.454  20.520  25.002  1.00  0.00     0.026 C 
ATOM     23  C   UNL A   1      35.589  23.043  24.898  1.00  0.00     0.031 C 
ENDBRANCH  16  18
ENDBRANCH  14  16
ENDBRANCH   9  10
ENDBRANCH   5   8
ENDBRANCH   3   4
ENDBRANCH   2   3
ENDBRANCH   1   2
BRANCH   1  24
ATOM     24  C   UNL A   1      35.542  32.849  28.467  1.00  0.00     0.002 C 
BRANCH  24  25
ATOM     25  C   UNL A   1      34.186  33.519  28.226  1.00  0.00     0.021 C 
BRANCH  25  26
ATOM     26  C   UNL A   1      34.186  35.035  28.409  1.00  0.00     0.116 C 
BRANCH  26  27
ATOM     27  N   UNL A   1      33.345  35.443  29.523  1.00  0.00    -0.352 N 
ATOM     28  C   UNL A   1      33.407  35.066  30.842  1.00  0.00     0.251 C 
ATOM     29  H   UNL A   1      32.629  36.081  29.300  1.00  0.00     0.163 HD
ATOM     30  O   UNL A   1      32.484  35.342  31.603  1.00  0.00    -0.269 OA
BRANCH  28  31
ATOM     31  C   UNL A   1      34.584  34.321  31.341  1.00  0.00     0.039 A 
ATOM     32  C   UNL A   1      34.401  33.035  31.859  1.00  0.00     0.014 A 
ATOM     33  C   UNL A   1      35.857  34.896  31.319  1.00  0.00     0.014 A 
ATOM     34  C   UNL A   1      35.505  32.307  32.309  1.00  0.00     0.010 A 
ATOM     35  C   UNL A   1      36.963  34.146  31.710  1.00  0.00     0.010 A 
ATOM     36  C   UNL A   1      36.798  32.849  32.217  1.00  0.00    -0.014 A 
BRANCH  36  37
ATOM     37  C   UNL A   1      37.991  32.072  32.641  1.00  0.00     0.031 A 
ATOM     38  C   UNL A   1      38.702  32.413  33.922  1.00  0.00     0.074 A 
ATOM     39  C   UNL A   1      38.489  31.122  31.825  1.00  0.00     0.049 A 
ATOM     40  N   UNL A   1      39.789  31.889  34.425  1.00  0.00    -0.248 NA
ATOM     41  C   UNL A   1      38.132  33.505  34.730  1.00  0.00     0.031 C 
ATOM     42  C   UNL A   1      37.937  30.756  30.518  1.00  0.00     0.029 A 
ATOM     43  N   UNL A   1      39.587  30.312  31.961  1.00  0.00    -0.354 N 
ATOM     44  C   UNL A   1      40.057  32.608  35.584  1.00  0.00     0.074 A 
ATOM     45  C   UNL A   1      39.034  33.626  35.694  1.00  0.00     0.031 C 
ATOM     46  C   UNL A   1      38.700  29.794  29.974  1.00  0.00     0.029 A 
ATOM     47  C   UNL A   1      39.805  29.492  30.877  1.00  0.00     0.049 A 
ATOM     48  H   UNL A   1      40.166  30.316  32.757  1.00  0.00     0.167 HD
ATOM     49  C   UNL A   1      41.044  32.419  36.491  1.00  0.00     0.034 A 
ATOM     50  C   UNL A   1      40.785  28.599  30.639  1.00  0.00     0.034 A 
ATOM     51  C   UNL A   1      42.026  31.372  36.407  1.00  0.00     0.049 A 
ATOM     52  C   UNL A   1      41.839  28.370  31.688  1.00  0.00     0.074 A 
ATOM     53  C   UNL A   1      43.005  31.035  37.324  1.00  0.00     0.029 A 
ATOM     54  N   UNL A   1      42.157  30.496  35.341  1.00  0.00    -0.354 N 
ATOM     55  N   UNL A   1      41.974  28.945  32.859  1.00  0.00    -0.248 NA
ATOM     56  C   UNL A   1      42.851  27.344  31.402  1.00  0.00     0.031 C 
ATOM     57  C   UNL A   1      43.738  29.961  36.806  1.00  0.00     0.029 A 
ATOM     58  C   UNL A   1      43.206  29.621  35.573  1.00  0.00     0.049 A 
ATOM     59  H   UNL A   1      41.589  30.495  34.538  1.00  0.00     0.167 HD
ATOM     60  C   UNL A   1      43.065  28.329  33.462  1.00  0.00     0.074 A 
ATOM     61  C   UNL A   1      43.540  27.321  32.536  1.00  0.00     0.031 C 
ATOM     62  C   UNL A   1      43.633  28.586  34.666  1.00  0.00     0.034 A 
BRANCH  49  63
ATOM     63  C   UNL A   1      41.070  33.327  37.693  1.00  0.00     0.023 A 
ATOM     64  C   UNL A   1      41.974  34.410  37.722  1.00  0.00     0.012 A 
ATOM     65  C   UNL A   1      40.175  33.147  38.764  1.00  0.00     0.148 A 
ATOM     66  C   UNL A   1      42.012  35.276  38.814  1.00  0.00     0.002 A 
ATOM     67  C   UNL A   1      40.189  34.040  39.831  1.00  0.00     0.091 A 
ATOM     68  F   UNL A   1      39.338  32.100  38.732  1.00  0.00    -0.205 F 
ATOM     69  C   UNL A   1      41.114  35.097  39.862  1.00  0.00     0.022 A 
BRANCH  67  70
ATOM     70  S   UNL A   1      39.023  33.936  41.193  1.00  0.00     0.127 S 
ATOM     71  O   UNL A   1      39.245  35.212  41.870  1.00  0.00    -0.237 OA
ATOM     72  O   UNL A   1      37.740  33.829  40.498  1.00  0.00    -0.237 OA
ATOM     73  O   UNL A   1      39.400  32.749  41.949  1.00  0.00    -0.744 OA
ENDBRANCH  67  70
ENDBRANCH  49  63
BRANCH  50  74
ATOM     74  C   UNL A   1      40.764  27.797  29.383  1.00  0.00     0.023 A 
ATOM     75  C   UNL A   1      39.810  26.771  29.239  1.00  0.00     0.012 A 
ATOM     76  C   UNL A   1      41.645  28.071  28.320  1.00  0.00     0.148 A 
ATOM     77  C   UNL A   1      39.750  26.016  28.067  1.00  0.00     0.002 A 
ATOM     78  C   UNL A   1      41.544  27.350  27.135  1.00  0.00     0.091 A 
ATOM     79  F   UNL A   1      42.554  29.043  28.481  1.00  0.00    -0.205 F 
ATOM     80  C   UNL A   1      40.609  26.312  27.013  1.00  0.00     0.022 A 
BRANCH  78  81
ATOM     81  S   UNL A   1      42.517  27.754  25.680  1.00  0.00     0.127 S 
ATOM     82  O   UNL A   1      43.850  27.929  26.249  1.00  0.00    -0.237 OA
ATOM     83  O   UNL A   1      42.348  26.554  24.859  1.00  0.00    -0.237 OA
ATOM     84  O   UNL A   1      41.902  28.951  25.119  1.00  0.00    -0.744 OA
ENDBRANCH  78  81
ENDBRANCH  50  74
BRANCH  62  85
ATOM     85  C   UNL A   1      44.820  27.753  35.070  1.00  0.00     0.023 A 
ATOM     86  C   UNL A   1      46.122  28.237  34.839  1.00  0.00     0.012 A 
ATOM     87  C   UNL A   1      44.646  26.530  35.749  1.00  0.00     0.148 A 
ATOM     88  C   UNL A   1      47.234  27.504  35.251  1.00  0.00     0.002 A 
ATOM     89  C   UNL A   1      45.759  25.827  36.197  1.00  0.00     0.091 A 
ATOM     90  F   UNL A   1      43.399  26.076  35.942  1.00  0.00    -0.205 F 
ATOM     91  C   UNL A   1      47.053  26.307  35.939  1.00  0.00     0.022 A 
BRANCH  89  92
ATOM     92  S   UNL A   1      45.615  24.325  37.172  1.00  0.00     0.127 S 
ATOM     93  O   UNL A   1      47.016  24.009  37.441  1.00  0.00    -0.237 OA
ATOM     94  O   UNL A   1      44.858  24.781  38.339  1.00  0.00    -0.237 OA
ATOM     95  O   UNL A   1      44.905  23.370  36.332  1.00  0.00    -0.744 OA
ENDBRANCH  89  92
ENDBRANCH  62  85
ENDBRANCH  36  37
ENDBRANCH  28  31
ENDBRANCH  26  27
ENDBRANCH  25  26
ENDBRANCH  24  25
ENDBRANCH   1  24
TORSDOF 19
ENDMDL
