MODEL 1
REMARK VINA RESULT:     -12.2      0.000      0.000
REMARK SMILES Cc1ccc(CNc2ccc(C(=O)NCCCCCCNC(=O)c3ccc(-c4c5nc(c(-c6cccc(S(=O)(=O)[O-])c6F)c6ccc([nH]6)c(-c6cccc(S(=O)(=O)[O-])c6F)c6nc(c(-c7cccc(S(=O)(=O)[O-])c7F)c7ccc4[nH]7)C=C6)C=C5)cc3)cc2Br)cc1
REMARK SMILES IDX 17 1 16 2 15 3 14 4 12 5 13 6 11 8 8 9 9 10 88 11 10 12
REMARK SMILES IDX 87 13 89 14 7 15 6 17 5 18 1 19 2 20 3 21 91 22 4 23 90 24
REMARK SMILES IDX 18 25 19 26 20 27 21 28 22 29 23 31 24 32 25 33 86 34 26 35
REMARK SMILES IDX 85 36 27 37 28 38 29 39 79 40 30 41 84 42 78 43 80 44 31 45
REMARK SMILES IDX 83 46 77 47 76 48 32 50 64 51 44 52 63 53 45 54 48 55 62 56
REMARK SMILES IDX 81 57 46 58 47 59 61 61 82 62 49 63 33 64 34 65 42 66 35 67
REMARK SMILES IDX 37 68 43 69 36 70 38 71 39 72 40 73 41 74 65 75 66 76 74 77
REMARK SMILES IDX 67 78 69 79 75 80 68 81 70 82 71 83 72 84 73 85 50 86 51 87
REMARK SMILES IDX 59 88 52 89 54 90 60 91 53 92 55 93 56 94 57 95 58 96
REMARK H PARENT 14 7 7 16 21 30 80 49 48 60
REMARK Flexibility Score: inf
ROOT
ATOM      1  C   UNL A   1      34.025  28.509  25.363  1.00  0.00     0.002 C 
ENDROOT
BRANCH   1   2
ATOM      2  C   UNL A   1      33.237  29.282  24.302  1.00  0.00     0.021 C 
BRANCH   2   3
ATOM      3  C   UNL A   1      31.759  29.563  24.561  1.00  0.00     0.116 C 
BRANCH   3   4
ATOM      4  N   UNL A   1      30.881  29.325  23.433  1.00  0.00    -0.352 N 
ATOM      5  C   UNL A   1      30.294  28.158  23.001  1.00  0.00     0.251 C 
ATOM      6  O   UNL A   1      29.566  28.191  22.009  1.00  0.00    -0.269 OA
ATOM      7  H   UNL A   1      30.670  30.121  22.893  1.00  0.00     0.163 HD
BRANCH   5   8
ATOM      8  C   UNL A   1      30.532  26.847  23.669  1.00  0.00     0.041 A 
ATOM      9  C   UNL A   1      31.065  24.306  24.844  1.00  0.00     0.049 A 
ATOM     10  C   UNL A   1      30.230  25.239  25.465  1.00  0.00     0.028 A 
ATOM     11  C   UNL A   1      31.610  24.673  23.595  1.00  0.00     0.041 A 
ATOM     12  C   UNL A   1      29.939  26.477  24.875  1.00  0.00     0.016 A 
ATOM     13  C   UNL A   1      31.352  25.921  23.015  1.00  0.00     0.031 A 
ATOM     14  Br  UNL A   1      32.704  23.456  22.616  1.00  0.00    -0.049 Br
BRANCH   9  15
ATOM     15  N   UNL A   1      31.335  23.067  25.396  1.00  0.00    -0.380 N 
ATOM     16  H   UNL A   1      30.924  22.287  24.959  1.00  0.00     0.160 HD
BRANCH  15  17
ATOM     17  C   UNL A   1      32.163  22.806  26.557  1.00  0.00     0.148 C 
BRANCH  17  18
ATOM     18  C   UNL A   1      33.528  22.327  26.117  1.00  0.00    -0.029 A 
ATOM     19  C   UNL A   1      37.429  21.006  24.814  1.00  0.00     0.044 C 
ATOM     20  C   UNL A   1      36.069  21.463  25.249  1.00  0.00    -0.051 A 
ATOM     21  C   UNL A   1      35.926  22.686  25.912  1.00  0.00     0.004 A 
ATOM     22  C   UNL A   1      34.933  20.681  25.013  1.00  0.00     0.004 A 
ATOM     23  C   UNL A   1      34.668  23.117  26.333  1.00  0.00     0.006 A 
ATOM     24  C   UNL A   1      33.673  21.110  25.439  1.00  0.00     0.006 A 
ENDBRANCH  17  18
ENDBRANCH  15  17
ENDBRANCH   9  15
ENDBRANCH   5   8
ENDBRANCH   3   4
ENDBRANCH   2   3
ENDBRANCH   1   2
BRANCH   1  25
ATOM     25  C   UNL A   1      33.375  28.249  26.728  1.00  0.00     0.002 C 
BRANCH  25  26
ATOM     26  C   UNL A   1      33.175  29.434  27.673  1.00  0.00     0.021 C 
BRANCH  26  27
ATOM     27  C   UNL A   1      33.957  30.698  27.331  1.00  0.00     0.116 C 
BRANCH  27  28
ATOM     28  N   UNL A   1      34.310  31.516  28.481  1.00  0.00    -0.352 N 
ATOM     29  C   UNL A   1      35.373  31.356  29.357  1.00  0.00     0.251 C 
ATOM     30  H   UNL A   1      33.716  32.281  28.661  1.00  0.00     0.163 HD
ATOM     31  O   UNL A   1      35.480  32.100  30.321  1.00  0.00    -0.269 OA
BRANCH  29  32
ATOM     32  C   UNL A   1      36.391  30.315  29.069  1.00  0.00     0.039 A 
ATOM     33  C   UNL A   1      36.791  29.450  30.094  1.00  0.00     0.014 A 
ATOM     34  C   UNL A   1      37.047  30.292  27.838  1.00  0.00     0.014 A 
ATOM     35  C   UNL A   1      37.970  28.711  29.953  1.00  0.00     0.010 A 
ATOM     36  C   UNL A   1      38.248  29.615  27.721  1.00  0.00     0.010 A 
ATOM     37  C   UNL A   1      38.742  28.870  28.798  1.00  0.00    -0.014 A 
BRANCH  37  38
ATOM     38  C   UNL A   1      40.133  28.440  28.688  1.00  0.00     0.031 A 
ATOM     39  C   UNL A   1      40.513  27.043  28.388  1.00  0.00     0.074 A 
ATOM     40  C   UNL A   1      41.114  29.364  28.784  1.00  0.00     0.049 A 
ATOM     41  N   UNL A   1      41.645  26.521  28.737  1.00  0.00    -0.248 NA
ATOM     42  C   UNL A   1      39.637  26.123  27.680  1.00  0.00     0.031 C 
ATOM     43  C   UNL A   1      42.504  29.210  28.373  1.00  0.00     0.029 A 
ATOM     44  N   UNL A   1      41.096  30.566  29.500  1.00  0.00    -0.354 N 
ATOM     45  C   UNL A   1      41.752  25.301  28.108  1.00  0.00     0.074 A 
ATOM     46  C   UNL A   1      40.453  25.075  27.509  1.00  0.00     0.031 C 
ATOM     47  C   UNL A   1      43.253  30.079  29.063  1.00  0.00     0.029 A 
ATOM     48  C   UNL A   1      42.385  30.726  30.033  1.00  0.00     0.049 A 
ATOM     49  H   UNL A   1      40.332  31.176  29.609  1.00  0.00     0.167 HD
ATOM     50  C   UNL A   1      42.962  24.675  28.030  1.00  0.00     0.034 A 
ATOM     51  C   UNL A   1      42.664  30.922  31.351  1.00  0.00     0.034 A 
ATOM     52  C   UNL A   1      44.031  25.465  28.648  1.00  0.00     0.049 A 
ATOM     53  C   UNL A   1      43.683  29.955  31.915  1.00  0.00     0.074 A 
ATOM     54  C   UNL A   1      44.971  26.338  28.121  1.00  0.00     0.029 A 
ATOM     55  N   UNL A   1      44.107  25.589  30.027  1.00  0.00    -0.354 N 
ATOM     56  N   UNL A   1      44.162  28.931  31.269  1.00  0.00    -0.248 NA
ATOM     57  C   UNL A   1      44.202  30.040  33.277  1.00  0.00     0.031 C 
ATOM     58  C   UNL A   1      45.600  27.011  29.195  1.00  0.00     0.029 A 
ATOM     59  C   UNL A   1      45.046  26.548  30.375  1.00  0.00     0.049 A 
ATOM     60  H   UNL A   1      43.569  25.070  30.668  1.00  0.00     0.167 HD
ATOM     61  C   UNL A   1      44.887  28.141  32.129  1.00  0.00     0.074 A 
ATOM     62  C   UNL A   1      44.965  28.935  33.343  1.00  0.00     0.031 C 
ATOM     63  C   UNL A   1      45.283  26.876  31.777  1.00  0.00     0.034 A 
BRANCH  50  64
ATOM     64  C   UNL A   1      43.257  23.512  27.097  1.00  0.00     0.023 A 
ATOM     65  C   UNL A   1      43.967  23.783  25.904  1.00  0.00     0.012 A 
ATOM     66  C   UNL A   1      42.828  22.181  27.271  1.00  0.00     0.148 A 
ATOM     67  C   UNL A   1      44.115  22.837  24.885  1.00  0.00     0.002 A 
ATOM     68  C   UNL A   1      42.891  21.261  26.221  1.00  0.00     0.091 A 
ATOM     69  F   UNL A   1      42.433  21.769  28.483  1.00  0.00    -0.205 F 
ATOM     70  C   UNL A   1      43.530  21.589  25.021  1.00  0.00     0.022 A 
BRANCH  68  71
ATOM     71  S   UNL A   1      42.024  19.685  26.287  1.00  0.00     0.127 S 
ATOM     72  O   UNL A   1      40.626  20.090  26.125  1.00  0.00    -0.237 OA
ATOM     73  O   UNL A   1      42.584  18.964  25.147  1.00  0.00    -0.237 OA
ATOM     74  O   UNL A   1      42.325  19.129  27.602  1.00  0.00    -0.744 OA
ENDBRANCH  68  71
ENDBRANCH  50  64
BRANCH  51  75
ATOM     75  C   UNL A   1      41.561  31.548  32.127  1.00  0.00     0.023 A 
ATOM     76  C   UNL A   1      41.285  32.912  31.876  1.00  0.00     0.012 A 
ATOM     77  C   UNL A   1      40.605  30.773  32.805  1.00  0.00     0.148 A 
ATOM     78  C   UNL A   1      40.047  33.466  32.200  1.00  0.00     0.002 A 
ATOM     79  C   UNL A   1      39.366  31.332  33.118  1.00  0.00     0.091 A 
ATOM     80  F   UNL A   1      40.885  29.490  33.067  1.00  0.00    -0.205 F 
ATOM     81  C   UNL A   1      39.077  32.667  32.795  1.00  0.00     0.022 A 
BRANCH  79  82
ATOM     82  S   UNL A   1      38.043  30.327  33.802  1.00  0.00     0.127 S 
ATOM     83  O   UNL A   1      36.862  30.981  33.248  1.00  0.00    -0.237 OA
ATOM     84  O   UNL A   1      38.334  29.004  33.249  1.00  0.00    -0.237 OA
ATOM     85  O   UNL A   1      38.226  30.419  35.243  1.00  0.00    -0.744 OA
ENDBRANCH  79  82
ENDBRANCH  51  75
BRANCH  63  86
ATOM     86  C   UNL A   1      45.906  25.825  32.688  1.00  0.00     0.023 A 
ATOM     87  C   UNL A   1      47.288  25.759  32.945  1.00  0.00     0.012 A 
ATOM     88  C   UNL A   1      45.092  24.921  33.427  1.00  0.00     0.148 A 
ATOM     89  C   UNL A   1      47.843  24.831  33.838  1.00  0.00     0.002 A 
ATOM     90  C   UNL A   1      45.637  24.068  34.387  1.00  0.00     0.091 A 
ATOM     91  F   UNL A   1      43.773  24.858  33.191  1.00  0.00    -0.205 F 
ATOM     92  C   UNL A   1      47.016  24.002  34.579  1.00  0.00     0.022 A 
BRANCH  90  93
ATOM     93  S   UNL A   1      44.571  23.134  35.499  1.00  0.00     0.127 S 
ATOM     94  O   UNL A   1      43.787  24.190  36.133  1.00  0.00    -0.237 OA
ATOM     95  O   UNL A   1      43.813  22.284  34.577  1.00  0.00    -0.237 OA
ATOM     96  O   UNL A   1      45.491  22.402  36.359  1.00  0.00    -0.744 OA
ENDBRANCH  90  93
ENDBRANCH  63  86
ENDBRANCH  37  38
ENDBRANCH  29  32
ENDBRANCH  27  28
ENDBRANCH  26  27
ENDBRANCH  25  26
ENDBRANCH   1  25
TORSDOF 19
ENDMDL
MODEL 2
REMARK VINA RESULT:     -12.1      3.624      5.028
REMARK SMILES Cc1ccc(CNc2ccc(C(=O)NCCCCCCNC(=O)c3ccc(-c4c5nc(c(-c6cccc(S(=O)(=O)[O-])c6F)c6ccc([nH]6)c(-c6cccc(S(=O)(=O)[O-])c6F)c6nc(c(-c7cccc(S(=O)(=O)[O-])c7F)c7ccc4[nH]7)C=C6)C=C5)cc3)cc2Br)cc1
REMARK SMILES IDX 17 1 16 2 15 3 14 4 12 5 13 6 11 8 8 9 9 10 88 11 10 12
REMARK SMILES IDX 87 13 89 14 7 15 6 17 5 18 1 19 2 20 3 21 91 22 4 23 90 24
REMARK SMILES IDX 18 25 19 26 20 27 21 28 22 29 23 31 24 32 25 33 86 34 26 35
REMARK SMILES IDX 85 36 27 37 28 38 29 39 79 40 30 41 84 42 78 43 80 44 31 45
REMARK SMILES IDX 83 46 77 47 76 48 32 50 64 51 44 52 63 53 45 54 48 55 62 56
REMARK SMILES IDX 81 57 46 58 47 59 61 61 82 62 49 63 33 64 34 65 42 66 35 67
REMARK SMILES IDX 37 68 43 69 36 70 38 71 39 72 40 73 41 74 65 75 66 76 74 77
REMARK SMILES IDX 67 78 69 79 75 80 68 81 70 82 71 83 72 84 73 85 50 86 51 87
REMARK SMILES IDX 59 88 52 89 54 90 60 91 53 92 55 93 56 94 57 95 58 96
REMARK H PARENT 14 7 7 16 21 30 80 49 48 60
REMARK Flexibility Score: inf
ROOT
ATOM      1  C   UNL A   1      34.441  31.272  28.275  1.00  0.00     0.002 C 
ENDROOT
BRANCH   1   2
ATOM      2  C   UNL A   1      34.039  30.365  27.108  1.00  0.00     0.021 C 
BRANCH   2   3
ATOM      3  C   UNL A   1      32.622  29.798  27.088  1.00  0.00     0.116 C 
BRANCH   3   4
ATOM      4  N   UNL A   1      31.937  29.898  25.815  1.00  0.00    -0.352 N 
ATOM      5  C   UNL A   1      31.727  28.944  24.847  1.00  0.00     0.251 C 
ATOM      6  O   UNL A   1      31.102  29.254  23.833  1.00  0.00    -0.269 OA
ATOM      7  H   UNL A   1      31.564  30.786  25.611  1.00  0.00     0.163 HD
BRANCH   5   8
ATOM      8  C   UNL A   1      32.256  27.556  24.963  1.00  0.00     0.041 A 
ATOM      9  C   UNL A   1      33.149  24.863  25.232  1.00  0.00     0.049 A 
ATOM     10  C   UNL A   1      33.987  25.866  24.733  1.00  0.00     0.028 A 
ATOM     11  C   UNL A   1      31.850  25.253  25.619  1.00  0.00     0.041 A 
ATOM     12  C   UNL A   1      33.562  27.197  24.630  1.00  0.00     0.016 A 
ATOM     13  C   UNL A   1      31.407  26.575  25.487  1.00  0.00     0.031 A 
ATOM     14  Br  UNL A   1      30.642  23.991  26.382  1.00  0.00    -0.049 Br
BRANCH   9  15
ATOM     15  N   UNL A   1      33.565  23.551  25.372  1.00  0.00    -0.380 N 
ATOM     16  H   UNL A   1      33.395  23.121  26.241  1.00  0.00     0.160 HD
BRANCH  15  17
ATOM     17  C   UNL A   1      34.226  22.747  24.363  1.00  0.00     0.148 C 
BRANCH  17  18
ATOM     18  C   UNL A   1      35.635  22.422  24.808  1.00  0.00    -0.029 A 
ATOM     19  C   UNL A   1      39.634  21.454  26.124  1.00  0.00     0.044 C 
ATOM     20  C   UNL A   1      38.241  21.795  25.685  1.00  0.00    -0.051 A 
ATOM     21  C   UNL A   1      37.456  20.827  25.053  1.00  0.00     0.004 A 
ATOM     22  C   UNL A   1      37.712  23.075  25.885  1.00  0.00     0.004 A 
ATOM     23  C   UNL A   1      36.163  21.134  24.628  1.00  0.00     0.006 A 
ATOM     24  C   UNL A   1      36.420  23.386  25.454  1.00  0.00     0.006 A 
ENDBRANCH  17  18
ENDBRANCH  15  17
ENDBRANCH   9  15
ENDBRANCH   5   8
ENDBRANCH   3   4
ENDBRANCH   2   3
ENDBRANCH   1   2
BRANCH   1  25
ATOM     25  C   UNL A   1      34.794  32.738  27.989  1.00  0.00     0.002 C 
BRANCH  25  26
ATOM     26  C   UNL A   1      33.706  33.795  28.179  1.00  0.00     0.021 C 
BRANCH  26  27
ATOM     27  C   UNL A   1      34.098  35.014  29.006  1.00  0.00     0.116 C 
BRANCH  27  28
ATOM     28  N   UNL A   1      33.166  35.340  30.075  1.00  0.00    -0.352 N 
ATOM     29  C   UNL A   1      33.227  34.974  31.411  1.00  0.00     0.251 C 
ATOM     30  H   UNL A   1      32.392  35.891  29.815  1.00  0.00     0.163 HD
ATOM     31  O   UNL A   1      32.314  35.278  32.164  1.00  0.00    -0.269 OA
BRANCH  29  32
ATOM     32  C   UNL A   1      34.434  34.268  31.908  1.00  0.00     0.039 A 
ATOM     33  C   UNL A   1      35.584  35.008  32.204  1.00  0.00     0.014 A 
ATOM     34  C   UNL A   1      34.471  32.873  31.943  1.00  0.00     0.014 A 
ATOM     35  C   UNL A   1      36.813  34.353  32.334  1.00  0.00     0.010 A 
ATOM     36  C   UNL A   1      35.694  32.228  32.002  1.00  0.00     0.010 A 
ATOM     37  C   UNL A   1      36.873  32.970  32.139  1.00  0.00    -0.014 A 
BRANCH  37  38
ATOM     38  C   UNL A   1      38.114  32.238  31.900  1.00  0.00     0.031 A 
ATOM     39  C   UNL A   1      38.168  31.006  31.086  1.00  0.00     0.074 A 
ATOM     40  C   UNL A   1      39.275  32.746  32.372  1.00  0.00     0.049 A 
ATOM     41  N   UNL A   1      39.078  30.096  31.228  1.00  0.00    -0.248 NA
ATOM     42  C   UNL A   1      37.189  30.698  30.056  1.00  0.00     0.031 C 
ATOM     43  C   UNL A   1      40.623  32.371  31.963  1.00  0.00     0.029 A 
ATOM     44  N   UNL A   1      39.466  33.551  33.499  1.00  0.00    -0.354 N 
ATOM     45  C   UNL A   1      38.957  29.218  30.175  1.00  0.00     0.074 A 
ATOM     46  C   UNL A   1      37.731  29.604  29.507  1.00  0.00     0.031 C 
ATOM     47  C   UNL A   1      41.470  32.675  32.955  1.00  0.00     0.029 A 
ATOM     48  C   UNL A   1      40.674  33.133  34.081  1.00  0.00     0.049 A 
ATOM     49  H   UNL A   1      38.871  34.266  33.822  1.00  0.00     0.167 HD
ATOM     50  C   UNL A   1      39.971  28.352  29.885  1.00  0.00     0.034 A 
ATOM     51  C   UNL A   1      40.820  32.742  35.377  1.00  0.00     0.034 A 
ATOM     52  C   UNL A   1      41.114  28.523  30.786  1.00  0.00     0.049 A 
ATOM     53  C   UNL A   1      41.483  31.390  35.540  1.00  0.00     0.074 A 
ATOM     54  C   UNL A   1      42.303  29.227  30.663  1.00  0.00     0.029 A 
ATOM     55  N   UNL A   1      41.040  28.102  32.105  1.00  0.00    -0.354 N 
ATOM     56  N   UNL A   1      41.769  30.587  34.556  1.00  0.00    -0.248 NA
ATOM     57  C   UNL A   1      41.825  30.816  36.838  1.00  0.00     0.031 C 
ATOM     58  C   UNL A   1      42.936  29.249  31.929  1.00  0.00     0.029 A 
ATOM     59  C   UNL A   1      42.136  28.558  32.821  1.00  0.00     0.049 A 
ATOM     60  H   UNL A   1      40.311  27.556  32.480  1.00  0.00     0.167 HD
ATOM     61  C   UNL A   1      42.156  29.366  35.054  1.00  0.00     0.074 A 
ATOM     62  C   UNL A   1      42.272  29.598  36.484  1.00  0.00     0.031 C 
ATOM     63  C   UNL A   1      42.265  28.265  34.244  1.00  0.00     0.034 A 
BRANCH  50  64
ATOM     64  C   UNL A   1      40.083  27.585  28.578  1.00  0.00     0.023 A 
ATOM     65  C   UNL A   1      39.252  26.455  28.400  1.00  0.00     0.012 A 
ATOM     66  C   UNL A   1      40.994  27.852  27.536  1.00  0.00     0.148 A 
ATOM     67  C   UNL A   1      39.412  25.563  27.334  1.00  0.00     0.002 A 
ATOM     68  C   UNL A   1      41.220  26.918  26.521  1.00  0.00     0.091 A 
ATOM     69  F   UNL A   1      41.589  29.050  27.471  1.00  0.00    -0.205 F 
ATOM     70  C   UNL A   1      40.434  25.766  26.421  1.00  0.00     0.022 A 
BRANCH  68  71
ATOM     71  S   UNL A   1      42.622  27.056  25.400  1.00  0.00     0.127 S 
ATOM     72  O   UNL A   1      42.545  25.801  24.648  1.00  0.00    -0.237 OA
ATOM     73  O   UNL A   1      42.295  28.250  24.624  1.00  0.00    -0.237 OA
ATOM     74  O   UNL A   1      43.799  27.155  26.256  1.00  0.00    -0.744 OA
ENDBRANCH  68  71
ENDBRANCH  50  64
BRANCH  51  75
ATOM     75  C   UNL A   1      39.818  33.319  36.311  1.00  0.00     0.023 A 
ATOM     76  C   UNL A   1      38.742  32.488  36.700  1.00  0.00     0.012 A 
ATOM     77  C   UNL A   1      40.089  34.478  37.059  1.00  0.00     0.148 A 
ATOM     78  C   UNL A   1      38.017  32.749  37.863  1.00  0.00     0.002 A 
ATOM     79  C   UNL A   1      39.365  34.727  38.224  1.00  0.00     0.091 A 
ATOM     80  F   UNL A   1      41.090  35.276  36.667  1.00  0.00    -0.205 F 
ATOM     81  C   UNL A   1      38.348  33.853  38.640  1.00  0.00     0.022 A 
BRANCH  79  82
ATOM     82  S   UNL A   1      39.806  36.084  39.316  1.00  0.00     0.127 S 
ATOM     83  O   UNL A   1      38.860  35.899  40.411  1.00  0.00    -0.237 OA
ATOM     84  O   UNL A   1      41.200  35.782  39.646  1.00  0.00    -0.237 OA
ATOM     85  O   UNL A   1      39.638  37.277  38.500  1.00  0.00    -0.744 OA
ENDBRANCH  79  82
ENDBRANCH  51  75
BRANCH  63  86
ATOM     86  C   UNL A   1      42.481  26.821  34.685  1.00  0.00     0.023 A 
ATOM     87  C   UNL A   1      41.581  26.135  35.521  1.00  0.00     0.012 A 
ATOM     88  C   UNL A   1      43.559  26.051  34.167  1.00  0.00     0.148 A 
ATOM     89  C   UNL A   1      41.753  24.787  35.865  1.00  0.00     0.002 A 
ATOM     90  C   UNL A   1      43.672  24.685  34.431  1.00  0.00     0.091 A 
ATOM     91  F   UNL A   1      44.510  26.639  33.425  1.00  0.00    -0.205 F 
ATOM     92  C   UNL A   1      42.785  24.054  35.301  1.00  0.00     0.022 A 
BRANCH  90  93
ATOM     93  S   UNL A   1      44.877  23.675  33.553  1.00  0.00     0.127 S 
ATOM     94  O   UNL A   1      46.143  24.215  34.040  1.00  0.00    -0.237 OA
ATOM     95  O   UNL A   1      44.570  22.324  34.030  1.00  0.00    -0.237 OA
ATOM     96  O   UNL A   1      44.578  23.889  32.144  1.00  0.00    -0.744 OA
ENDBRANCH  90  93
ENDBRANCH  63  86
ENDBRANCH  37  38
ENDBRANCH  29  32
ENDBRANCH  27  28
ENDBRANCH  26  27
ENDBRANCH  25  26
ENDBRANCH   1  25
TORSDOF 19
ENDMDL
MODEL 3
REMARK VINA RESULT:     -12.1      1.689      2.156
REMARK SMILES Cc1ccc(CNc2ccc(C(=O)NCCCCCCNC(=O)c3ccc(-c4c5nc(c(-c6cccc(S(=O)(=O)[O-])c6F)c6ccc([nH]6)c(-c6cccc(S(=O)(=O)[O-])c6F)c6nc(c(-c7cccc(S(=O)(=O)[O-])c7F)c7ccc4[nH]7)C=C6)C=C5)cc3)cc2Br)cc1
REMARK SMILES IDX 17 1 16 2 15 3 14 4 12 5 13 6 11 8 8 9 9 10 88 11 10 12
REMARK SMILES IDX 87 13 89 14 7 15 6 17 5 18 1 19 2 20 3 21 91 22 4 23 90 24
REMARK SMILES IDX 18 25 19 26 20 27 21 28 22 29 23 31 24 32 25 33 86 34 26 35
REMARK SMILES IDX 85 36 27 37 28 38 29 39 79 40 30 41 84 42 78 43 80 44 31 45
REMARK SMILES IDX 83 46 77 47 76 48 32 50 64 51 44 52 63 53 45 54 48 55 62 56
REMARK SMILES IDX 81 57 46 58 47 59 61 61 82 62 49 63 33 64 34 65 42 66 35 67
REMARK SMILES IDX 37 68 43 69 36 70 38 71 39 72 40 73 41 74 65 75 66 76 74 77
REMARK SMILES IDX 67 78 69 79 75 80 68 81 70 82 71 83 72 84 73 85 50 86 51 87
REMARK SMILES IDX 59 88 52 89 54 90 60 91 53 92 55 93 56 94 57 95 58 96
REMARK H PARENT 14 7 7 16 21 30 80 49 48 60
REMARK Flexibility Score: inf
ROOT
ATOM      1  C   UNL A   1      34.020  28.565  25.358  1.00  0.00     0.002 C 
ENDROOT
BRANCH   1   2
ATOM      2  C   UNL A   1      33.036  29.000  24.268  1.00  0.00     0.021 C 
BRANCH   2   3
ATOM      3  C   UNL A   1      31.712  29.628  24.698  1.00  0.00     0.116 C 
BRANCH   3   4
ATOM      4  N   UNL A   1      30.680  29.643  23.681  1.00  0.00    -0.352 N 
ATOM      5  C   UNL A   1      30.051  28.598  23.044  1.00  0.00     0.251 C 
ATOM      6  O   UNL A   1      29.184  28.849  22.207  1.00  0.00    -0.269 OA
ATOM      7  H   UNL A   1      30.382  30.539  23.403  1.00  0.00     0.163 HD
BRANCH   5   8
ATOM      8  C   UNL A   1      30.402  27.174  23.305  1.00  0.00     0.041 A 
ATOM      9  C   UNL A   1      31.163  24.457  23.706  1.00  0.00     0.049 A 
ATOM     10  C   UNL A   1      30.166  25.060  24.479  1.00  0.00     0.028 A 
ATOM     11  C   UNL A   1      31.756  25.250  22.701  1.00  0.00     0.041 A 
ATOM     12  C   UNL A   1      29.766  26.386  24.263  1.00  0.00     0.016 A 
ATOM     13  C   UNL A   1      31.385  26.586  22.502  1.00  0.00     0.031 A 
ATOM     14  Br  UNL A   1      33.074  24.518  21.534  1.00  0.00    -0.049 Br
BRANCH   9  15
ATOM     15  N   UNL A   1      31.545  23.140  23.883  1.00  0.00    -0.380 N 
ATOM     16  H   UNL A   1      30.982  22.452  23.459  1.00  0.00     0.160 HD
BRANCH  15  17
ATOM     17  C   UNL A   1      32.694  22.672  24.634  1.00  0.00     0.148 C 
BRANCH  17  18
ATOM     18  C   UNL A   1      32.944  21.211  24.334  1.00  0.00    -0.029 A 
ATOM     19  C   UNL A   1      33.717  17.054  23.449  1.00  0.00     0.044 C 
ATOM     20  C   UNL A   1      33.451  18.501  23.738  1.00  0.00    -0.051 A 
ATOM     21  C   UNL A   1      34.228  19.174  24.685  1.00  0.00     0.004 A 
ATOM     22  C   UNL A   1      32.426  19.194  23.083  1.00  0.00     0.004 A 
ATOM     23  C   UNL A   1      33.983  20.517  24.973  1.00  0.00     0.006 A 
ATOM     24  C   UNL A   1      32.177  20.538  23.375  1.00  0.00     0.006 A 
ENDBRANCH  17  18
ENDBRANCH  15  17
ENDBRANCH   9  15
ENDBRANCH   5   8
ENDBRANCH   3   4
ENDBRANCH   2   3
ENDBRANCH   1   2
BRANCH   1  25
ATOM     25  C   UNL A   1      33.520  28.440  26.803  1.00  0.00     0.002 C 
BRANCH  25  26
ATOM     26  C   UNL A   1      33.436  29.709  27.653  1.00  0.00     0.021 C 
BRANCH  26  27
ATOM     27  C   UNL A   1      34.235  30.904  27.145  1.00  0.00     0.116 C 
BRANCH  27  28
ATOM     28  N   UNL A   1      34.777  31.754  28.194  1.00  0.00    -0.352 N 
ATOM     29  C   UNL A   1      35.871  31.518  29.012  1.00  0.00     0.251 C 
ATOM     30  H   UNL A   1      34.305  32.606  28.342  1.00  0.00     0.163 HD
ATOM     31  O   UNL A   1      36.148  32.314  29.898  1.00  0.00    -0.269 OA
BRANCH  29  32
ATOM     32  C   UNL A   1      36.718  30.326  28.754  1.00  0.00     0.039 A 
ATOM     33  C   UNL A   1      36.839  29.348  29.748  1.00  0.00     0.014 A 
ATOM     34  C   UNL A   1      37.498  30.252  27.600  1.00  0.00     0.014 A 
ATOM     35  C   UNL A   1      37.878  28.415  29.675  1.00  0.00     0.010 A 
ATOM     36  C   UNL A   1      38.568  29.375  27.559  1.00  0.00     0.010 A 
ATOM     37  C   UNL A   1      38.794  28.494  28.623  1.00  0.00    -0.014 A 
BRANCH  37  38
ATOM     38  C   UNL A   1      40.092  27.824  28.626  1.00  0.00     0.031 A 
ATOM     39  C   UNL A   1      40.240  26.373  28.387  1.00  0.00     0.074 A 
ATOM     40  C   UNL A   1      41.212  28.566  28.773  1.00  0.00     0.049 A 
ATOM     41  N   UNL A   1      41.234  25.674  28.831  1.00  0.00    -0.248 NA
ATOM     42  C   UNL A   1      39.266  25.594  27.638  1.00  0.00     0.031 C 
ATOM     43  C   UNL A   1      42.578  28.157  28.469  1.00  0.00     0.029 A 
ATOM     44  N   UNL A   1      41.357  29.777  29.457  1.00  0.00    -0.354 N 
ATOM     45  C   UNL A   1      41.168  24.432  28.241  1.00  0.00     0.074 A 
ATOM     46  C   UNL A   1      39.893  24.414  27.553  1.00  0.00     0.031 C 
ATOM     47  C   UNL A   1      43.419  28.907  29.193  1.00  0.00     0.029 A 
ATOM     48  C   UNL A   1      42.615  29.730  30.080  1.00  0.00     0.049 A 
ATOM     49  H   UNL A   1      40.707  30.515  29.495  1.00  0.00     0.167 HD
ATOM     50  C   UNL A   1      42.251  23.603  28.268  1.00  0.00     0.034 A 
ATOM     51  C   UNL A   1      42.832  29.922  31.410  1.00  0.00     0.034 A 
ATOM     52  C   UNL A   1      43.397  24.215  28.944  1.00  0.00     0.049 A 
ATOM     53  C   UNL A   1      43.623  28.813  32.070  1.00  0.00     0.074 A 
ATOM     54  C   UNL A   1      44.511  24.892  28.468  1.00  0.00     0.029 A 
ATOM     55  N   UNL A   1      43.398  24.374  30.322  1.00  0.00    -0.354 N 
ATOM     56  N   UNL A   1      43.957  27.698  31.487  1.00  0.00    -0.248 NA
ATOM     57  C   UNL A   1      44.053  28.855  33.465  1.00  0.00     0.031 C 
ATOM     58  C   UNL A   1      45.173  25.483  29.570  1.00  0.00     0.029 A 
ATOM     59  C   UNL A   1      44.466  25.166  30.717  1.00  0.00     0.049 A 
ATOM     60  H   UNL A   1      42.735  23.980  30.934  1.00  0.00     0.167 HD
ATOM     61  C   UNL A   1      44.470  26.825  32.416  1.00  0.00     0.074 A 
ATOM     62  C   UNL A   1      44.603  27.637  33.614  1.00  0.00     0.031 C 
ATOM     63  C   UNL A   1      44.661  25.499  32.124  1.00  0.00     0.034 A 
BRANCH  50  64
ATOM     64  C   UNL A   1      42.399  22.373  27.386  1.00  0.00     0.023 A 
ATOM     65  C   UNL A   1      41.620  21.236  27.700  1.00  0.00     0.012 A 
ATOM     66  C   UNL A   1      43.298  22.229  26.311  1.00  0.00     0.148 A 
ATOM     67  C   UNL A   1      41.822  19.994  27.088  1.00  0.00     0.002 A 
ATOM     68  C   UNL A   1      43.567  20.972  25.762  1.00  0.00     0.091 A 
ATOM     69  F   UNL A   1      43.838  23.320  25.752  1.00  0.00    -0.205 F 
ATOM     70  C   UNL A   1      42.834  19.849  26.154  1.00  0.00     0.022 A 
BRANCH  68  71
ATOM     71  S   UNL A   1      44.962  20.699  24.657  1.00  0.00     0.127 S 
ATOM     72  O   UNL A   1      44.932  19.246  24.469  1.00  0.00    -0.237 OA
ATOM     73  O   UNL A   1      44.591  21.472  23.475  1.00  0.00    -0.237 OA
ATOM     74  O   UNL A   1      46.136  21.170  25.385  1.00  0.00    -0.744 OA
ENDBRANCH  68  71
ENDBRANCH  50  64
BRANCH  51  75
ATOM     75  C   UNL A   1      41.806  30.758  32.088  1.00  0.00     0.023 A 
ATOM     76  C   UNL A   1      41.725  32.117  31.707  1.00  0.00     0.012 A 
ATOM     77  C   UNL A   1      40.737  30.183  32.795  1.00  0.00     0.148 A 
ATOM     78  C   UNL A   1      40.566  32.859  31.936  1.00  0.00     0.002 A 
ATOM     79  C   UNL A   1      39.579  30.929  33.012  1.00  0.00     0.091 A 
ATOM     80  F   UNL A   1      40.833  28.904  33.180  1.00  0.00    -0.205 F 
ATOM     81  C   UNL A   1      39.482  32.255  32.563  1.00  0.00     0.022 A 
BRANCH  79  82
ATOM     82  S   UNL A   1      38.115  30.177  33.733  1.00  0.00     0.127 S 
ATOM     83  O   UNL A   1      37.070  31.101  33.306  1.00  0.00    -0.237 OA
ATOM     84  O   UNL A   1      38.083  28.865  33.085  1.00  0.00    -0.237 OA
ATOM     85  O   UNL A   1      38.399  30.124  35.160  1.00  0.00    -0.744 OA
ENDBRANCH  79  82
ENDBRANCH  51  75
BRANCH  63  86
ATOM     86  C   UNL A   1      45.024  24.389  33.103  1.00  0.00     0.023 A 
ATOM     87  C   UNL A   1      44.180  23.292  33.361  1.00  0.00     0.012 A 
ATOM     88  C   UNL A   1      46.305  24.347  33.721  1.00  0.00     0.148 A 
ATOM     89  C   UNL A   1      44.553  22.241  34.211  1.00  0.00     0.002 A 
ATOM     90  C   UNL A   1      46.710  23.253  34.486  1.00  0.00     0.091 A 
ATOM     91  F   UNL A   1      47.145  25.385  33.596  1.00  0.00    -0.205 F 
ATOM     92  C   UNL A   1      45.827  22.208  34.755  1.00  0.00     0.022 A 
BRANCH  90  93
ATOM     93  S   UNL A   1      48.419  23.092  35.031  1.00  0.00     0.127 S 
ATOM     94  O   UNL A   1      48.484  21.688  35.425  1.00  0.00    -0.237 OA
ATOM     95  O   UNL A   1      49.174  23.419  33.819  1.00  0.00    -0.237 OA
ATOM     96  O   UNL A   1      48.557  24.074  36.098  1.00  0.00    -0.744 OA
ENDBRANCH  90  93
ENDBRANCH  63  86
ENDBRANCH  37  38
ENDBRANCH  29  32
ENDBRANCH  27  28
ENDBRANCH  26  27
ENDBRANCH  25  26
ENDBRANCH   1  25
TORSDOF 19
ENDMDL
