MODEL 1
REMARK VINA RESULT:     -10.5      0.000      0.000
REMARK SMILES C[NH+](C)CC(C)(C)CNc1cccc(F)c1C(=O)NCCCCCCNC(=O)c1ccc(-c2c3nc(c(-c4cccc(S(=O)(=O)[O-])c4F)c4ccc([nH]4)c(-c4cccc(S(=O)(=O)[O-])c4F)c4nc(c(-c5cccc(S(=O)(=O)[O-])c5F)c5ccc2[nH]5)C=C4)C=C3)cc1
REMARK SMILES IDX 21 1 20 2 19 3 17 4 18 5 16 7 10 8 11 9 12 10 14 11 13 12
REMARK SMILES IDX 15 13 9 14 8 16 5 17 6 18 7 19 4 20 2 21 1 22 3 23 22 25
REMARK SMILES IDX 23 26 24 27 25 28 26 29 27 30 28 32 29 33 30 34 91 35 31 36
REMARK SMILES IDX 90 37 32 38 33 39 34 40 84 41 35 42 89 43 83 44 85 45 36 46
REMARK SMILES IDX 88 47 82 48 81 49 37 51 69 52 49 53 68 54 50 55 53 56 67 57
REMARK SMILES IDX 86 58 51 59 52 60 66 62 87 63 54 64 38 65 39 66 47 67 40 68
REMARK SMILES IDX 42 69 48 70 41 71 43 72 44 73 45 74 46 75 70 76 71 77 79 78
REMARK SMILES IDX 72 79 74 80 80 81 73 82 75 83 76 84 77 85 78 86 55 87 56 88
REMARK SMILES IDX 64 89 57 90 59 91 65 92 58 93 60 94 61 95 62 96 63 97
REMARK H PARENT 19 6 9 15 2 24 26 31 85 50 53 61
REMARK Flexibility Score: inf
ROOT
ATOM      1  C   UNL A   1      30.685  26.816  25.743  1.00  0.00     0.021 C 
ENDROOT
BRANCH   1   2
ATOM      2  C   UNL A   1      29.978  25.466  25.789  1.00  0.00     0.116 C 
BRANCH   2   3
ATOM      3  N   UNL A   1      30.654  24.506  26.637  1.00  0.00    -0.352 N 
ATOM      4  C   UNL A   1      31.803  23.774  26.475  1.00  0.00     0.256 C 
ATOM      5  O   UNL A   1      32.021  22.934  27.354  1.00  0.00    -0.269 OA
ATOM      6  H   UNL A   1      30.200  24.347  27.497  1.00  0.00     0.163 HD
BRANCH   4   7
ATOM      7  C   UNL A   1      32.725  23.884  25.297  1.00  0.00     0.098 A 
ATOM      8  C   UNL A   1      32.765  22.839  24.331  1.00  0.00     0.050 A 
ATOM      9  C   UNL A   1      33.536  23.017  23.166  1.00  0.00     0.027 A 
ATOM     10  C   UNL A   1      34.333  24.146  22.983  1.00  0.00     0.005 A 
ATOM     11  C   UNL A   1      33.633  24.939  25.147  1.00  0.00     0.138 A 
ATOM     12  C   UNL A   1      34.410  25.088  23.997  1.00  0.00     0.040 A 
ATOM     13  F   UNL A   1      33.872  25.804  26.142  1.00  0.00    -0.206 F 
BRANCH   8  14
ATOM     14  N   UNL A   1      32.145  21.602  24.557  1.00  0.00    -0.384 N 
ATOM     15  H   UNL A   1      31.351  21.554  25.137  1.00  0.00     0.160 HD
BRANCH  14  16
ATOM     16  C   UNL A   1      32.663  20.381  23.940  1.00  0.00     0.125 C 
BRANCH  16  17
ATOM     17  C   UNL A   1      33.595  19.545  24.864  1.00  0.00     0.031 C 
ATOM     18  C   UNL A   1      33.053  19.662  26.305  1.00  0.00     0.019 C 
ATOM     19  C   UNL A   1      35.007  20.190  24.885  1.00  0.00     0.019 C 
BRANCH  17  20
ATOM     20  C   UNL A   1      33.772  18.042  24.447  1.00  0.00     0.269 C 
BRANCH  20  21
ATOM     21  N   UNL A   1      33.809  16.907  25.376  1.00  0.00    -0.339 N 
ATOM     22  C   UNL A   1      32.610  16.104  25.489  1.00  0.00     0.332 C 
ATOM     23  C   UNL A   1      35.021  16.116  25.376  1.00  0.00     0.332 C 
ATOM     24  H   UNL A   1      33.834  17.427  26.253  1.00  0.00     0.347 HD
ENDBRANCH  20  21
ENDBRANCH  17  20
ENDBRANCH  16  17
ENDBRANCH  14  16
ENDBRANCH   8  14
ENDBRANCH   4   7
ENDBRANCH   2   3
ENDBRANCH   1   2
BRANCH   1  25
ATOM     25  C   UNL A   1      30.610  27.581  24.419  1.00  0.00     0.002 C 
BRANCH  25  26
ATOM     26  C   UNL A   1      31.906  27.675  23.608  1.00  0.00     0.002 C 
BRANCH  26  27
ATOM     27  C   UNL A   1      32.682  28.988  23.721  1.00  0.00     0.021 C 
BRANCH  27  28
ATOM     28  C   UNL A   1      33.232  29.318  25.104  1.00  0.00     0.116 C 
BRANCH  28  29
ATOM     29  N   UNL A   1      32.614  30.495  25.692  1.00  0.00    -0.352 N 
ATOM     30  C   UNL A   1      32.983  31.203  26.807  1.00  0.00     0.251 C 
ATOM     31  H   UNL A   1      31.817  30.832  25.222  1.00  0.00     0.163 HD
ATOM     32  O   UNL A   1      32.245  32.091  27.237  1.00  0.00    -0.269 OA
BRANCH  30  33
ATOM     33  C   UNL A   1      34.250  30.894  27.507  1.00  0.00     0.039 A 
ATOM     34  C   UNL A   1      35.182  31.919  27.697  1.00  0.00     0.014 A 
ATOM     35  C   UNL A   1      34.532  29.601  27.958  1.00  0.00     0.014 A 
ATOM     36  C   UNL A   1      36.376  31.655  28.375  1.00  0.00     0.010 A 
ATOM     37  C   UNL A   1      35.686  29.360  28.701  1.00  0.00     0.010 A 
ATOM     38  C   UNL A   1      36.628  30.379  28.903  1.00  0.00    -0.014 A 
BRANCH  38  39
ATOM     39  C   UNL A   1      37.877  30.091  29.655  1.00  0.00     0.031 A 
ATOM     40  C   UNL A   1      38.921  29.176  29.071  1.00  0.00     0.074 A 
ATOM     41  C   UNL A   1      38.047  30.599  30.892  1.00  0.00     0.049 A 
ATOM     42  N   UNL A   1      40.051  28.776  29.595  1.00  0.00    -0.248 NA
ATOM     43  C   UNL A   1      38.650  28.615  27.737  1.00  0.00     0.031 C 
ATOM     44  C   UNL A   1      37.079  31.441  31.597  1.00  0.00     0.029 A 
ATOM     45  N   UNL A   1      39.082  30.466  31.784  1.00  0.00    -0.354 N 
ATOM     46  C   UNL A   1      40.606  27.896  28.674  1.00  0.00     0.074 A 
ATOM     47  C   UNL A   1      39.674  27.789  27.574  1.00  0.00     0.031 C 
ATOM     48  C   UNL A   1      37.571  31.761  32.805  1.00  0.00     0.029 A 
ATOM     49  C   UNL A   1      38.872  31.121  32.976  1.00  0.00     0.049 A 
ATOM     50  H   UNL A   1      39.898  29.951  31.590  1.00  0.00     0.167 HD
ATOM     51  C   UNL A   1      41.802  27.261  28.721  1.00  0.00     0.034 A 
ATOM     52  C   UNL A   1      39.638  31.196  34.084  1.00  0.00     0.034 A 
ATOM     53  C   UNL A   1      42.750  27.413  29.791  1.00  0.00     0.049 A 
ATOM     54  C   UNL A   1      40.975  30.508  34.101  1.00  0.00     0.074 A 
ATOM     55  C   UNL A   1      44.026  26.887  29.883  1.00  0.00     0.029 A 
ATOM     56  N   UNL A   1      42.529  28.137  30.952  1.00  0.00    -0.354 N 
ATOM     57  N   UNL A   1      41.549  29.803  33.156  1.00  0.00    -0.248 NA
ATOM     58  C   UNL A   1      41.785  30.646  35.319  1.00  0.00     0.031 C 
ATOM     59  C   UNL A   1      44.565  27.268  31.115  1.00  0.00     0.029 A 
ATOM     60  C   UNL A   1      43.638  28.058  31.775  1.00  0.00     0.049 A 
ATOM     61  H   UNL A   1      41.705  28.635  31.159  1.00  0.00     0.167 HD
ATOM     62  C   UNL A   1      42.795  29.438  33.653  1.00  0.00     0.074 A 
ATOM     63  C   UNL A   1      42.902  30.016  34.977  1.00  0.00     0.031 C 
ATOM     64  C   UNL A   1      43.755  28.677  33.071  1.00  0.00     0.034 A 
BRANCH  51  65
ATOM     65  C   UNL A   1      42.189  26.389  27.556  1.00  0.00     0.023 A 
ATOM     66  C   UNL A   1      42.920  26.946  26.486  1.00  0.00     0.012 A 
ATOM     67  C   UNL A   1      41.916  25.007  27.561  1.00  0.00     0.148 A 
ATOM     68  C   UNL A   1      43.351  26.147  25.428  1.00  0.00     0.002 A 
ATOM     69  C   UNL A   1      42.390  24.209  26.526  1.00  0.00     0.091 A 
ATOM     70  F   UNL A   1      41.205  24.500  28.577  1.00  0.00    -0.205 F 
ATOM     71  C   UNL A   1      43.098  24.779  25.455  1.00  0.00     0.022 A 
BRANCH  69  72
ATOM     72  S   UNL A   1      42.196  22.423  26.508  1.00  0.00     0.127 S 
ATOM     73  O   UNL A   1      42.457  22.113  25.103  1.00  0.00    -0.237 OA
ATOM     74  O   UNL A   1      43.244  21.991  27.432  1.00  0.00    -0.237 OA
ATOM     75  O   UNL A   1      40.836  22.161  26.959  1.00  0.00    -0.744 OA
ENDBRANCH  69  72
ENDBRANCH  51  65
BRANCH  52  76
ATOM     76  C   UNL A   1      39.177  32.019  35.239  1.00  0.00     0.023 A 
ATOM     77  C   UNL A   1      38.287  31.457  36.174  1.00  0.00     0.012 A 
ATOM     78  C   UNL A   1      39.665  33.323  35.453  1.00  0.00     0.148 A 
ATOM     79  C   UNL A   1      37.879  32.184  37.294  1.00  0.00     0.002 A 
ATOM     80  C   UNL A   1      39.299  34.020  36.599  1.00  0.00     0.091 A 
ATOM     81  F   UNL A   1      40.503  33.844  34.545  1.00  0.00    -0.205 F 
ATOM     82  C   UNL A   1      38.394  33.459  37.512  1.00  0.00     0.022 A 
BRANCH  80  83
ATOM     83  S   UNL A   1      40.018  35.607  37.036  1.00  0.00     0.127 S 
ATOM     84  O   UNL A   1      39.614  36.441  35.906  1.00  0.00    -0.237 OA
ATOM     85  O   UNL A   1      39.339  35.907  38.297  1.00  0.00    -0.237 OA
ATOM     86  O   UNL A   1      41.449  35.372  37.164  1.00  0.00    -0.744 OA
ENDBRANCH  80  83
ENDBRANCH  52  76
BRANCH  64  87
ATOM     87  C   UNL A   1      45.025  28.421  33.839  1.00  0.00     0.023 A 
ATOM     88  C   UNL A   1      46.136  29.265  33.645  1.00  0.00     0.012 A 
ATOM     89  C   UNL A   1      45.070  27.436  34.846  1.00  0.00     0.148 A 
ATOM     90  C   UNL A   1      47.278  29.123  34.432  1.00  0.00     0.002 A 
ATOM     91  C   UNL A   1      46.192  27.334  35.660  1.00  0.00     0.091 A 
ATOM     92  F   UNL A   1      44.005  26.637  35.006  1.00  0.00    -0.205 F 
ATOM     93  C   UNL A   1      47.300  28.171  35.448  1.00  0.00     0.022 A 
BRANCH  91  94
ATOM     94  S   UNL A   1      46.272  26.214  37.063  1.00  0.00     0.127 S 
ATOM     95  O   UNL A   1      47.633  26.442  37.548  1.00  0.00    -0.237 OA
ATOM     96  O   UNL A   1      45.218  26.734  37.935  1.00  0.00    -0.237 OA
ATOM     97  O   UNL A   1      46.019  24.882  36.531  1.00  0.00    -0.744 OA
ENDBRANCH  91  94
ENDBRANCH  64  87
ENDBRANCH  38  39
ENDBRANCH  30  33
ENDBRANCH  28  29
ENDBRANCH  27  28
ENDBRANCH  26  27
ENDBRANCH  25  26
ENDBRANCH   1  25
TORSDOF 21
ENDMDL
MODEL 2
REMARK VINA RESULT:     -10.4      1.462      7.663
REMARK SMILES C[NH+](C)CC(C)(C)CNc1cccc(F)c1C(=O)NCCCCCCNC(=O)c1ccc(-c2c3nc(c(-c4cccc(S(=O)(=O)[O-])c4F)c4ccc([nH]4)c(-c4cccc(S(=O)(=O)[O-])c4F)c4nc(c(-c5cccc(S(=O)(=O)[O-])c5F)c5ccc2[nH]5)C=C4)C=C3)cc1
REMARK SMILES IDX 21 1 20 2 19 3 17 4 18 5 16 7 10 8 11 9 12 10 14 11 13 12
REMARK SMILES IDX 15 13 9 14 8 16 5 17 6 18 7 19 4 20 2 21 1 22 3 23 22 25
REMARK SMILES IDX 23 26 24 27 25 28 26 29 27 30 28 32 29 33 30 34 91 35 31 36
REMARK SMILES IDX 90 37 32 38 33 39 34 40 84 41 35 42 89 43 83 44 85 45 36 46
REMARK SMILES IDX 88 47 82 48 81 49 37 51 69 52 49 53 68 54 50 55 53 56 67 57
REMARK SMILES IDX 86 58 51 59 52 60 66 62 87 63 54 64 38 65 39 66 47 67 40 68
REMARK SMILES IDX 42 69 48 70 41 71 43 72 44 73 45 74 46 75 70 76 71 77 79 78
REMARK SMILES IDX 72 79 74 80 80 81 73 82 75 83 76 84 77 85 78 86 55 87 56 88
REMARK SMILES IDX 64 89 57 90 59 91 65 92 58 93 60 94 61 95 62 96 63 97
REMARK H PARENT 19 6 9 15 2 24 26 31 85 50 53 61
REMARK Flexibility Score: inf
ROOT
ATOM      1  C   UNL A   1      30.851  26.617  25.976  1.00  0.00     0.021 C 
ENDROOT
BRANCH   1   2
ATOM      2  C   UNL A   1      30.176  25.250  25.930  1.00  0.00     0.116 C 
BRANCH   2   3
ATOM      3  N   UNL A   1      30.791  24.290  26.823  1.00  0.00    -0.352 N 
ATOM      4  C   UNL A   1      31.907  23.500  26.708  1.00  0.00     0.256 C 
ATOM      5  O   UNL A   1      32.070  22.682  27.618  1.00  0.00    -0.269 OA
ATOM      6  H   UNL A   1      30.315  24.182  27.679  1.00  0.00     0.163 HD
BRANCH   4   7
ATOM      7  C   UNL A   1      32.853  23.526  25.544  1.00  0.00     0.098 A 
ATOM      8  C   UNL A   1      32.912  22.415  24.657  1.00  0.00     0.050 A 
ATOM      9  C   UNL A   1      33.708  22.510  23.497  1.00  0.00     0.027 A 
ATOM     10  C   UNL A   1      34.508  23.623  23.251  1.00  0.00     0.005 A 
ATOM     11  C   UNL A   1      33.764  24.569  25.338  1.00  0.00     0.138 A 
ATOM     12  C   UNL A   1      34.565  24.636  24.196  1.00  0.00     0.040 A 
ATOM     13  F   UNL A   1      33.983  25.503  26.272  1.00  0.00    -0.206 F 
BRANCH   8  14
ATOM     14  N   UNL A   1      32.288  21.196  24.958  1.00  0.00    -0.384 N 
ATOM     15  H   UNL A   1      31.745  21.117  25.775  1.00  0.00     0.160 HD
BRANCH  14  16
ATOM     16  C   UNL A   1      32.432  20.042  24.071  1.00  0.00     0.125 C 
BRANCH  16  17
ATOM     17  C   UNL A   1      33.190  18.841  24.706  1.00  0.00     0.031 C 
ATOM     18  C   UNL A   1      32.841  18.808  26.209  1.00  0.00     0.019 C 
ATOM     19  C   UNL A   1      34.719  19.103  24.629  1.00  0.00     0.019 C 
BRANCH  17  20
ATOM     20  C   UNL A   1      32.918  17.449  24.033  1.00  0.00     0.269 C 
BRANCH  20  21
ATOM     21  N   UNL A   1      33.370  16.156  24.555  1.00  0.00    -0.339 N 
ATOM     22  C   UNL A   1      34.756  16.052  24.959  1.00  0.00     0.332 C 
ATOM     23  C   UNL A   1      32.466  15.476  25.458  1.00  0.00     0.332 C 
ATOM     24  H   UNL A   1      33.331  15.617  23.690  1.00  0.00     0.347 HD
ENDBRANCH  20  21
ENDBRANCH  17  20
ENDBRANCH  16  17
ENDBRANCH  14  16
ENDBRANCH   8  14
ENDBRANCH   4   7
ENDBRANCH   2   3
ENDBRANCH   1   2
BRANCH   1  25
ATOM     25  C   UNL A   1      31.180  27.261  24.627  1.00  0.00     0.002 C 
BRANCH  25  26
ATOM     26  C   UNL A   1      32.548  27.939  24.508  1.00  0.00     0.002 C 
BRANCH  26  27
ATOM     27  C   UNL A   1      32.608  29.417  24.897  1.00  0.00     0.021 C 
BRANCH  27  28
ATOM     28  C   UNL A   1      33.318  29.731  26.209  1.00  0.00     0.116 C 
BRANCH  28  29
ATOM     29  N   UNL A   1      33.149  31.113  26.626  1.00  0.00    -0.352 N 
ATOM     30  C   UNL A   1      33.876  31.841  27.532  1.00  0.00     0.251 C 
ATOM     31  H   UNL A   1      32.406  31.596  26.196  1.00  0.00     0.163 HD
ATOM     32  O   UNL A   1      33.489  32.962  27.865  1.00  0.00    -0.269 OA
BRANCH  30  33
ATOM     33  C   UNL A   1      35.112  31.281  28.126  1.00  0.00     0.039 A 
ATOM     34  C   UNL A   1      36.304  32.001  28.007  1.00  0.00     0.014 A 
ATOM     35  C   UNL A   1      35.105  30.045  28.780  1.00  0.00     0.014 A 
ATOM     36  C   UNL A   1      37.477  31.503  28.579  1.00  0.00     0.010 A 
ATOM     37  C   UNL A   1      36.258  29.588  29.415  1.00  0.00     0.010 A 
ATOM     38  C   UNL A   1      37.460  30.303  29.308  1.00  0.00    -0.014 A 
BRANCH  38  39
ATOM     39  C   UNL A   1      38.692  29.775  29.951  1.00  0.00     0.031 A 
ATOM     40  C   UNL A   1      39.125  30.290  31.298  1.00  0.00     0.074 A 
ATOM     41  C   UNL A   1      39.458  28.880  29.296  1.00  0.00     0.049 A 
ATOM     42  N   UNL A   1      40.188  29.980  31.994  1.00  0.00    -0.248 NA
ATOM     43  C   UNL A   1      38.268  31.303  31.936  1.00  0.00     0.031 C 
ATOM     44  C   UNL A   1      39.185  28.357  27.956  1.00  0.00     0.029 A 
ATOM     45  N   UNL A   1      40.633  28.269  29.658  1.00  0.00    -0.354 N 
ATOM     46  C   UNL A   1      40.145  30.779  33.130  1.00  0.00     0.074 A 
ATOM     47  C   UNL A   1      38.972  31.617  33.015  1.00  0.00     0.031 C 
ATOM     48  C   UNL A   1      40.155  27.494  27.615  1.00  0.00     0.029 A 
ATOM     49  C   UNL A   1      41.137  27.426  28.693  1.00  0.00     0.049 A 
ATOM     50  H   UNL A   1      41.074  28.418  30.525  1.00  0.00     0.167 HD
ATOM     51  C   UNL A   1      40.985  30.791  34.192  1.00  0.00     0.034 A 
ATOM     52  C   UNL A   1      42.263  26.684  28.676  1.00  0.00     0.034 A 
ATOM     53  C   UNL A   1      42.120  29.919  34.328  1.00  0.00     0.049 A 
ATOM     54  C   UNL A   1      43.165  26.691  29.880  1.00  0.00     0.074 A 
ATOM     55  C   UNL A   1      42.974  29.790  35.408  1.00  0.00     0.029 A 
ATOM     56  N   UNL A   1      42.561  29.032  33.359  1.00  0.00    -0.354 N 
ATOM     57  N   UNL A   1      43.025  27.342  31.009  1.00  0.00    -0.248 NA
ATOM     58  C   UNL A   1      44.364  25.841  29.824  1.00  0.00     0.031 C 
ATOM     59  C   UNL A   1      43.951  28.847  35.079  1.00  0.00     0.029 A 
ATOM     60  C   UNL A   1      43.687  28.365  33.808  1.00  0.00     0.049 A 
ATOM     61  H   UNL A   1      42.135  28.898  32.481  1.00  0.00     0.167 HD
ATOM     62  C   UNL A   1      44.098  26.962  31.807  1.00  0.00     0.074 A 
ATOM     63  C   UNL A   1      44.871  26.007  31.039  1.00  0.00     0.031 C 
ATOM     64  C   UNL A   1      44.422  27.380  33.055  1.00  0.00     0.034 A 
BRANCH  51  65
ATOM     65  C   UNL A   1      40.682  31.734  35.327  1.00  0.00     0.023 A 
ATOM     66  C   UNL A   1      41.504  32.861  35.531  1.00  0.00     0.012 A 
ATOM     67  C   UNL A   1      39.538  31.559  36.131  1.00  0.00     0.148 A 
ATOM     68  C   UNL A   1      41.207  33.786  36.530  1.00  0.00     0.002 A 
ATOM     69  C   UNL A   1      39.222  32.510  37.093  1.00  0.00     0.091 A 
ATOM     70  F   UNL A   1      38.779  30.471  35.934  1.00  0.00    -0.205 F 
ATOM     71  C   UNL A   1      40.060  33.618  37.301  1.00  0.00     0.022 A 
BRANCH  69  72
ATOM     72  S   UNL A   1      37.723  32.434  38.080  1.00  0.00     0.127 S 
ATOM     73  O   UNL A   1      37.666  31.013  38.422  1.00  0.00    -0.237 OA
ATOM     74  O   UNL A   1      38.048  33.317  39.200  1.00  0.00    -0.237 OA
ATOM     75  O   UNL A   1      36.648  32.909  37.219  1.00  0.00    -0.744 OA
ENDBRANCH  69  72
ENDBRANCH  51  65
BRANCH  52  76
ATOM     76  C   UNL A   1      42.553  25.819  27.498  1.00  0.00     0.023 A 
ATOM     77  C   UNL A   1      43.352  26.321  26.453  1.00  0.00     0.012 A 
ATOM     78  C   UNL A   1      42.102  24.485  27.437  1.00  0.00     0.148 A 
ATOM     79  C   UNL A   1      43.684  25.517  25.361  1.00  0.00     0.002 A 
ATOM     80  C   UNL A   1      42.482  23.673  26.375  1.00  0.00     0.091 A 
ATOM     81  F   UNL A   1      41.333  24.030  28.436  1.00  0.00    -0.205 F 
ATOM     82  C   UNL A   1      43.260  24.191  25.328  1.00  0.00     0.022 A 
BRANCH  80  83
ATOM     83  S   UNL A   1      42.104  21.918  26.316  1.00  0.00     0.127 S 
ATOM     84  O   UNL A   1      42.476  21.486  27.661  1.00  0.00    -0.237 OA
ATOM     85  O   UNL A   1      40.666  21.930  26.048  1.00  0.00    -0.237 OA
ATOM     86  O   UNL A   1      42.914  21.374  25.235  1.00  0.00    -0.744 OA
ENDBRANCH  80  83
ENDBRANCH  52  76
BRANCH  64  87
ATOM     87  C   UNL A   1      45.659  26.812  33.700  1.00  0.00     0.023 A 
ATOM     88  C   UNL A   1      46.869  27.529  33.634  1.00  0.00     0.012 A 
ATOM     89  C   UNL A   1      45.588  25.642  34.483  1.00  0.00     0.148 A 
ATOM     90  C   UNL A   1      47.995  27.084  34.326  1.00  0.00     0.002 A 
ATOM     91  C   UNL A   1      46.699  25.233  35.210  1.00  0.00     0.091 A 
ATOM     92  F   UNL A   1      44.430  24.969  34.522  1.00  0.00    -0.205 F 
ATOM     93  C   UNL A   1      47.905  25.947  35.126  1.00  0.00     0.022 A 
BRANCH  91  94
ATOM     94  S   UNL A   1      46.652  23.844  36.351  1.00  0.00     0.127 S 
ATOM     95  O   UNL A   1      45.712  24.323  37.364  1.00  0.00    -0.237 OA
ATOM     96  O   UNL A   1      46.140  22.766  35.505  1.00  0.00    -0.237 OA
ATOM     97  O   UNL A   1      48.019  23.655  36.815  1.00  0.00    -0.744 OA
ENDBRANCH  91  94
ENDBRANCH  64  87
ENDBRANCH  38  39
ENDBRANCH  30  33
ENDBRANCH  28  29
ENDBRANCH  27  28
ENDBRANCH  26  27
ENDBRANCH  25  26
ENDBRANCH   1  25
TORSDOF 21
ENDMDL
MODEL 3
REMARK VINA RESULT:     -10.3      2.340      3.241
REMARK SMILES C[NH+](C)CC(C)(C)CNc1cccc(F)c1C(=O)NCCCCCCNC(=O)c1ccc(-c2c3nc(c(-c4cccc(S(=O)(=O)[O-])c4F)c4ccc([nH]4)c(-c4cccc(S(=O)(=O)[O-])c4F)c4nc(c(-c5cccc(S(=O)(=O)[O-])c5F)c5ccc2[nH]5)C=C4)C=C3)cc1
REMARK SMILES IDX 21 1 20 2 19 3 17 4 18 5 16 7 10 8 11 9 12 10 14 11 13 12
REMARK SMILES IDX 15 13 9 14 8 16 5 17 6 18 7 19 4 20 2 21 1 22 3 23 22 25
REMARK SMILES IDX 23 26 24 27 25 28 26 29 27 30 28 32 29 33 30 34 91 35 31 36
REMARK SMILES IDX 90 37 32 38 33 39 34 40 84 41 35 42 89 43 83 44 85 45 36 46
REMARK SMILES IDX 88 47 82 48 81 49 37 51 69 52 49 53 68 54 50 55 53 56 67 57
REMARK SMILES IDX 86 58 51 59 52 60 66 62 87 63 54 64 38 65 39 66 47 67 40 68
REMARK SMILES IDX 42 69 48 70 41 71 43 72 44 73 45 74 46 75 70 76 71 77 79 78
REMARK SMILES IDX 72 79 74 80 80 81 73 82 75 83 76 84 77 85 78 86 55 87 56 88
REMARK SMILES IDX 64 89 57 90 59 91 65 92 58 93 60 94 61 95 62 96 63 97
REMARK H PARENT 19 6 9 15 2 24 26 31 85 50 53 61
REMARK Flexibility Score: inf
ROOT
ATOM      1  C   UNL A   1      32.675  28.924  27.287  1.00  0.00     0.021 C 
ENDROOT
BRANCH   1   2
ATOM      2  C   UNL A   1      32.888  27.490  26.812  1.00  0.00     0.116 C 
BRANCH   2   3
ATOM      3  N   UNL A   1      31.687  26.685  26.902  1.00  0.00    -0.352 N 
ATOM      4  C   UNL A   1      30.872  26.127  25.949  1.00  0.00     0.256 C 
ATOM      5  O   UNL A   1      29.838  25.607  26.379  1.00  0.00    -0.269 OA
ATOM      6  H   UNL A   1      31.399  26.502  27.826  1.00  0.00     0.163 HD
BRANCH   4   7
ATOM      7  C   UNL A   1      31.124  26.186  24.471  1.00  0.00     0.098 A 
ATOM      8  C   UNL A   1      31.832  25.130  23.832  1.00  0.00     0.050 A 
ATOM      9  C   UNL A   1      31.945  25.137  22.428  1.00  0.00     0.027 A 
ATOM     10  C   UNL A   1      31.466  26.198  21.663  1.00  0.00     0.005 A 
ATOM     11  C   UNL A   1      30.773  27.295  23.692  1.00  0.00     0.138 A 
ATOM     12  C   UNL A   1      30.915  27.298  22.304  1.00  0.00     0.040 A 
ATOM     13  F   UNL A   1      30.375  28.446  24.250  1.00  0.00    -0.206 F 
BRANCH   8  14
ATOM     14  N   UNL A   1      32.506  24.144  24.566  1.00  0.00    -0.384 N 
ATOM     15  H   UNL A   1      32.428  24.130  25.547  1.00  0.00     0.160 HD
BRANCH  14  16
ATOM     16  C   UNL A   1      33.322  23.135  23.891  1.00  0.00     0.125 C 
BRANCH  16  17
ATOM     17  C   UNL A   1      34.605  22.727  24.672  1.00  0.00     0.031 C 
ATOM     18  C   UNL A   1      34.887  23.827  25.717  1.00  0.00     0.019 C 
ATOM     19  C   UNL A   1      35.818  22.739  23.702  1.00  0.00     0.019 C 
BRANCH  17  20
ATOM     20  C   UNL A   1      34.555  21.309  25.343  1.00  0.00     0.269 C 
BRANCH  20  21
ATOM     21  N   UNL A   1      33.976  20.107  24.734  1.00  0.00    -0.339 N 
ATOM     22  C   UNL A   1      34.825  18.939  24.639  1.00  0.00     0.332 C 
ATOM     23  C   UNL A   1      32.615  19.788  25.109  1.00  0.00     0.332 C 
ATOM     24  H   UNL A   1      33.913  20.437  23.771  1.00  0.00     0.347 HD
ENDBRANCH  20  21
ENDBRANCH  17  20
ENDBRANCH  16  17
ENDBRANCH  14  16
ENDBRANCH   8  14
ENDBRANCH   4   7
ENDBRANCH   2   3
ENDBRANCH   1   2
BRANCH   1  25
ATOM     25  C   UNL A   1      32.800  30.020  26.226  1.00  0.00     0.002 C 
BRANCH  25  26
ATOM     26  C   UNL A   1      31.563  30.892  25.995  1.00  0.00     0.002 C 
BRANCH  26  27
ATOM     27  C   UNL A   1      31.430  32.129  26.885  1.00  0.00     0.021 C 
BRANCH  27  28
ATOM     28  C   UNL A   1      32.737  32.800  27.291  1.00  0.00     0.116 C 
BRANCH  28  29
ATOM     29  N   UNL A   1      32.556  34.178  27.715  1.00  0.00    -0.352 N 
ATOM     30  C   UNL A   1      33.195  34.870  28.711  1.00  0.00     0.251 C 
ATOM     31  H   UNL A   1      31.878  34.688  27.216  1.00  0.00     0.163 HD
ATOM     32  O   UNL A   1      32.801  35.995  29.023  1.00  0.00    -0.269 OA
BRANCH  30  33
ATOM     33  C   UNL A   1      34.342  34.267  29.428  1.00  0.00     0.039 A 
ATOM     34  C   UNL A   1      34.096  33.499  30.569  1.00  0.00     0.014 A 
ATOM     35  C   UNL A   1      35.655  34.472  28.993  1.00  0.00     0.014 A 
ATOM     36  C   UNL A   1      35.162  32.903  31.249  1.00  0.00     0.010 A 
ATOM     37  C   UNL A   1      36.708  33.813  29.625  1.00  0.00     0.010 A 
ATOM     38  C   UNL A   1      36.475  33.035  30.770  1.00  0.00    -0.014 A 
BRANCH  38  39
ATOM     39  C   UNL A   1      37.616  32.380  31.461  1.00  0.00     0.031 A 
ATOM     40  C   UNL A   1      38.341  31.233  30.809  1.00  0.00     0.074 A 
ATOM     41  C   UNL A   1      37.961  32.773  32.703  1.00  0.00     0.049 A 
ATOM     42  N   UNL A   1      39.329  30.512  31.274  1.00  0.00    -0.248 NA
ATOM     43  C   UNL A   1      37.881  30.822  29.471  1.00  0.00     0.031 C 
ATOM     44  C   UNL A   1      37.293  33.824  33.471  1.00  0.00     0.029 A 
ATOM     45  N   UNL A   1      38.946  32.320  33.548  1.00  0.00    -0.354 N 
ATOM     46  C   UNL A   1      39.585  29.548  30.306  1.00  0.00     0.074 A 
ATOM     47  C   UNL A   1      38.626  29.749  29.243  1.00  0.00     0.031 C 
ATOM     48  C   UNL A   1      37.893  33.946  34.666  1.00  0.00     0.029 A 
ATOM     49  C   UNL A   1      38.966  32.962  34.765  1.00  0.00     0.049 A 
ATOM     50  H   UNL A   1      39.577  31.605  33.305  1.00  0.00     0.167 HD
ATOM     51  C   UNL A   1      40.555  28.603  30.286  1.00  0.00     0.034 A 
ATOM     52  C   UNL A   1      39.757  32.777  35.842  1.00  0.00     0.034 A 
ATOM     53  C   UNL A   1      41.542  28.443  31.319  1.00  0.00     0.049 A 
ATOM     54  C   UNL A   1      40.847  31.742  35.783  1.00  0.00     0.074 A 
ATOM     55  C   UNL A   1      42.620  27.577  31.343  1.00  0.00     0.029 A 
ATOM     56  N   UNL A   1      41.570  29.154  32.508  1.00  0.00    -0.354 N 
ATOM     57  N   UNL A   1      41.169  30.941  34.797  1.00  0.00    -0.248 NA
ATOM     58  C   UNL A   1      41.702  31.601  36.971  1.00  0.00     0.031 C 
ATOM     59  C   UNL A   1      43.284  27.744  32.562  1.00  0.00     0.029 A 
ATOM     60  C   UNL A   1      42.638  28.736  33.282  1.00  0.00     0.049 A 
ATOM     61  H   UNL A   1      40.926  29.854  32.763  1.00  0.00     0.167 HD
ATOM     62  C   UNL A   1      42.277  30.223  35.231  1.00  0.00     0.074 A 
ATOM     63  C   UNL A   1      42.585  30.697  36.565  1.00  0.00     0.031 C 
ATOM     64  C   UNL A   1      42.965  29.247  34.589  1.00  0.00     0.034 A 
BRANCH  51  65
ATOM     65  C   UNL A   1      40.644  27.703  29.081  1.00  0.00     0.023 A 
ATOM     66  C   UNL A   1      39.720  26.648  28.935  1.00  0.00     0.012 A 
ATOM     67  C   UNL A   1      41.575  27.955  28.054  1.00  0.00     0.148 A 
ATOM     68  C   UNL A   1      39.737  25.842  27.797  1.00  0.00     0.002 A 
ATOM     69  C   UNL A   1      41.553  27.178  26.902  1.00  0.00     0.091 A 
ATOM     70  F   UNL A   1      42.456  28.951  28.220  1.00  0.00    -0.205 F 
ATOM     71  C   UNL A   1      40.643  26.115  26.777  1.00  0.00     0.022 A 
BRANCH  69  72
ATOM     72  S   UNL A   1      42.618  27.500  25.492  1.00  0.00     0.127 S 
ATOM     73  O   UNL A   1      42.047  28.740  24.968  1.00  0.00    -0.237 OA
ATOM     74  O   UNL A   1      43.928  27.653  26.125  1.00  0.00    -0.237 OA
ATOM     75  O   UNL A   1      42.494  26.341  24.618  1.00  0.00    -0.744 OA
ENDBRANCH  69  72
ENDBRANCH  51  65
BRANCH  52  76
ATOM     76  C   UNL A   1      39.584  33.650  37.037  1.00  0.00     0.023 A 
ATOM     77  C   UNL A   1      38.605  33.323  37.995  1.00  0.00     0.012 A 
ATOM     78  C   UNL A   1      40.423  34.759  37.265  1.00  0.00     0.148 A 
ATOM     79  C   UNL A   1      38.454  34.091  39.151  1.00  0.00     0.002 A 
ATOM     80  C   UNL A   1      40.305  35.487  38.444  1.00  0.00     0.091 A 
ATOM     81  F   UNL A   1      41.341  35.061  36.336  1.00  0.00    -0.205 F 
ATOM     82  C   UNL A   1      39.311  35.164  39.381  1.00  0.00     0.022 A 
BRANCH  80  83
ATOM     83  S   UNL A   1      41.452  36.794  38.893  1.00  0.00     0.127 S 
ATOM     84  O   UNL A   1      40.543  37.880  39.251  1.00  0.00    -0.237 OA
ATOM     85  O   UNL A   1      42.167  36.192  40.018  1.00  0.00    -0.237 OA
ATOM     86  O   UNL A   1      42.272  37.025  37.712  1.00  0.00    -0.744 OA
ENDBRANCH  80  83
ENDBRANCH  52  76
BRANCH  64  87
ATOM     87  C   UNL A   1      44.136  28.616  35.296  1.00  0.00     0.023 A 
ATOM     88  C   UNL A   1      45.429  29.138  35.098  1.00  0.00     0.012 A 
ATOM     89  C   UNL A   1      43.936  27.603  36.255  1.00  0.00     0.148 A 
ATOM     90  C   UNL A   1      46.509  28.650  35.834  1.00  0.00     0.002 A 
ATOM     91  C   UNL A   1      45.007  27.158  37.020  1.00  0.00     0.091 A 
ATOM     92  F   UNL A   1      42.699  27.114  36.417  1.00  0.00    -0.205 F 
ATOM     93  C   UNL A   1      46.295  27.674  36.805  1.00  0.00     0.022 A 
BRANCH  91  94
ATOM     94  S   UNL A   1      44.814  25.983  38.366  1.00  0.00     0.127 S 
ATOM     95  O   UNL A   1      46.030  26.219  39.144  1.00  0.00    -0.237 OA
ATOM     96  O   UNL A   1      43.581  26.446  39.005  1.00  0.00    -0.237 OA
ATOM     97  O   UNL A   1      44.720  24.669  37.746  1.00  0.00    -0.744 OA
ENDBRANCH  91  94
ENDBRANCH  64  87
ENDBRANCH  38  39
ENDBRANCH  30  33
ENDBRANCH  28  29
ENDBRANCH  27  28
ENDBRANCH  26  27
ENDBRANCH  25  26
ENDBRANCH   1  25
TORSDOF 21
ENDMDL
