MODEL 1
REMARK VINA RESULT:     -11.6      0.000      0.000
REMARK SMILES CC(C)Cc1ccc(-c2cc(Cl)cc3c2O[C@H](C(F)(F)F)C(C(=O)NCCCCCCNC(=O)c2ccc(-c4c5nc(c(-c6cccc(S(=O)(=O)[O-])c6F)c6ccc([nH]6)c(-c6cccc(S(=O)(=O)[O-])c6F)c6nc(c(-c7cccc(S(=O)(=O)[O-])c7F)c7ccc4[nH]7)C=C6)C=C5)cc2)=C3)cc1
REMARK SMILES IDX 28 1 27 2 26 3 25 4 23 5 24 6 22 8 9 9 10 10 15 11 11 12
REMARK SMILES IDX 14 13 16 14 12 15 13 16 98 17 17 18 8 19 5 20 6 21 100 22
REMARK SMILES IDX 7 23 99 24 4 25 2 26 1 27 3 28 18 29 19 30 20 31 21 32 29 33
REMARK SMILES IDX 30 34 31 35 32 36 33 37 34 39 35 40 36 41 97 42 37 43 96 44
REMARK SMILES IDX 38 45 39 46 40 47 90 48 41 49 95 50 89 51 91 52 42 53 94 54
REMARK SMILES IDX 88 55 87 56 43 58 75 59 55 60 74 61 56 62 59 63 73 64 92 65
REMARK SMILES IDX 57 66 58 67 72 69 93 70 60 71 44 72 45 73 53 74 46 75 48 76
REMARK SMILES IDX 54 77 47 78 49 79 50 80 51 81 52 82 76 83 77 84 85 85 78 86
REMARK SMILES IDX 80 87 86 88 79 89 81 90 82 91 83 92 84 93 61 94 62 95 70 96
REMARK SMILES IDX 63 97 65 98 71 99 64 100 66 101 67 102 68 103 69 104
REMARK H PARENT 25 7 32 38 91 57 59 68
REMARK Flexibility Score: inf
ROOT
ATOM      1  C   UNL A   1      37.652  23.217  25.512  1.00  0.00     0.002 C 
ENDROOT
BRANCH   1   2
ATOM      2  C   UNL A   1      36.945  21.865  25.712  1.00  0.00     0.021 C 
BRANCH   2   3
ATOM      3  C   UNL A   1      35.462  21.969  26.096  1.00  0.00     0.116 C 
BRANCH   3   4
ATOM      4  N   UNL A   1      35.063  23.362  26.114  1.00  0.00    -0.352 N 
ATOM      5  C   UNL A   1      34.357  23.985  25.139  1.00  0.00     0.251 C 
ATOM      6  O   UNL A   1      34.737  25.062  24.695  1.00  0.00    -0.270 OA
ATOM      7  H   UNL A   1      35.324  23.899  26.897  1.00  0.00     0.163 HD
BRANCH   5   8
ATOM      8  C   UNL A   1      33.042  23.375  24.787  1.00  0.00     0.067 C 
ATOM      9  C   UNL A   1      30.958  26.821  24.367  1.00  0.00     0.026 A 
ATOM     10  C   UNL A   1      31.270  27.629  25.493  1.00  0.00     0.033 A 
ATOM     11  C   UNL A   1      31.323  25.466  24.450  1.00  0.00     0.135 A 
ATOM     12  C   UNL A   1      31.766  27.105  26.683  1.00  0.00     0.042 A 
ATOM     13  C   UNL A   1      31.712  24.936  25.707  1.00  0.00     0.019 A 
ATOM     14  O   UNL A   1      31.389  24.622  23.347  1.00  0.00    -0.475 OA
ATOM     15  Cl  UNL A   1      32.164  28.162  27.979  1.00  0.00    -0.084 Cl
ATOM     16  C   UNL A   1      31.922  25.743  26.824  1.00  0.00     0.032 A 
ATOM     17  C   UNL A   1      32.121  23.517  25.762  1.00  0.00     0.025 C 
ATOM     18  C   UNL A   1      32.549  23.676  23.382  1.00  0.00     0.314 C 
BRANCH   9  19
ATOM     19  C   UNL A   1      30.123  27.499  23.341  1.00  0.00    -0.015 A 
ATOM     20  C   UNL A   1      28.510  29.571  22.227  1.00  0.00    -0.048 A 
ATOM     21  C   UNL A   1      29.893  29.554  22.024  1.00  0.00     0.004 A 
ATOM     22  C   UNL A   1      27.929  28.493  22.909  1.00  0.00     0.004 A 
ATOM     23  C   UNL A   1      30.680  28.518  22.541  1.00  0.00     0.009 A 
ATOM     24  C   UNL A   1      28.723  27.467  23.451  1.00  0.00     0.009 A 
BRANCH  20  25
ATOM     25  C   UNL A   1      27.672  30.734  21.733  1.00  0.00     0.038 C 
BRANCH  25  26
ATOM     26  C   UNL A   1      28.500  31.998  21.427  1.00  0.00    -0.013 C 
ATOM     27  C   UNL A   1      27.924  32.765  20.236  1.00  0.00     0.008 C 
ATOM     28  C   UNL A   1      28.573  32.919  22.648  1.00  0.00     0.008 C 
ENDBRANCH  25  26
ENDBRANCH  20  25
ENDBRANCH   9  19
BRANCH  18  29
ATOM     29  C   UNL A   1      32.232  22.327  22.695  1.00  0.00     0.429 C 
ATOM     30  F   UNL A   1      32.744  22.248  21.446  1.00  0.00    -0.167 F 
ATOM     31  F   UNL A   1      32.723  21.287  23.409  1.00  0.00    -0.167 F 
ATOM     32  F   UNL A   1      30.896  22.109  22.579  1.00  0.00    -0.167 F 
ENDBRANCH  18  29
ENDBRANCH   5   8
ENDBRANCH   3   4
ENDBRANCH   2   3
ENDBRANCH   1   2
BRANCH   1  33
ATOM     33  C   UNL A   1      38.405  23.736  26.739  1.00  0.00     0.002 C 
BRANCH  33  34
ATOM     34  C   UNL A   1      39.904  23.939  26.521  1.00  0.00     0.021 C 
BRANCH  34  35
ATOM     35  C   UNL A   1      40.762  22.728  26.870  1.00  0.00     0.116 C 
BRANCH  35  36
ATOM     36  N   UNL A   1      41.761  22.445  25.850  1.00  0.00    -0.352 N 
ATOM     37  C   UNL A   1      42.728  23.274  25.344  1.00  0.00     0.251 C 
ATOM     38  H   UNL A   1      41.739  21.535  25.474  1.00  0.00     0.163 HD
ATOM     39  O   UNL A   1      43.385  22.930  24.361  1.00  0.00    -0.269 OA
BRANCH  37  40
ATOM     40  C   UNL A   1      42.960  24.591  25.971  1.00  0.00     0.039 A 
ATOM     41  C   UNL A   1      42.698  25.747  25.233  1.00  0.00     0.014 A 
ATOM     42  C   UNL A   1      43.413  24.683  27.290  1.00  0.00     0.014 A 
ATOM     43  C   UNL A   1      42.843  26.997  25.837  1.00  0.00     0.010 A 
ATOM     44  C   UNL A   1      43.479  25.924  27.913  1.00  0.00     0.010 A 
ATOM     45  C   UNL A   1      43.204  27.096  27.192  1.00  0.00    -0.014 A 
BRANCH  45  46
ATOM     46  C   UNL A   1      43.294  28.415  27.868  1.00  0.00     0.031 A 
ATOM     47  C   UNL A   1      44.623  29.109  28.003  1.00  0.00     0.074 A 
ATOM     48  C   UNL A   1      42.192  28.951  28.429  1.00  0.00     0.049 A 
ATOM     49  N   UNL A   1      44.903  30.242  28.594  1.00  0.00    -0.248 NA
ATOM     50  C   UNL A   1      45.795  28.433  27.422  1.00  0.00     0.031 C 
ATOM     51  C   UNL A   1      40.863  28.336  28.438  1.00  0.00     0.029 A 
ATOM     52  N   UNL A   1      42.019  30.123  29.123  1.00  0.00    -0.354 N 
ATOM     53  C   UNL A   1      46.281  30.395  28.491  1.00  0.00     0.074 A 
ATOM     54  C   UNL A   1      46.785  29.224  27.808  1.00  0.00     0.031 C 
ATOM     55  C   UNL A   1      40.012  29.136  29.101  1.00  0.00     0.029 A 
ATOM     56  C   UNL A   1      40.739  30.302  29.591  1.00  0.00     0.049 A 
ATOM     57  H   UNL A   1      42.743  30.772  29.273  1.00  0.00     0.167 HD
ATOM     58  C   UNL A   1      47.053  31.428  28.902  1.00  0.00     0.034 A 
ATOM     59  C   UNL A   1      40.210  31.291  30.341  1.00  0.00     0.034 A 
ATOM     60  C   UNL A   1      46.542  32.609  29.544  1.00  0.00     0.049 A 
ATOM     61  C   UNL A   1      41.083  32.446  30.748  1.00  0.00     0.074 A 
ATOM     62  C   UNL A   1      47.229  33.752  29.912  1.00  0.00     0.029 A 
ATOM     63  N   UNL A   1      45.223  32.796  29.925  1.00  0.00    -0.354 N 
ATOM     64  N   UNL A   1      42.352  32.650  30.495  1.00  0.00    -0.248 NA
ATOM     65  C   UNL A   1      40.442  33.528  31.510  1.00  0.00     0.031 C 
ATOM     66  C   UNL A   1      46.332  34.616  30.549  1.00  0.00     0.029 A 
ATOM     67  C   UNL A   1      45.078  34.028  30.538  1.00  0.00     0.049 A 
ATOM     68  H   UNL A   1      44.496  32.148  29.782  1.00  0.00     0.167 HD
ATOM     69  C   UNL A   1      42.653  33.896  31.032  1.00  0.00     0.074 A 
ATOM     70  C   UNL A   1      41.427  34.411  31.604  1.00  0.00     0.031 C 
ATOM     71  C   UNL A   1      43.840  34.551  31.060  1.00  0.00     0.034 A 
BRANCH  58  72
ATOM     72  C   UNL A   1      48.533  31.352  28.633  1.00  0.00     0.023 A 
ATOM     73  C   UNL A   1      49.370  30.638  29.515  1.00  0.00     0.012 A 
ATOM     74  C   UNL A   1      49.086  31.926  27.471  1.00  0.00     0.148 A 
ATOM     75  C   UNL A   1      50.736  30.524  29.263  1.00  0.00     0.002 A 
ATOM     76  C   UNL A   1      50.440  31.767  27.202  1.00  0.00     0.091 A 
ATOM     77  F   UNL A   1      48.279  32.619  26.654  1.00  0.00    -0.205 F 
ATOM     78  C   UNL A   1      51.268  31.078  28.102  1.00  0.00     0.022 A 
BRANCH  76  79
ATOM     79  S   UNL A   1      51.206  32.371  25.694  1.00  0.00     0.127 S 
ATOM     80  O   UNL A   1      50.249  33.391  25.265  1.00  0.00    -0.237 OA
ATOM     81  O   UNL A   1      52.479  32.899  26.188  1.00  0.00    -0.237 OA
ATOM     82  O   UNL A   1      51.325  31.219  24.812  1.00  0.00    -0.744 OA
ENDBRANCH  76  79
ENDBRANCH  58  72
BRANCH  59  83
ATOM     83  C   UNL A   1      38.767  31.254  30.713  1.00  0.00     0.023 A 
ATOM     84  C   UNL A   1      38.357  30.519  31.843  1.00  0.00     0.012 A 
ATOM     85  C   UNL A   1      37.802  31.955  29.964  1.00  0.00     0.148 A 
ATOM     86  C   UNL A   1      37.010  30.450  32.197  1.00  0.00     0.002 A 
ATOM     87  C   UNL A   1      36.469  31.930  30.356  1.00  0.00     0.091 A 
ATOM     88  F   UNL A   1      38.211  32.641  28.886  1.00  0.00    -0.205 F 
ATOM     89  C   UNL A   1      36.067  31.162  31.460  1.00  0.00     0.022 A 
BRANCH  87  90
ATOM     90  S   UNL A   1      35.210  32.923  29.547  1.00  0.00     0.127 S 
ATOM     91  O   UNL A   1      35.949  34.141  29.226  1.00  0.00    -0.237 OA
ATOM     92  O   UNL A   1      34.864  32.090  28.394  1.00  0.00    -0.237 OA
ATOM     93  O   UNL A   1      34.139  33.071  30.523  1.00  0.00    -0.744 OA
ENDBRANCH  87  90
ENDBRANCH  59  83
BRANCH  71  94
ATOM     94  C   UNL A   1      43.871  35.919  31.690  1.00  0.00     0.023 A 
ATOM     95  C   UNL A   1      43.989  36.051  33.088  1.00  0.00     0.012 A 
ATOM     96  C   UNL A   1      43.853  37.076  30.885  1.00  0.00     0.148 A 
ATOM     97  C   UNL A   1      44.049  37.313  33.677  1.00  0.00     0.002 A 
ATOM     98  C   UNL A   1      43.968  38.329  31.475  1.00  0.00     0.091 A 
ATOM     99  F   UNL A   1      43.724  36.930  29.558  1.00  0.00    -0.205 F 
ATOM    100  C   UNL A   1      44.052  38.450  32.872  1.00  0.00     0.022 A 
BRANCH  98 101
ATOM    101  S   UNL A   1      44.081  39.840  30.512  1.00  0.00     0.127 S 
ATOM    102  O   UNL A   1      44.230  40.850  31.559  1.00  0.00    -0.237 OA
ATOM    103  O   UNL A   1      45.284  39.609  29.713  1.00  0.00    -0.237 OA
ATOM    104  O   UNL A   1      42.849  39.918  29.739  1.00  0.00    -0.744 OA
ENDBRANCH  98 101
ENDBRANCH  71  94
ENDBRANCH  45  46
ENDBRANCH  37  40
ENDBRANCH  35  36
ENDBRANCH  34  35
ENDBRANCH  33  34
ENDBRANCH   1  33
TORSDOF 20
ENDMDL
MODEL 2
REMARK VINA RESULT:     -11.0      1.723      7.378
REMARK SMILES CC(C)Cc1ccc(-c2cc(Cl)cc3c2O[C@H](C(F)(F)F)C(C(=O)NCCCCCCNC(=O)c2ccc(-c4c5nc(c(-c6cccc(S(=O)(=O)[O-])c6F)c6ccc([nH]6)c(-c6cccc(S(=O)(=O)[O-])c6F)c6nc(c(-c7cccc(S(=O)(=O)[O-])c7F)c7ccc4[nH]7)C=C6)C=C5)cc2)=C3)cc1
REMARK SMILES IDX 28 1 27 2 26 3 25 4 23 5 24 6 22 8 9 9 10 10 15 11 11 12
REMARK SMILES IDX 14 13 16 14 12 15 13 16 98 17 17 18 8 19 5 20 6 21 100 22
REMARK SMILES IDX 7 23 99 24 4 25 2 26 1 27 3 28 18 29 19 30 20 31 21 32 29 33
REMARK SMILES IDX 30 34 31 35 32 36 33 37 34 39 35 40 36 41 97 42 37 43 96 44
REMARK SMILES IDX 38 45 39 46 40 47 90 48 41 49 95 50 89 51 91 52 42 53 94 54
REMARK SMILES IDX 88 55 87 56 43 58 75 59 55 60 74 61 56 62 59 63 73 64 92 65
REMARK SMILES IDX 57 66 58 67 72 69 93 70 60 71 44 72 45 73 53 74 46 75 48 76
REMARK SMILES IDX 54 77 47 78 49 79 50 80 51 81 52 82 76 83 77 84 85 85 78 86
REMARK SMILES IDX 80 87 86 88 79 89 81 90 82 91 83 92 84 93 61 94 62 95 70 96
REMARK SMILES IDX 63 97 65 98 71 99 64 100 66 101 67 102 68 103 69 104
REMARK H PARENT 25 7 32 38 91 57 59 68
REMARK Flexibility Score: inf
ROOT
ATOM      1  C   UNL A   1      37.577  22.930  25.352  1.00  0.00     0.002 C 
ENDROOT
BRANCH   1   2
ATOM      2  C   UNL A   1      36.826  21.643  25.737  1.00  0.00     0.021 C 
BRANCH   2   3
ATOM      3  C   UNL A   1      35.341  21.845  26.071  1.00  0.00     0.116 C 
BRANCH   3   4
ATOM      4  N   UNL A   1      35.044  23.263  26.122  1.00  0.00    -0.352 N 
ATOM      5  C   UNL A   1      34.330  23.945  25.195  1.00  0.00     0.251 C 
ATOM      6  O   UNL A   1      34.760  24.998  24.738  1.00  0.00    -0.270 OA
ATOM      7  H   UNL A   1      35.388  23.771  26.893  1.00  0.00     0.163 HD
BRANCH   5   8
ATOM      8  C   UNL A   1      32.956  23.435  24.917  1.00  0.00     0.067 C 
ATOM      9  C   UNL A   1      31.180  27.017  24.279  1.00  0.00     0.026 A 
ATOM     10  C   UNL A   1      31.593  27.873  25.335  1.00  0.00     0.033 A 
ATOM     11  C   UNL A   1      31.424  25.644  24.457  1.00  0.00     0.135 A 
ATOM     12  C   UNL A   1      32.072  27.395  26.551  1.00  0.00     0.042 A 
ATOM     13  C   UNL A   1      31.797  25.174  25.743  1.00  0.00     0.019 A 
ATOM     14  O   UNL A   1      31.384  24.719  23.419  1.00  0.00    -0.475 OA
ATOM     15  Cl  UNL A   1      32.598  28.502  27.755  1.00  0.00    -0.084 Cl
ATOM     16  C   UNL A   1      32.108  26.038  26.791  1.00  0.00     0.032 A 
ATOM     17  C   UNL A   1      32.078  23.731  25.896  1.00  0.00     0.025 C 
ATOM     18  C   UNL A   1      32.455  23.676  23.502  1.00  0.00     0.314 C 
BRANCH   9  19
ATOM     19  C   UNL A   1      30.383  27.692  23.222  1.00  0.00    -0.015 A 
ATOM     20  C   UNL A   1      28.789  29.749  22.054  1.00  0.00    -0.048 A 
ATOM     21  C   UNL A   1      30.180  29.756  21.915  1.00  0.00     0.004 A 
ATOM     22  C   UNL A   1      28.194  28.655  22.698  1.00  0.00     0.004 A 
ATOM     23  C   UNL A   1      30.959  28.727  22.458  1.00  0.00     0.009 A 
ATOM     24  C   UNL A   1      28.980  27.635  23.266  1.00  0.00     0.009 A 
BRANCH  20  25
ATOM     25  C   UNL A   1      27.956  30.903  21.532  1.00  0.00     0.038 C 
BRANCH  25  26
ATOM     26  C   UNL A   1      27.730  32.016  22.575  1.00  0.00    -0.013 C 
ATOM     27  C   UNL A   1      27.554  31.434  23.979  1.00  0.00     0.008 C 
ATOM     28  C   UNL A   1      28.886  33.019  22.572  1.00  0.00     0.008 C 
ENDBRANCH  25  26
ENDBRANCH  20  25
ENDBRANCH   9  19
BRANCH  18  29
ATOM     29  C   UNL A   1      32.000  22.315  22.925  1.00  0.00     0.429 C 
ATOM     30  F   UNL A   1      30.672  22.276  22.674  1.00  0.00    -0.167 F 
ATOM     31  F   UNL A   1      32.647  22.032  21.770  1.00  0.00    -0.167 F 
ATOM     32  F   UNL A   1      32.264  21.283  23.769  1.00  0.00    -0.167 F 
ENDBRANCH  18  29
ENDBRANCH   5   8
ENDBRANCH   3   4
ENDBRANCH   2   3
ENDBRANCH   1   2
BRANCH   1  33
ATOM     33  C   UNL A   1      38.097  23.749  26.535  1.00  0.00     0.002 C 
BRANCH  33  34
ATOM     34  C   UNL A   1      39.606  23.993  26.520  1.00  0.00     0.021 C 
BRANCH  34  35
ATOM     35  C   UNL A   1      40.444  22.785  26.924  1.00  0.00     0.116 C 
BRANCH  35  36
ATOM     36  N   UNL A   1      41.462  22.462  25.935  1.00  0.00    -0.352 N 
ATOM     37  C   UNL A   1      42.475  23.253  25.458  1.00  0.00     0.251 C 
ATOM     38  H   UNL A   1      41.417  21.553  25.559  1.00  0.00     0.163 HD
ATOM     39  O   UNL A   1      43.148  22.882  24.496  1.00  0.00    -0.269 OA
BRANCH  37  40
ATOM     40  C   UNL A   1      42.738  24.561  26.091  1.00  0.00     0.039 A 
ATOM     41  C   UNL A   1      42.490  25.727  25.363  1.00  0.00     0.014 A 
ATOM     42  C   UNL A   1      43.205  24.635  27.407  1.00  0.00     0.014 A 
ATOM     43  C   UNL A   1      42.665  26.969  25.974  1.00  0.00     0.010 A 
ATOM     44  C   UNL A   1      43.300  25.871  28.037  1.00  0.00     0.010 A 
ATOM     45  C   UNL A   1      43.041  27.052  27.325  1.00  0.00    -0.014 A 
BRANCH  45  46
ATOM     46  C   UNL A   1      43.162  28.366  28.009  1.00  0.00     0.031 A 
ATOM     47  C   UNL A   1      41.947  29.022  28.610  1.00  0.00     0.074 A 
ATOM     48  C   UNL A   1      44.349  29.003  28.021  1.00  0.00     0.049 A 
ATOM     49  N   UNL A   1      41.850  30.181  29.208  1.00  0.00    -0.248 NA
ATOM     50  C   UNL A   1      40.670  28.297  28.502  1.00  0.00     0.031 C 
ATOM     51  C   UNL A   1      45.580  28.509  27.400  1.00  0.00     0.029 A 
ATOM     52  N   UNL A   1      44.710  30.216  28.551  1.00  0.00    -0.354 N 
ATOM     53  C   UNL A   1      40.504  30.342  29.513  1.00  0.00     0.074 A 
ATOM     54  C   UNL A   1      39.815  29.175  29.007  1.00  0.00     0.031 C 
ATOM     55  C   UNL A   1      46.560  29.407  27.588  1.00  0.00     0.029 A 
ATOM     56  C   UNL A   1      46.021  30.555  28.311  1.00  0.00     0.049 A 
ATOM     57  H   UNL A   1      44.089  30.791  29.054  1.00  0.00     0.167 HD
ATOM     58  C   UNL A   1      39.899  31.353  30.180  1.00  0.00     0.034 A 
ATOM     59  C   UNL A   1      46.712  31.668  28.630  1.00  0.00     0.034 A 
ATOM     60  C   UNL A   1      40.593  32.491  30.718  1.00  0.00     0.049 A 
ATOM     61  C   UNL A   1      46.023  32.757  29.406  1.00  0.00     0.074 A 
ATOM     62  C   UNL A   1      40.086  33.521  31.490  1.00  0.00     0.029 A 
ATOM     63  N   UNL A   1      41.940  32.758  30.532  1.00  0.00    -0.354 N 
ATOM     64  N   UNL A   1      44.785  32.812  29.830  1.00  0.00    -0.248 NA
ATOM     65  C   UNL A   1      46.838  33.922  29.783  1.00  0.00     0.031 C 
ATOM     66  C   UNL A   1      41.119  34.429  31.741  1.00  0.00     0.029 A 
ATOM     67  C   UNL A   1      42.279  33.944  31.161  1.00  0.00     0.049 A 
ATOM     68  H   UNL A   1      42.565  32.189  30.026  1.00  0.00     0.167 HD
ATOM     69  C   UNL A   1      44.681  33.995  30.553  1.00  0.00     0.074 A 
ATOM     70  C   UNL A   1      45.989  34.615  30.530  1.00  0.00     0.031 C 
ATOM     71  C   UNL A   1      43.597  34.525  31.172  1.00  0.00     0.034 A 
BRANCH  58  72
ATOM     72  C   UNL A   1      38.412  31.258  30.404  1.00  0.00     0.023 A 
ATOM     73  C   UNL A   1      37.918  30.615  31.557  1.00  0.00     0.012 A 
ATOM     74  C   UNL A   1      37.507  31.865  29.511  1.00  0.00     0.148 A 
ATOM     75  C   UNL A   1      36.547  30.549  31.802  1.00  0.00     0.002 A 
ATOM     76  C   UNL A   1      36.146  31.837  29.786  1.00  0.00     0.091 A 
ATOM     77  F   UNL A   1      37.994  32.454  28.409  1.00  0.00    -0.205 F 
ATOM     78  C   UNL A   1      35.663  31.170  30.923  1.00  0.00     0.022 A 
BRANCH  76  79
ATOM     79  S   UNL A   1      34.932  32.677  28.763  1.00  0.00     0.127 S 
ATOM     80  O   UNL A   1      35.774  33.232  27.703  1.00  0.00    -0.237 OA
ATOM     81  O   UNL A   1      34.071  31.571  28.340  1.00  0.00    -0.237 OA
ATOM     82  O   UNL A   1      34.286  33.657  29.623  1.00  0.00    -0.744 OA
ENDBRANCH  76  79
ENDBRANCH  58  72
BRANCH  59  83
ATOM     83  C   UNL A   1      48.150  31.787  28.257  1.00  0.00     0.023 A 
ATOM     84  C   UNL A   1      48.507  32.425  27.054  1.00  0.00     0.012 A 
ATOM     85  C   UNL A   1      49.165  31.284  29.094  1.00  0.00     0.148 A 
ATOM     86  C   UNL A   1      49.846  32.527  26.671  1.00  0.00     0.002 A 
ATOM     87  C   UNL A   1      50.498  31.440  28.736  1.00  0.00     0.091 A 
ATOM     88  F   UNL A   1      48.804  30.670  30.231  1.00  0.00    -0.205 F 
ATOM     89  C   UNL A   1      50.841  32.042  27.516  1.00  0.00     0.022 A 
BRANCH  87  90
ATOM     90  S   UNL A   1      51.847  30.967  29.824  1.00  0.00     0.127 S 
ATOM     91  O   UNL A   1      51.853  29.513  29.680  1.00  0.00    -0.237 OA
ATOM     92  O   UNL A   1      52.985  31.652  29.209  1.00  0.00    -0.237 OA
ATOM     93  O   UNL A   1      51.485  31.471  31.141  1.00  0.00    -0.744 OA
ENDBRANCH  87  90
ENDBRANCH  59  83
BRANCH  71  94
ATOM     94  C   UNL A   1      43.781  35.822  31.917  1.00  0.00     0.023 A 
ATOM     95  C   UNL A   1      43.802  37.044  31.214  1.00  0.00     0.012 A 
ATOM     96  C   UNL A   1      43.863  35.832  33.324  1.00  0.00     0.148 A 
ATOM     97  C   UNL A   1      43.942  38.251  31.898  1.00  0.00     0.002 A 
ATOM     98  C   UNL A   1      43.947  37.042  34.002  1.00  0.00     0.091 A 
ATOM     99  F   UNL A   1      43.858  34.658  33.973  1.00  0.00    -0.205 F 
ATOM    100  C   UNL A   1      44.000  38.251  33.290  1.00  0.00     0.022 A 
BRANCH  98 101
ATOM    101  S   UNL A   1      43.926  37.145  35.794  1.00  0.00     0.127 S 
ATOM    102  O   UNL A   1      42.612  36.589  36.109  1.00  0.00    -0.237 OA
ATOM    103  O   UNL A   1      45.054  36.291  36.166  1.00  0.00    -0.237 OA
ATOM    104  O   UNL A   1      44.103  38.554  36.118  1.00  0.00    -0.744 OA
ENDBRANCH  98 101
ENDBRANCH  71  94
ENDBRANCH  45  46
ENDBRANCH  37  40
ENDBRANCH  35  36
ENDBRANCH  34  35
ENDBRANCH  33  34
ENDBRANCH   1  33
TORSDOF 20
ENDMDL
MODEL 3
REMARK VINA RESULT:     -10.9      5.096     10.974
REMARK SMILES CC(C)Cc1ccc(-c2cc(Cl)cc3c2O[C@H](C(F)(F)F)C(C(=O)NCCCCCCNC(=O)c2ccc(-c4c5nc(c(-c6cccc(S(=O)(=O)[O-])c6F)c6ccc([nH]6)c(-c6cccc(S(=O)(=O)[O-])c6F)c6nc(c(-c7cccc(S(=O)(=O)[O-])c7F)c7ccc4[nH]7)C=C6)C=C5)cc2)=C3)cc1
REMARK SMILES IDX 28 1 27 2 26 3 25 4 23 5 24 6 22 8 9 9 10 10 15 11 11 12
REMARK SMILES IDX 14 13 16 14 12 15 13 16 98 17 17 18 8 19 5 20 6 21 100 22
REMARK SMILES IDX 7 23 99 24 4 25 2 26 1 27 3 28 18 29 19 30 20 31 21 32 29 33
REMARK SMILES IDX 30 34 31 35 32 36 33 37 34 39 35 40 36 41 97 42 37 43 96 44
REMARK SMILES IDX 38 45 39 46 40 47 90 48 41 49 95 50 89 51 91 52 42 53 94 54
REMARK SMILES IDX 88 55 87 56 43 58 75 59 55 60 74 61 56 62 59 63 73 64 92 65
REMARK SMILES IDX 57 66 58 67 72 69 93 70 60 71 44 72 45 73 53 74 46 75 48 76
REMARK SMILES IDX 54 77 47 78 49 79 50 80 51 81 52 82 76 83 77 84 85 85 78 86
REMARK SMILES IDX 80 87 86 88 79 89 81 90 82 91 83 92 84 93 61 94 62 95 70 96
REMARK SMILES IDX 63 97 65 98 71 99 64 100 66 101 67 102 68 103 69 104
REMARK H PARENT 25 7 32 38 91 57 59 68
REMARK Flexibility Score: inf
ROOT
ATOM      1  C   UNL A   1      38.197  33.580  38.189  1.00  0.00     0.002 C 
ENDROOT
BRANCH   1   2
ATOM      2  C   UNL A   1      38.173  32.612  36.994  1.00  0.00     0.021 C 
BRANCH   2   3
ATOM      3  C   UNL A   1      37.758  33.251  35.661  1.00  0.00     0.116 C 
BRANCH   3   4
ATOM      4  N   UNL A   1      38.101  32.362  34.569  1.00  0.00    -0.352 N 
ATOM      5  C   UNL A   1      37.254  31.966  33.588  1.00  0.00     0.251 C 
ATOM      6  O   UNL A   1      37.159  30.780  33.296  1.00  0.00    -0.270 OA
ATOM      7  H   UNL A   1      39.023  32.017  34.538  1.00  0.00     0.163 HD
BRANCH   5   8
ATOM      8  C   UNL A   1      36.607  33.055  32.800  1.00  0.00     0.067 C 
ATOM      9  C   UNL A   1      36.552  31.158  29.224  1.00  0.00     0.026 A 
ATOM     10  C   UNL A   1      37.845  30.598  29.037  1.00  0.00     0.033 A 
ATOM     11  C   UNL A   1      36.428  32.115  30.246  1.00  0.00     0.135 A 
ATOM     12  C   UNL A   1      38.973  31.063  29.707  1.00  0.00     0.042 A 
ATOM     13  C   UNL A   1      37.605  32.655  30.827  1.00  0.00     0.019 A 
ATOM     14  O   UNL A   1      35.206  32.518  30.772  1.00  0.00    -0.475 OA
ATOM     15  Cl  UNL A   1      40.489  30.294  29.458  1.00  0.00    -0.084 Cl
ATOM     16  C   UNL A   1      38.873  32.146  30.554  1.00  0.00     0.032 A 
ATOM     17  C   UNL A   1      37.447  33.636  31.921  1.00  0.00     0.025 C 
ATOM     18  C   UNL A   1      35.228  32.722  32.255  1.00  0.00     0.314 C 
BRANCH   9  19
ATOM     19  C   UNL A   1      35.565  30.776  28.181  1.00  0.00    -0.015 A 
ATOM     20  C   UNL A   1      33.140  29.692  27.140  1.00  0.00    -0.048 A 
ATOM     21  C   UNL A   1      33.233  31.047  27.473  1.00  0.00     0.004 A 
ATOM     22  C   UNL A   1      34.296  28.906  27.240  1.00  0.00     0.004 A 
ATOM     23  C   UNL A   1      34.434  31.586  27.951  1.00  0.00     0.009 A 
ATOM     24  C   UNL A   1      35.494  29.442  27.745  1.00  0.00     0.009 A 
BRANCH  20  25
ATOM     25  C   UNL A   1      31.818  29.096  26.697  1.00  0.00     0.038 C 
BRANCH  25  26
ATOM     26  C   UNL A   1      31.977  27.838  25.820  1.00  0.00    -0.013 C 
ATOM     27  C   UNL A   1      31.431  26.596  26.526  1.00  0.00     0.008 C 
ATOM     28  C   UNL A   1      31.279  28.014  24.470  1.00  0.00     0.008 C 
ENDBRANCH  25  26
ENDBRANCH  20  25
ENDBRANCH   9  19
BRANCH  18  29
ATOM     29  C   UNL A   1      34.258  33.837  32.713  1.00  0.00     0.429 C 
ATOM     30  F   UNL A   1      34.834  34.701  33.578  1.00  0.00    -0.167 F 
ATOM     31  F   UNL A   1      33.801  34.551  31.657  1.00  0.00    -0.167 F 
ATOM     32  F   UNL A   1      33.159  33.340  33.337  1.00  0.00    -0.167 F 
ENDBRANCH  18  29
ENDBRANCH   5   8
ENDBRANCH   3   4
ENDBRANCH   2   3
ENDBRANCH   1   2
BRANCH   1  33
ATOM     33  C   UNL A   1      39.284  33.292  39.227  1.00  0.00     0.002 C 
BRANCH  33  34
ATOM     34  C   UNL A   1      39.591  34.463  40.160  1.00  0.00     0.021 C 
BRANCH  34  35
ATOM     35  C   UNL A   1      41.075  34.787  40.299  1.00  0.00     0.116 C 
BRANCH  35  36
ATOM     36  N   UNL A   1      41.388  36.145  39.878  1.00  0.00    -0.352 N 
ATOM     37  C   UNL A   1      41.966  36.568  38.710  1.00  0.00     0.251 C 
ATOM     38  H   UNL A   1      41.152  36.854  40.519  1.00  0.00     0.163 HD
ATOM     39  O   UNL A   1      42.317  37.741  38.583  1.00  0.00    -0.269 OA
BRANCH  37  40
ATOM     40  C   UNL A   1      42.186  35.602  37.614  1.00  0.00     0.039 A 
ATOM     41  C   UNL A   1      41.115  35.268  36.782  1.00  0.00     0.014 A 
ATOM     42  C   UNL A   1      43.450  35.048  37.395  1.00  0.00     0.014 A 
ATOM     43  C   UNL A   1      41.326  34.413  35.699  1.00  0.00     0.010 A 
ATOM     44  C   UNL A   1      43.675  34.262  36.270  1.00  0.00     0.010 A 
ATOM     45  C   UNL A   1      42.614  33.928  35.415  1.00  0.00    -0.014 A 
BRANCH  45  46
ATOM     46  C   UNL A   1      42.868  33.075  34.225  1.00  0.00     0.031 A 
ATOM     47  C   UNL A   1      42.997  33.696  32.860  1.00  0.00     0.074 A 
ATOM     48  C   UNL A   1      42.903  31.735  34.363  1.00  0.00     0.049 A 
ATOM     49  N   UNL A   1      43.178  33.112  31.704  1.00  0.00    -0.248 NA
ATOM     50  C   UNL A   1      42.882  35.162  32.777  1.00  0.00     0.031 C 
ATOM     51  C   UNL A   1      42.708  31.008  35.620  1.00  0.00     0.029 A 
ATOM     52  N   UNL A   1      43.090  30.743  33.433  1.00  0.00    -0.354 N 
ATOM     53  C   UNL A   1      43.161  34.129  30.756  1.00  0.00     0.074 A 
ATOM     54  C   UNL A   1      42.920  35.365  31.468  1.00  0.00     0.031 C 
ATOM     55  C   UNL A   1      42.789  29.689  35.383  1.00  0.00     0.029 A 
ATOM     56  C   UNL A   1      43.008  29.473  33.956  1.00  0.00     0.049 A 
ATOM     57  H   UNL A   1      43.265  30.922  32.481  1.00  0.00     0.167 HD
ATOM     58  C   UNL A   1      43.355  34.046  29.419  1.00  0.00     0.034 A 
ATOM     59  C   UNL A   1      43.089  28.270  33.354  1.00  0.00     0.034 A 
ATOM     60  C   UNL A   1      43.636  32.821  28.721  1.00  0.00     0.049 A 
ATOM     61  C   UNL A   1      43.347  28.210  31.873  1.00  0.00     0.074 A 
ATOM     62  C   UNL A   1      43.941  32.645  27.383  1.00  0.00     0.029 A 
ATOM     63  N   UNL A   1      43.631  31.561  29.299  1.00  0.00    -0.354 N 
ATOM     64  N   UNL A   1      43.493  29.194  31.021  1.00  0.00    -0.248 NA
ATOM     65  C   UNL A   1      43.491  26.874  31.277  1.00  0.00     0.031 C 
ATOM     66  C   UNL A   1      44.088  31.275  27.145  1.00  0.00     0.029 A 
ATOM     67  C   UNL A   1      43.914  30.601  28.342  1.00  0.00     0.049 A 
ATOM     68  H   UNL A   1      43.453  31.376  30.249  1.00  0.00     0.167 HD
ATOM     69  C   UNL A   1      43.782  28.600  29.797  1.00  0.00     0.074 A 
ATOM     70  C   UNL A   1      43.813  27.170  30.025  1.00  0.00     0.031 C 
ATOM     71  C   UNL A   1      43.992  29.184  28.592  1.00  0.00     0.034 A 
BRANCH  58  72
ATOM     72  C   UNL A   1      43.316  35.323  28.622  1.00  0.00     0.023 A 
ATOM     73  C   UNL A   1      42.090  35.790  28.107  1.00  0.00     0.012 A 
ATOM     74  C   UNL A   1      44.480  36.098  28.441  1.00  0.00     0.148 A 
ATOM     75  C   UNL A   1      42.026  36.989  27.398  1.00  0.00     0.002 A 
ATOM     76  C   UNL A   1      44.400  37.315  27.776  1.00  0.00     0.091 A 
ATOM     77  F   UNL A   1      45.641  35.628  28.919  1.00  0.00    -0.205 F 
ATOM     78  C   UNL A   1      43.178  37.756  27.243  1.00  0.00     0.022 A 
BRANCH  76  79
ATOM     79  S   UNL A   1      45.808  38.415  27.595  1.00  0.00     0.127 S 
ATOM     80  O   UNL A   1      46.727  37.591  26.810  1.00  0.00    -0.237 OA
ATOM     81  O   UNL A   1      45.223  39.541  26.864  1.00  0.00    -0.237 OA
ATOM     82  O   UNL A   1      46.250  38.729  28.945  1.00  0.00    -0.744 OA
ENDBRANCH  76  79
ENDBRANCH  58  72
BRANCH  59  83
ATOM     83  C   UNL A   1      42.974  27.022  34.161  1.00  0.00     0.023 A 
ATOM     84  C   UNL A   1      41.705  26.574  34.575  1.00  0.00     0.012 A 
ATOM     85  C   UNL A   1      44.114  26.271  34.509  1.00  0.00     0.148 A 
ATOM     86  C   UNL A   1      41.574  25.423  35.351  1.00  0.00     0.002 A 
ATOM     87  C   UNL A   1      43.972  25.093  35.233  1.00  0.00     0.091 A 
ATOM     88  F   UNL A   1      45.314  26.719  34.115  1.00  0.00    -0.205 F 
ATOM     89  C   UNL A   1      42.706  24.678  35.673  1.00  0.00     0.022 A 
BRANCH  87  90
ATOM     90  S   UNL A   1      45.357  24.003  35.577  1.00  0.00     0.127 S 
ATOM     91  O   UNL A   1      45.998  23.911  34.268  1.00  0.00    -0.237 OA
ATOM     92  O   UNL A   1      46.102  24.768  36.578  1.00  0.00    -0.237 OA
ATOM     93  O   UNL A   1      44.770  22.769  36.081  1.00  0.00    -0.744 OA
ENDBRANCH  87  90
ENDBRANCH  59  83
BRANCH  71  94
ATOM     94  C   UNL A   1      44.319  28.287  27.426  1.00  0.00     0.023 A 
ATOM     95  C   UNL A   1      43.283  27.727  26.652  1.00  0.00     0.012 A 
ATOM     96  C   UNL A   1      45.660  28.056  27.058  1.00  0.00     0.148 A 
ATOM     97  C   UNL A   1      43.577  26.921  25.554  1.00  0.00     0.002 A 
ATOM     98  C   UNL A   1      45.944  27.297  25.930  1.00  0.00     0.091 A 
ATOM     99  F   UNL A   1      46.632  28.584  27.816  1.00  0.00    -0.205 F 
ATOM    100  C   UNL A   1      44.904  26.717  25.185  1.00  0.00     0.022 A 
BRANCH  98 101
ATOM    101  S   UNL A   1      47.618  27.064  25.322  1.00  0.00     0.127 S 
ATOM    102  O   UNL A   1      47.386  26.305  24.095  1.00  0.00    -0.237 OA
ATOM    103  O   UNL A   1      48.065  28.441  25.112  1.00  0.00    -0.237 OA
ATOM    104  O   UNL A   1      48.331  26.351  26.373  1.00  0.00    -0.744 OA
ENDBRANCH  98 101
ENDBRANCH  71  94
ENDBRANCH  45  46
ENDBRANCH  37  40
ENDBRANCH  35  36
ENDBRANCH  34  35
ENDBRANCH  33  34
ENDBRANCH   1  33
TORSDOF 20
ENDMDL
