MODEL 1
REMARK VINA RESULT:     -12.5      0.000      0.000
REMARK SMILES Cc1c(CC(=O)NCCCCCCNC(=O)c2ccc(-c3c4nc(c(-c5cccc(S(=O)(=O)[O-])c5F)c5ccc([nH]5)c(-c5cccc(S(=O)(=O)[O-])c5F)c5nc(c(-c6cccc(S(=O)(=O)[O-])c6F)c6ccc3[nH]6)C=C5)C=C4)cc2)cc(-c2ccccc2)cc1-c1ccccc1
REMARK SMILES IDX 11 1 10 2 9 3 8 4 7 5 5 6 6 7 4 9 3 10 1 11 2 12 89 13 80 14
REMARK SMILES IDX 88 15 81 16 90 17 91 18 95 19 92 20 94 21 93 22 82 23 83 24
REMARK SMILES IDX 87 25 84 26 86 27 85 28 12 29 13 30 14 31 15 32 16 34 17 35
REMARK SMILES IDX 18 36 79 37 19 38 78 39 20 40 21 41 22 42 72 43 23 44 77 45
REMARK SMILES IDX 71 46 73 47 24 48 76 49 70 50 69 51 25 53 57 54 37 55 56 56
REMARK SMILES IDX 38 57 41 58 55 59 74 60 39 61 40 62 54 64 75 65 42 66 26 67
REMARK SMILES IDX 27 68 35 69 28 70 30 71 36 72 29 73 31 74 32 75 33 76 34 77
REMARK SMILES IDX 58 78 59 79 67 80 60 81 62 82 68 83 61 84 63 85 64 86 65 87
REMARK SMILES IDX 66 88 43 89 44 90 52 91 45 92 47 93 53 94 46 95 48 96 49 97
REMARK SMILES IDX 50 98 51 99
REMARK H PARENT 7 8 14 33 73 52 41 63
REMARK Flexibility Score: inf
ROOT
ATOM      1  C   UNL A   1      34.501  29.113  27.008  1.00  0.00     0.002 C 
ENDROOT
BRANCH   1   2
ATOM      2  C   UNL A   1      33.475  27.977  26.867  1.00  0.00     0.002 C 
BRANCH   2   3
ATOM      3  C   UNL A   1      32.853  27.800  25.478  1.00  0.00     0.021 C 
BRANCH   3   4
ATOM      4  C   UNL A   1      32.702  26.347  25.037  1.00  0.00     0.116 C 
BRANCH   4   5
ATOM      5  N   UNL A   1      33.360  26.072  23.778  1.00  0.00    -0.356 N 
ATOM      6  C   UNL A   1      33.385  24.909  23.065  1.00  0.00     0.224 C 
ATOM      7  O   UNL A   1      33.963  24.903  21.975  1.00  0.00    -0.275 OA
ATOM      8  H   UNL A   1      33.856  26.825  23.385  1.00  0.00     0.163 HD
BRANCH   6   9
ATOM      9  C   UNL A   1      32.657  23.671  23.579  1.00  0.00     0.135 C 
BRANCH   9  10
ATOM     10  C   UNL A   1      33.572  22.565  24.077  1.00  0.00    -0.035 A 
ATOM     11  C   UNL A   1      31.945  20.737  23.372  1.00  0.00     0.045 C 
ATOM     12  C   UNL A   1      33.234  21.185  24.029  1.00  0.00    -0.040 A 
ATOM     13  C   UNL A   1      34.133  20.231  24.579  1.00  0.00    -0.015 A 
ATOM     14  C   UNL A   1      34.814  22.957  24.612  1.00  0.00     0.013 A 
ATOM     15  C   UNL A   1      35.356  20.682  25.123  1.00  0.00     0.017 A 
ATOM     16  C   UNL A   1      35.721  22.033  25.134  1.00  0.00    -0.017 A 
BRANCH  13  17
ATOM     17  C   UNL A   1      33.846  18.782  24.636  1.00  0.00    -0.018 A 
ATOM     18  C   UNL A   1      32.796  18.294  25.434  1.00  0.00     0.009 A 
ATOM     19  C   UNL A   1      34.611  17.852  23.914  1.00  0.00     0.009 A 
ATOM     20  C   UNL A   1      32.510  16.928  25.495  1.00  0.00     0.001 A 
ATOM     21  C   UNL A   1      34.315  16.487  23.960  1.00  0.00     0.001 A 
ATOM     22  C   UNL A   1      33.266  16.026  24.752  1.00  0.00     0.000 A 
ENDBRANCH  13  17
BRANCH  16  23
ATOM     23  C   UNL A   1      37.026  22.472  25.650  1.00  0.00    -0.018 A 
ATOM     24  C   UNL A   1      38.114  21.589  25.726  1.00  0.00     0.009 A 
ATOM     25  C   UNL A   1      37.205  23.785  26.113  1.00  0.00     0.009 A 
ATOM     26  C   UNL A   1      39.340  22.003  26.257  1.00  0.00     0.001 A 
ATOM     27  C   UNL A   1      38.426  24.200  26.647  1.00  0.00     0.001 A 
ATOM     28  C   UNL A   1      39.493  23.308  26.721  1.00  0.00     0.000 A 
ENDBRANCH  16  23
ENDBRANCH   9  10
ENDBRANCH   6   9
ENDBRANCH   4   5
ENDBRANCH   3   4
ENDBRANCH   2   3
ENDBRANCH   1   2
BRANCH   1  29
ATOM     29  C   UNL A   1      33.939  30.502  27.318  1.00  0.00     0.021 C 
BRANCH  29  30
ATOM     30  C   UNL A   1      34.915  31.419  28.033  1.00  0.00     0.116 C 
BRANCH  30  31
ATOM     31  N   UNL A   1      34.308  32.655  28.481  1.00  0.00    -0.352 N 
ATOM     32  C   UNL A   1      34.583  33.404  29.607  1.00  0.00     0.251 C 
ATOM     33  H   UNL A   1      33.597  33.011  27.901  1.00  0.00     0.163 HD
ATOM     34  O   UNL A   1      33.744  34.217  29.988  1.00  0.00    -0.269 OA
BRANCH  32  35
ATOM     35  C   UNL A   1      35.928  33.338  30.233  1.00  0.00     0.039 A 
ATOM     36  C   UNL A   1      37.002  33.830  29.477  1.00  0.00     0.014 A 
ATOM     37  C   UNL A   1      36.175  32.590  31.381  1.00  0.00     0.014 A 
ATOM     38  C   UNL A   1      38.286  33.345  29.704  1.00  0.00     0.010 A 
ATOM     39  C   UNL A   1      37.425  32.045  31.562  1.00  0.00     0.010 A 
ATOM     40  C   UNL A   1      38.453  32.362  30.672  1.00  0.00    -0.014 A 
BRANCH  40  41
ATOM     41  C   UNL A   1      39.654  31.567  30.834  1.00  0.00     0.031 A 
ATOM     42  C   UNL A   1      39.761  30.267  30.161  1.00  0.00     0.074 A 
ATOM     43  C   UNL A   1      40.708  32.151  31.441  1.00  0.00     0.049 A 
ATOM     44  N   UNL A   1      40.615  29.355  30.466  1.00  0.00    -0.248 NA
ATOM     45  C   UNL A   1      38.854  29.891  29.086  1.00  0.00     0.031 C 
ATOM     46  C   UNL A   1      42.108  31.760  31.377  1.00  0.00     0.029 A 
ATOM     47  N   UNL A   1      40.672  33.149  32.422  1.00  0.00    -0.354 N 
ATOM     48  C   UNL A   1      40.567  28.403  29.467  1.00  0.00     0.074 A 
ATOM     49  C   UNL A   1      39.392  28.733  28.696  1.00  0.00     0.031 C 
ATOM     50  C   UNL A   1      42.750  32.294  32.431  1.00  0.00     0.029 A 
ATOM     51  C   UNL A   1      41.734  32.869  33.298  1.00  0.00     0.049 A 
ATOM     52  H   UNL A   1      40.032  33.894  32.486  1.00  0.00     0.167 HD
ATOM     53  C   UNL A   1      41.626  27.557  29.315  1.00  0.00     0.034 A 
ATOM     54  C   UNL A   1      41.552  32.561  34.617  1.00  0.00     0.034 A 
ATOM     55  C   UNL A   1      42.617  27.782  30.381  1.00  0.00     0.049 A 
ATOM     56  C   UNL A   1      42.098  31.189  34.973  1.00  0.00     0.074 A 
ATOM     57  C   UNL A   1      43.768  28.552  30.431  1.00  0.00     0.029 A 
ATOM     58  N   UNL A   1      42.314  27.446  31.697  1.00  0.00    -0.354 N 
ATOM     59  N   UNL A   1      42.476  30.304  34.093  1.00  0.00    -0.248 NA
ATOM     60  C   UNL A   1      42.230  30.698  36.342  1.00  0.00     0.031 C 
ATOM     61  C   UNL A   1      44.090  28.772  31.796  1.00  0.00     0.029 A 
ATOM     62  C   UNL A   1      43.163  28.102  32.577  1.00  0.00     0.049 A 
ATOM     63  H   UNL A   1      41.597  26.827  31.966  1.00  0.00     0.167 HD
ATOM     64  C   UNL A   1      42.765  29.121  34.718  1.00  0.00     0.074 A 
ATOM     65  C   UNL A   1      42.673  29.445  36.132  1.00  0.00     0.031 C 
ATOM     66  C   UNL A   1      42.989  27.964  34.022  1.00  0.00     0.034 A 
BRANCH  53  67
ATOM     67  C   UNL A   1      41.952  26.788  28.039  1.00  0.00     0.023 A 
ATOM     68  C   UNL A   1      41.394  27.277  26.834  1.00  0.00     0.012 A 
ATOM     69  C   UNL A   1      42.691  25.586  27.924  1.00  0.00     0.148 A 
ATOM     70  C   UNL A   1      41.461  26.573  25.627  1.00  0.00     0.002 A 
ATOM     71  C   UNL A   1      42.704  24.847  26.735  1.00  0.00     0.091 A 
ATOM     72  F   UNL A   1      43.468  25.182  28.930  1.00  0.00    -0.205 F 
ATOM     73  C   UNL A   1      42.083  25.337  25.584  1.00  0.00     0.022 A 
BRANCH  71  74
ATOM     74  S   UNL A   1      43.441  23.205  26.621  1.00  0.00     0.127 S 
ATOM     75  O   UNL A   1      42.818  22.507  27.748  1.00  0.00    -0.237 OA
ATOM     76  O   UNL A   1      42.997  22.751  25.306  1.00  0.00    -0.237 OA
ATOM     77  O   UNL A   1      44.880  23.395  26.765  1.00  0.00    -0.744 OA
ENDBRANCH  71  74
ENDBRANCH  53  67
BRANCH  54  78
ATOM     78  C   UNL A   1      40.323  33.173  35.212  1.00  0.00     0.023 A 
ATOM     79  C   UNL A   1      39.129  32.413  35.140  1.00  0.00     0.012 A 
ATOM     80  C   UNL A   1      40.407  34.209  36.159  1.00  0.00     0.148 A 
ATOM     81  C   UNL A   1      38.122  32.569  36.093  1.00  0.00     0.002 A 
ATOM     82  C   UNL A   1      39.392  34.364  37.102  1.00  0.00     0.091 A 
ATOM     83  F   UNL A   1      41.505  34.975  36.178  1.00  0.00    -0.205 F 
ATOM     84  C   UNL A   1      38.273  33.515  37.101  1.00  0.00     0.022 A 
BRANCH  82  85
ATOM     85  S   UNL A   1      39.542  35.566  38.430  1.00  0.00     0.127 S 
ATOM     86  O   UNL A   1      40.896  35.306  38.908  1.00  0.00    -0.237 OA
ATOM     87  O   UNL A   1      39.373  36.840  37.733  1.00  0.00    -0.237 OA
ATOM     88  O   UNL A   1      38.456  35.240  39.343  1.00  0.00    -0.744 OA
ENDBRANCH  82  85
ENDBRANCH  54  78
BRANCH  66  89
ATOM     89  C   UNL A   1      43.064  26.589  34.650  1.00  0.00     0.023 A 
ATOM     90  C   UNL A   1      41.912  25.894  35.065  1.00  0.00     0.012 A 
ATOM     91  C   UNL A   1      44.293  25.881  34.703  1.00  0.00     0.148 A 
ATOM     92  C   UNL A   1      41.977  24.598  35.585  1.00  0.00     0.002 A 
ATOM     93  C   UNL A   1      44.334  24.551  35.115  1.00  0.00     0.091 A 
ATOM     94  F   UNL A   1      45.435  26.501  34.373  1.00  0.00    -0.205 F 
ATOM     95  C   UNL A   1      43.186  23.917  35.591  1.00  0.00     0.022 A 
BRANCH  93  96
ATOM     96  S   UNL A   1      45.823  23.564  34.900  1.00  0.00     0.127 S 
ATOM     97  O   UNL A   1      46.658  24.026  36.006  1.00  0.00    -0.237 OA
ATOM     98  O   UNL A   1      45.319  22.196  35.048  1.00  0.00    -0.237 OA
ATOM     99  O   UNL A   1      46.296  23.880  33.559  1.00  0.00    -0.744 OA
ENDBRANCH  93  96
ENDBRANCH  66  89
ENDBRANCH  40  41
ENDBRANCH  32  35
ENDBRANCH  30  31
ENDBRANCH  29  30
ENDBRANCH   1  29
TORSDOF 19
ENDMDL
MODEL 2
REMARK VINA RESULT:     -12.4      3.968     10.636
REMARK SMILES Cc1c(CC(=O)NCCCCCCNC(=O)c2ccc(-c3c4nc(c(-c5cccc(S(=O)(=O)[O-])c5F)c5ccc([nH]5)c(-c5cccc(S(=O)(=O)[O-])c5F)c5nc(c(-c6cccc(S(=O)(=O)[O-])c6F)c6ccc3[nH]6)C=C5)C=C4)cc2)cc(-c2ccccc2)cc1-c1ccccc1
REMARK SMILES IDX 11 1 10 2 9 3 8 4 7 5 5 6 6 7 4 9 3 10 1 11 2 12 89 13 80 14
REMARK SMILES IDX 88 15 81 16 90 17 91 18 95 19 92 20 94 21 93 22 82 23 83 24
REMARK SMILES IDX 87 25 84 26 86 27 85 28 12 29 13 30 14 31 15 32 16 34 17 35
REMARK SMILES IDX 18 36 79 37 19 38 78 39 20 40 21 41 22 42 72 43 23 44 77 45
REMARK SMILES IDX 71 46 73 47 24 48 76 49 70 50 69 51 25 53 57 54 37 55 56 56
REMARK SMILES IDX 38 57 41 58 55 59 74 60 39 61 40 62 54 64 75 65 42 66 26 67
REMARK SMILES IDX 27 68 35 69 28 70 30 71 36 72 29 73 31 74 32 75 33 76 34 77
REMARK SMILES IDX 58 78 59 79 67 80 60 81 62 82 68 83 61 84 63 85 64 86 65 87
REMARK SMILES IDX 66 88 43 89 44 90 52 91 45 92 47 93 53 94 46 95 48 96 49 97
REMARK SMILES IDX 50 98 51 99
REMARK H PARENT 7 8 14 33 73 52 41 63
REMARK Flexibility Score: inf
ROOT
ATOM      1  C   UNL A   1      36.421  22.918  23.279  1.00  0.00     0.002 C 
ENDROOT
BRANCH   1   2
ATOM      2  C   UNL A   1      35.092  23.606  23.630  1.00  0.00     0.002 C 
BRANCH   2   3
ATOM      3  C   UNL A   1      34.100  22.774  24.450  1.00  0.00     0.021 C 
BRANCH   3   4
ATOM      4  C   UNL A   1      32.638  22.971  24.057  1.00  0.00     0.116 C 
BRANCH   4   5
ATOM      5  N   UNL A   1      32.479  23.830  22.904  1.00  0.00    -0.356 N 
ATOM      6  C   UNL A   1      31.749  24.978  22.790  1.00  0.00     0.224 C 
ATOM      7  O   UNL A   1      31.794  25.597  21.723  1.00  0.00    -0.275 OA
ATOM      8  H   UNL A   1      32.962  23.549  22.094  1.00  0.00     0.163 HD
BRANCH   6   9
ATOM      9  C   UNL A   1      30.953  25.509  23.978  1.00  0.00     0.135 C 
BRANCH   9  10
ATOM     10  C   UNL A   1      31.157  26.988  24.260  1.00  0.00    -0.035 A 
ATOM     11  C   UNL A   1      33.161  26.547  25.768  1.00  0.00     0.045 C 
ATOM     12  C   UNL A   1      32.159  27.490  25.134  1.00  0.00    -0.040 A 
ATOM     13  C   UNL A   1      32.227  28.888  25.381  1.00  0.00    -0.015 A 
ATOM     14  C   UNL A   1      30.289  27.887  23.611  1.00  0.00     0.013 A 
ATOM     15  C   UNL A   1      31.318  29.742  24.720  1.00  0.00     0.017 A 
ATOM     16  C   UNL A   1      30.357  29.265  23.821  1.00  0.00    -0.017 A 
BRANCH  13  17
ATOM     17  C   UNL A   1      33.189  29.501  26.321  1.00  0.00    -0.018 A 
ATOM     18  C   UNL A   1      34.413  28.868  26.603  1.00  0.00     0.009 A 
ATOM     19  C   UNL A   1      32.913  30.717  26.968  1.00  0.00     0.009 A 
ATOM     20  C   UNL A   1      35.334  29.438  27.486  1.00  0.00     0.001 A 
ATOM     21  C   UNL A   1      33.840  31.296  27.839  1.00  0.00     0.001 A 
ATOM     22  C   UNL A   1      35.049  30.655  28.098  1.00  0.00     0.000 A 
ENDBRANCH  13  17
BRANCH  16  23
ATOM     23  C   UNL A   1      29.461  30.179  23.097  1.00  0.00    -0.018 A 
ATOM     24  C   UNL A   1      28.576  31.026  23.781  1.00  0.00     0.009 A 
ATOM     25  C   UNL A   1      29.448  30.201  21.693  1.00  0.00     0.009 A 
ATOM     26  C   UNL A   1      27.698  31.862  23.083  1.00  0.00     0.001 A 
ATOM     27  C   UNL A   1      28.570  31.032  20.994  1.00  0.00     0.001 A 
ATOM     28  C   UNL A   1      27.693  31.860  21.690  1.00  0.00     0.000 A 
ENDBRANCH  16  23
ENDBRANCH   9  10
ENDBRANCH   6   9
ENDBRANCH   4   5
ENDBRANCH   3   4
ENDBRANCH   2   3
ENDBRANCH   1   2
BRANCH   1  29
ATOM     29  C   UNL A   1      37.111  22.154  24.412  1.00  0.00     0.021 C 
BRANCH  29  30
ATOM     30  C   UNL A   1      37.640  23.042  25.524  1.00  0.00     0.116 C 
BRANCH  30  31
ATOM     31  N   UNL A   1      38.942  22.631  26.006  1.00  0.00    -0.352 N 
ATOM     32  C   UNL A   1      39.996  23.409  26.442  1.00  0.00     0.251 C 
ATOM     33  H   UNL A   1      39.098  21.659  26.025  1.00  0.00     0.163 HD
ATOM     34  O   UNL A   1      41.116  22.905  26.482  1.00  0.00    -0.269 OA
BRANCH  32  35
ATOM     35  C   UNL A   1      39.740  24.760  27.001  1.00  0.00     0.039 A 
ATOM     36  C   UNL A   1      40.360  25.839  26.353  1.00  0.00     0.014 A 
ATOM     37  C   UNL A   1      39.152  24.947  28.249  1.00  0.00     0.014 A 
ATOM     38  C   UNL A   1      40.634  27.005  27.062  1.00  0.00     0.010 A 
ATOM     39  C   UNL A   1      39.488  26.062  28.981  1.00  0.00     0.010 A 
ATOM     40  C   UNL A   1      40.298  27.046  28.409  1.00  0.00    -0.014 A 
BRANCH  40  41
ATOM     41  C   UNL A   1      40.759  28.058  29.339  1.00  0.00     0.031 A 
ATOM     42  C   UNL A   1      39.895  29.201  29.655  1.00  0.00     0.074 A 
ATOM     43  C   UNL A   1      41.889  27.799  30.029  1.00  0.00     0.049 A 
ATOM     44  N   UNL A   1      40.298  30.292  30.204  1.00  0.00    -0.248 NA
ATOM     45  C   UNL A   1      38.476  29.196  29.327  1.00  0.00     0.031 C 
ATOM     46  C   UNL A   1      42.343  28.413  31.268  1.00  0.00     0.029 A 
ATOM     47  N   UNL A   1      42.974  27.019  29.611  1.00  0.00    -0.354 N 
ATOM     48  C   UNL A   1      39.173  31.009  30.559  1.00  0.00     0.074 A 
ATOM     49  C   UNL A   1      38.079  30.333  29.902  1.00  0.00     0.031 C 
ATOM     50  C   UNL A   1      43.668  28.215  31.383  1.00  0.00     0.029 A 
ATOM     51  C   UNL A   1      44.122  27.647  30.123  1.00  0.00     0.049 A 
ATOM     52  H   UNL A   1      42.940  26.199  29.069  1.00  0.00     0.167 HD
ATOM     53  C   UNL A   1      39.287  31.985  31.505  1.00  0.00     0.034 A 
ATOM     54  C   UNL A   1      45.105  28.167  29.329  1.00  0.00     0.034 A 
ATOM     55  C   UNL A   1      40.696  32.149  31.901  1.00  0.00     0.049 A 
ATOM     56  C   UNL A   1      45.302  29.657  29.550  1.00  0.00     0.074 A 
ATOM     57  C   UNL A   1      41.434  31.620  32.949  1.00  0.00     0.029 A 
ATOM     58  N   UNL A   1      41.617  32.674  31.000  1.00  0.00    -0.354 N 
ATOM     59  N   UNL A   1      44.482  30.408  30.231  1.00  0.00    -0.248 NA
ATOM     60  C   UNL A   1      46.419  30.419  28.998  1.00  0.00     0.031 C 
ATOM     61  C   UNL A   1      42.810  31.729  32.615  1.00  0.00     0.029 A 
ATOM     62  C   UNL A   1      42.913  32.362  31.387  1.00  0.00     0.049 A 
ATOM     63  H   UNL A   1      41.382  33.196  30.199  1.00  0.00     0.167 HD
ATOM     64  C   UNL A   1      44.848  31.722  30.114  1.00  0.00     0.074 A 
ATOM     65  C   UNL A   1      46.113  31.665  29.398  1.00  0.00     0.031 C 
ATOM     66  C   UNL A   1      44.051  32.743  30.554  1.00  0.00     0.034 A 
BRANCH  53  67
ATOM     67  C   UNL A   1      38.131  32.538  32.332  1.00  0.00     0.023 A 
ATOM     68  C   UNL A   1      38.164  32.294  33.725  1.00  0.00     0.012 A 
ATOM     69  C   UNL A   1      36.977  33.205  31.858  1.00  0.00     0.148 A 
ATOM     70  C   UNL A   1      37.087  32.584  34.571  1.00  0.00     0.002 A 
ATOM     71  C   UNL A   1      35.872  33.436  32.687  1.00  0.00     0.091 A 
ATOM     72  F   UNL A   1      36.959  33.711  30.624  1.00  0.00    -0.205 F 
ATOM     73  C   UNL A   1      35.923  33.120  34.046  1.00  0.00     0.022 A 
BRANCH  71  74
ATOM     74  S   UNL A   1      34.305  34.075  32.062  1.00  0.00     0.127 S 
ATOM     75  O   UNL A   1      33.344  33.532  33.025  1.00  0.00    -0.237 OA
ATOM     76  O   UNL A   1      34.498  35.520  32.147  1.00  0.00    -0.237 OA
ATOM     77  O   UNL A   1      34.158  33.540  30.714  1.00  0.00    -0.744 OA
ENDBRANCH  71  74
ENDBRANCH  53  67
BRANCH  54  78
ATOM     78  C   UNL A   1      45.241  27.473  28.010  1.00  0.00     0.023 A 
ATOM     79  C   UNL A   1      44.549  28.042  26.912  1.00  0.00     0.012 A 
ATOM     80  C   UNL A   1      46.307  26.593  27.753  1.00  0.00     0.148 A 
ATOM     81  C   UNL A   1      45.014  27.874  25.607  1.00  0.00     0.002 A 
ATOM     82  C   UNL A   1      46.759  26.424  26.445  1.00  0.00     0.091 A 
ATOM     83  F   UNL A   1      46.913  25.998  28.788  1.00  0.00    -0.205 F 
ATOM     84  C   UNL A   1      46.146  27.100  25.378  1.00  0.00     0.022 A 
BRANCH  82  85
ATOM     85  S   UNL A   1      48.224  25.441  26.096  1.00  0.00     0.127 S 
ATOM     86  O   UNL A   1      47.943  24.221  26.845  1.00  0.00    -0.237 OA
ATOM     87  O   UNL A   1      48.173  25.292  24.642  1.00  0.00    -0.237 OA
ATOM     88  O   UNL A   1      49.332  26.256  26.571  1.00  0.00    -0.744 OA
ENDBRANCH  82  85
ENDBRANCH  54  78
BRANCH  66  89
ATOM     89  C   UNL A   1      44.279  34.205  30.233  1.00  0.00     0.023 A 
ATOM     90  C   UNL A   1      45.186  34.997  30.962  1.00  0.00     0.012 A 
ATOM     91  C   UNL A   1      43.696  34.795  29.081  1.00  0.00     0.148 A 
ATOM     92  C   UNL A   1      45.444  36.329  30.623  1.00  0.00     0.002 A 
ATOM     93  C   UNL A   1      44.044  36.083  28.684  1.00  0.00     0.091 A 
ATOM     94  F   UNL A   1      42.783  34.114  28.372  1.00  0.00    -0.205 F 
ATOM     95  C   UNL A   1      44.889  36.867  29.471  1.00  0.00     0.022 A 
BRANCH  93  96
ATOM     96  S   UNL A   1      43.548  36.720  27.076  1.00  0.00     0.127 S 
ATOM     97  O   UNL A   1      43.911  35.618  26.187  1.00  0.00    -0.237 OA
ATOM     98  O   UNL A   1      42.106  36.915  27.245  1.00  0.00    -0.237 OA
ATOM     99  O   UNL A   1      44.299  37.957  26.911  1.00  0.00    -0.744 OA
ENDBRANCH  93  96
ENDBRANCH  66  89
ENDBRANCH  40  41
ENDBRANCH  32  35
ENDBRANCH  30  31
ENDBRANCH  29  30
ENDBRANCH   1  29
TORSDOF 19
ENDMDL
MODEL 3
REMARK VINA RESULT:     -12.2      4.640     10.746
REMARK SMILES Cc1c(CC(=O)NCCCCCCNC(=O)c2ccc(-c3c4nc(c(-c5cccc(S(=O)(=O)[O-])c5F)c5ccc([nH]5)c(-c5cccc(S(=O)(=O)[O-])c5F)c5nc(c(-c6cccc(S(=O)(=O)[O-])c6F)c6ccc3[nH]6)C=C5)C=C4)cc2)cc(-c2ccccc2)cc1-c1ccccc1
REMARK SMILES IDX 11 1 10 2 9 3 8 4 7 5 5 6 6 7 4 9 3 10 1 11 2 12 89 13 80 14
REMARK SMILES IDX 88 15 81 16 90 17 91 18 95 19 92 20 94 21 93 22 82 23 83 24
REMARK SMILES IDX 87 25 84 26 86 27 85 28 12 29 13 30 14 31 15 32 16 34 17 35
REMARK SMILES IDX 18 36 79 37 19 38 78 39 20 40 21 41 22 42 72 43 23 44 77 45
REMARK SMILES IDX 71 46 73 47 24 48 76 49 70 50 69 51 25 53 57 54 37 55 56 56
REMARK SMILES IDX 38 57 41 58 55 59 74 60 39 61 40 62 54 64 75 65 42 66 26 67
REMARK SMILES IDX 27 68 35 69 28 70 30 71 36 72 29 73 31 74 32 75 33 76 34 77
REMARK SMILES IDX 58 78 59 79 67 80 60 81 62 82 68 83 61 84 63 85 64 86 65 87
REMARK SMILES IDX 66 88 43 89 44 90 52 91 45 92 47 93 53 94 46 95 48 96 49 97
REMARK SMILES IDX 50 98 51 99
REMARK H PARENT 7 8 14 33 73 52 41 63
REMARK Flexibility Score: inf
ROOT
ATOM      1  C   UNL A   1      36.124  23.268  25.823  1.00  0.00     0.002 C 
ENDROOT
BRANCH   1   2
ATOM      2  C   UNL A   1      34.995  24.226  25.412  1.00  0.00     0.002 C 
BRANCH   2   3
ATOM      3  C   UNL A   1      33.859  24.403  26.425  1.00  0.00     0.021 C 
BRANCH   3   4
ATOM      4  C   UNL A   1      32.710  23.412  26.262  1.00  0.00     0.116 C 
BRANCH   4   5
ATOM      5  N   UNL A   1      31.458  23.915  26.784  1.00  0.00    -0.356 N 
ATOM      6  C   UNL A   1      30.590  24.799  26.212  1.00  0.00     0.224 C 
ATOM      7  O   UNL A   1      29.539  25.055  26.806  1.00  0.00    -0.275 OA
ATOM      8  H   UNL A   1      31.199  23.575  27.669  1.00  0.00     0.163 HD
BRANCH   6   9
ATOM      9  C   UNL A   1      30.888  25.401  24.842  1.00  0.00     0.135 C 
BRANCH   9  10
ATOM     10  C   UNL A   1      30.991  26.917  24.830  1.00  0.00    -0.035 A 
ATOM     11  C   UNL A   1      28.974  27.161  23.296  1.00  0.00     0.045 C 
ATOM     12  C   UNL A   1      30.129  27.756  24.073  1.00  0.00    -0.040 A 
ATOM     13  C   UNL A   1      30.348  29.160  24.079  1.00  0.00    -0.015 A 
ATOM     14  C   UNL A   1      32.006  27.493  25.617  1.00  0.00     0.013 A 
ATOM     15  C   UNL A   1      31.395  29.684  24.869  1.00  0.00     0.017 A 
ATOM     16  C   UNL A   1      32.221  28.873  25.656  1.00  0.00    -0.017 A 
BRANCH  13  17
ATOM     17  C   UNL A   1      29.549  30.111  23.276  1.00  0.00    -0.018 A 
ATOM     18  C   UNL A   1      28.637  30.981  23.900  1.00  0.00     0.009 A 
ATOM     19  C   UNL A   1      29.662  30.168  21.878  1.00  0.00     0.009 A 
ATOM     20  C   UNL A   1      27.878  31.887  23.155  1.00  0.00     0.001 A 
ATOM     21  C   UNL A   1      28.916  31.085  21.132  1.00  0.00     0.001 A 
ATOM     22  C   UNL A   1      28.024  31.943  21.771  1.00  0.00     0.000 A 
ENDBRANCH  13  17
BRANCH  16  23
ATOM     23  C   UNL A   1      33.264  29.445  26.519  1.00  0.00    -0.018 A 
ATOM     24  C   UNL A   1      33.137  30.735  27.058  1.00  0.00     0.009 A 
ATOM     25  C   UNL A   1      34.435  28.723  26.798  1.00  0.00     0.009 A 
ATOM     26  C   UNL A   1      34.153  31.288  27.843  1.00  0.00     0.001 A 
ATOM     27  C   UNL A   1      35.452  29.275  27.579  1.00  0.00     0.001 A 
ATOM     28  C   UNL A   1      35.312  30.559  28.099  1.00  0.00     0.000 A 
ENDBRANCH  16  23
ENDBRANCH   9  10
ENDBRANCH   6   9
ENDBRANCH   4   5
ENDBRANCH   3   4
ENDBRANCH   2   3
ENDBRANCH   1   2
BRANCH   1  29
ATOM     29  C   UNL A   1      37.520  23.592  25.284  1.00  0.00     0.021 C 
BRANCH  29  30
ATOM     30  C   UNL A   1      38.627  23.459  26.314  1.00  0.00     0.116 C 
BRANCH  30  31
ATOM     31  N   UNL A   1      39.349  22.209  26.212  1.00  0.00    -0.352 N 
ATOM     32  C   UNL A   1      40.710  21.990  26.145  1.00  0.00     0.251 C 
ATOM     33  H   UNL A   1      38.790  21.399  26.186  1.00  0.00     0.163 HD
ATOM     34  O   UNL A   1      41.108  20.907  25.720  1.00  0.00    -0.269 OA
BRANCH  32  35
ATOM     35  C   UNL A   1      41.651  22.980  26.727  1.00  0.00     0.039 A 
ATOM     36  C   UNL A   1      41.887  22.892  28.107  1.00  0.00     0.014 A 
ATOM     37  C   UNL A   1      42.073  24.105  26.023  1.00  0.00     0.014 A 
ATOM     38  C   UNL A   1      42.279  24.024  28.814  1.00  0.00     0.010 A 
ATOM     39  C   UNL A   1      42.382  25.249  26.722  1.00  0.00     0.010 A 
ATOM     40  C   UNL A   1      42.401  25.221  28.119  1.00  0.00    -0.014 A 
BRANCH  40  41
ATOM     41  C   UNL A   1      42.526  26.523  28.743  1.00  0.00     0.031 A 
ATOM     42  C   UNL A   1      41.359  27.411  28.810  1.00  0.00     0.074 A 
ATOM     43  C   UNL A   1      43.666  26.783  29.417  1.00  0.00     0.049 A 
ATOM     44  N   UNL A   1      41.413  28.673  29.049  1.00  0.00    -0.248 NA
ATOM     45  C   UNL A   1      40.011  26.914  28.567  1.00  0.00     0.031 C 
ATOM     46  C   UNL A   1      43.892  27.793  30.439  1.00  0.00     0.029 A 
ATOM     47  N   UNL A   1      44.940  26.269  29.150  1.00  0.00    -0.354 N 
ATOM     48  C   UNL A   1      40.121  29.101  29.272  1.00  0.00     0.074 A 
ATOM     49  C   UNL A   1      39.287  27.996  28.861  1.00  0.00     0.031 C 
ATOM     50  C   UNL A   1      45.213  28.021  30.531  1.00  0.00     0.029 A 
ATOM     51  C   UNL A   1      45.843  27.308  29.430  1.00  0.00     0.049 A 
ATOM     52  H   UNL A   1      45.160  25.364  28.831  1.00  0.00     0.167 HD
ATOM     53  C   UNL A   1      39.923  30.274  29.939  1.00  0.00     0.034 A 
ATOM     54  C   UNL A   1      46.651  27.872  28.482  1.00  0.00     0.034 A 
ATOM     55  C   UNL A   1      41.213  30.932  30.209  1.00  0.00     0.049 A 
ATOM     56  C   UNL A   1      46.400  29.360  28.316  1.00  0.00     0.074 A 
ATOM     57  C   UNL A   1      42.048  30.920  31.316  1.00  0.00     0.029 A 
ATOM     58  N   UNL A   1      41.962  31.454  29.159  1.00  0.00    -0.354 N 
ATOM     59  N   UNL A   1      45.381  29.990  28.831  1.00  0.00    -0.248 NA
ATOM     60  C   UNL A   1      47.259  30.245  27.535  1.00  0.00     0.031 C 
ATOM     61  C   UNL A   1      43.340  31.332  30.895  1.00  0.00     0.029 A 
ATOM     62  C   UNL A   1      43.284  31.635  29.544  1.00  0.00     0.049 A 
ATOM     63  H   UNL A   1      41.605  31.666  28.267  1.00  0.00     0.167 HD
ATOM     64  C   UNL A   1      45.351  31.279  28.372  1.00  0.00     0.074 A 
ATOM     65  C   UNL A   1      46.594  31.411  27.629  1.00  0.00     0.031 C 
ATOM     66  C   UNL A   1      44.281  32.105  28.585  1.00  0.00     0.034 A 
BRANCH  53  67
ATOM     67  C   UNL A   1      38.637  30.662  30.662  1.00  0.00     0.023 A 
ATOM     68  C   UNL A   1      37.982  29.645  31.396  1.00  0.00     0.012 A 
ATOM     69  C   UNL A   1      37.970  31.909  30.621  1.00  0.00     0.148 A 
ATOM     70  C   UNL A   1      36.709  29.812  31.953  1.00  0.00     0.002 A 
ATOM     71  C   UNL A   1      36.670  32.061  31.118  1.00  0.00     0.091 A 
ATOM     72  F   UNL A   1      38.612  32.995  30.186  1.00  0.00    -0.205 F 
ATOM     73  C   UNL A   1      36.033  31.009  31.780  1.00  0.00     0.022 A 
BRANCH  71  74
ATOM     74  S   UNL A   1      35.708  33.568  30.879  1.00  0.00     0.127 S 
ATOM     75  O   UNL A   1      36.326  34.484  31.841  1.00  0.00    -0.237 OA
ATOM     76  O   UNL A   1      35.971  33.890  29.479  1.00  0.00    -0.237 OA
ATOM     77  O   UNL A   1      34.327  33.222  31.195  1.00  0.00    -0.744 OA
ENDBRANCH  71  74
ENDBRANCH  53  67
BRANCH  54  78
ATOM     78  C   UNL A   1      47.014  26.936  27.372  1.00  0.00     0.023 A 
ATOM     79  C   UNL A   1      45.944  26.304  26.691  1.00  0.00     0.012 A 
ATOM     80  C   UNL A   1      48.270  26.999  26.744  1.00  0.00     0.148 A 
ATOM     81  C   UNL A   1      46.079  25.903  25.361  1.00  0.00     0.002 A 
ATOM     82  C   UNL A   1      48.398  26.588  25.418  1.00  0.00     0.091 A 
ATOM     83  F   UNL A   1      49.300  27.530  27.416  1.00  0.00    -0.205 F 
ATOM     84  C   UNL A   1      47.294  26.085  24.710  1.00  0.00     0.022 A 
BRANCH  82  85
ATOM     85  S   UNL A   1      49.945  26.809  24.528  1.00  0.00     0.127 S 
ATOM     86  O   UNL A   1      49.572  26.387  23.182  1.00  0.00    -0.237 OA
ATOM     87  O   UNL A   1      50.197  28.243  24.672  1.00  0.00    -0.237 OA
ATOM     88  O   UNL A   1      50.897  25.966  25.236  1.00  0.00    -0.744 OA
ENDBRANCH  82  85
ENDBRANCH  54  78
BRANCH  66  89
ATOM     89  C   UNL A   1      44.081  33.440  27.900  1.00  0.00     0.023 A 
ATOM     90  C   UNL A   1      43.644  33.535  26.564  1.00  0.00     0.012 A 
ATOM     91  C   UNL A   1      44.179  34.653  28.629  1.00  0.00     0.148 A 
ATOM     92  C   UNL A   1      43.396  34.768  25.954  1.00  0.00     0.002 A 
ATOM     93  C   UNL A   1      43.821  35.867  28.049  1.00  0.00     0.091 A 
ATOM     94  F   UNL A   1      44.639  34.639  29.889  1.00  0.00    -0.205 F 
ATOM     95  C   UNL A   1      43.465  35.934  26.701  1.00  0.00     0.022 A 
BRANCH  93  96
ATOM     96  S   UNL A   1      43.655  37.354  29.047  1.00  0.00     0.127 S 
ATOM     97  O   UNL A   1      44.947  38.005  28.843  1.00  0.00    -0.237 OA
ATOM     98  O   UNL A   1      42.523  38.036  28.413  1.00  0.00    -0.237 OA
ATOM     99  O   UNL A   1      43.379  36.877  30.395  1.00  0.00    -0.744 OA
ENDBRANCH  93  96
ENDBRANCH  66  89
ENDBRANCH  40  41
ENDBRANCH  32  35
ENDBRANCH  30  31
ENDBRANCH  29  30
ENDBRANCH   1  29
TORSDOF 19
ENDMDL
