MODEL 1
REMARK VINA RESULT:     -12.5      0.000      0.000
REMARK SMILES Cc1cccc(S(=O)(=O)Nc2cc(C(=O)NCCCCCCNC(=O)c3ccc(-c4c5nc(c(-c6cccc(S(=O)(=O)[O-])c6F)c6ccc([nH]6)c(-c6cccc(S(=O)(=O)[O-])c6F)c6nc(c(-c7cccc(S(=O)(=O)[O-])c7F)c7ccc4[nH]7)C=C6)C=C5)cc3)ccc2N2CCC[C@H](C[NH+]3CCCC3)C2)c1
REMARK SMILES IDX 19 1 18 2 17 3 16 4 14 5 15 6 13 8 11 9 12 10 91 11 90 12
REMARK SMILES IDX 89 13 10 14 7 16 8 17 9 18 6 19 1 20 2 21 3 22 104 23 4 24
REMARK SMILES IDX 5 25 92 26 93 27 103 28 94 29 96 30 95 31 97 32 98 33 99 34
REMARK SMILES IDX 102 35 100 37 101 38 20 39 21 40 22 41 23 42 24 43 25 45
REMARK SMILES IDX 26 46 27 47 88 48 28 49 87 50 29 51 30 52 31 53 81 54 32 55
REMARK SMILES IDX 86 56 80 57 82 58 33 59 85 60 79 61 78 62 34 64 66 65 46 66
REMARK SMILES IDX 65 67 47 68 50 69 64 70 83 71 48 72 49 73 63 75 84 76 51 77
REMARK SMILES IDX 35 78 36 79 44 80 37 81 39 82 45 83 38 84 40 85 41 86 42 87
REMARK SMILES IDX 43 88 67 89 68 90 76 91 69 92 71 93 77 94 70 95 72 96 73 97
REMARK SMILES IDX 74 98 75 99 52 100 53 101 61 102 54 103 56 104 62 105 55 106
REMARK SMILES IDX 57 107 58 108 59 109 60 110
REMARK H PARENT 16 7 10 15 98 36 23 44 82 63 50 74
REMARK Flexibility Score: inf
ROOT
ATOM      1  C   UNL A   1      34.341  29.000  24.623  1.00  0.00     0.002 C 
ENDROOT
BRANCH   1   2
ATOM      2  C   UNL A   1      34.388  28.742  23.113  1.00  0.00     0.021 C 
BRANCH   2   3
ATOM      3  C   UNL A   1      33.004  28.563  22.494  1.00  0.00     0.116 C 
BRANCH   3   4
ATOM      4  N   UNL A   1      33.071  27.741  21.302  1.00  0.00    -0.352 N 
ATOM      5  C   UNL A   1      33.162  26.387  21.114  1.00  0.00     0.251 C 
ATOM      6  O   UNL A   1      33.133  25.962  19.958  1.00  0.00    -0.269 OA
ATOM      7  H   UNL A   1      33.045  28.255  20.463  1.00  0.00     0.163 HD
BRANCH   5   8
ATOM      8  C   UNL A   1      33.195  25.410  22.237  1.00  0.00     0.042 A 
ATOM      9  C   UNL A   1      33.003  24.788  24.564  1.00  0.00     0.073 A 
ATOM     10  C   UNL A   1      33.208  25.762  23.585  1.00  0.00     0.042 A 
ATOM     11  C   UNL A   1      33.006  23.415  24.242  1.00  0.00     0.061 A 
ATOM     12  C   UNL A   1      33.115  23.069  22.891  1.00  0.00     0.029 A 
ATOM     13  C   UNL A   1      33.172  24.051  21.899  1.00  0.00     0.016 A 
BRANCH   9  14
ATOM     14  N   UNL A   1      32.776  25.224  25.906  1.00  0.00    -0.277 N 
ATOM     15  H   UNL A   1      33.528  25.233  26.540  1.00  0.00     0.180 HD
BRANCH  14  16
ATOM     16  S   UNL A   1      31.239  25.730  26.438  1.00  0.00     0.261 S 
ATOM     17  O   UNL A   1      31.511  26.771  27.414  1.00  0.00    -0.201 OA
ATOM     18  O   UNL A   1      30.531  24.535  26.843  1.00  0.00    -0.201 OA
BRANCH  16  19
ATOM     19  C   UNL A   1      30.223  26.494  25.180  1.00  0.00     0.088 A 
ATOM     20  C   UNL A   1      29.806  29.694  23.162  1.00  0.00     0.044 C 
ATOM     21  C   UNL A   1      29.608  28.293  23.666  1.00  0.00    -0.050 A 
ATOM     22  C   UNL A   1      28.449  27.595  23.308  1.00  0.00     0.003 A 
ATOM     23  C   UNL A   1      30.532  27.699  24.546  1.00  0.00     0.025 A 
ATOM     24  C   UNL A   1      28.187  26.342  23.854  1.00  0.00     0.002 A 
ATOM     25  C   UNL A   1      29.056  25.807  24.805  1.00  0.00     0.022 A 
ENDBRANCH  16  19
ENDBRANCH  14  16
ENDBRANCH   9  14
BRANCH  11  26
ATOM     26  N   UNL A   1      32.974  22.408  25.187  1.00  0.00    -0.369 N 
ATOM     27  C   UNL A   1      34.088  22.311  26.126  1.00  0.00     0.116 C 
ATOM     28  C   UNL A   1      31.807  21.561  25.403  1.00  0.00     0.126 C 
ATOM     29  C   UNL A   1      34.542  20.858  26.221  1.00  0.00     0.022 C 
ATOM     30  C   UNL A   1      32.228  20.077  25.475  1.00  0.00     0.064 C 
ATOM     31  C   UNL A   1      33.359  19.933  26.511  1.00  0.00     0.013 C 
BRANCH  30  32
ATOM     32  C   UNL A   1      32.554  19.565  24.046  1.00  0.00     0.267 C 
BRANCH  32  33
ATOM     33  N   UNL A   1      32.355  18.155  23.698  1.00  0.00    -0.335 N 
ATOM     34  C   UNL A   1      32.305  17.229  24.827  1.00  0.00     0.262 C 
ATOM     35  C   UNL A   1      33.267  17.601  22.701  1.00  0.00     0.262 C 
ATOM     36  H   UNL A   1      31.427  18.218  23.279  1.00  0.00     0.348 HD
ATOM     37  C   UNL A   1      33.663  16.558  24.850  1.00  0.00     0.067 C 
ATOM     38  C   UNL A   1      34.063  16.496  23.388  1.00  0.00     0.067 C 
ENDBRANCH  32  33
ENDBRANCH  30  32
ENDBRANCH  11  26
ENDBRANCH   5   8
ENDBRANCH   3   4
ENDBRANCH   2   3
ENDBRANCH   1   2
BRANCH   1  39
ATOM     39  C   UNL A   1      32.934  29.184  25.222  1.00  0.00     0.002 C 
BRANCH  39  40
ATOM     40  C   UNL A   1      32.746  30.420  26.106  1.00  0.00     0.021 C 
BRANCH  40  41
ATOM     41  C   UNL A   1      33.184  30.205  27.547  1.00  0.00     0.116 C 
BRANCH  41  42
ATOM     42  N   UNL A   1      33.872  31.354  28.106  1.00  0.00    -0.352 N 
ATOM     43  C   UNL A   1      35.070  31.433  28.800  1.00  0.00     0.251 C 
ATOM     44  H   UNL A   1      33.414  32.214  27.971  1.00  0.00     0.163 HD
ATOM     45  O   UNL A   1      35.367  32.483  29.328  1.00  0.00    -0.269 OA
BRANCH  43  46
ATOM     46  C   UNL A   1      36.022  30.289  28.757  1.00  0.00     0.039 A 
ATOM     47  C   UNL A   1      36.359  29.687  29.978  1.00  0.00     0.014 A 
ATOM     48  C   UNL A   1      36.732  29.969  27.604  1.00  0.00     0.014 A 
ATOM     49  C   UNL A   1      37.563  28.994  30.091  1.00  0.00     0.010 A 
ATOM     50  C   UNL A   1      37.960  29.355  27.728  1.00  0.00     0.010 A 
ATOM     51  C   UNL A   1      38.407  28.946  28.988  1.00  0.00    -0.014 A 
BRANCH  51  52
ATOM     52  C   UNL A   1      39.812  28.581  29.040  1.00  0.00     0.031 A 
ATOM     53  C   UNL A   1      40.234  27.198  28.775  1.00  0.00     0.074 A 
ATOM     54  C   UNL A   1      40.735  29.556  29.170  1.00  0.00     0.049 A 
ATOM     55  N   UNL A   1      41.440  26.779  28.926  1.00  0.00    -0.248 NA
ATOM     56  C   UNL A   1      39.301  26.161  28.363  1.00  0.00     0.031 C 
ATOM     57  C   UNL A   1      42.156  29.509  28.843  1.00  0.00     0.029 A 
ATOM     58  N   UNL A   1      40.592  30.764  29.830  1.00  0.00    -0.354 N 
ATOM     59  C   UNL A   1      41.514  25.509  28.404  1.00  0.00     0.074 A 
ATOM     60  C   UNL A   1      40.140  25.140  28.161  1.00  0.00     0.031 C 
ATOM     61  C   UNL A   1      42.786  30.506  29.485  1.00  0.00     0.029 A 
ATOM     62  C   UNL A   1      41.826  31.097  30.400  1.00  0.00     0.049 A 
ATOM     63  H   UNL A   1      39.766  31.297  29.888  1.00  0.00     0.167 HD
ATOM     64  C   UNL A   1      42.750  24.999  28.140  1.00  0.00     0.034 A 
ATOM     65  C   UNL A   1      41.962  31.117  31.764  1.00  0.00     0.034 A 
ATOM     66  C   UNL A   1      43.806  25.840  28.743  1.00  0.00     0.049 A 
ATOM     67  C   UNL A   1      42.953  30.096  32.319  1.00  0.00     0.074 A 
ATOM     68  C   UNL A   1      44.726  26.765  28.276  1.00  0.00     0.029 A 
ATOM     69  N   UNL A   1      43.825  25.958  30.123  1.00  0.00    -0.354 N 
ATOM     70  N   UNL A   1      43.647  29.249  31.607  1.00  0.00    -0.248 NA
ATOM     71  C   UNL A   1      43.164  29.906  33.756  1.00  0.00     0.031 C 
ATOM     72  C   UNL A   1      45.283  27.449  29.402  1.00  0.00     0.029 A 
ATOM     73  C   UNL A   1      44.721  26.921  30.551  1.00  0.00     0.049 A 
ATOM     74  H   UNL A   1      43.266  25.420  30.729  1.00  0.00     0.167 HD
ATOM     75  C   UNL A   1      44.219  28.314  32.438  1.00  0.00     0.074 A 
ATOM     76  C   UNL A   1      43.922  28.797  33.776  1.00  0.00     0.031 C 
ATOM     77  C   UNL A   1      44.823  27.171  31.984  1.00  0.00     0.034 A 
BRANCH  64  78
ATOM     78  C   UNL A   1      43.056  23.858  27.180  1.00  0.00     0.023 A 
ATOM     79  C   UNL A   1      43.797  24.174  26.018  1.00  0.00     0.012 A 
ATOM     80  C   UNL A   1      42.602  22.520  27.264  1.00  0.00     0.148 A 
ATOM     81  C   UNL A   1      44.000  23.258  24.977  1.00  0.00     0.002 A 
ATOM     82  C   UNL A   1      42.775  21.611  26.215  1.00  0.00     0.091 A 
ATOM     83  F   UNL A   1      42.022  22.075  28.373  1.00  0.00    -0.205 F 
ATOM     84  C   UNL A   1      43.469  21.982  25.065  1.00  0.00     0.022 A 
BRANCH  82  85
ATOM     85  S   UNL A   1      42.070  19.951  26.249  1.00  0.00     0.127 S 
ATOM     86  O   UNL A   1      40.647  20.222  26.036  1.00  0.00    -0.237 OA
ATOM     87  O   UNL A   1      42.739  19.303  25.123  1.00  0.00    -0.237 OA
ATOM     88  O   UNL A   1      42.383  19.389  27.558  1.00  0.00    -0.744 OA
ENDBRANCH  82  85
ENDBRANCH  64  78
BRANCH  65  89
ATOM     89  C   UNL A   1      40.699  31.547  32.453  1.00  0.00     0.023 A 
ATOM     90  C   UNL A   1      39.710  30.555  32.678  1.00  0.00     0.012 A 
ATOM     91  C   UNL A   1      40.617  32.747  33.181  1.00  0.00     0.148 A 
ATOM     92  C   UNL A   1      38.776  30.689  33.706  1.00  0.00     0.002 A 
ATOM     93  C   UNL A   1      39.659  32.888  34.182  1.00  0.00     0.091 A 
ATOM     94  F   UNL A   1      41.503  33.721  32.932  1.00  0.00    -0.205 F 
ATOM     95  C   UNL A   1      38.770  31.843  34.480  1.00  0.00     0.022 A 
BRANCH  93  96
ATOM     96  S   UNL A   1      39.599  34.367  35.201  1.00  0.00     0.127 S 
ATOM     97  O   UNL A   1      38.745  33.929  36.301  1.00  0.00    -0.237 OA
ATOM     98  O   UNL A   1      41.003  34.572  35.556  1.00  0.00    -0.237 OA
ATOM     99  O   UNL A   1      39.051  35.396  34.327  1.00  0.00    -0.744 OA
ENDBRANCH  93  96
ENDBRANCH  65  89
BRANCH  77 100
ATOM    100  C   UNL A   1      45.507  26.152  32.888  1.00  0.00     0.023 A 
ATOM    101  C   UNL A   1      46.885  25.883  32.762  1.00  0.00     0.012 A 
ATOM    102  C   UNL A   1      44.790  25.347  33.813  1.00  0.00     0.148 A 
ATOM    103  C   UNL A   1      47.537  24.950  33.580  1.00  0.00     0.002 A 
ATOM    104  C   UNL A   1      45.427  24.373  34.577  1.00  0.00     0.091 A 
ATOM    105  F   UNL A   1      43.474  25.515  33.965  1.00  0.00    -0.205 F 
ATOM    106  C   UNL A   1      46.809  24.196  34.488  1.00  0.00     0.022 A 
BRANCH 104 107
ATOM    107  S   UNL A   1      44.534  23.246  35.662  1.00  0.00     0.127 S 
ATOM    108  O   UNL A   1      43.484  22.753  34.770  1.00  0.00    -0.237 OA
ATOM    109  O   UNL A   1      45.566  22.262  35.988  1.00  0.00    -0.237 OA
ATOM    110  O   UNL A   1      44.062  24.042  36.785  1.00  0.00    -0.744 OA
ENDBRANCH 104 107
ENDBRANCH  77 100
ENDBRANCH  51  52
ENDBRANCH  43  46
ENDBRANCH  41  42
ENDBRANCH  40  41
ENDBRANCH  39  40
ENDBRANCH   1  39
TORSDOF 22
ENDMDL
MODEL 2
REMARK VINA RESULT:     -12.4      2.218      3.777
REMARK SMILES Cc1cccc(S(=O)(=O)Nc2cc(C(=O)NCCCCCCNC(=O)c3ccc(-c4c5nc(c(-c6cccc(S(=O)(=O)[O-])c6F)c6ccc([nH]6)c(-c6cccc(S(=O)(=O)[O-])c6F)c6nc(c(-c7cccc(S(=O)(=O)[O-])c7F)c7ccc4[nH]7)C=C6)C=C5)cc3)ccc2N2CCC[C@H](C[NH+]3CCCC3)C2)c1
REMARK SMILES IDX 19 1 18 2 17 3 16 4 14 5 15 6 13 8 11 9 12 10 91 11 90 12
REMARK SMILES IDX 89 13 10 14 7 16 8 17 9 18 6 19 1 20 2 21 3 22 104 23 4 24
REMARK SMILES IDX 5 25 92 26 93 27 103 28 94 29 96 30 95 31 97 32 98 33 99 34
REMARK SMILES IDX 102 35 100 37 101 38 20 39 21 40 22 41 23 42 24 43 25 45
REMARK SMILES IDX 26 46 27 47 88 48 28 49 87 50 29 51 30 52 31 53 81 54 32 55
REMARK SMILES IDX 86 56 80 57 82 58 33 59 85 60 79 61 78 62 34 64 66 65 46 66
REMARK SMILES IDX 65 67 47 68 50 69 64 70 83 71 48 72 49 73 63 75 84 76 51 77
REMARK SMILES IDX 35 78 36 79 44 80 37 81 39 82 45 83 38 84 40 85 41 86 42 87
REMARK SMILES IDX 43 88 67 89 68 90 76 91 69 92 71 93 77 94 70 95 72 96 73 97
REMARK SMILES IDX 74 98 75 99 52 100 53 101 61 102 54 103 56 104 62 105 55 106
REMARK SMILES IDX 57 107 58 108 59 109 60 110
REMARK H PARENT 16 7 10 15 98 36 23 44 82 63 50 74
REMARK Flexibility Score: inf
ROOT
ATOM      1  C   UNL A   1      33.750  28.111  25.280  1.00  0.00     0.002 C 
ENDROOT
BRANCH   1   2
ATOM      2  C   UNL A   1      33.155  29.209  24.391  1.00  0.00     0.021 C 
BRANCH   2   3
ATOM      3  C   UNL A   1      31.815  29.731  24.904  1.00  0.00     0.116 C 
BRANCH   3   4
ATOM      4  N   UNL A   1      30.752  29.447  23.959  1.00  0.00    -0.352 N 
ATOM      5  C   UNL A   1      30.141  28.283  23.573  1.00  0.00     0.251 C 
ATOM      6  O   UNL A   1      29.201  28.360  22.781  1.00  0.00    -0.269 OA
ATOM      7  H   UNL A   1      30.400  30.247  23.507  1.00  0.00     0.163 HD
BRANCH   5   8
ATOM      8  C   UNL A   1      30.496  26.952  24.138  1.00  0.00     0.042 A 
ATOM      9  C   UNL A   1      31.504  24.758  24.027  1.00  0.00     0.073 A 
ATOM     10  C   UNL A   1      30.980  25.882  23.387  1.00  0.00     0.042 A 
ATOM     11  C   UNL A   1      31.355  24.573  25.417  1.00  0.00     0.061 A 
ATOM     12  C   UNL A   1      30.757  25.606  26.146  1.00  0.00     0.029 A 
ATOM     13  C   UNL A   1      30.366  26.794  25.524  1.00  0.00     0.016 A 
BRANCH   9  14
ATOM     14  N   UNL A   1      32.210  23.803  23.233  1.00  0.00    -0.277 N 
ATOM     15  H   UNL A   1      31.780  22.944  23.023  1.00  0.00     0.180 HD
BRANCH  14  16
ATOM     16  S   UNL A   1      33.777  24.112  22.639  1.00  0.00     0.261 S 
ATOM     17  O   UNL A   1      33.841  25.556  22.500  1.00  0.00    -0.201 OA
ATOM     18  O   UNL A   1      33.946  23.271  21.473  1.00  0.00    -0.201 OA
BRANCH  16  19
ATOM     19  C   UNL A   1      35.103  23.670  23.754  1.00  0.00     0.088 A 
ATOM     20  C   UNL A   1      37.419  20.804  24.711  1.00  0.00     0.044 C 
ATOM     21  C   UNL A   1      36.783  22.164  24.659  1.00  0.00    -0.050 A 
ATOM     22  C   UNL A   1      37.074  23.094  25.664  1.00  0.00     0.003 A 
ATOM     23  C   UNL A   1      35.850  22.493  23.658  1.00  0.00     0.025 A 
ATOM     24  C   UNL A   1      36.410  24.316  25.703  1.00  0.00     0.002 A 
ATOM     25  C   UNL A   1      35.411  24.591  24.769  1.00  0.00     0.022 A 
ENDBRANCH  16  19
ENDBRANCH  14  16
ENDBRANCH   9  14
BRANCH  11  26
ATOM     26  N   UNL A   1      31.706  23.410  26.075  1.00  0.00    -0.369 N 
ATOM     27  C   UNL A   1      32.753  23.485  27.091  1.00  0.00     0.116 C 
ATOM     28  C   UNL A   1      30.963  22.163  25.933  1.00  0.00     0.126 C 
ATOM     29  C   UNL A   1      33.740  22.341  26.882  1.00  0.00     0.022 C 
ATOM     30  C   UNL A   1      31.933  20.987  25.690  1.00  0.00     0.064 C 
ATOM     31  C   UNL A   1      33.012  20.999  26.790  1.00  0.00     0.013 C 
BRANCH  30  32
ATOM     32  C   UNL A   1      32.458  21.045  24.231  1.00  0.00     0.267 C 
BRANCH  32  33
ATOM     33  N   UNL A   1      33.195  19.914  23.659  1.00  0.00    -0.335 N 
ATOM     34  C   UNL A   1      32.376  18.891  23.014  1.00  0.00     0.262 C 
ATOM     35  C   UNL A   1      34.138  19.241  24.548  1.00  0.00     0.262 C 
ATOM     36  H   UNL A   1      33.730  20.410  22.946  1.00  0.00     0.348 HD
ATOM     37  C   UNL A   1      32.306  17.752  24.010  1.00  0.00     0.067 C 
ATOM     38  C   UNL A   1      33.646  17.808  24.720  1.00  0.00     0.067 C 
ENDBRANCH  32  33
ENDBRANCH  30  32
ENDBRANCH  11  26
ENDBRANCH   5   8
ENDBRANCH   3   4
ENDBRANCH   2   3
ENDBRANCH   1   2
BRANCH   1  39
ATOM     39  C   UNL A   1      34.029  28.516  26.739  1.00  0.00     0.002 C 
BRANCH  39  40
ATOM     40  C   UNL A   1      35.143  29.548  26.941  1.00  0.00     0.021 C 
BRANCH  40  41
ATOM     41  C   UNL A   1      35.321  29.969  28.391  1.00  0.00     0.116 C 
BRANCH  41  42
ATOM     42  N   UNL A   1      34.627  31.203  28.712  1.00  0.00    -0.352 N 
ATOM     43  C   UNL A   1      34.910  32.173  29.663  1.00  0.00     0.251 C 
ATOM     44  H   UNL A   1      33.827  31.379  28.166  1.00  0.00     0.163 HD
ATOM     45  O   UNL A   1      34.088  33.038  29.871  1.00  0.00    -0.269 OA
BRANCH  43  46
ATOM     46  C   UNL A   1      36.259  32.214  30.291  1.00  0.00     0.039 A 
ATOM     47  C   UNL A   1      37.292  32.813  29.557  1.00  0.00     0.014 A 
ATOM     48  C   UNL A   1      36.553  31.491  31.444  1.00  0.00     0.014 A 
ATOM     49  C   UNL A   1      38.614  32.457  29.818  1.00  0.00     0.010 A 
ATOM     50  C   UNL A   1      37.850  31.074  31.655  1.00  0.00     0.010 A 
ATOM     51  C   UNL A   1      38.863  31.493  30.787  1.00  0.00    -0.014 A 
BRANCH  51  52
ATOM     52  C   UNL A   1      40.116  30.773  30.932  1.00  0.00     0.031 A 
ATOM     53  C   UNL A   1      40.363  29.545  30.164  1.00  0.00     0.074 A 
ATOM     54  C   UNL A   1      41.110  31.333  31.651  1.00  0.00     0.049 A 
ATOM     55  N   UNL A   1      41.393  28.792  30.333  1.00  0.00    -0.248 NA
ATOM     56  C   UNL A   1      39.430  29.043  29.168  1.00  0.00     0.031 C 
ATOM     57  C   UNL A   1      42.538  31.037  31.608  1.00  0.00     0.029 A 
ATOM     58  N   UNL A   1      40.986  32.178  32.740  1.00  0.00    -0.354 N 
ATOM     59  C   UNL A   1      41.403  27.857  29.326  1.00  0.00     0.074 A 
ATOM     60  C   UNL A   1      40.112  27.997  28.694  1.00  0.00     0.031 C 
ATOM     61  C   UNL A   1      43.115  31.495  32.731  1.00  0.00     0.029 A 
ATOM     62  C   UNL A   1      42.045  31.917  33.617  1.00  0.00     0.049 A 
ATOM     63  H   UNL A   1      40.276  32.847  32.874  1.00  0.00     0.167 HD
ATOM     64  C   UNL A   1      42.562  27.178  29.098  1.00  0.00     0.034 A 
ATOM     65  C   UNL A   1      41.790  31.367  34.846  1.00  0.00     0.034 A 
ATOM     66  C   UNL A   1      43.526  27.400  30.195  1.00  0.00     0.049 A 
ATOM     67  C   UNL A   1      42.403  29.985  35.063  1.00  0.00     0.074 A 
ATOM     68  C   UNL A   1      44.680  28.149  30.368  1.00  0.00     0.029 A 
ATOM     69  N   UNL A   1      43.173  26.961  31.461  1.00  0.00    -0.354 N 
ATOM     70  N   UNL A   1      43.122  29.329  34.192  1.00  0.00    -0.248 NA
ATOM     71  C   UNL A   1      42.164  29.200  36.276  1.00  0.00     0.031 C 
ATOM     72  C   UNL A   1      44.999  28.163  31.763  1.00  0.00     0.029 A 
ATOM     73  C   UNL A   1      44.056  27.401  32.431  1.00  0.00     0.049 A 
ATOM     74  H   UNL A   1      42.385  26.401  31.649  1.00  0.00     0.167 HD
ATOM     75  C   UNL A   1      43.275  28.028  34.610  1.00  0.00     0.074 A 
ATOM     76  C   UNL A   1      42.694  28.012  35.943  1.00  0.00     0.031 C 
ATOM     77  C   UNL A   1      43.788  27.036  33.817  1.00  0.00     0.034 A 
BRANCH  64  78
ATOM     78  C   UNL A   1      42.938  26.465  27.805  1.00  0.00     0.023 A 
ATOM     79  C   UNL A   1      43.302  27.274  26.705  1.00  0.00     0.012 A 
ATOM     80  C   UNL A   1      42.874  25.075  27.542  1.00  0.00     0.148 A 
ATOM     81  C   UNL A   1      43.505  26.755  25.419  1.00  0.00     0.002 A 
ATOM     82  C   UNL A   1      43.044  24.556  26.256  1.00  0.00     0.091 A 
ATOM     83  F   UNL A   1      42.682  24.211  28.533  1.00  0.00    -0.205 F 
ATOM     84  C   UNL A   1      43.352  25.398  25.188  1.00  0.00     0.022 A 
BRANCH  82  85
ATOM     85  S   UNL A   1      42.816  22.806  25.881  1.00  0.00     0.127 S 
ATOM     86  O   UNL A   1      43.749  22.173  26.816  1.00  0.00    -0.237 OA
ATOM     87  O   UNL A   1      41.405  22.598  26.196  1.00  0.00    -0.237 OA
ATOM     88  O   UNL A   1      43.166  22.630  24.476  1.00  0.00    -0.744 OA
ENDBRANCH  82  85
ENDBRANCH  64  78
BRANCH  65  89
ATOM     89  C   UNL A   1      40.472  31.816  35.406  1.00  0.00     0.023 A 
ATOM     90  C   UNL A   1      39.329  31.041  35.083  1.00  0.00     0.012 A 
ATOM     91  C   UNL A   1      40.386  32.713  36.487  1.00  0.00     0.148 A 
ATOM     92  C   UNL A   1      38.202  31.040  35.907  1.00  0.00     0.002 A 
ATOM     93  C   UNL A   1      39.244  32.730  37.284  1.00  0.00     0.091 A 
ATOM     94  F   UNL A   1      41.433  33.500  36.763  1.00  0.00    -0.205 F 
ATOM     95  C   UNL A   1      38.172  31.861  37.026  1.00  0.00     0.022 A 
BRANCH  93  96
ATOM     96  S   UNL A   1      39.149  33.787  38.735  1.00  0.00     0.127 S 
ATOM     97  O   UNL A   1      39.004  35.106  38.125  1.00  0.00    -0.237 OA
ATOM     98  O   UNL A   1      37.953  33.292  39.417  1.00  0.00    -0.237 OA
ATOM     99  O   UNL A   1      40.390  33.539  39.456  1.00  0.00    -0.744 OA
ENDBRANCH  93  96
ENDBRANCH  65  89
BRANCH  77 100
ATOM    100  C   UNL A   1      44.011  25.602  34.284  1.00  0.00     0.023 A 
ATOM    101  C   UNL A   1      42.922  24.734  34.501  1.00  0.00     0.012 A 
ATOM    102  C   UNL A   1      45.295  25.102  34.632  1.00  0.00     0.148 A 
ATOM    103  C   UNL A   1      43.100  23.413  34.932  1.00  0.00     0.002 A 
ATOM    104  C   UNL A   1      45.463  23.811  35.125  1.00  0.00     0.091 A 
ATOM    105  F   UNL A   1      46.374  25.876  34.491  1.00  0.00    -0.205 F 
ATOM    106  C   UNL A   1      44.370  22.950  35.243  1.00  0.00     0.022 A 
BRANCH 104 107
ATOM    107  S   UNL A   1      47.052  23.186  35.699  1.00  0.00     0.127 S 
ATOM    108  O   UNL A   1      47.862  23.287  34.483  1.00  0.00    -0.237 OA
ATOM    109  O   UNL A   1      47.396  24.154  36.740  1.00  0.00    -0.237 OA
ATOM    110  O   UNL A   1      46.818  21.829  36.167  1.00  0.00    -0.744 OA
ENDBRANCH 104 107
ENDBRANCH  77 100
ENDBRANCH  51  52
ENDBRANCH  43  46
ENDBRANCH  41  42
ENDBRANCH  40  41
ENDBRANCH  39  40
ENDBRANCH   1  39
TORSDOF 22
ENDMDL
MODEL 3
REMARK VINA RESULT:     -11.8      2.469      3.702
REMARK SMILES Cc1cccc(S(=O)(=O)Nc2cc(C(=O)NCCCCCCNC(=O)c3ccc(-c4c5nc(c(-c6cccc(S(=O)(=O)[O-])c6F)c6ccc([nH]6)c(-c6cccc(S(=O)(=O)[O-])c6F)c6nc(c(-c7cccc(S(=O)(=O)[O-])c7F)c7ccc4[nH]7)C=C6)C=C5)cc3)ccc2N2CCC[C@H](C[NH+]3CCCC3)C2)c1
REMARK SMILES IDX 19 1 18 2 17 3 16 4 14 5 15 6 13 8 11 9 12 10 91 11 90 12
REMARK SMILES IDX 89 13 10 14 7 16 8 17 9 18 6 19 1 20 2 21 3 22 104 23 4 24
REMARK SMILES IDX 5 25 92 26 93 27 103 28 94 29 96 30 95 31 97 32 98 33 99 34
REMARK SMILES IDX 102 35 100 37 101 38 20 39 21 40 22 41 23 42 24 43 25 45
REMARK SMILES IDX 26 46 27 47 88 48 28 49 87 50 29 51 30 52 31 53 81 54 32 55
REMARK SMILES IDX 86 56 80 57 82 58 33 59 85 60 79 61 78 62 34 64 66 65 46 66
REMARK SMILES IDX 65 67 47 68 50 69 64 70 83 71 48 72 49 73 63 75 84 76 51 77
REMARK SMILES IDX 35 78 36 79 44 80 37 81 39 82 45 83 38 84 40 85 41 86 42 87
REMARK SMILES IDX 43 88 67 89 68 90 76 91 69 92 71 93 77 94 70 95 72 96 73 97
REMARK SMILES IDX 74 98 75 99 52 100 53 101 61 102 54 103 56 104 62 105 55 106
REMARK SMILES IDX 57 107 58 108 59 109 60 110
REMARK H PARENT 16 7 10 15 98 36 23 44 82 63 50 74
REMARK Flexibility Score: inf
ROOT
ATOM      1  C   UNL A   1      33.966  29.327  27.230  1.00  0.00     0.002 C 
ENDROOT
BRANCH   1   2
ATOM      2  C   UNL A   1      34.239  28.903  25.782  1.00  0.00     0.021 C 
BRANCH   2   3
ATOM      3  C   UNL A   1      33.246  29.499  24.788  1.00  0.00     0.116 C 
BRANCH   3   4
ATOM      4  N   UNL A   1      33.735  29.376  23.429  1.00  0.00    -0.352 N 
ATOM      5  C   UNL A   1      33.982  28.293  22.627  1.00  0.00     0.251 C 
ATOM      6  O   UNL A   1      34.340  28.504  21.467  1.00  0.00    -0.269 OA
ATOM      7  H   UNL A   1      33.928  30.240  22.997  1.00  0.00     0.163 HD
BRANCH   5   8
ATOM      8  C   UNL A   1      33.745  26.889  23.060  1.00  0.00     0.042 A 
ATOM      9  C   UNL A   1      32.992  25.210  24.628  1.00  0.00     0.073 A 
ATOM     10  C   UNL A   1      33.424  26.511  24.363  1.00  0.00     0.042 A 
ATOM     11  C   UNL A   1      33.084  24.196  23.652  1.00  0.00     0.061 A 
ATOM     12  C   UNL A   1      33.524  24.566  22.376  1.00  0.00     0.029 A 
ATOM     13  C   UNL A   1      33.816  25.898  22.072  1.00  0.00     0.016 A 
BRANCH   9  14
ATOM     14  N   UNL A   1      32.440  24.938  25.917  1.00  0.00    -0.277 N 
ATOM     15  H   UNL A   1      32.917  24.326  26.522  1.00  0.00     0.180 HD
BRANCH  14  16
ATOM     16  S   UNL A   1      30.977  25.642  26.435  1.00  0.00     0.261 S 
ATOM     17  O   UNL A   1      31.378  26.684  27.362  1.00  0.00    -0.201 OA
ATOM     18  O   UNL A   1      30.140  24.555  26.895  1.00  0.00    -0.201 OA
BRANCH  16  19
ATOM     19  C   UNL A   1      30.043  26.463  25.150  1.00  0.00     0.088 A 
ATOM     20  C   UNL A   1      30.028  29.557  22.932  1.00  0.00     0.044 C 
ATOM     21  C   UNL A   1      29.647  28.233  23.533  1.00  0.00    -0.050 A 
ATOM     22  C   UNL A   1      28.389  27.689  23.246  1.00  0.00     0.003 A 
ATOM     23  C   UNL A   1      30.503  27.568  24.430  1.00  0.00     0.025 A 
ATOM     24  C   UNL A   1      27.967  26.525  23.881  1.00  0.00     0.002 A 
ATOM     25  C   UNL A   1      28.779  25.930  24.847  1.00  0.00     0.022 A 
ENDBRANCH  16  19
ENDBRANCH  14  16
ENDBRANCH   9  14
BRANCH  11  26
ATOM     26  N   UNL A   1      32.828  22.864  23.908  1.00  0.00    -0.369 N 
ATOM     27  C   UNL A   1      31.440  22.459  24.117  1.00  0.00     0.116 C 
ATOM     28  C   UNL A   1      33.846  21.826  23.800  1.00  0.00     0.126 C 
ATOM     29  C   UNL A   1      31.358  21.556  25.344  1.00  0.00     0.022 C 
ATOM     30  C   UNL A   1      33.810  20.909  25.042  1.00  0.00     0.064 C 
ATOM     31  C   UNL A   1      32.367  20.410  25.248  1.00  0.00     0.013 C 
BRANCH  30  32
ATOM     32  C   UNL A   1      34.445  21.653  26.248  1.00  0.00     0.267 C 
BRANCH  32  33
ATOM     33  N   UNL A   1      35.886  21.920  26.283  1.00  0.00    -0.335 N 
ATOM     34  C   UNL A   1      36.268  23.325  26.154  1.00  0.00     0.262 C 
ATOM     35  C   UNL A   1      36.710  21.143  25.361  1.00  0.00     0.262 C 
ATOM     36  H   UNL A   1      36.089  21.606  27.232  1.00  0.00     0.348 HD
ATOM     37  C   UNL A   1      36.737  23.479  24.722  1.00  0.00     0.067 C 
ATOM     38  C   UNL A   1      37.354  22.131  24.395  1.00  0.00     0.067 C 
ENDBRANCH  32  33
ENDBRANCH  30  32
ENDBRANCH  11  26
ENDBRANCH   5   8
ENDBRANCH   3   4
ENDBRANCH   2   3
ENDBRANCH   1   2
BRANCH   1  39
ATOM     39  C   UNL A   1      32.978  30.495  27.404  1.00  0.00     0.002 C 
BRANCH  39  40
ATOM     40  C   UNL A   1      33.598  31.895  27.389  1.00  0.00     0.021 C 
BRANCH  40  41
ATOM     41  C   UNL A   1      34.319  32.251  28.680  1.00  0.00     0.116 C 
BRANCH  41  42
ATOM     42  N   UNL A   1      33.720  33.379  29.370  1.00  0.00    -0.352 N 
ATOM     43  C   UNL A   1      34.143  34.072  30.495  1.00  0.00     0.251 C 
ATOM     44  H   UNL A   1      32.878  33.703  28.977  1.00  0.00     0.163 HD
ATOM     45  O   UNL A   1      33.389  34.874  31.001  1.00  0.00    -0.269 OA
BRANCH  43  46
ATOM     46  C   UNL A   1      35.550  33.926  30.961  1.00  0.00     0.039 A 
ATOM     47  C   UNL A   1      36.565  34.294  30.067  1.00  0.00     0.014 A 
ATOM     48  C   UNL A   1      35.867  33.241  32.131  1.00  0.00     0.014 A 
ATOM     49  C   UNL A   1      37.836  33.739  30.206  1.00  0.00     0.010 A 
ATOM     50  C   UNL A   1      37.097  32.627  32.229  1.00  0.00     0.010 A 
ATOM     51  C   UNL A   1      38.047  32.812  31.220  1.00  0.00    -0.014 A 
BRANCH  51  52
ATOM     52  C   UNL A   1      39.178  31.902  31.283  1.00  0.00     0.031 A 
ATOM     53  C   UNL A   1      39.087  30.557  30.697  1.00  0.00     0.074 A 
ATOM     54  C   UNL A   1      40.361  32.363  31.736  1.00  0.00     0.049 A 
ATOM     55  N   UNL A   1      40.000  29.660  30.824  1.00  0.00    -0.248 NA
ATOM     56  C   UNL A   1      37.921  30.104  29.955  1.00  0.00     0.031 C 
ATOM     57  C   UNL A   1      41.694  31.810  31.519  1.00  0.00     0.029 A 
ATOM     58  N   UNL A   1      40.571  33.356  32.678  1.00  0.00    -0.354 N 
ATOM     59  C   UNL A   1      39.681  28.612  29.994  1.00  0.00     0.074 A 
ATOM     60  C   UNL A   1      38.335  28.897  29.557  1.00  0.00     0.031 C 
ATOM     61  C   UNL A   1      42.530  32.303  32.448  1.00  0.00     0.029 A 
ATOM     62  C   UNL A   1      41.717  33.027  33.409  1.00  0.00     0.049 A 
ATOM     63  H   UNL A   1      40.010  34.155  32.810  1.00  0.00     0.167 HD
ATOM     64  C   UNL A   1      40.659  27.709  29.702  1.00  0.00     0.034 A 
ATOM     65  C   UNL A   1      41.608  32.703  34.736  1.00  0.00     0.034 A 
ATOM     66  C   UNL A   1      41.829  27.898  30.584  1.00  0.00     0.049 A 
ATOM     67  C   UNL A   1      42.027  31.274  35.079  1.00  0.00     0.074 A 
ATOM     68  C   UNL A   1      43.097  28.441  30.450  1.00  0.00     0.029 A 
ATOM     69  N   UNL A   1      41.648  27.704  31.945  1.00  0.00    -0.354 N 
ATOM     70  N   UNL A   1      42.464  30.388  34.224  1.00  0.00    -0.248 NA
ATOM     71  C   UNL A   1      41.893  30.717  36.426  1.00  0.00     0.031 C 
ATOM     72  C   UNL A   1      43.663  28.584  31.757  1.00  0.00     0.029 A 
ATOM     73  C   UNL A   1      42.750  28.103  32.679  1.00  0.00     0.049 A 
ATOM     74  H   UNL A   1      40.830  27.328  32.342  1.00  0.00     0.167 HD
ATOM     75  C   UNL A   1      42.486  29.150  34.822  1.00  0.00     0.074 A 
ATOM     76  C   UNL A   1      42.162  29.418  36.213  1.00  0.00     0.031 C 
ATOM     77  C   UNL A   1      42.685  27.983  34.131  1.00  0.00     0.034 A 
BRANCH  64  78
ATOM     78  C   UNL A   1      40.677  26.772  28.501  1.00  0.00     0.023 A 
ATOM     79  C   UNL A   1      39.575  25.901  28.347  1.00  0.00     0.012 A 
ATOM     80  C   UNL A   1      41.722  26.601  27.562  1.00  0.00     0.148 A 
ATOM     81  C   UNL A   1      39.547  24.879  27.388  1.00  0.00     0.002 A 
ATOM     82  C   UNL A   1      41.713  25.565  26.624  1.00  0.00     0.091 A 
ATOM     83  F   UNL A   1      42.738  27.457  27.523  1.00  0.00    -0.205 F 
ATOM     84  C   UNL A   1      40.627  24.695  26.541  1.00  0.00     0.022 A 
BRANCH  82  85
ATOM     85  S   UNL A   1      43.106  25.245  25.523  1.00  0.00     0.127 S 
ATOM     86  O   UNL A   1      43.043  26.391  24.614  1.00  0.00    -0.237 OA
ATOM     87  O   UNL A   1      44.242  25.260  26.441  1.00  0.00    -0.237 OA
ATOM     88  O   UNL A   1      42.847  23.959  24.884  1.00  0.00    -0.744 OA
ENDBRANCH  82  85
ENDBRANCH  64  78
BRANCH  65  89
ATOM     89  C   UNL A   1      40.500  33.456  35.415  1.00  0.00     0.023 A 
ATOM     90  C   UNL A   1      39.189  32.926  35.302  1.00  0.00     0.012 A 
ATOM     91  C   UNL A   1      40.750  34.410  36.417  1.00  0.00     0.148 A 
ATOM     92  C   UNL A   1      38.212  33.213  36.256  1.00  0.00     0.002 A 
ATOM     93  C   UNL A   1      39.758  34.718  37.345  1.00  0.00     0.091 A 
ATOM     94  F   UNL A   1      41.964  34.970  36.494  1.00  0.00    -0.205 F 
ATOM     95  C   UNL A   1      38.506  34.085  37.296  1.00  0.00     0.022 A 
BRANCH  93  96
ATOM     96  S   UNL A   1      40.083  35.853  38.700  1.00  0.00     0.127 S 
ATOM     97  O   UNL A   1      41.284  35.268  39.288  1.00  0.00    -0.237 OA
ATOM     98  O   UNL A   1      40.293  37.126  38.011  1.00  0.00    -0.237 OA
ATOM     99  O   UNL A   1      38.876  35.811  39.515  1.00  0.00    -0.744 OA
ENDBRANCH  93  96
ENDBRANCH  65  89
BRANCH  77 100
ATOM    100  C   UNL A   1      42.763  26.608  34.785  1.00  0.00     0.023 A 
ATOM    101  C   UNL A   1      41.615  26.001  35.332  1.00  0.00     0.012 A 
ATOM    102  C   UNL A   1      43.993  25.924  34.983  1.00  0.00     0.148 A 
ATOM    103  C   UNL A   1      41.660  24.740  35.941  1.00  0.00     0.002 A 
ATOM    104  C   UNL A   1      44.046  24.702  35.648  1.00  0.00     0.091 A 
ATOM    105  F   UNL A   1      45.132  26.451  34.527  1.00  0.00    -0.205 F 
ATOM    106  C   UNL A   1      42.875  24.090  36.098  1.00  0.00     0.022 A 
BRANCH 104 107
ATOM    107  S   UNL A   1      45.596  23.868  36.032  1.00  0.00     0.127 S 
ATOM    108  O   UNL A   1      46.037  24.603  37.218  1.00  0.00    -0.237 OA
ATOM    109  O   UNL A   1      45.145  22.502  36.296  1.00  0.00    -0.237 OA
ATOM    110  O   UNL A   1      46.448  24.023  34.863  1.00  0.00    -0.744 OA
ENDBRANCH 104 107
ENDBRANCH  77 100
ENDBRANCH  51  52
ENDBRANCH  43  46
ENDBRANCH  41  42
ENDBRANCH  40  41
ENDBRANCH  39  40
ENDBRANCH   1  39
TORSDOF 22
ENDMDL
