MODEL 1
REMARK VINA RESULT:     -10.5      0.000      0.000
REMARK SMILES C#CC[C@@H](C(=O)NCCCCCCNC(=O)c1ccc(-c2c3nc(c(-c4cccc(S(=O)(=O)[O-])c4F)c4ccc([nH]4)c(-c4cccc(S(=O)(=O)[O-])c4F)c4nc(c(-c5cccc(S(=O)(=O)[O-])c5F)c5ccc2[nH]5)C=C4)C=C3)cc1)c1cccc(Br)c1
REMARK SMILES IDX 11 1 10 2 9 3 8 4 7 5 5 6 6 7 4 9 3 10 2 11 1 12 80 13 81 14
REMARK SMILES IDX 86 15 82 16 84 17 83 18 85 19 12 20 13 21 14 22 15 23 16 25
REMARK SMILES IDX 17 26 18 27 79 28 19 29 78 30 20 31 21 32 22 33 72 34 23 35
REMARK SMILES IDX 77 36 71 37 73 38 24 39 76 40 70 41 69 42 25 44 57 45 37 46
REMARK SMILES IDX 56 47 38 48 41 49 55 50 74 51 39 52 40 53 54 55 75 56 42 57
REMARK SMILES IDX 26 58 27 59 35 60 28 61 30 62 36 63 29 64 31 65 32 66 33 67
REMARK SMILES IDX 34 68 58 69 59 70 67 71 60 72 62 73 68 74 61 75 63 76 64 77
REMARK SMILES IDX 65 78 66 79 43 80 44 81 52 82 45 83 47 84 53 85 46 86 48 87
REMARK SMILES IDX 49 88 50 89 51 90
REMARK H PARENT 7 8 14 24 73 43 41 54
REMARK Flexibility Score: inf
ROOT
ATOM      1  C   UNL A   1      36.384  20.207  24.821  1.00  0.00     0.002 C 
ENDROOT
BRANCH   1   2
ATOM      2  C   UNL A   1      36.196  21.385  25.784  1.00  0.00     0.002 C 
BRANCH   2   3
ATOM      3  C   UNL A   1      34.788  21.554  26.349  1.00  0.00     0.021 C 
BRANCH   3   4
ATOM      4  C   UNL A   1      34.486  22.866  27.106  1.00  0.00     0.116 C 
BRANCH   4   5
ATOM      5  N   UNL A   1      34.515  23.980  26.160  1.00  0.00    -0.356 N 
ATOM      6  C   UNL A   1      33.542  24.496  25.347  1.00  0.00     0.228 C 
ATOM      7  O   UNL A   1      33.934  24.941  24.262  1.00  0.00    -0.274 OA
ATOM      8  H   UNL A   1      35.384  24.439  26.098  1.00  0.00     0.163 HD
BRANCH   6   9
ATOM      9  C   UNL A   1      32.059  24.653  25.796  1.00  0.00     0.120 C 
BRANCH   9  10
ATOM     10  C   UNL A   1      31.234  23.413  25.380  1.00  0.00     0.107 C 
BRANCH  10  11
ATOM     11  C   UNL A   1      30.243  23.032  26.467  1.00  0.00    -0.106 C 
ATOM     12  C   UNL A   1      29.392  22.705  27.400  1.00  0.00     0.004 C 
ENDBRANCH  10  11
ENDBRANCH   9  10
BRANCH   9  13
ATOM     13  C   UNL A   1      31.471  25.958  25.195  1.00  0.00    -0.034 A 
ATOM     14  C   UNL A   1      30.625  25.976  24.070  1.00  0.00     0.004 A 
ATOM     15  C   UNL A   1      31.822  27.202  25.757  1.00  0.00     0.020 A 
ATOM     16  C   UNL A   1      30.208  27.177  23.487  1.00  0.00     0.001 A 
ATOM     17  C   UNL A   1      31.419  28.400  25.158  1.00  0.00     0.018 A 
ATOM     18  C   UNL A   1      30.620  28.392  24.020  1.00  0.00     0.016 A 
ATOM     19  Br  UNL A   1      32.000  30.051  25.876  1.00  0.00    -0.051 Br
ENDBRANCH   9  13
ENDBRANCH   6   9
ENDBRANCH   4   5
ENDBRANCH   3   4
ENDBRANCH   2   3
ENDBRANCH   1   2
BRANCH   1  20
ATOM     20  C   UNL A   1      37.733  19.469  24.865  1.00  0.00     0.021 C 
BRANCH  20  21
ATOM     21  C   UNL A   1      38.839  20.111  25.706  1.00  0.00     0.116 C 
BRANCH  21  22
ATOM     22  N   UNL A   1      39.981  19.230  25.888  1.00  0.00    -0.352 N 
ATOM     23  C   UNL A   1      41.304  19.516  26.119  1.00  0.00     0.251 C 
ATOM     24  H   UNL A   1      39.771  18.270  25.839  1.00  0.00     0.163 HD
ATOM     25  O   UNL A   1      42.136  18.616  26.029  1.00  0.00    -0.269 OA
BRANCH  23  26
ATOM     26  C   UNL A   1      41.747  20.885  26.471  1.00  0.00     0.039 A 
ATOM     27  C   UNL A   1      42.024  21.792  25.441  1.00  0.00     0.014 A 
ATOM     28  C   UNL A   1      41.974  21.258  27.799  1.00  0.00     0.014 A 
ATOM     29  C   UNL A   1      42.480  23.080  25.740  1.00  0.00     0.010 A 
ATOM     30  C   UNL A   1      42.376  22.559  28.099  1.00  0.00     0.010 A 
ATOM     31  C   UNL A   1      42.644  23.482  27.075  1.00  0.00    -0.014 A 
BRANCH  31  32
ATOM     32  C   UNL A   1      43.108  24.850  27.431  1.00  0.00     0.031 A 
ATOM     33  C   UNL A   1      42.156  25.825  28.069  1.00  0.00     0.074 A 
ATOM     34  C   UNL A   1      44.345  25.253  27.080  1.00  0.00     0.049 A 
ATOM     35  N   UNL A   1      42.321  27.098  28.322  1.00  0.00    -0.248 NA
ATOM     36  C   UNL A   1      40.831  25.305  28.444  1.00  0.00     0.031 C 
ATOM     37  C   UNL A   1      45.344  24.423  26.407  1.00  0.00     0.029 A 
ATOM     38  N   UNL A   1      44.956  26.477  27.202  1.00  0.00    -0.354 N 
ATOM     39  C   UNL A   1      41.108  27.543  28.837  1.00  0.00     0.074 A 
ATOM     40  C   UNL A   1      40.211  26.407  28.842  1.00  0.00     0.031 C 
ATOM     41  C   UNL A   1      46.434  25.166  26.155  1.00  0.00     0.029 A 
ATOM     42  C   UNL A   1      46.201  26.530  26.620  1.00  0.00     0.049 A 
ATOM     43  H   UNL A   1      44.542  27.244  27.662  1.00  0.00     0.167 HD
ATOM     44  C   UNL A   1      40.777  28.778  29.284  1.00  0.00     0.034 A 
ATOM     45  C   UNL A   1      47.053  27.563  26.460  1.00  0.00     0.034 A 
ATOM     46  C   UNL A   1      41.685  29.892  29.326  1.00  0.00     0.049 A 
ATOM     47  C   UNL A   1      46.682  28.915  27.008  1.00  0.00     0.074 A 
ATOM     48  C   UNL A   1      41.473  31.158  29.842  1.00  0.00     0.029 A 
ATOM     49  N   UNL A   1      42.980  29.875  28.829  1.00  0.00    -0.354 N 
ATOM     50  N   UNL A   1      45.583  29.283  27.620  1.00  0.00    -0.248 NA
ATOM     51  C   UNL A   1      47.682  29.986  26.879  1.00  0.00     0.031 C 
ATOM     52  C   UNL A   1      42.634  31.912  29.641  1.00  0.00     0.029 A 
ATOM     53  C   UNL A   1      43.578  31.109  29.023  1.00  0.00     0.049 A 
ATOM     54  H   UNL A   1      43.411  29.099  28.401  1.00  0.00     0.167 HD
ATOM     55  C   UNL A   1      45.772  30.611  27.985  1.00  0.00     0.074 A 
ATOM     56  C   UNL A   1      47.098  30.982  27.532  1.00  0.00     0.031 C 
ATOM     57  C   UNL A   1      44.921  31.448  28.627  1.00  0.00     0.034 A 
BRANCH  44  58
ATOM     58  C   UNL A   1      39.377  28.977  29.808  1.00  0.00     0.023 A 
ATOM     59  C   UNL A   1      39.064  28.585  31.125  1.00  0.00     0.012 A 
ATOM     60  C   UNL A   1      38.384  29.586  29.016  1.00  0.00     0.148 A 
ATOM     61  C   UNL A   1      37.776  28.754  31.631  1.00  0.00     0.002 A 
ATOM     62  C   UNL A   1      37.114  29.792  29.543  1.00  0.00     0.091 A 
ATOM     63  F   UNL A   1      38.690  29.934  27.758  1.00  0.00    -0.205 F 
ATOM     64  C   UNL A   1      36.804  29.364  30.845  1.00  0.00     0.022 A 
BRANCH  62  65
ATOM     65  S   UNL A   1      35.821  30.644  28.631  1.00  0.00     0.127 S 
ATOM     66  O   UNL A   1      35.175  29.537  27.930  1.00  0.00    -0.237 OA
ATOM     67  O   UNL A   1      35.019  31.235  29.704  1.00  0.00    -0.237 OA
ATOM     68  O   UNL A   1      36.505  31.613  27.786  1.00  0.00    -0.744 OA
ENDBRANCH  62  65
ENDBRANCH  44  58
BRANCH  45  69
ATOM     69  C   UNL A   1      48.371  27.333  25.804  1.00  0.00     0.023 A 
ATOM     70  C   UNL A   1      49.451  26.864  26.574  1.00  0.00     0.012 A 
ATOM     71  C   UNL A   1      48.542  27.516  24.417  1.00  0.00     0.148 A 
ATOM     72  C   UNL A   1      50.687  26.603  25.981  1.00  0.00     0.002 A 
ATOM     73  C   UNL A   1      49.760  27.203  23.825  1.00  0.00     0.091 A 
ATOM     74  F   UNL A   1      47.502  27.971  23.705  1.00  0.00    -0.205 F 
ATOM     75  C   UNL A   1      50.838  26.760  24.606  1.00  0.00     0.022 A 
BRANCH  73  76
ATOM     76  S   UNL A   1      50.006  27.246  22.045  1.00  0.00     0.127 S 
ATOM     77  O   UNL A   1      49.791  28.664  21.750  1.00  0.00    -0.237 OA
ATOM     78  O   UNL A   1      51.394  26.798  21.923  1.00  0.00    -0.237 OA
ATOM     79  O   UNL A   1      49.027  26.330  21.486  1.00  0.00    -0.744 OA
ENDBRANCH  73  76
ENDBRANCH  45  69
BRANCH  57  80
ATOM     80  C   UNL A   1      45.399  32.842  28.935  1.00  0.00     0.023 A 
ATOM     81  C   UNL A   1      46.185  33.080  30.079  1.00  0.00     0.012 A 
ATOM     82  C   UNL A   1      45.154  33.896  28.031  1.00  0.00     0.148 A 
ATOM     83  C   UNL A   1      46.704  34.351  30.329  1.00  0.00     0.002 A 
ATOM     84  C   UNL A   1      45.711  35.148  28.263  1.00  0.00     0.091 A 
ATOM     85  F   UNL A   1      44.386  33.652  26.959  1.00  0.00    -0.205 F 
ATOM     86  C   UNL A   1      46.479  35.379  29.416  1.00  0.00     0.022 A 
BRANCH  84  87
ATOM     87  S   UNL A   1      45.557  36.502  27.093  1.00  0.00     0.127 S 
ATOM     88  O   UNL A   1      46.176  37.603  27.830  1.00  0.00    -0.237 OA
ATOM     89  O   UNL A   1      46.335  36.019  25.952  1.00  0.00    -0.237 OA
ATOM     90  O   UNL A   1      44.131  36.649  26.834  1.00  0.00    -0.744 OA
ENDBRANCH  84  87
ENDBRANCH  57  80
ENDBRANCH  31  32
ENDBRANCH  23  26
ENDBRANCH  21  22
ENDBRANCH  20  21
ENDBRANCH   1  20
TORSDOF 19
ENDMDL
MODEL 2
REMARK VINA RESULT:     -10.5      3.287      8.533
REMARK SMILES C#CC[C@@H](C(=O)NCCCCCCNC(=O)c1ccc(-c2c3nc(c(-c4cccc(S(=O)(=O)[O-])c4F)c4ccc([nH]4)c(-c4cccc(S(=O)(=O)[O-])c4F)c4nc(c(-c5cccc(S(=O)(=O)[O-])c5F)c5ccc2[nH]5)C=C4)C=C3)cc1)c1cccc(Br)c1
REMARK SMILES IDX 11 1 10 2 9 3 8 4 7 5 5 6 6 7 4 9 3 10 2 11 1 12 80 13 81 14
REMARK SMILES IDX 86 15 82 16 84 17 83 18 85 19 12 20 13 21 14 22 15 23 16 25
REMARK SMILES IDX 17 26 18 27 79 28 19 29 78 30 20 31 21 32 22 33 72 34 23 35
REMARK SMILES IDX 77 36 71 37 73 38 24 39 76 40 70 41 69 42 25 44 57 45 37 46
REMARK SMILES IDX 56 47 38 48 41 49 55 50 74 51 39 52 40 53 54 55 75 56 42 57
REMARK SMILES IDX 26 58 27 59 35 60 28 61 30 62 36 63 29 64 31 65 32 66 33 67
REMARK SMILES IDX 34 68 58 69 59 70 67 71 60 72 62 73 68 74 61 75 63 76 64 77
REMARK SMILES IDX 65 78 66 79 43 80 44 81 52 82 45 83 47 84 53 85 46 86 48 87
REMARK SMILES IDX 49 88 50 89 51 90
REMARK H PARENT 7 8 14 24 73 43 41 54
REMARK Flexibility Score: inf
ROOT
ATOM      1  C   UNL A   1      35.243  23.638  23.518  1.00  0.00     0.002 C 
ENDROOT
BRANCH   1   2
ATOM      2  C   UNL A   1      34.212  22.520  23.708  1.00  0.00     0.002 C 
BRANCH   2   3
ATOM      3  C   UNL A   1      33.104  22.811  24.718  1.00  0.00     0.021 C 
BRANCH   3   4
ATOM      4  C   UNL A   1      31.690  23.072  24.155  1.00  0.00     0.116 C 
BRANCH   4   5
ATOM      5  N   UNL A   1      30.750  23.204  25.267  1.00  0.00    -0.356 N 
ATOM      6  C   UNL A   1      30.424  24.283  26.044  1.00  0.00     0.228 C 
ATOM      7  O   UNL A   1      30.150  24.027  27.223  1.00  0.00    -0.274 OA
ATOM      8  H   UNL A   1      30.269  22.376  25.495  1.00  0.00     0.163 HD
BRANCH   6   9
ATOM      9  C   UNL A   1      30.261  25.722  25.472  1.00  0.00     0.120 C 
BRANCH   9  10
ATOM     10  C   UNL A   1      29.883  25.667  23.974  1.00  0.00     0.107 C 
BRANCH  10  11
ATOM     11  C   UNL A   1      29.455  27.037  23.473  1.00  0.00    -0.106 C 
ATOM     12  C   UNL A   1      29.089  28.213  23.043  1.00  0.00     0.004 C 
ENDBRANCH  10  11
ENDBRANCH   9  10
BRANCH   9  13
ATOM     13  C   UNL A   1      31.572  26.522  25.701  1.00  0.00    -0.034 A 
ATOM     14  C   UNL A   1      32.855  25.958  25.556  1.00  0.00     0.004 A 
ATOM     15  C   UNL A   1      31.503  27.866  26.118  1.00  0.00     0.020 A 
ATOM     16  C   UNL A   1      34.010  26.675  25.882  1.00  0.00     0.001 A 
ATOM     17  C   UNL A   1      32.660  28.571  26.463  1.00  0.00     0.018 A 
ATOM     18  C   UNL A   1      33.913  27.979  26.354  1.00  0.00     0.016 A 
ATOM     19  Br  UNL A   1      32.520  30.339  27.125  1.00  0.00    -0.051 Br
ENDBRANCH   9  13
ENDBRANCH   6   9
ENDBRANCH   4   5
ENDBRANCH   3   4
ENDBRANCH   2   3
ENDBRANCH   1   2
BRANCH   1  20
ATOM     20  C   UNL A   1      36.635  23.426  24.136  1.00  0.00     0.021 C 
BRANCH  20  21
ATOM     21  C   UNL A   1      36.690  23.231  25.654  1.00  0.00     0.116 C 
BRANCH  21  22
ATOM     22  N   UNL A   1      37.744  22.317  26.059  1.00  0.00    -0.352 N 
ATOM     23  C   UNL A   1      39.019  22.564  26.507  1.00  0.00     0.251 C 
ATOM     24  H   UNL A   1      37.505  21.364  26.005  1.00  0.00     0.163 HD
ATOM     25  O   UNL A   1      39.816  21.631  26.590  1.00  0.00    -0.269 OA
BRANCH  23  26
ATOM     26  C   UNL A   1      39.453  23.928  26.886  1.00  0.00     0.039 A 
ATOM     27  C   UNL A   1      39.244  24.363  28.200  1.00  0.00     0.014 A 
ATOM     28  C   UNL A   1      39.986  24.811  25.942  1.00  0.00     0.014 A 
ATOM     29  C   UNL A   1      39.609  25.659  28.580  1.00  0.00     0.010 A 
ATOM     30  C   UNL A   1      40.400  26.084  26.335  1.00  0.00     0.010 A 
ATOM     31  C   UNL A   1      40.207  26.527  27.653  1.00  0.00    -0.014 A 
BRANCH  31  32
ATOM     32  C   UNL A   1      40.627  27.905  28.026  1.00  0.00     0.031 A 
ATOM     33  C   UNL A   1      42.088  28.264  28.057  1.00  0.00     0.074 A 
ATOM     34  C   UNL A   1      39.708  28.797  28.445  1.00  0.00     0.049 A 
ATOM     35  N   UNL A   1      42.663  29.357  28.490  1.00  0.00    -0.248 NA
ATOM     36  C   UNL A   1      43.029  27.246  27.563  1.00  0.00     0.031 C 
ATOM     37  C   UNL A   1      38.267  28.555  28.516  1.00  0.00     0.029 A 
ATOM     38  N   UNL A   1      39.856  30.073  28.932  1.00  0.00    -0.354 N 
ATOM     39  C   UNL A   1      44.031  29.140  28.369  1.00  0.00     0.074 A 
ATOM     40  C   UNL A   1      44.199  27.803  27.841  1.00  0.00     0.031 C 
ATOM     41  C   UNL A   1      37.666  29.637  29.037  1.00  0.00     0.029 A 
ATOM     42  C   UNL A   1      38.679  30.636  29.366  1.00  0.00     0.049 A 
ATOM     43  H   UNL A   1      40.723  30.540  28.968  1.00  0.00     0.167 HD
ATOM     44  C   UNL A   1      45.053  29.982  28.653  1.00  0.00     0.034 A 
ATOM     45  C   UNL A   1      38.440  31.814  29.977  1.00  0.00     0.034 A 
ATOM     46  C   UNL A   1      44.882  31.327  29.130  1.00  0.00     0.049 A 
ATOM     47  C   UNL A   1      39.587  32.753  30.238  1.00  0.00     0.074 A 
ATOM     48  C   UNL A   1      45.849  32.289  29.363  1.00  0.00     0.029 A 
ATOM     49  N   UNL A   1      43.662  31.902  29.451  1.00  0.00    -0.354 N 
ATOM     50  N   UNL A   1      40.863  32.586  29.987  1.00  0.00    -0.248 NA
ATOM     51  C   UNL A   1      39.260  34.059  30.832  1.00  0.00     0.031 C 
ATOM     52  C   UNL A   1      45.215  33.440  29.841  1.00  0.00     0.029 A 
ATOM     53  C   UNL A   1      43.850  33.205  29.883  1.00  0.00     0.049 A 
ATOM     54  H   UNL A   1      42.789  31.452  29.382  1.00  0.00     0.167 HD
ATOM     55  C   UNL A   1      41.485  33.775  30.351  1.00  0.00     0.074 A 
ATOM     56  C   UNL A   1      40.444  34.659  30.834  1.00  0.00     0.031 C 
ATOM     57  C   UNL A   1      42.800  34.099  30.300  1.00  0.00     0.034 A 
BRANCH  44  58
ATOM     58  C   UNL A   1      46.456  29.482  28.412  1.00  0.00     0.023 A 
ATOM     59  C   UNL A   1      47.080  29.734  27.173  1.00  0.00     0.012 A 
ATOM     60  C   UNL A   1      47.169  28.803  29.417  1.00  0.00     0.148 A 
ATOM     61  C   UNL A   1      48.373  29.278  26.922  1.00  0.00     0.002 A 
ATOM     62  C   UNL A   1      48.475  28.390  29.176  1.00  0.00     0.091 A 
ATOM     63  F   UNL A   1      46.555  28.552  30.583  1.00  0.00    -0.205 F 
ATOM     64  C   UNL A   1      49.074  28.615  27.925  1.00  0.00     0.022 A 
BRANCH  62  65
ATOM     65  S   UNL A   1      49.482  27.600  30.437  1.00  0.00     0.127 S 
ATOM     66  O   UNL A   1      49.159  28.399  31.617  1.00  0.00    -0.237 OA
ATOM     67  O   UNL A   1      48.944  26.239  30.459  1.00  0.00    -0.237 OA
ATOM     68  O   UNL A   1      50.856  27.697  29.965  1.00  0.00    -0.744 OA
ENDBRANCH  62  65
ENDBRANCH  44  58
BRANCH  45  69
ATOM     69  C   UNL A   1      37.041  32.193  30.321  1.00  0.00     0.023 A 
ATOM     70  C   UNL A   1      36.538  31.883  31.599  1.00  0.00     0.012 A 
ATOM     71  C   UNL A   1      36.230  32.908  29.417  1.00  0.00     0.148 A 
ATOM     72  C   UNL A   1      35.245  32.257  31.964  1.00  0.00     0.002 A 
ATOM     73  C   UNL A   1      34.962  33.325  29.807  1.00  0.00     0.091 A 
ATOM     74  F   UNL A   1      36.726  33.186  28.204  1.00  0.00    -0.205 F 
ATOM     75  C   UNL A   1      34.462  32.988  31.074  1.00  0.00     0.022 A 
BRANCH  73  76
ATOM     76  S   UNL A   1      33.937  34.384  28.779  1.00  0.00     0.127 S 
ATOM     77  O   UNL A   1      33.582  33.481  27.684  1.00  0.00    -0.237 OA
ATOM     78  O   UNL A   1      32.836  34.707  29.688  1.00  0.00    -0.237 OA
ATOM     79  O   UNL A   1      34.771  35.516  28.418  1.00  0.00    -0.744 OA
ENDBRANCH  73  76
ENDBRANCH  45  69
BRANCH  57  80
ATOM     80  C   UNL A   1      43.204  35.485  30.726  1.00  0.00     0.023 A 
ATOM     81  C   UNL A   1      43.592  35.727  32.058  1.00  0.00     0.012 A 
ATOM     82  C   UNL A   1      43.296  36.525  29.778  1.00  0.00     0.148 A 
ATOM     83  C   UNL A   1      44.048  36.987  32.445  1.00  0.00     0.002 A 
ATOM     84  C   UNL A   1      43.793  37.765  30.160  1.00  0.00     0.091 A 
ATOM     85  F   UNL A   1      42.901  36.279  28.520  1.00  0.00    -0.205 F 
ATOM     86  C   UNL A   1      44.162  38.000  31.495  1.00  0.00     0.022 A 
BRANCH  84  87
ATOM     87  S   UNL A   1      44.068  39.096  28.986  1.00  0.00     0.127 S 
ATOM     88  O   UNL A   1      45.084  38.515  28.110  1.00  0.00    -0.237 OA
ATOM     89  O   UNL A   1      42.749  39.248  28.372  1.00  0.00    -0.237 OA
ATOM     90  O   UNL A   1      44.504  40.242  29.772  1.00  0.00    -0.744 OA
ENDBRANCH  84  87
ENDBRANCH  57  80
ENDBRANCH  31  32
ENDBRANCH  23  26
ENDBRANCH  21  22
ENDBRANCH  20  21
ENDBRANCH   1  20
TORSDOF 19
ENDMDL
MODEL 3
REMARK VINA RESULT:     -10.4      5.747     10.623
REMARK SMILES C#CC[C@@H](C(=O)NCCCCCCNC(=O)c1ccc(-c2c3nc(c(-c4cccc(S(=O)(=O)[O-])c4F)c4ccc([nH]4)c(-c4cccc(S(=O)(=O)[O-])c4F)c4nc(c(-c5cccc(S(=O)(=O)[O-])c5F)c5ccc2[nH]5)C=C4)C=C3)cc1)c1cccc(Br)c1
REMARK SMILES IDX 11 1 10 2 9 3 8 4 7 5 5 6 6 7 4 9 3 10 2 11 1 12 80 13 81 14
REMARK SMILES IDX 86 15 82 16 84 17 83 18 85 19 12 20 13 21 14 22 15 23 16 25
REMARK SMILES IDX 17 26 18 27 79 28 19 29 78 30 20 31 21 32 22 33 72 34 23 35
REMARK SMILES IDX 77 36 71 37 73 38 24 39 76 40 70 41 69 42 25 44 57 45 37 46
REMARK SMILES IDX 56 47 38 48 41 49 55 50 74 51 39 52 40 53 54 55 75 56 42 57
REMARK SMILES IDX 26 58 27 59 35 60 28 61 30 62 36 63 29 64 31 65 32 66 33 67
REMARK SMILES IDX 34 68 58 69 59 70 67 71 60 72 62 73 68 74 61 75 63 76 64 77
REMARK SMILES IDX 65 78 66 79 43 80 44 81 52 82 45 83 47 84 53 85 46 86 48 87
REMARK SMILES IDX 49 88 50 89 51 90
REMARK H PARENT 7 8 14 24 73 43 41 54
REMARK Flexibility Score: inf
ROOT
ATOM      1  C   UNL A   1      32.958  27.010  23.494  1.00  0.00     0.002 C 
ENDROOT
BRANCH   1   2
ATOM      2  C   UNL A   1      32.027  26.262  22.533  1.00  0.00     0.002 C 
BRANCH   2   3
ATOM      3  C   UNL A   1      30.746  25.709  23.155  1.00  0.00     0.021 C 
BRANCH   3   4
ATOM      4  C   UNL A   1      30.745  24.217  23.554  1.00  0.00     0.116 C 
BRANCH   4   5
ATOM      5  N   UNL A   1      31.744  23.508  22.757  1.00  0.00    -0.356 N 
ATOM      6  C   UNL A   1      32.795  22.715  23.131  1.00  0.00     0.228 C 
ATOM      7  O   UNL A   1      33.795  22.777  22.405  1.00  0.00    -0.274 OA
ATOM      8  H   UNL A   1      31.643  23.620  21.784  1.00  0.00     0.163 HD
BRANCH   6   9
ATOM      9  C   UNL A   1      32.709  21.691  24.301  1.00  0.00     0.120 C 
BRANCH   9  10
ATOM     10  C   UNL A   1      33.801  21.984  25.356  1.00  0.00     0.107 C 
BRANCH  10  11
ATOM     11  C   UNL A   1      33.767  23.443  25.781  1.00  0.00    -0.106 C 
ATOM     12  C   UNL A   1      33.737  24.694  26.146  1.00  0.00     0.004 C 
ENDBRANCH  10  11
ENDBRANCH   9  10
BRANCH   9  13
ATOM     13  C   UNL A   1      32.830  20.249  23.739  1.00  0.00    -0.034 A 
ATOM     14  C   UNL A   1      32.149  19.812  22.586  1.00  0.00     0.004 A 
ATOM     15  C   UNL A   1      33.617  19.300  24.421  1.00  0.00     0.020 A 
ATOM     16  C   UNL A   1      32.190  18.476  22.175  1.00  0.00     0.001 A 
ATOM     17  C   UNL A   1      33.638  17.962  24.018  1.00  0.00     0.018 A 
ATOM     18  C   UNL A   1      32.922  17.544  22.902  1.00  0.00     0.016 A 
ATOM     19  Br  UNL A   1      34.618  16.693  25.023  1.00  0.00    -0.051 Br
ENDBRANCH   9  13
ENDBRANCH   6   9
ENDBRANCH   4   5
ENDBRANCH   3   4
ENDBRANCH   2   3
ENDBRANCH   1   2
BRANCH   1  20
ATOM     20  C   UNL A   1      32.492  28.385  23.999  1.00  0.00     0.021 C 
BRANCH  20  21
ATOM     21  C   UNL A   1      33.347  29.045  25.083  1.00  0.00     0.116 C 
BRANCH  21  22
ATOM     22  N   UNL A   1      32.744  30.260  25.605  1.00  0.00    -0.352 N 
ATOM     23  C   UNL A   1      33.050  31.004  26.717  1.00  0.00     0.251 C 
ATOM     24  H   UNL A   1      31.992  30.607  25.073  1.00  0.00     0.163 HD
ATOM     25  O   UNL A   1      32.269  31.879  27.087  1.00  0.00    -0.269 OA
BRANCH  23  26
ATOM     26  C   UNL A   1      34.297  30.772  27.482  1.00  0.00     0.039 A 
ATOM     27  C   UNL A   1      35.208  31.826  27.625  1.00  0.00     0.014 A 
ATOM     28  C   UNL A   1      34.618  29.509  27.986  1.00  0.00     0.014 A 
ATOM     29  C   UNL A   1      36.412  31.629  28.309  1.00  0.00     0.010 A 
ATOM     30  C   UNL A   1      35.793  29.327  28.715  1.00  0.00     0.010 A 
ATOM     31  C   UNL A   1      36.708  30.379  28.876  1.00  0.00    -0.014 A 
BRANCH  31  32
ATOM     32  C   UNL A   1      37.969  30.138  29.628  1.00  0.00     0.031 A 
ATOM     33  C   UNL A   1      38.992  29.172  29.093  1.00  0.00     0.074 A 
ATOM     34  C   UNL A   1      38.145  30.696  30.841  1.00  0.00     0.049 A 
ATOM     35  N   UNL A   1      40.079  28.718  29.662  1.00  0.00    -0.248 NA
ATOM     36  C   UNL A   1      38.741  28.621  27.752  1.00  0.00     0.031 C 
ATOM     37  C   UNL A   1      37.205  31.606  31.498  1.00  0.00     0.029 A 
ATOM     38  N   UNL A   1      39.157  30.546  31.758  1.00  0.00    -0.354 N 
ATOM     39  C   UNL A   1      40.614  27.792  28.773  1.00  0.00     0.074 A 
ATOM     40  C   UNL A   1      39.720  27.736  27.636  1.00  0.00     0.031 C 
ATOM     41  C   UNL A   1      37.672  31.914  32.718  1.00  0.00     0.029 A 
ATOM     42  C   UNL A   1      38.927  31.203  32.944  1.00  0.00     0.049 A 
ATOM     43  H   UNL A   1      39.970  30.017  31.584  1.00  0.00     0.167 HD
ATOM     44  C   UNL A   1      41.754  27.069  28.883  1.00  0.00     0.034 A 
ATOM     45  C   UNL A   1      39.634  31.217  34.092  1.00  0.00     0.034 A 
ATOM     46  C   UNL A   1      42.666  27.165  29.991  1.00  0.00     0.049 A 
ATOM     47  C   UNL A   1      40.923  30.444  34.174  1.00  0.00     0.074 A 
ATOM     48  C   UNL A   1      43.891  26.542  30.154  1.00  0.00     0.029 A 
ATOM     49  N   UNL A   1      42.453  27.930  31.127  1.00  0.00    -0.354 N 
ATOM     50  N   UNL A   1      41.485  29.682  33.267  1.00  0.00    -0.248 NA
ATOM     51  C   UNL A   1      41.695  30.561  35.421  1.00  0.00     0.031 C 
ATOM     52  C   UNL A   1      44.410  26.918  31.398  1.00  0.00     0.029 A 
ATOM     53  C   UNL A   1      43.521  27.795  31.998  1.00  0.00     0.049 A 
ATOM     54  H   UNL A   1      41.659  28.489  31.290  1.00  0.00     0.167 HD
ATOM     55  C   UNL A   1      42.693  29.263  33.814  1.00  0.00     0.074 A 
ATOM     56  C   UNL A   1      42.785  29.862  35.129  1.00  0.00     0.031 C 
ATOM     57  C   UNL A   1      43.633  28.447  33.277  1.00  0.00     0.034 A 
BRANCH  44  58
ATOM     58  C   UNL A   1      42.102  26.138  27.749  1.00  0.00     0.023 A 
ATOM     59  C   UNL A   1      42.909  26.603  26.690  1.00  0.00     0.012 A 
ATOM     60  C   UNL A   1      41.668  24.799  27.748  1.00  0.00     0.148 A 
ATOM     61  C   UNL A   1      43.240  25.765  25.627  1.00  0.00     0.002 A 
ATOM     62  C   UNL A   1      42.040  23.956  26.706  1.00  0.00     0.091 A 
ATOM     63  F   UNL A   1      40.884  24.377  28.750  1.00  0.00    -0.205 F 
ATOM     64  C   UNL A   1      42.814  24.440  25.638  1.00  0.00     0.022 A 
BRANCH  62  65
ATOM     65  S   UNL A   1      41.605  22.213  26.679  1.00  0.00     0.127 S 
ATOM     66  O   UNL A   1      40.146  22.271  26.738  1.00  0.00    -0.237 OA
ATOM     67  O   UNL A   1      42.144  21.776  25.389  1.00  0.00    -0.237 OA
ATOM     68  O   UNL A   1      42.261  21.622  27.836  1.00  0.00    -0.744 OA
ENDBRANCH  62  65
ENDBRANCH  44  58
BRANCH  45  69
ATOM     69  C   UNL A   1      39.161  32.050  35.235  1.00  0.00     0.023 A 
ATOM     70  C   UNL A   1      38.232  31.509  36.143  1.00  0.00     0.012 A 
ATOM     71  C   UNL A   1      39.671  33.344  35.460  1.00  0.00     0.148 A 
ATOM     72  C   UNL A   1      37.800  32.249  37.243  1.00  0.00     0.002 A 
ATOM     73  C   UNL A   1      39.276  34.055  36.588  1.00  0.00     0.091 A 
ATOM     74  F   UNL A   1      40.549  33.842  34.579  1.00  0.00    -0.205 F 
ATOM     75  C   UNL A   1      38.330  33.516  37.472  1.00  0.00     0.022 A 
BRANCH  73  76
ATOM     76  S   UNL A   1      40.006  35.636  37.035  1.00  0.00     0.127 S 
ATOM     77  O   UNL A   1      39.651  36.464  35.882  1.00  0.00    -0.237 OA
ATOM     78  O   UNL A   1      39.285  35.959  38.268  1.00  0.00    -0.237 OA
ATOM     79  O   UNL A   1      41.424  35.381  37.217  1.00  0.00    -0.744 OA
ENDBRANCH  73  76
ENDBRANCH  45  69
BRANCH  57  80
ATOM     80  C   UNL A   1      44.880  28.183  34.079  1.00  0.00     0.023 A 
ATOM     81  C   UNL A   1      45.985  29.048  33.969  1.00  0.00     0.012 A 
ATOM     82  C   UNL A   1      44.914  27.133  35.020  1.00  0.00     0.148 A 
ATOM     83  C   UNL A   1      47.113  28.862  34.769  1.00  0.00     0.002 A 
ATOM     84  C   UNL A   1      46.021  26.981  35.845  1.00  0.00     0.091 A 
ATOM     85  F   UNL A   1      43.858  26.308  35.094  1.00  0.00    -0.205 F 
ATOM     86  C   UNL A   1      47.125  27.839  35.715  1.00  0.00     0.022 A 
BRANCH  84  87
ATOM     87  S   UNL A   1      46.084  25.755  37.156  1.00  0.00     0.127 S 
ATOM     88  O   UNL A   1      45.252  26.376  38.185  1.00  0.00    -0.237 OA
ATOM     89  O   UNL A   1      45.488  24.582  36.516  1.00  0.00    -0.237 OA
ATOM     90  O   UNL A   1      47.492  25.605  37.499  1.00  0.00    -0.744 OA
ENDBRANCH  84  87
ENDBRANCH  57  80
ENDBRANCH  31  32
ENDBRANCH  23  26
ENDBRANCH  21  22
ENDBRANCH  20  21
ENDBRANCH   1  20
TORSDOF 19
ENDMDL
