MODEL 1
REMARK VINA RESULT:     -10.4      0.000      0.000
REMARK SMILES CC(C)Oc1ccc([C@H](O)[C@H](F)C(=O)NCCCCCCNC(=O)c2ccc(-c3c4nc(c(-c5cccc(S(=O)(=O)[O-])c5F)c5ccc([nH]5)c(-c5cccc(S(=O)(=O)[O-])c5F)c5nc(c(-c6cccc(S(=O)(=O)[O-])c6F)c6ccc3[nH]6)C=C5)C=C4)cc2)cc1
REMARK SMILES IDX 18 1 17 2 16 3 15 4 13 5 14 6 11 8 12 9 9 10 8 11 5 12 6 13
REMARK SMILES IDX 89 14 7 15 88 16 4 17 2 18 1 19 3 20 10 21 19 23 20 24 21 25
REMARK SMILES IDX 22 26 23 27 24 29 25 30 26 31 87 32 27 33 86 34 28 35 29 36
REMARK SMILES IDX 30 37 80 38 31 39 85 40 79 41 81 42 32 43 84 44 78 45 77 46
REMARK SMILES IDX 33 48 65 49 45 50 64 51 46 52 49 53 63 54 82 55 47 56 48 57
REMARK SMILES IDX 62 59 83 60 50 61 34 62 35 63 43 64 36 65 38 66 44 67 37 68
REMARK SMILES IDX 39 69 40 70 41 71 42 72 66 73 67 74 75 75 68 76 70 77 76 78
REMARK SMILES IDX 69 79 71 80 72 81 73 82 74 83 51 84 52 85 60 86 53 87 55 88
REMARK SMILES IDX 61 89 54 90 56 91 57 92 58 93 59 94
REMARK H PARENT 15 7 10 22 22 28 81 47 49 58
REMARK Flexibility Score: inf
ROOT
ATOM      1  C   UNL A   1      34.093  26.521  24.994  1.00  0.00     0.002 C 
ENDROOT
BRANCH   1   2
ATOM      2  C   UNL A   1      33.560  25.541  26.046  1.00  0.00     0.021 C 
BRANCH   2   3
ATOM      3  C   UNL A   1      32.050  25.341  26.068  1.00  0.00     0.116 C 
BRANCH   3   4
ATOM      4  N   UNL A   1      31.540  24.328  25.173  1.00  0.00    -0.353 N 
ATOM      5  C   UNL A   1      31.015  24.509  23.921  1.00  0.00     0.257 C 
ATOM      6  O   UNL A   1      30.864  23.501  23.221  1.00  0.00    -0.272 OA
ATOM      7  H   UNL A   1      31.575  23.400  25.501  1.00  0.00     0.163 HD
BRANCH   5   8
ATOM      8  C   UNL A   1      30.621  25.893  23.390  1.00  0.00     0.288 C 
ATOM      9  F   UNL A   1      30.975  26.075  22.082  1.00  0.00    -0.234 F 
BRANCH   8  10
ATOM     10  C   UNL A   1      29.138  26.278  23.637  1.00  0.00     0.188 C 
BRANCH  10  11
ATOM     11  C   UNL A   1      28.825  27.743  23.378  1.00  0.00    -0.016 A 
ATOM     12  C   UNL A   1      28.252  30.520  23.402  1.00  0.00     0.119 A 
ATOM     13  C   UNL A   1      27.252  29.582  23.135  1.00  0.00     0.047 A 
ATOM     14  C   UNL A   1      29.553  30.066  23.560  1.00  0.00     0.047 A 
ATOM     15  C   UNL A   1      27.527  28.210  23.134  1.00  0.00     0.010 A 
ATOM     16  C   UNL A   1      29.843  28.698  23.492  1.00  0.00     0.010 A 
BRANCH  12  17
ATOM     17  O   UNL A   1      27.808  31.801  23.493  1.00  0.00    -0.491 OA
BRANCH  17  18
ATOM     18  C   UNL A   1      28.197  32.850  22.599  1.00  0.00     0.167 C 
ATOM     19  C   UNL A   1      29.215  33.819  23.199  1.00  0.00     0.052 C 
ATOM     20  C   UNL A   1      28.539  32.367  21.194  1.00  0.00     0.052 C 
ENDBRANCH  17  18
ENDBRANCH  12  17
ENDBRANCH  10  11
BRANCH  10  21
ATOM     21  O   UNL A   1      28.756  25.945  24.985  1.00  0.00    -0.385 OA
ATOM     22  H   UNL A   1      27.833  26.201  25.132  1.00  0.00     0.211 HD
ENDBRANCH  10  21
ENDBRANCH   8  10
ENDBRANCH   5   8
ENDBRANCH   3   4
ENDBRANCH   2   3
ENDBRANCH   1   2
BRANCH   1  23
ATOM     23  C   UNL A   1      33.119  27.587  24.477  1.00  0.00     0.002 C 
BRANCH  23  24
ATOM     24  C   UNL A   1      33.314  29.015  24.999  1.00  0.00     0.021 C 
BRANCH  24  25
ATOM     25  C   UNL A   1      32.458  29.421  26.194  1.00  0.00     0.116 C 
BRANCH  25  26
ATOM     26  N   UNL A   1      32.383  30.862  26.377  1.00  0.00    -0.352 N 
ATOM     27  C   UNL A   1      33.168  31.694  27.134  1.00  0.00     0.251 C 
ATOM     28  H   UNL A   1      31.658  31.306  25.881  1.00  0.00     0.163 HD
ATOM     29  O   UNL A   1      32.845  32.878  27.259  1.00  0.00    -0.269 OA
BRANCH  27  30
ATOM     30  C   UNL A   1      34.380  31.189  27.818  1.00  0.00     0.039 A 
ATOM     31  C   UNL A   1      35.509  32.012  27.877  1.00  0.00     0.014 A 
ATOM     32  C   UNL A   1      34.426  29.906  28.369  1.00  0.00     0.014 A 
ATOM     33  C   UNL A   1      36.660  31.573  28.537  1.00  0.00     0.010 A 
ATOM     34  C   UNL A   1      35.551  29.495  29.086  1.00  0.00     0.010 A 
ATOM     35  C   UNL A   1      36.683  30.321  29.174  1.00  0.00    -0.014 A 
BRANCH  35  36
ATOM     36  C   UNL A   1      37.871  29.869  29.944  1.00  0.00     0.031 A 
ATOM     37  C   UNL A   1      38.131  30.395  31.331  1.00  0.00     0.074 A 
ATOM     38  C   UNL A   1      38.767  29.044  29.364  1.00  0.00     0.049 A 
ATOM     39  N   UNL A   1      39.143  30.160  32.127  1.00  0.00    -0.248 NA
ATOM     40  C   UNL A   1      37.136  31.325  31.889  1.00  0.00     0.031 C 
ATOM     41  C   UNL A   1      38.669  28.517  28.001  1.00  0.00     0.029 A 
ATOM     42  N   UNL A   1      39.947  28.525  29.837  1.00  0.00    -0.354 N 
ATOM     43  C   UNL A   1      38.927  30.938  33.258  1.00  0.00     0.074 A 
ATOM     44  C   UNL A   1      37.703  31.675  33.035  1.00  0.00     0.031 C 
ATOM     45  C   UNL A   1      39.744  27.752  27.748  1.00  0.00     0.029 A 
ATOM     46  C   UNL A   1      40.622  27.758  28.914  1.00  0.00     0.049 A 
ATOM     47  H   UNL A   1      40.280  28.687  30.749  1.00  0.00     0.167 HD
ATOM     48  C   UNL A   1      39.666  31.015  34.391  1.00  0.00     0.034 A 
ATOM     49  C   UNL A   1      41.818  27.143  28.990  1.00  0.00     0.034 A 
ATOM     50  C   UNL A   1      40.864  30.253  34.628  1.00  0.00     0.049 A 
ATOM     51  C   UNL A   1      42.605  27.221  30.270  1.00  0.00     0.074 A 
ATOM     52  C   UNL A   1      41.634  30.196  35.778  1.00  0.00     0.029 A 
ATOM     53  N   UNL A   1      41.475  29.426  33.698  1.00  0.00    -0.354 N 
ATOM     54  N   UNL A   1      42.306  27.840  31.386  1.00  0.00    -0.248 NA
ATOM     55  C   UNL A   1      43.879  26.487  30.315  1.00  0.00     0.031 C 
ATOM     56  C   UNL A   1      42.728  29.361  35.531  1.00  0.00     0.029 A 
ATOM     57  C   UNL A   1      42.619  28.865  34.242  1.00  0.00     0.049 A 
ATOM     58  H   UNL A   1      41.143  29.261  32.787  1.00  0.00     0.167 HD
ATOM     59  C   UNL A   1      43.330  27.540  32.276  1.00  0.00     0.074 A 
ATOM     60  C   UNL A   1      44.250  26.667  31.575  1.00  0.00     0.031 C 
ATOM     61  C   UNL A   1      43.500  27.958  33.554  1.00  0.00     0.034 A 
BRANCH  48  62
ATOM     62  C   UNL A   1      39.179  31.928  35.488  1.00  0.00     0.023 A 
ATOM     63  C   UNL A   1      38.246  31.452  36.431  1.00  0.00     0.012 A 
ATOM     64  C   UNL A   1      39.693  33.232  35.625  1.00  0.00     0.148 A 
ATOM     65  C   UNL A   1      37.802  32.271  37.469  1.00  0.00     0.002 A 
ATOM     66  C   UNL A   1      39.284  34.026  36.689  1.00  0.00     0.091 A 
ATOM     67  F   UNL A   1      40.568  33.675  34.710  1.00  0.00    -0.205 F 
ATOM     68  C   UNL A   1      38.329  33.552  37.605  1.00  0.00     0.022 A 
BRANCH  66  69
ATOM     69  S   UNL A   1      39.964  35.660  37.001  1.00  0.00     0.127 S 
ATOM     70  O   UNL A   1      39.246  36.050  38.214  1.00  0.00    -0.237 OA
ATOM     71  O   UNL A   1      41.384  35.368  37.200  1.00  0.00    -0.237 OA
ATOM     72  O   UNL A   1      39.666  36.452  35.817  1.00  0.00    -0.744 OA
ENDBRANCH  66  69
ENDBRANCH  48  62
BRANCH  49  73
ATOM     73  C   UNL A   1      42.324  26.354  27.831  1.00  0.00     0.023 A 
ATOM     74  C   UNL A   1      43.197  26.960  26.905  1.00  0.00     0.012 A 
ATOM     75  C   UNL A   1      41.965  25.004  27.655  1.00  0.00     0.148 A 
ATOM     76  C   UNL A   1      43.674  26.246  25.806  1.00  0.00     0.002 A 
ATOM     77  C   UNL A   1      42.491  24.282  26.591  1.00  0.00     0.091 A 
ATOM     78  F   UNL A   1      41.126  24.450  28.541  1.00  0.00    -0.205 F 
ATOM     79  C   UNL A   1      43.329  24.905  25.654  1.00  0.00     0.022 A 
BRANCH  77  80
ATOM     80  S   UNL A   1      42.211  22.518  26.396  1.00  0.00     0.127 S 
ATOM     81  O   UNL A   1      42.993  22.222  25.198  1.00  0.00    -0.237 OA
ATOM     82  O   UNL A   1      42.766  21.986  27.642  1.00  0.00    -0.237 OA
ATOM     83  O   UNL A   1      40.770  22.361  26.268  1.00  0.00    -0.744 OA
ENDBRANCH  77  80
ENDBRANCH  49  73
BRANCH  61  84
ATOM     84  C   UNL A   1      44.702  27.446  34.307  1.00  0.00     0.023 A 
ATOM     85  C   UNL A   1      45.884  28.211  34.354  1.00  0.00     0.012 A 
ATOM     86  C   UNL A   1      44.632  26.238  35.029  1.00  0.00     0.148 A 
ATOM     87  C   UNL A   1      46.988  27.766  35.082  1.00  0.00     0.002 A 
ATOM     88  C   UNL A   1      45.717  25.827  35.793  1.00  0.00     0.091 A 
ATOM     89  F   UNL A   1      43.504  25.515  34.956  1.00  0.00    -0.205 F 
ATOM     90  C   UNL A   1      46.900  26.581  35.809  1.00  0.00     0.022 A 
BRANCH  88  91
ATOM     91  S   UNL A   1      45.659  24.368  36.841  1.00  0.00     0.127 S 
ATOM     92  O   UNL A   1      44.524  24.670  37.711  1.00  0.00    -0.237 OA
ATOM     93  O   UNL A   1      45.417  23.300  35.870  1.00  0.00    -0.237 OA
ATOM     94  O   UNL A   1      46.953  24.299  37.506  1.00  0.00    -0.744 OA
ENDBRANCH  88  91
ENDBRANCH  61  84
ENDBRANCH  35  36
ENDBRANCH  27  30
ENDBRANCH  25  26
ENDBRANCH  24  25
ENDBRANCH  23  24
ENDBRANCH   1  23
TORSDOF 21
ENDMDL
MODEL 2
REMARK VINA RESULT:     -10.4      2.872      8.847
REMARK SMILES CC(C)Oc1ccc([C@H](O)[C@H](F)C(=O)NCCCCCCNC(=O)c2ccc(-c3c4nc(c(-c5cccc(S(=O)(=O)[O-])c5F)c5ccc([nH]5)c(-c5cccc(S(=O)(=O)[O-])c5F)c5nc(c(-c6cccc(S(=O)(=O)[O-])c6F)c6ccc3[nH]6)C=C5)C=C4)cc2)cc1
REMARK SMILES IDX 18 1 17 2 16 3 15 4 13 5 14 6 11 8 12 9 9 10 8 11 5 12 6 13
REMARK SMILES IDX 89 14 7 15 88 16 4 17 2 18 1 19 3 20 10 21 19 23 20 24 21 25
REMARK SMILES IDX 22 26 23 27 24 29 25 30 26 31 87 32 27 33 86 34 28 35 29 36
REMARK SMILES IDX 30 37 80 38 31 39 85 40 79 41 81 42 32 43 84 44 78 45 77 46
REMARK SMILES IDX 33 48 65 49 45 50 64 51 46 52 49 53 63 54 82 55 47 56 48 57
REMARK SMILES IDX 62 59 83 60 50 61 34 62 35 63 43 64 36 65 38 66 44 67 37 68
REMARK SMILES IDX 39 69 40 70 41 71 42 72 66 73 67 74 75 75 68 76 70 77 76 78
REMARK SMILES IDX 69 79 71 80 72 81 73 82 74 83 51 84 52 85 60 86 53 87 55 88
REMARK SMILES IDX 61 89 54 90 56 91 57 92 58 93 59 94
REMARK H PARENT 15 7 10 22 22 28 81 47 49 58
REMARK Flexibility Score: inf
ROOT
ATOM      1  C   UNL A   1      31.889  29.701  25.144  1.00  0.00     0.002 C 
ENDROOT
BRANCH   1   2
ATOM      2  C   UNL A   1      30.695  29.425  24.222  1.00  0.00     0.021 C 
BRANCH   2   3
ATOM      3  C   UNL A   1      31.019  28.750  22.895  1.00  0.00     0.116 C 
BRANCH   3   4
ATOM      4  N   UNL A   1      32.368  28.936  22.412  1.00  0.00    -0.353 N 
ATOM      5  C   UNL A   1      33.360  27.996  22.328  1.00  0.00     0.257 C 
ATOM      6  O   UNL A   1      34.360  28.288  21.662  1.00  0.00    -0.272 OA
ATOM      7  H   UNL A   1      32.600  29.843  22.106  1.00  0.00     0.163 HD
BRANCH   5   8
ATOM      8  C   UNL A   1      33.258  26.633  23.025  1.00  0.00     0.288 C 
ATOM      9  F   UNL A   1      32.625  26.707  24.234  1.00  0.00    -0.234 F 
BRANCH   8  10
ATOM     10  C   UNL A   1      32.668  25.502  22.142  1.00  0.00     0.188 C 
BRANCH  10  11
ATOM     11  C   UNL A   1      32.851  24.106  22.716  1.00  0.00    -0.016 A 
ATOM     12  C   UNL A   1      33.147  21.733  24.240  1.00  0.00     0.119 A 
ATOM     13  C   UNL A   1      34.248  22.336  23.627  1.00  0.00     0.047 A 
ATOM     14  C   UNL A   1      31.890  22.269  24.006  1.00  0.00     0.047 A 
ATOM     15  C   UNL A   1      34.109  23.514  22.884  1.00  0.00     0.010 A 
ATOM     16  C   UNL A   1      31.739  23.409  23.206  1.00  0.00     0.010 A 
BRANCH  12  17
ATOM     17  O   UNL A   1      33.458  20.672  25.029  1.00  0.00    -0.491 OA
BRANCH  17  18
ATOM     18  C   UNL A   1      33.265  19.304  24.647  1.00  0.00     0.167 C 
ATOM     19  C   UNL A   1      32.778  18.413  25.789  1.00  0.00     0.052 C 
ATOM     20  C   UNL A   1      32.496  19.133  23.342  1.00  0.00     0.052 C 
ENDBRANCH  17  18
ENDBRANCH  12  17
ENDBRANCH  10  11
BRANCH  10  21
ATOM     21  O   UNL A   1      33.244  25.549  20.823  1.00  0.00    -0.385 OA
ATOM     22  H   UNL A   1      33.901  26.261  20.783  1.00  0.00     0.211 HD
ENDBRANCH  10  21
ENDBRANCH   8  10
ENDBRANCH   5   8
ENDBRANCH   3   4
ENDBRANCH   2   3
ENDBRANCH   1   2
BRANCH   1  23
ATOM     23  C   UNL A   1      31.584  30.315  26.515  1.00  0.00     0.002 C 
BRANCH  23  24
ATOM     24  C   UNL A   1      31.558  31.846  26.599  1.00  0.00     0.021 C 
BRANCH  24  25
ATOM     25  C   UNL A   1      32.772  32.508  27.243  1.00  0.00     0.116 C 
BRANCH  25  26
ATOM     26  N   UNL A   1      32.519  33.879  27.656  1.00  0.00    -0.352 N 
ATOM     27  C   UNL A   1      33.124  34.629  28.632  1.00  0.00     0.251 C 
ATOM     28  H   UNL A   1      31.805  34.338  27.158  1.00  0.00     0.163 HD
ATOM     29  O   UNL A   1      32.661  35.737  28.916  1.00  0.00    -0.269 OA
BRANCH  27  30
ATOM     30  C   UNL A   1      34.307  34.121  29.363  1.00  0.00     0.039 A 
ATOM     31  C   UNL A   1      34.104  33.340  30.506  1.00  0.00     0.014 A 
ATOM     32  C   UNL A   1      35.606  34.430  28.955  1.00  0.00     0.014 A 
ATOM     33  C   UNL A   1      35.201  32.825  31.204  1.00  0.00     0.010 A 
ATOM     34  C   UNL A   1      36.698  33.860  29.611  1.00  0.00     0.010 A 
ATOM     35  C   UNL A   1      36.509  33.055  30.746  1.00  0.00    -0.014 A 
BRANCH  35  36
ATOM     36  C   UNL A   1      37.683  32.453  31.432  1.00  0.00     0.031 A 
ATOM     37  C   UNL A   1      38.433  31.309  30.802  1.00  0.00     0.074 A 
ATOM     38  C   UNL A   1      38.027  32.882  32.664  1.00  0.00     0.049 A 
ATOM     39  N   UNL A   1      39.441  30.623  31.278  1.00  0.00    -0.248 NA
ATOM     40  C   UNL A   1      37.979  30.862  29.476  1.00  0.00     0.031 C 
ATOM     41  C   UNL A   1      37.340  33.935  33.413  1.00  0.00     0.029 A 
ATOM     42  N   UNL A   1      39.025  32.468  33.512  1.00  0.00    -0.354 N 
ATOM     43  C   UNL A   1      39.716  29.643  30.332  1.00  0.00     0.074 A 
ATOM     44  C   UNL A   1      38.751  29.805  29.267  1.00  0.00     0.031 C 
ATOM     45  C   UNL A   1      37.934  34.083  34.609  1.00  0.00     0.029 A 
ATOM     46  C   UNL A   1      39.022  33.117  34.725  1.00  0.00     0.049 A 
ATOM     47  H   UNL A   1      39.679  31.771  33.275  1.00  0.00     0.167 HD
ATOM     48  C   UNL A   1      40.697  28.709  30.334  1.00  0.00     0.034 A 
ATOM     49  C   UNL A   1      39.795  32.945  35.815  1.00  0.00     0.034 A 
ATOM     50  C   UNL A   1      41.680  28.572  31.377  1.00  0.00     0.049 A 
ATOM     51  C   UNL A   1      40.896  31.920  35.781  1.00  0.00     0.074 A 
ATOM     52  C   UNL A   1      42.766  27.714  31.428  1.00  0.00     0.029 A 
ATOM     53  N   UNL A   1      41.692  29.301  32.556  1.00  0.00    -0.354 N 
ATOM     54  N   UNL A   1      41.236  31.107  34.811  1.00  0.00    -0.248 NA
ATOM     55  C   UNL A   1      41.743  31.811  36.979  1.00  0.00     0.031 C 
ATOM     56  C   UNL A   1      43.414  27.902  32.653  1.00  0.00     0.029 A 
ATOM     57  C   UNL A   1      42.757  28.904  33.348  1.00  0.00     0.049 A 
ATOM     58  H   UNL A   1      41.041  29.999  32.794  1.00  0.00     0.167 HD
ATOM     59  C   UNL A   1      42.356  30.419  35.264  1.00  0.00     0.074 A 
ATOM     60  C   UNL A   1      42.650  30.925  36.589  1.00  0.00     0.031 C 
ATOM     61  C   UNL A   1      43.071  29.449  34.643  1.00  0.00     0.034 A 
BRANCH  48  62
ATOM     62  C   UNL A   1      40.786  27.779  29.151  1.00  0.00     0.023 A 
ATOM     63  C   UNL A   1      39.858  26.726  29.018  1.00  0.00     0.012 A 
ATOM     64  C   UNL A   1      41.743  27.986  28.138  1.00  0.00     0.148 A 
ATOM     65  C   UNL A   1      39.904  25.871  27.918  1.00  0.00     0.002 A 
ATOM     66  C   UNL A   1      41.753  27.160  27.020  1.00  0.00     0.091 A 
ATOM     67  F   UNL A   1      42.629  28.982  28.288  1.00  0.00    -0.205 F 
ATOM     68  C   UNL A   1      40.843  26.094  26.914  1.00  0.00     0.022 A 
BRANCH  66  69
ATOM     69  S   UNL A   1      42.868  27.415  25.635  1.00  0.00     0.127 S 
ATOM     70  O   UNL A   1      42.126  28.391  24.837  1.00  0.00    -0.237 OA
ATOM     71  O   UNL A   1      44.060  27.949  26.295  1.00  0.00    -0.237 OA
ATOM     72  O   UNL A   1      43.047  26.110  25.016  1.00  0.00    -0.744 OA
ENDBRANCH  66  69
ENDBRANCH  48  62
BRANCH  49  73
ATOM     73  C   UNL A   1      39.587  33.801  37.018  1.00  0.00     0.023 A 
ATOM     74  C   UNL A   1      40.041  35.135  37.009  1.00  0.00     0.012 A 
ATOM     75  C   UNL A   1      38.923  33.308  38.157  1.00  0.00     0.148 A 
ATOM     76  C   UNL A   1      39.869  35.951  38.127  1.00  0.00     0.002 A 
ATOM     77  C   UNL A   1      38.702  34.144  39.244  1.00  0.00     0.091 A 
ATOM     78  F   UNL A   1      38.508  32.033  38.149  1.00  0.00    -0.205 F 
ATOM     79  C   UNL A   1      39.191  35.460  39.240  1.00  0.00     0.022 A 
BRANCH  77  80
ATOM     80  S   UNL A   1      37.721  33.639  40.662  1.00  0.00     0.127 S 
ATOM     81  O   UNL A   1      37.419  34.924  41.289  1.00  0.00    -0.237 OA
ATOM     82  O   UNL A   1      36.582  32.983  40.019  1.00  0.00    -0.237 OA
ATOM     83  O   UNL A   1      38.574  32.744  41.430  1.00  0.00    -0.744 OA
ENDBRANCH  77  80
ENDBRANCH  49  73
BRANCH  61  84
ATOM     84  C   UNL A   1      44.273  28.893  35.363  1.00  0.00     0.023 A 
ATOM     85  C   UNL A   1      45.548  29.450  35.143  1.00  0.00     0.012 A 
ATOM     86  C   UNL A   1      44.124  27.863  36.314  1.00  0.00     0.148 A 
ATOM     87  C   UNL A   1      46.660  28.970  35.834  1.00  0.00     0.002 A 
ATOM     88  C   UNL A   1      45.227  27.426  37.036  1.00  0.00     0.091 A 
ATOM     89  F   UNL A   1      42.905  27.333  36.495  1.00  0.00    -0.205 F 
ATOM     90  C   UNL A   1      46.498  27.968  36.787  1.00  0.00     0.022 A 
BRANCH  88  91
ATOM     91  S   UNL A   1      45.097  26.211  38.353  1.00  0.00     0.127 S 
ATOM     92  O   UNL A   1      46.500  25.872  38.586  1.00  0.00    -0.237 OA
ATOM     93  O   UNL A   1      44.469  26.984  39.426  1.00  0.00    -0.237 OA
ATOM     94  O   UNL A   1      44.273  25.132  37.825  1.00  0.00    -0.744 OA
ENDBRANCH  88  91
ENDBRANCH  61  84
ENDBRANCH  35  36
ENDBRANCH  27  30
ENDBRANCH  25  26
ENDBRANCH  24  25
ENDBRANCH  23  24
ENDBRANCH   1  23
TORSDOF 21
ENDMDL
MODEL 3
REMARK VINA RESULT:     -10.2      1.830      2.332
REMARK SMILES CC(C)Oc1ccc([C@H](O)[C@H](F)C(=O)NCCCCCCNC(=O)c2ccc(-c3c4nc(c(-c5cccc(S(=O)(=O)[O-])c5F)c5ccc([nH]5)c(-c5cccc(S(=O)(=O)[O-])c5F)c5nc(c(-c6cccc(S(=O)(=O)[O-])c6F)c6ccc3[nH]6)C=C5)C=C4)cc2)cc1
REMARK SMILES IDX 18 1 17 2 16 3 15 4 13 5 14 6 11 8 12 9 9 10 8 11 5 12 6 13
REMARK SMILES IDX 89 14 7 15 88 16 4 17 2 18 1 19 3 20 10 21 19 23 20 24 21 25
REMARK SMILES IDX 22 26 23 27 24 29 25 30 26 31 87 32 27 33 86 34 28 35 29 36
REMARK SMILES IDX 30 37 80 38 31 39 85 40 79 41 81 42 32 43 84 44 78 45 77 46
REMARK SMILES IDX 33 48 65 49 45 50 64 51 46 52 49 53 63 54 82 55 47 56 48 57
REMARK SMILES IDX 62 59 83 60 50 61 34 62 35 63 43 64 36 65 38 66 44 67 37 68
REMARK SMILES IDX 39 69 40 70 41 71 42 72 66 73 67 74 75 75 68 76 70 77 76 78
REMARK SMILES IDX 69 79 71 80 72 81 73 82 74 83 51 84 52 85 60 86 53 87 55 88
REMARK SMILES IDX 61 89 54 90 56 91 57 92 58 93 59 94
REMARK H PARENT 15 7 10 22 22 28 81 47 49 58
REMARK Flexibility Score: inf
ROOT
ATOM      1  C   UNL A   1      34.036  26.285  25.183  1.00  0.00     0.002 C 
ENDROOT
BRANCH   1   2
ATOM      2  C   UNL A   1      33.453  25.215  26.113  1.00  0.00     0.021 C 
BRANCH   2   3
ATOM      3  C   UNL A   1      31.938  25.057  26.082  1.00  0.00     0.116 C 
BRANCH   3   4
ATOM      4  N   UNL A   1      31.427  24.124  25.104  1.00  0.00    -0.353 N 
ATOM      5  C   UNL A   1      30.939  24.409  23.856  1.00  0.00     0.257 C 
ATOM      6  O   UNL A   1      30.782  23.458  23.081  1.00  0.00    -0.272 OA
ATOM      7  H   UNL A   1      31.431  23.174  25.364  1.00  0.00     0.163 HD
BRANCH   5   8
ATOM      8  C   UNL A   1      30.594  25.837  23.418  1.00  0.00     0.288 C 
ATOM      9  F   UNL A   1      31.025  26.118  22.151  1.00  0.00    -0.234 F 
BRANCH   8  10
ATOM     10  C   UNL A   1      29.104  26.226  23.611  1.00  0.00     0.188 C 
BRANCH  10  11
ATOM     11  C   UNL A   1      28.810  27.699  23.370  1.00  0.00    -0.016 A 
ATOM     12  C   UNL A   1      28.258  30.479  23.429  1.00  0.00     0.119 A 
ATOM     13  C   UNL A   1      27.259  29.555  23.119  1.00  0.00     0.047 A 
ATOM     14  C   UNL A   1      29.551  30.012  23.614  1.00  0.00     0.047 A 
ATOM     15  C   UNL A   1      27.522  28.180  23.100  1.00  0.00     0.010 A 
ATOM     16  C   UNL A   1      29.832  28.643  23.528  1.00  0.00     0.010 A 
BRANCH  12  17
ATOM     17  O   UNL A   1      27.823  31.762  23.532  1.00  0.00    -0.491 OA
BRANCH  17  18
ATOM     18  C   UNL A   1      28.227  32.820  22.654  1.00  0.00     0.167 C 
ATOM     19  C   UNL A   1      29.387  33.654  23.195  1.00  0.00     0.052 C 
ATOM     20  C   UNL A   1      28.385  32.386  21.201  1.00  0.00     0.052 C 
ENDBRANCH  17  18
ENDBRANCH  12  17
ENDBRANCH  10  11
BRANCH  10  21
ATOM     21  O   UNL A   1      28.664  25.868  24.934  1.00  0.00    -0.385 OA
ATOM     22  H   UNL A   1      27.736  26.126  25.048  1.00  0.00     0.211 HD
ENDBRANCH  10  21
ENDBRANCH   8  10
ENDBRANCH   5   8
ENDBRANCH   3   4
ENDBRANCH   2   3
ENDBRANCH   1   2
BRANCH   1  23
ATOM     23  C   UNL A   1      33.235  27.582  25.023  1.00  0.00     0.002 C 
BRANCH  23  24
ATOM     24  C   UNL A   1      33.839  28.851  25.635  1.00  0.00     0.021 C 
BRANCH  24  25
ATOM     25  C   UNL A   1      33.288  29.275  26.993  1.00  0.00     0.116 C 
BRANCH  25  26
ATOM     26  N   UNL A   1      33.410  30.703  27.235  1.00  0.00    -0.352 N 
ATOM     27  C   UNL A   1      34.385  31.402  27.902  1.00  0.00     0.251 C 
ATOM     28  H   UNL A   1      32.682  31.251  26.865  1.00  0.00     0.163 HD
ATOM     29  O   UNL A   1      34.225  32.606  28.114  1.00  0.00    -0.269 OA
BRANCH  27  30
ATOM     30  C   UNL A   1      35.611  30.728  28.388  1.00  0.00     0.039 A 
ATOM     31  C   UNL A   1      36.817  30.971  27.723  1.00  0.00     0.014 A 
ATOM     32  C   UNL A   1      35.579  29.840  29.465  1.00  0.00     0.014 A 
ATOM     33  C   UNL A   1      37.996  30.369  28.172  1.00  0.00     0.010 A 
ATOM     34  C   UNL A   1      36.766  29.294  29.955  1.00  0.00     0.010 A 
ATOM     35  C   UNL A   1      37.988  29.547  29.311  1.00  0.00    -0.014 A 
BRANCH  35  36
ATOM     36  C   UNL A   1      39.244  28.960  29.848  1.00  0.00     0.031 A 
ATOM     37  C   UNL A   1      39.933  29.580  31.034  1.00  0.00     0.074 A 
ATOM     38  C   UNL A   1      39.811  27.912  29.216  1.00  0.00     0.049 A 
ATOM     39  N   UNL A   1      41.063  29.241  31.601  1.00  0.00    -0.248 NA
ATOM     40  C   UNL A   1      39.282  30.747  31.650  1.00  0.00     0.031 C 
ATOM     41  C   UNL A   1      39.282  27.261  28.016  1.00  0.00     0.029 A 
ATOM     42  N   UNL A   1      40.972  27.226  29.480  1.00  0.00    -0.354 N 
ATOM     43  C   UNL A   1      41.277  30.171  32.612  1.00  0.00     0.074 A 
ATOM     44  C   UNL A   1      40.174  31.106  32.562  1.00  0.00     0.031 C 
ATOM     45  C   UNL A   1      40.114  26.274  27.647  1.00  0.00     0.029 A 
ATOM     46  C   UNL A   1      41.251  26.240  28.562  1.00  0.00     0.049 A 
ATOM     47  H   UNL A   1      41.550  27.423  30.252  1.00  0.00     0.167 HD
ATOM     48  C   UNL A   1      42.285  30.230  33.515  1.00  0.00     0.034 A 
ATOM     49  C   UNL A   1      42.309  25.412  28.457  1.00  0.00     0.034 A 
ATOM     50  C   UNL A   1      43.362  29.278  33.588  1.00  0.00     0.049 A 
ATOM     51  C   UNL A   1      43.401  25.479  29.490  1.00  0.00     0.074 A 
ATOM     52  C   UNL A   1      44.381  29.201  34.521  1.00  0.00     0.029 A 
ATOM     53  N   UNL A   1      43.568  28.244  32.687  1.00  0.00    -0.354 N 
ATOM     54  N   UNL A   1      43.504  26.269  30.531  1.00  0.00    -0.248 NA
ATOM     55  C   UNL A   1      44.505  24.516  29.356  1.00  0.00     0.031 C 
ATOM     56  C   UNL A   1      45.222  28.142  34.166  1.00  0.00     0.029 A 
ATOM     57  C   UNL A   1      44.705  27.534  33.034  1.00  0.00     0.049 A 
ATOM     58  H   UNL A   1      42.991  28.044  31.916  1.00  0.00     0.167 HD
ATOM     59  C   UNL A   1      44.660  25.876  31.196  1.00  0.00     0.074 A 
ATOM     60  C   UNL A   1      45.212  24.763  30.451  1.00  0.00     0.031 C 
ATOM     61  C   UNL A   1      45.219  26.396  32.316  1.00  0.00     0.034 A 
BRANCH  48  62
ATOM     62  C   UNL A   1      42.253  31.342  34.533  1.00  0.00     0.023 A 
ATOM     63  C   UNL A   1      41.695  31.107  35.807  1.00  0.00     0.012 A 
ATOM     64  C   UNL A   1      42.833  32.595  34.254  1.00  0.00     0.148 A 
ATOM     65  C   UNL A   1      41.680  32.113  36.773  1.00  0.00     0.002 A 
ATOM     66  C   UNL A   1      42.857  33.577  35.238  1.00  0.00     0.091 A 
ATOM     67  F   UNL A   1      43.344  32.806  33.032  1.00  0.00    -0.205 F 
ATOM     68  C   UNL A   1      42.270  33.343  36.493  1.00  0.00     0.022 A 
BRANCH  66  69
ATOM     69  S   UNL A   1      43.666  35.164  35.005  1.00  0.00     0.127 S 
ATOM     70  O   UNL A   1      43.416  35.812  36.292  1.00  0.00    -0.237 OA
ATOM     71  O   UNL A   1      45.058  34.769  34.782  1.00  0.00    -0.237 OA
ATOM     72  O   UNL A   1      43.018  35.782  33.858  1.00  0.00    -0.744 OA
ENDBRANCH  66  69
ENDBRANCH  48  62
BRANCH  49  73
ATOM     73  C   UNL A   1      42.364  24.410  27.354  1.00  0.00     0.023 A 
ATOM     74  C   UNL A   1      43.186  24.651  26.235  1.00  0.00     0.012 A 
ATOM     75  C   UNL A   1      41.625  23.214  27.420  1.00  0.00     0.148 A 
ATOM     76  C   UNL A   1      43.243  23.735  25.186  1.00  0.00     0.002 A 
ATOM     77  C   UNL A   1      41.733  22.278  26.399  1.00  0.00     0.091 A 
ATOM     78  F   UNL A   1      40.842  23.008  28.488  1.00  0.00    -0.205 F 
ATOM     79  C   UNL A   1      42.526  22.544  25.272  1.00  0.00     0.022 A 
BRANCH  77  80
ATOM     80  S   UNL A   1      40.955  20.662  26.490  1.00  0.00     0.127 S 
ATOM     81  O   UNL A   1      39.614  20.947  25.985  1.00  0.00    -0.237 OA
ATOM     82  O   UNL A   1      41.797  19.871  25.591  1.00  0.00    -0.237 OA
ATOM     83  O   UNL A   1      41.035  20.266  27.888  1.00  0.00    -0.744 OA
ENDBRANCH  77  80
ENDBRANCH  49  73
BRANCH  61  84
ATOM     84  C   UNL A   1      46.473  25.746  32.842  1.00  0.00     0.023 A 
ATOM     85  C   UNL A   1      47.736  26.263  32.495  1.00  0.00     0.012 A 
ATOM     86  C   UNL A   1      46.393  24.663  33.742  1.00  0.00     0.148 A 
ATOM     87  C   UNL A   1      48.901  25.695  33.009  1.00  0.00     0.002 A 
ATOM     88  C   UNL A   1      47.555  24.135  34.290  1.00  0.00     0.091 A 
ATOM     89  F   UNL A   1      45.182  24.173  34.045  1.00  0.00    -0.205 F 
ATOM     90  C   UNL A   1      48.810  24.640  33.914  1.00  0.00     0.022 A 
BRANCH  88  91
ATOM     91  S   UNL A   1      47.531  22.844  35.538  1.00  0.00     0.127 S 
ATOM     92  O   UNL A   1      46.713  23.455  36.584  1.00  0.00    -0.237 OA
ATOM     93  O   UNL A   1      46.885  21.739  34.827  1.00  0.00    -0.237 OA
ATOM     94  O   UNL A   1      48.921  22.601  35.895  1.00  0.00    -0.744 OA
ENDBRANCH  88  91
ENDBRANCH  61  84
ENDBRANCH  35  36
ENDBRANCH  27  30
ENDBRANCH  25  26
ENDBRANCH  24  25
ENDBRANCH  23  24
ENDBRANCH   1  23
TORSDOF 21
ENDMDL
