MODEL 1
REMARK VINA RESULT:      -8.3      0.000      0.000
REMARK SMILES CC(C)(C)OC(=O)Nc1ccc(-c2cccc(Cl)c2C(=O)NCCCCCCNC(=O)c2ccc(-c3c4nc(c(-c5cccc(S(=O)(=O)[O-])c5F)c5ccc([nH]5)c(-c5cccc(S(=O)(=O)[O-])c5F)c5nc(c(-c6cccc(S(=O)(=O)[O-])c6F)c6ccc3[nH]6)C=C5)C=C4)cc2)cc1
REMARK SMILES IDX 25 1 24 2 23 3 22 4 20 5 21 6 19 8 13 9 14 10 15 11 17 12
REMARK SMILES IDX 16 13 18 14 12 15 9 16 10 17 96 18 11 19 95 20 8 21 6 22
REMARK SMILES IDX 7 23 5 25 2 26 1 27 3 28 4 29 26 30 27 31 28 32 29 33 30 34
REMARK SMILES IDX 31 36 32 37 33 38 94 39 34 40 93 41 35 42 36 43 37 44 87 45
REMARK SMILES IDX 38 46 92 47 86 48 88 49 39 50 91 51 85 52 84 53 40 55 72 56
REMARK SMILES IDX 52 57 71 58 53 59 56 60 70 61 89 62 54 63 55 64 69 66 90 67
REMARK SMILES IDX 57 68 41 69 42 70 50 71 43 72 45 73 51 74 44 75 46 76 47 77
REMARK SMILES IDX 48 78 49 79 73 80 74 81 82 82 75 83 77 84 83 85 76 86 78 87
REMARK SMILES IDX 79 88 80 89 81 90 58 91 59 92 67 93 60 94 62 95 68 96 61 97
REMARK SMILES IDX 63 98 64 99 65 100 66 101
REMARK H PARENT 22 7 8 24 29 35 88 54 56 65
REMARK Flexibility Score: inf
ROOT
ATOM      1  C   UNL A   1      42.286  35.518  36.974  1.00  0.00     0.002 C 
ENDROOT
BRANCH   1   2
ATOM      2  C   UNL A   1      42.179  34.794  35.633  1.00  0.00     0.021 C 
BRANCH   2   3
ATOM      3  C   UNL A   1      41.043  35.163  34.690  1.00  0.00     0.116 C 
BRANCH   3   4
ATOM      4  N   UNL A   1      39.688  35.024  35.151  1.00  0.00    -0.352 N 
ATOM      5  C   UNL A   1      39.008  33.885  35.550  1.00  0.00     0.253 C 
ATOM      6  O   UNL A   1      38.120  34.093  36.385  1.00  0.00    -0.269 OA
ATOM      7  H   UNL A   1      39.168  35.858  35.188  1.00  0.00     0.163 HD
BRANCH   5   8
ATOM      8  C   UNL A   1      39.186  32.462  35.049  1.00  0.00     0.066 A 
ATOM      9  C   UNL A   1      38.653  31.870  33.867  1.00  0.00    -0.004 A 
ATOM     10  C   UNL A   1      39.113  30.585  33.461  1.00  0.00     0.009 A 
ATOM     11  C   UNL A   1      40.059  29.867  34.174  1.00  0.00     0.002 A 
ATOM     12  C   UNL A   1      40.115  31.669  35.790  1.00  0.00     0.054 A 
ATOM     13  C   UNL A   1      40.548  30.406  35.347  1.00  0.00     0.021 A 
ATOM     14  Cl  UNL A   1      40.748  32.112  37.353  1.00  0.00    -0.083 Cl
BRANCH   9  15
ATOM     15  C   UNL A   1      37.603  32.403  32.992  1.00  0.00    -0.017 A 
ATOM     16  C   UNL A   1      35.714  33.472  31.175  1.00  0.00     0.044 A 
ATOM     17  C   UNL A   1      36.807  34.240  31.588  1.00  0.00     0.027 A 
ATOM     18  C   UNL A   1      35.528  32.211  31.750  1.00  0.00     0.027 A 
ATOM     19  C   UNL A   1      37.728  33.721  32.497  1.00  0.00     0.011 A 
ATOM     20  C   UNL A   1      36.462  31.679  32.652  1.00  0.00     0.011 A 
BRANCH  16  21
ATOM     21  N   UNL A   1      34.918  34.024  30.160  1.00  0.00    -0.291 N 
ATOM     22  C   UNL A   1      33.668  34.584  30.176  1.00  0.00     0.412 C 
ATOM     23  O   UNL A   1      33.140  34.896  29.114  1.00  0.00    -0.224 OA
ATOM     24  H   UNL A   1      35.335  34.006  29.269  1.00  0.00     0.173 HD
BRANCH  22  25
ATOM     25  O   UNL A   1      33.096  34.701  31.391  1.00  0.00    -0.444 OA
BRANCH  25  26
ATOM     26  C   UNL A   1      33.058  35.969  32.098  1.00  0.00     0.106 C 
ATOM     27  C   UNL A   1      31.637  36.043  32.664  1.00  0.00     0.056 C 
ATOM     28  C   UNL A   1      33.283  37.133  31.129  1.00  0.00     0.056 C 
ATOM     29  C   UNL A   1      34.049  36.039  33.259  1.00  0.00     0.056 C 
ENDBRANCH  25  26
ENDBRANCH  22  25
ENDBRANCH  16  21
ENDBRANCH   9  15
ENDBRANCH   5   8
ENDBRANCH   3   4
ENDBRANCH   2   3
ENDBRANCH   1   2
BRANCH   1  30
ATOM     30  C   UNL A   1      43.684  35.781  37.546  1.00  0.00     0.002 C 
BRANCH  30  31
ATOM     31  C   UNL A   1      44.004  35.209  38.929  1.00  0.00     0.021 C 
BRANCH  31  32
ATOM     32  C   UNL A   1      45.475  35.094  39.328  1.00  0.00     0.116 C 
BRANCH  32  33
ATOM     33  N   UNL A   1      45.705  34.051  40.312  1.00  0.00    -0.352 N 
ATOM     34  C   UNL A   1      45.590  32.681  40.231  1.00  0.00     0.251 C 
ATOM     35  H   UNL A   1      45.994  34.382  41.193  1.00  0.00     0.163 HD
ATOM     36  O   UNL A   1      45.656  32.037  41.279  1.00  0.00    -0.269 OA
BRANCH  34  37
ATOM     37  C   UNL A   1      45.392  31.950  38.948  1.00  0.00     0.039 A 
ATOM     38  C   UNL A   1      44.132  31.386  38.700  1.00  0.00     0.014 A 
ATOM     39  C   UNL A   1      46.421  31.717  38.033  1.00  0.00     0.014 A 
ATOM     40  C   UNL A   1      43.896  30.633  37.539  1.00  0.00     0.010 A 
ATOM     41  C   UNL A   1      46.163  31.027  36.837  1.00  0.00     0.010 A 
ATOM     42  C   UNL A   1      44.902  30.463  36.575  1.00  0.00    -0.014 A 
BRANCH  42  43
ATOM     43  C   UNL A   1      44.646  29.697  35.311  1.00  0.00     0.031 A 
ATOM     44  C   UNL A   1      43.993  30.360  34.126  1.00  0.00     0.074 A 
ATOM     45  C   UNL A   1      44.955  28.386  35.223  1.00  0.00     0.049 A 
ATOM     46  N   UNL A   1      43.682  29.848  32.961  1.00  0.00    -0.248 NA
ATOM     47  C   UNL A   1      43.632  31.779  34.267  1.00  0.00     0.031 C 
ATOM     48  C   UNL A   1      45.565  27.601  36.289  1.00  0.00     0.029 A 
ATOM     49  N   UNL A   1      44.783  27.471  34.208  1.00  0.00    -0.354 N 
ATOM     50  C   UNL A   1      43.070  30.868  32.244  1.00  0.00     0.074 A 
ATOM     51  C   UNL A   1      43.013  32.019  33.119  1.00  0.00     0.031 C 
ATOM     52  C   UNL A   1      45.702  26.326  35.894  1.00  0.00     0.029 A 
ATOM     53  C   UNL A   1      45.178  26.192  34.540  1.00  0.00     0.049 A 
ATOM     54  H   UNL A   1      44.411  27.707  33.328  1.00  0.00     0.167 HD
ATOM     55  C   UNL A   1      42.625  30.865  30.964  1.00  0.00     0.034 A 
ATOM     56  C   UNL A   1      45.129  25.039  33.845  1.00  0.00     0.034 A 
ATOM     57  C   UNL A   1      42.704  29.734  30.076  1.00  0.00     0.049 A 
ATOM     58  C   UNL A   1      44.616  25.058  32.430  1.00  0.00     0.074 A 
ATOM     59  C   UNL A   1      42.348  29.665  28.740  1.00  0.00     0.029 A 
ATOM     60  N   UNL A   1      43.151  28.472  30.434  1.00  0.00    -0.354 N 
ATOM     61  N   UNL A   1      44.182  26.073  31.724  1.00  0.00    -0.248 NA
ATOM     62  C   UNL A   1      44.627  23.781  31.700  1.00  0.00     0.031 C 
ATOM     63  C   UNL A   1      42.540  28.350  28.302  1.00  0.00     0.029 A 
ATOM     64  C   UNL A   1      43.059  27.611  29.353  1.00  0.00     0.049 A 
ATOM     65  H   UNL A   1      43.484  28.223  31.327  1.00  0.00     0.167 HD
ATOM     66  C   UNL A   1      43.916  25.569  30.456  1.00  0.00     0.074 A 
ATOM     67  C   UNL A   1      44.249  24.161  30.487  1.00  0.00     0.031 C 
ATOM     68  C   UNL A   1      43.433  26.220  29.369  1.00  0.00     0.034 A 
BRANCH  55  69
ATOM     69  C   UNL A   1      42.038  32.148  30.429  1.00  0.00     0.023 A 
ATOM     70  C   UNL A   1      40.650  32.377  30.530  1.00  0.00     0.012 A 
ATOM     71  C   UNL A   1      42.862  33.143  29.869  1.00  0.00     0.148 A 
ATOM     72  C   UNL A   1      40.086  33.554  30.038  1.00  0.00     0.002 A 
ATOM     73  C   UNL A   1      42.299  34.334  29.427  1.00  0.00     0.091 A 
ATOM     74  F   UNL A   1      44.177  32.902  29.765  1.00  0.00    -0.205 F 
ATOM     75  C   UNL A   1      40.910  34.535  29.495  1.00  0.00     0.022 A 
BRANCH  73  76
ATOM     76  S   UNL A   1      43.285  35.693  28.787  1.00  0.00     0.127 S 
ATOM     77  O   UNL A   1      43.987  36.138  29.990  1.00  0.00    -0.237 OA
ATOM     78  O   UNL A   1      44.132  35.021  27.801  1.00  0.00    -0.237 OA
ATOM     79  O   UNL A   1      42.339  36.648  28.227  1.00  0.00    -0.744 OA
ENDBRANCH  73  76
ENDBRANCH  55  69
BRANCH  56  80
ATOM     80  C   UNL A   1      45.650  23.774  34.444  1.00  0.00     0.023 A 
ATOM     81  C   UNL A   1      44.744  22.840  34.983  1.00  0.00     0.012 A 
ATOM     82  C   UNL A   1      47.029  23.491  34.479  1.00  0.00     0.148 A 
ATOM     83  C   UNL A   1      45.201  21.665  35.580  1.00  0.00     0.002 A 
ATOM     84  C   UNL A   1      47.476  22.293  35.027  1.00  0.00     0.091 A 
ATOM     85  F   UNL A   1      47.877  24.394  33.969  1.00  0.00    -0.205 F 
ATOM     86  C   UNL A   1      46.565  21.388  35.596  1.00  0.00     0.022 A 
BRANCH  84  87
ATOM     87  S   UNL A   1      49.201  21.793  34.990  1.00  0.00     0.127 S 
ATOM     88  O   UNL A   1      49.151  20.491  35.652  1.00  0.00    -0.237 OA
ATOM     89  O   UNL A   1      49.466  21.744  33.551  1.00  0.00    -0.237 OA
ATOM     90  O   UNL A   1      49.931  22.833  35.701  1.00  0.00    -0.744 OA
ENDBRANCH  84  87
ENDBRANCH  56  80
BRANCH  68  91
ATOM     91  C   UNL A   1      43.277  25.432  28.092  1.00  0.00     0.023 A 
ATOM     92  C   UNL A   1      41.994  25.069  27.637  1.00  0.00     0.012 A 
ATOM     93  C   UNL A   1      44.404  25.108  27.310  1.00  0.00     0.148 A 
ATOM     94  C   UNL A   1      41.838  24.366  26.442  1.00  0.00     0.002 A 
ATOM     95  C   UNL A   1      44.237  24.456  26.094  1.00  0.00     0.091 A 
ATOM     96  F   UNL A   1      45.618  25.445  27.768  1.00  0.00    -0.205 F 
ATOM     97  C   UNL A   1      42.956  24.071  25.666  1.00  0.00     0.022 A 
BRANCH  95  98
ATOM     98  S   UNL A   1      45.606  24.122  24.981  1.00  0.00     0.127 S 
ATOM     99  O   UNL A   1      44.940  23.404  23.896  1.00  0.00    -0.237 OA
ATOM    100  O   UNL A   1      46.057  25.471  24.634  1.00  0.00    -0.237 OA
ATOM    101  O   UNL A   1      46.568  23.340  25.746  1.00  0.00    -0.744 OA
ENDBRANCH  95  98
ENDBRANCH  68  91
ENDBRANCH  42  43
ENDBRANCH  34  37
ENDBRANCH  32  33
ENDBRANCH  31  32
ENDBRANCH  30  31
ENDBRANCH   1  30
TORSDOF 20
ENDMDL
MODEL 2
REMARK VINA RESULT:      -8.2      4.841     10.169
REMARK SMILES CC(C)(C)OC(=O)Nc1ccc(-c2cccc(Cl)c2C(=O)NCCCCCCNC(=O)c2ccc(-c3c4nc(c(-c5cccc(S(=O)(=O)[O-])c5F)c5ccc([nH]5)c(-c5cccc(S(=O)(=O)[O-])c5F)c5nc(c(-c6cccc(S(=O)(=O)[O-])c6F)c6ccc3[nH]6)C=C5)C=C4)cc2)cc1
REMARK SMILES IDX 25 1 24 2 23 3 22 4 20 5 21 6 19 8 13 9 14 10 15 11 17 12
REMARK SMILES IDX 16 13 18 14 12 15 9 16 10 17 96 18 11 19 95 20 8 21 6 22
REMARK SMILES IDX 7 23 5 25 2 26 1 27 3 28 4 29 26 30 27 31 28 32 29 33 30 34
REMARK SMILES IDX 31 36 32 37 33 38 94 39 34 40 93 41 35 42 36 43 37 44 87 45
REMARK SMILES IDX 38 46 92 47 86 48 88 49 39 50 91 51 85 52 84 53 40 55 72 56
REMARK SMILES IDX 52 57 71 58 53 59 56 60 70 61 89 62 54 63 55 64 69 66 90 67
REMARK SMILES IDX 57 68 41 69 42 70 50 71 43 72 45 73 51 74 44 75 46 76 47 77
REMARK SMILES IDX 48 78 49 79 73 80 74 81 82 82 75 83 77 84 83 85 76 86 78 87
REMARK SMILES IDX 79 88 80 89 81 90 58 91 59 92 67 93 60 94 62 95 68 96 61 97
REMARK SMILES IDX 63 98 64 99 65 100 66 101
REMARK H PARENT 22 7 8 24 29 35 88 54 56 65
REMARK Flexibility Score: inf
ROOT
ATOM      1  C   UNL A   1      40.276  28.957  26.517  1.00  0.00     0.002 C 
ENDROOT
BRANCH   1   2
ATOM      2  C   UNL A   1      41.332  27.888  26.241  1.00  0.00     0.021 C 
BRANCH   2   3
ATOM      3  C   UNL A   1      40.894  26.434  26.135  1.00  0.00     0.116 C 
BRANCH   3   4
ATOM      4  N   UNL A   1      39.857  25.959  27.010  1.00  0.00    -0.352 N 
ATOM      5  C   UNL A   1      39.795  24.786  27.743  1.00  0.00     0.253 C 
ATOM      6  O   UNL A   1      39.127  24.872  28.781  1.00  0.00    -0.269 OA
ATOM      7  H   UNL A   1      39.078  26.553  27.101  1.00  0.00     0.163 HD
BRANCH   5   8
ATOM      8  C   UNL A   1      40.387  23.430  27.398  1.00  0.00     0.066 A 
ATOM      9  C   UNL A   1      39.843  22.419  26.554  1.00  0.00    -0.004 A 
ATOM     10  C   UNL A   1      40.653  21.309  26.182  1.00  0.00     0.009 A 
ATOM     11  C   UNL A   1      41.959  21.155  26.615  1.00  0.00     0.002 A 
ATOM     12  C   UNL A   1      41.717  23.210  27.871  1.00  0.00     0.054 A 
ATOM     13  C   UNL A   1      42.485  22.101  27.472  1.00  0.00     0.021 A 
ATOM     14  Cl  UNL A   1      42.511  24.216  29.055  1.00  0.00    -0.083 Cl
BRANCH   9  15
ATOM     15  C   UNL A   1      38.476  22.329  26.029  1.00  0.00    -0.017 A 
ATOM     16  C   UNL A   1      35.831  21.979  25.084  1.00  0.00     0.044 A 
ATOM     17  C   UNL A   1      36.837  21.085  24.708  1.00  0.00     0.027 A 
ATOM     18  C   UNL A   1      36.180  23.094  25.853  1.00  0.00     0.027 A 
ATOM     19  C   UNL A   1      38.145  21.267  25.159  1.00  0.00     0.011 A 
ATOM     20  C   UNL A   1      37.490  23.271  26.321  1.00  0.00     0.011 A 
BRANCH  16  21
ATOM     21  N   UNL A   1      34.526  21.641  24.694  1.00  0.00    -0.291 N 
ATOM     22  C   UNL A   1      33.434  22.406  24.380  1.00  0.00     0.412 C 
ATOM     23  O   UNL A   1      32.358  21.854  24.176  1.00  0.00    -0.224 OA
ATOM     24  H   UNL A   1      34.364  20.672  24.634  1.00  0.00     0.173 HD
BRANCH  22  25
ATOM     25  O   UNL A   1      33.638  23.738  24.371  1.00  0.00    -0.444 OA
BRANCH  25  26
ATOM     26  C   UNL A   1      32.772  24.647  25.100  1.00  0.00     0.106 C 
ATOM     27  C   UNL A   1      32.524  23.942  26.437  1.00  0.00     0.056 C 
ATOM     28  C   UNL A   1      31.442  24.830  24.365  1.00  0.00     0.056 C 
ATOM     29  C   UNL A   1      33.422  26.002  25.377  1.00  0.00     0.056 C 
ENDBRANCH  25  26
ENDBRANCH  22  25
ENDBRANCH  16  21
ENDBRANCH   9  15
ENDBRANCH   5   8
ENDBRANCH   3   4
ENDBRANCH   2   3
ENDBRANCH   1   2
BRANCH   1  30
ATOM     30  C   UNL A   1      39.782  29.131  27.958  1.00  0.00     0.002 C 
BRANCH  30  31
ATOM     31  C   UNL A   1      38.305  29.478  28.165  1.00  0.00     0.021 C 
BRANCH  31  32
ATOM     32  C   UNL A   1      37.975  30.825  28.807  1.00  0.00     0.116 C 
BRANCH  32  33
ATOM     33  N   UNL A   1      37.252  30.682  30.059  1.00  0.00    -0.352 N 
ATOM     34  C   UNL A   1      37.557  29.996  31.213  1.00  0.00     0.251 C 
ATOM     35  H   UNL A   1      36.392  31.160  30.087  1.00  0.00     0.163 HD
ATOM     36  O   UNL A   1      36.671  29.878  32.061  1.00  0.00    -0.269 OA
BRANCH  34  37
ATOM     37  C   UNL A   1      38.894  29.396  31.480  1.00  0.00     0.039 A 
ATOM     38  C   UNL A   1      39.982  30.264  31.660  1.00  0.00     0.014 A 
ATOM     39  C   UNL A   1      39.133  28.021  31.462  1.00  0.00     0.014 A 
ATOM     40  C   UNL A   1      41.278  29.764  31.855  1.00  0.00     0.010 A 
ATOM     41  C   UNL A   1      40.418  27.521  31.731  1.00  0.00     0.010 A 
ATOM     42  C   UNL A   1      41.514  28.382  31.920  1.00  0.00    -0.014 A 
BRANCH  42  43
ATOM     43  C   UNL A   1      42.889  27.838  32.171  1.00  0.00     0.031 A 
ATOM     44  C   UNL A   1      43.796  27.475  31.025  1.00  0.00     0.074 A 
ATOM     45  C   UNL A   1      43.326  27.618  33.430  1.00  0.00     0.049 A 
ATOM     46  N   UNL A   1      45.008  26.978  31.057  1.00  0.00    -0.248 NA
ATOM     47  C   UNL A   1      43.276  27.688  29.665  1.00  0.00     0.031 C 
ATOM     48  C   UNL A   1      42.557  27.893  34.637  1.00  0.00     0.029 A 
ATOM     49  N   UNL A   1      44.505  27.096  33.911  1.00  0.00    -0.354 N 
ATOM     50  C   UNL A   1      45.383  26.796  29.731  1.00  0.00     0.074 A 
ATOM     51  C   UNL A   1      44.255  27.196  28.919  1.00  0.00     0.031 C 
ATOM     52  C   UNL A   1      43.261  27.525  35.719  1.00  0.00     0.029 A 
ATOM     53  C   UNL A   1      44.539  26.974  35.284  1.00  0.00     0.049 A 
ATOM     54  H   UNL A   1      45.254  26.833  33.330  1.00  0.00     0.167 HD
ATOM     55  C   UNL A   1      46.567  26.369  29.229  1.00  0.00     0.034 A 
ATOM     56  C   UNL A   1      45.483  26.478  36.109  1.00  0.00     0.034 A 
ATOM     57  C   UNL A   1      47.705  25.997  30.029  1.00  0.00     0.049 A 
ATOM     58  C   UNL A   1      46.784  25.994  35.526  1.00  0.00     0.074 A 
ATOM     59  C   UNL A   1      48.970  25.627  29.604  1.00  0.00     0.029 A 
ATOM     60  N   UNL A   1      47.716  25.929  31.414  1.00  0.00    -0.354 N 
ATOM     61  N   UNL A   1      47.169  25.975  34.274  1.00  0.00    -0.248 NA
ATOM     62  C   UNL A   1      47.797  25.506  36.473  1.00  0.00     0.031 C 
ATOM     63  C   UNL A   1      49.731  25.294  30.729  1.00  0.00     0.029 A 
ATOM     64  C   UNL A   1      48.956  25.501  31.859  1.00  0.00     0.049 A 
ATOM     65  H   UNL A   1      46.954  26.152  31.996  1.00  0.00     0.167 HD
ATOM     66  C   UNL A   1      48.483  25.522  34.287  1.00  0.00     0.074 A 
ATOM     67  C   UNL A   1      48.832  25.289  35.672  1.00  0.00     0.031 C 
ATOM     68  C   UNL A   1      49.319  25.313  33.240  1.00  0.00     0.034 A 
BRANCH  55  69
ATOM     69  C   UNL A   1      46.706  26.313  27.728  1.00  0.00     0.023 A 
ATOM     70  C   UNL A   1      47.248  27.415  27.033  1.00  0.00     0.012 A 
ATOM     71  C   UNL A   1      46.342  25.157  27.010  1.00  0.00     0.148 A 
ATOM     72  C   UNL A   1      47.380  27.385  25.646  1.00  0.00     0.002 A 
ATOM     73  C   UNL A   1      46.524  25.116  25.633  1.00  0.00     0.091 A 
ATOM     74  F   UNL A   1      45.813  24.125  27.684  1.00  0.00    -0.205 F 
ATOM     75  C   UNL A   1      47.027  26.234  24.947  1.00  0.00     0.022 A 
BRANCH  73  76
ATOM     76  S   UNL A   1      46.177  23.651  24.653  1.00  0.00     0.127 S 
ATOM     77  O   UNL A   1      46.419  22.584  25.624  1.00  0.00    -0.237 OA
ATOM     78  O   UNL A   1      44.772  23.844  24.297  1.00  0.00    -0.237 OA
ATOM     79  O   UNL A   1      47.101  23.692  23.528  1.00  0.00    -0.744 OA
ENDBRANCH  73  76
ENDBRANCH  55  69
BRANCH  56  80
ATOM     80  C   UNL A   1      45.270  26.480  37.587  1.00  0.00     0.023 A 
ATOM     81  C   UNL A   1      44.698  25.351  38.205  1.00  0.00     0.012 A 
ATOM     82  C   UNL A   1      45.633  27.586  38.380  1.00  0.00     0.148 A 
ATOM     83  C   UNL A   1      44.455  25.336  39.578  1.00  0.00     0.002 A 
ATOM     84  C   UNL A   1      45.438  27.544  39.757  1.00  0.00     0.091 A 
ATOM     85  F   UNL A   1      46.169  28.654  37.774  1.00  0.00    -0.205 F 
ATOM     86  C   UNL A   1      44.831  26.427  40.355  1.00  0.00     0.022 A 
BRANCH  84  87
ATOM     87  S   UNL A   1      45.996  28.851  40.856  1.00  0.00     0.127 S 
ATOM     88  O   UNL A   1      45.305  28.514  42.098  1.00  0.00    -0.237 OA
ATOM     89  O   UNL A   1      47.442  28.629  40.874  1.00  0.00    -0.237 OA
ATOM     90  O   UNL A   1      45.587  30.099  40.226  1.00  0.00    -0.744 OA
ENDBRANCH  84  87
ENDBRANCH  56  80
BRANCH  68  91
ATOM     91  C   UNL A   1      50.723  24.852  33.545  1.00  0.00     0.023 A 
ATOM     92  C   UNL A   1      51.725  25.792  33.856  1.00  0.00     0.012 A 
ATOM     93  C   UNL A   1      51.030  23.477  33.586  1.00  0.00     0.148 A 
ATOM     94  C   UNL A   1      53.018  25.372  34.169  1.00  0.00     0.002 A 
ATOM     95  C   UNL A   1      52.306  23.065  33.951  1.00  0.00     0.091 A 
ATOM     96  F   UNL A   1      50.068  22.598  33.269  1.00  0.00    -0.205 F 
ATOM     97  C   UNL A   1      53.305  24.011  34.228  1.00  0.00     0.022 A 
BRANCH  95  98
ATOM     98  S   UNL A   1      52.741  21.334  34.152  1.00  0.00     0.127 S 
ATOM     99  O   UNL A   1      54.201  21.391  34.150  1.00  0.00    -0.237 OA
ATOM    100  O   UNL A   1      52.143  21.014  35.450  1.00  0.00    -0.237 OA
ATOM    101  O   UNL A   1      52.144  20.633  33.022  1.00  0.00    -0.744 OA
ENDBRANCH  95  98
ENDBRANCH  68  91
ENDBRANCH  42  43
ENDBRANCH  34  37
ENDBRANCH  32  33
ENDBRANCH  31  32
ENDBRANCH  30  31
ENDBRANCH   1  30
TORSDOF 20
ENDMDL
MODEL 3
REMARK VINA RESULT:      -8.2      6.746     10.624
REMARK SMILES CC(C)(C)OC(=O)Nc1ccc(-c2cccc(Cl)c2C(=O)NCCCCCCNC(=O)c2ccc(-c3c4nc(c(-c5cccc(S(=O)(=O)[O-])c5F)c5ccc([nH]5)c(-c5cccc(S(=O)(=O)[O-])c5F)c5nc(c(-c6cccc(S(=O)(=O)[O-])c6F)c6ccc3[nH]6)C=C5)C=C4)cc2)cc1
REMARK SMILES IDX 25 1 24 2 23 3 22 4 20 5 21 6 19 8 13 9 14 10 15 11 17 12
REMARK SMILES IDX 16 13 18 14 12 15 9 16 10 17 96 18 11 19 95 20 8 21 6 22
REMARK SMILES IDX 7 23 5 25 2 26 1 27 3 28 4 29 26 30 27 31 28 32 29 33 30 34
REMARK SMILES IDX 31 36 32 37 33 38 94 39 34 40 93 41 35 42 36 43 37 44 87 45
REMARK SMILES IDX 38 46 92 47 86 48 88 49 39 50 91 51 85 52 84 53 40 55 72 56
REMARK SMILES IDX 52 57 71 58 53 59 56 60 70 61 89 62 54 63 55 64 69 66 90 67
REMARK SMILES IDX 57 68 41 69 42 70 50 71 43 72 45 73 51 74 44 75 46 76 47 77
REMARK SMILES IDX 48 78 49 79 73 80 74 81 82 82 75 83 77 84 83 85 76 86 78 87
REMARK SMILES IDX 79 88 80 89 81 90 58 91 59 92 67 93 60 94 62 95 68 96 61 97
REMARK SMILES IDX 63 98 64 99 65 100 66 101
REMARK H PARENT 22 7 8 24 29 35 88 54 56 65
REMARK Flexibility Score: inf
ROOT
ATOM      1  C   UNL A   1      41.893  42.077  31.723  1.00  0.00     0.002 C 
ENDROOT
BRANCH   1   2
ATOM      2  C   UNL A   1      42.280  41.679  30.299  1.00  0.00     0.021 C 
BRANCH   2   3
ATOM      3  C   UNL A   1      41.417  40.667  29.560  1.00  0.00     0.116 C 
BRANCH   3   4
ATOM      4  N   UNL A   1      41.042  40.941  28.199  1.00  0.00    -0.352 N 
ATOM      5  C   UNL A   1      41.503  40.365  27.028  1.00  0.00     0.253 C 
ATOM      6  O   UNL A   1      40.675  40.357  26.108  1.00  0.00    -0.269 OA
ATOM      7  H   UNL A   1      40.359  41.639  28.083  1.00  0.00     0.163 HD
BRANCH   5   8
ATOM      8  C   UNL A   1      42.887  39.811  26.734  1.00  0.00     0.066 A 
ATOM      9  C   UNL A   1      43.992  40.476  26.128  1.00  0.00    -0.004 A 
ATOM     10  C   UNL A   1      45.273  39.855  26.140  1.00  0.00     0.009 A 
ATOM     11  C   UNL A   1      45.499  38.613  26.710  1.00  0.00     0.002 A 
ATOM     12  C   UNL A   1      43.144  38.508  27.261  1.00  0.00     0.054 A 
ATOM     13  C   UNL A   1      44.429  37.934  27.258  1.00  0.00     0.021 A 
ATOM     14  Cl  UNL A   1      41.909  37.443  27.877  1.00  0.00    -0.083 Cl
BRANCH   9  15
ATOM     15  C   UNL A   1      43.985  41.756  25.410  1.00  0.00    -0.017 A 
ATOM     16  C   UNL A   1      44.154  44.191  23.979  1.00  0.00     0.044 A 
ATOM     17  C   UNL A   1      45.052  43.920  25.015  1.00  0.00     0.027 A 
ATOM     18  C   UNL A   1      43.121  43.281  23.733  1.00  0.00     0.027 A 
ATOM     19  C   UNL A   1      44.958  42.728  25.733  1.00  0.00     0.011 A 
ATOM     20  C   UNL A   1      43.034  42.073  24.442  1.00  0.00     0.011 A 
BRANCH  16  21
ATOM     21  N   UNL A   1      44.408  45.350  23.228  1.00  0.00    -0.291 N 
ATOM     22  C   UNL A   1      45.280  45.607  22.204  1.00  0.00     0.412 C 
ATOM     23  O   UNL A   1      45.387  46.756  21.786  1.00  0.00    -0.224 OA
ATOM     24  H   UNL A   1      43.855  46.122  23.486  1.00  0.00     0.173 HD
BRANCH  22  25
ATOM     25  O   UNL A   1      45.997  44.553  21.768  1.00  0.00    -0.444 OA
BRANCH  25  26
ATOM     26  C   UNL A   1      45.545  43.728  20.662  1.00  0.00     0.106 C 
ATOM     27  C   UNL A   1      46.634  43.894  19.598  1.00  0.00     0.056 C 
ATOM     28  C   UNL A   1      44.212  44.244  20.114  1.00  0.00     0.056 C 
ATOM     29  C   UNL A   1      45.439  42.247  21.023  1.00  0.00     0.056 C 
ENDBRANCH  25  26
ENDBRANCH  22  25
ENDBRANCH  16  21
ENDBRANCH   9  15
ENDBRANCH   5   8
ENDBRANCH   3   4
ENDBRANCH   2   3
ENDBRANCH   1   2
BRANCH   1  30
ATOM     30  C   UNL A   1      42.621  43.261  32.368  1.00  0.00     0.002 C 
BRANCH  30  31
ATOM     31  C   UNL A   1      42.504  43.426  33.885  1.00  0.00     0.021 C 
BRANCH  31  32
ATOM     32  C   UNL A   1      42.946  42.255  34.764  1.00  0.00     0.116 C 
BRANCH  32  33
ATOM     33  N   UNL A   1      44.384  42.225  34.966  1.00  0.00    -0.352 N 
ATOM     34  C   UNL A   1      45.319  41.248  34.709  1.00  0.00     0.251 C 
ATOM     35  H   UNL A   1      44.755  43.049  35.356  1.00  0.00     0.163 HD
ATOM     36  O   UNL A   1      46.453  41.407  35.162  1.00  0.00    -0.269 OA
BRANCH  34  37
ATOM     37  C   UNL A   1      45.025  40.020  33.918  1.00  0.00     0.039 A 
ATOM     38  C   UNL A   1      45.454  38.787  34.432  1.00  0.00     0.014 A 
ATOM     39  C   UNL A   1      44.435  40.048  32.653  1.00  0.00     0.014 A 
ATOM     40  C   UNL A   1      45.263  37.600  33.708  1.00  0.00     0.010 A 
ATOM     41  C   UNL A   1      44.177  38.851  31.964  1.00  0.00     0.010 A 
ATOM     42  C   UNL A   1      44.597  37.609  32.473  1.00  0.00    -0.014 A 
BRANCH  42  43
ATOM     43  C   UNL A   1      44.349  36.340  31.713  1.00  0.00     0.031 A 
ATOM     44  C   UNL A   1      43.242  35.401  32.120  1.00  0.00     0.074 A 
ATOM     45  C   UNL A   1      45.140  35.989  30.677  1.00  0.00     0.049 A 
ATOM     46  N   UNL A   1      42.895  34.255  31.588  1.00  0.00    -0.248 NA
ATOM     47  C   UNL A   1      42.423  35.793  33.277  1.00  0.00     0.031 C 
ATOM     48  C   UNL A   1      46.263  36.776  30.184  1.00  0.00     0.029 A 
ATOM     49  N   UNL A   1      45.145  34.877  29.865  1.00  0.00    -0.354 N 
ATOM     50  C   UNL A   1      41.841  33.779  32.357  1.00  0.00     0.074 A 
ATOM     51  C   UNL A   1      41.631  34.739  33.419  1.00  0.00     0.031 C 
ATOM     52  C   UNL A   1      46.864  36.129  29.174  1.00  0.00     0.029 A 
ATOM     53  C   UNL A   1      46.174  34.864  28.948  1.00  0.00     0.049 A 
ATOM     54  H   UNL A   1      44.476  34.158  29.933  1.00  0.00     0.167 HD
ATOM     55  C   UNL A   1      41.090  32.665  32.182  1.00  0.00     0.034 A 
ATOM     56  C   UNL A   1      46.531  33.947  28.027  1.00  0.00     0.034 A 
ATOM     57  C   UNL A   1      41.273  31.719  31.111  1.00  0.00     0.049 A 
ATOM     58  C   UNL A   1      45.691  32.709  27.861  1.00  0.00     0.074 A 
ATOM     59  C   UNL A   1      40.510  30.603  30.811  1.00  0.00     0.029 A 
ATOM     60  N   UNL A   1      42.296  31.763  30.177  1.00  0.00    -0.354 N 
ATOM     61  N   UNL A   1      44.606  32.358  28.506  1.00  0.00    -0.248 NA
ATOM     62  C   UNL A   1      46.098  31.764  26.811  1.00  0.00     0.031 C 
ATOM     63  C   UNL A   1      41.097  29.950  29.723  1.00  0.00     0.029 A 
ATOM     64  C   UNL A   1      42.199  30.683  29.314  1.00  0.00     0.049 A 
ATOM     65  H   UNL A   1      42.991  32.460  30.133  1.00  0.00     0.167 HD
ATOM     66  C   UNL A   1      44.174  31.180  27.909  1.00  0.00     0.074 A 
ATOM     67  C   UNL A   1      45.106  30.883  26.842  1.00  0.00     0.031 C 
ATOM     68  C   UNL A   1      43.101  30.412  28.224  1.00  0.00     0.034 A 
BRANCH  55  69
ATOM     69  C   UNL A   1      39.968  32.422  33.160  1.00  0.00     0.023 A 
ATOM     70  C   UNL A   1      40.201  31.645  34.314  1.00  0.00     0.012 A 
ATOM     71  C   UNL A   1      38.698  32.997  32.961  1.00  0.00     0.148 A 
ATOM     72  C   UNL A   1      39.176  31.405  35.228  1.00  0.00     0.002 A 
ATOM     73  C   UNL A   1      37.695  32.795  33.902  1.00  0.00     0.091 A 
ATOM     74  F   UNL A   1      38.488  33.719  31.851  1.00  0.00    -0.205 F 
ATOM     75  C   UNL A   1      37.928  31.986  35.027  1.00  0.00     0.022 A 
BRANCH  73  76
ATOM     76  S   UNL A   1      36.079  33.567  33.777  1.00  0.00     0.127 S 
ATOM     77  O   UNL A   1      35.550  33.364  35.126  1.00  0.00    -0.237 OA
ATOM     78  O   UNL A   1      36.424  34.953  33.461  1.00  0.00    -0.237 OA
ATOM     79  O   UNL A   1      35.375  32.859  32.717  1.00  0.00    -0.744 OA
ENDBRANCH  73  76
ENDBRANCH  55  69
BRANCH  56  80
ATOM     80  C   UNL A   1      47.700  34.194  27.131  1.00  0.00     0.023 A 
ATOM     81  C   UNL A   1      47.527  34.962  25.963  1.00  0.00     0.012 A 
ATOM     82  C   UNL A   1      48.977  33.679  27.430  1.00  0.00     0.148 A 
ATOM     83  C   UNL A   1      48.592  35.181  25.089  1.00  0.00     0.002 A 
ATOM     84  C   UNL A   1      50.047  33.946  26.582  1.00  0.00     0.091 A 
ATOM     85  F   UNL A   1      49.122  32.944  28.540  1.00  0.00    -0.205 F 
ATOM     86  C   UNL A   1      49.852  34.681  25.401  1.00  0.00     0.022 A 
BRANCH  84  87
ATOM     87  S   UNL A   1      51.731  33.445  26.957  1.00  0.00     0.127 S 
ATOM     88  O   UNL A   1      52.378  33.564  25.653  1.00  0.00    -0.237 OA
ATOM     89  O   UNL A   1      52.131  34.453  27.939  1.00  0.00    -0.237 OA
ATOM     90  O   UNL A   1      51.632  32.092  27.490  1.00  0.00    -0.744 OA
ENDBRANCH  84  87
ENDBRANCH  56  80
BRANCH  68  91
ATOM     91  C   UNL A   1      42.837  29.193  27.376  1.00  0.00     0.023 A 
ATOM     92  C   UNL A   1      42.099  29.309  26.181  1.00  0.00     0.012 A 
ATOM     93  C   UNL A   1      43.379  27.942  27.734  1.00  0.00     0.148 A 
ATOM     94  C   UNL A   1      41.876  28.191  25.375  1.00  0.00     0.002 A 
ATOM     95  C   UNL A   1      43.199  26.846  26.899  1.00  0.00     0.091 A 
ATOM     96  F   UNL A   1      44.062  27.848  28.884  1.00  0.00    -0.205 F 
ATOM     97  C   UNL A   1      42.435  26.966  25.727  1.00  0.00     0.022 A 
BRANCH  95  98
ATOM     98  S   UNL A   1      43.963  25.253  27.218  1.00  0.00     0.127 S 
ATOM     99  O   UNL A   1      43.548  24.994  28.595  1.00  0.00    -0.237 OA
ATOM    100  O   UNL A   1      43.324  24.398  26.216  1.00  0.00    -0.237 OA
ATOM    101  O   UNL A   1      45.394  25.445  27.026  1.00  0.00    -0.744 OA
ENDBRANCH  95  98
ENDBRANCH  68  91
ENDBRANCH  42  43
ENDBRANCH  34  37
ENDBRANCH  32  33
ENDBRANCH  31  32
ENDBRANCH  30  31
ENDBRANCH   1  30
TORSDOF 20
ENDMDL
