MODEL 1
REMARK VINA RESULT:     -11.4      0.000      0.000
REMARK SMILES [NH3+][C@H]1C=C[C@H](C(=O)N2CCCc3c(C(=O)NCCCCCCNC(=O)c4ccc(-c5c6nc(c(-c7cccc(S(=O)(=O)[O-])c7F)c7ccc([nH]7)c(-c7cccc(S(=O)(=O)[O-])c7F)c7nc(c(-c8cccc(S(=O)(=O)[O-])c8F)c8ccc5[nH]8)C=C7)C=C6)cc4)cccc32)C1
REMARK SMILES IDX 19 1 18 2 17 3 16 4 14 5 15 6 13 8 8 9 9 10 92 11 10 12
REMARK SMILES IDX 12 13 91 14 11 15 90 16 89 17 6 18 7 19 5 20 2 21 3 22 93 23
REMARK SMILES IDX 4 24 1 25 20 29 21 30 22 31 23 32 24 33 25 35 26 36 27 37
REMARK SMILES IDX 88 38 28 39 87 40 29 41 30 42 31 43 81 44 32 45 86 46 80 47
REMARK SMILES IDX 82 48 33 49 85 50 79 51 78 52 34 54 66 55 46 56 65 57 47 58
REMARK SMILES IDX 50 59 64 60 83 61 48 62 49 63 63 65 84 66 51 67 35 68 36 69
REMARK SMILES IDX 44 70 37 71 39 72 45 73 38 74 40 75 41 76 42 77 43 78 67 79
REMARK SMILES IDX 68 80 76 81 69 82 71 83 77 84 70 85 72 86 73 87 74 88 75 89
REMARK SMILES IDX 52 90 53 91 61 92 54 93 56 94 62 95 55 96 57 97 58 98 59 99
REMARK SMILES IDX 60 100
REMARK H PARENT 16 7 1 26 1 27 1 28 23 34 82 53 50 64
REMARK Flexibility Score: inf
ROOT
ATOM      1  C   UNL A   1      32.505  26.838  26.038  1.00  0.00     0.002 C 
ENDROOT
BRANCH   1   2
ATOM      2  C   UNL A   1      31.961  27.491  24.769  1.00  0.00     0.021 C 
BRANCH   2   3
ATOM      3  C   UNL A   1      30.548  27.024  24.396  1.00  0.00     0.116 C 
BRANCH   3   4
ATOM      4  N   UNL A   1      30.043  26.094  25.381  1.00  0.00    -0.352 N 
ATOM      5  C   UNL A   1      30.219  24.802  25.769  1.00  0.00     0.251 C 
ATOM      6  O   UNL A   1      29.499  24.509  26.739  1.00  0.00    -0.269 OA
ATOM      7  H   UNL A   1      29.362  26.530  25.943  1.00  0.00     0.163 HD
BRANCH   5   8
ATOM      8  C   UNL A   1      31.135  23.724  25.237  1.00  0.00     0.045 A 
ATOM      9  N   UNL A   1      34.068  21.366  25.625  1.00  0.00    -0.312 N 
ATOM     10  C   UNL A   1      34.108  21.250  27.074  1.00  0.00     0.126 C 
ATOM     11  C   UNL A   1      33.019  22.151  25.041  1.00  0.00     0.048 A 
ATOM     12  C   UNL A   1      33.955  22.622  27.686  1.00  0.00     0.027 C 
ATOM     13  C   UNL A   1      32.219  23.026  25.836  1.00  0.00    -0.011 A 
ATOM     14  C   UNL A   1      32.758  22.010  23.671  1.00  0.00     0.027 A 
ATOM     15  C   UNL A   1      32.607  23.197  27.275  1.00  0.00     0.040 C 
ATOM     16  C   UNL A   1      31.695  22.666  23.082  1.00  0.00     0.003 A 
ATOM     17  C   UNL A   1      30.896  23.493  23.858  1.00  0.00     0.014 A 
BRANCH   9  18
ATOM     18  C   UNL A   1      35.120  20.885  24.857  1.00  0.00     0.234 C 
ATOM     19  O   UNL A   1      35.352  19.675  24.744  1.00  0.00    -0.274 OA
BRANCH  18  20
ATOM     20  C   UNL A   1      36.111  21.901  24.248  1.00  0.00     0.108 C 
ATOM     21  C   UNL A   1      37.310  22.826  26.155  1.00  0.00     0.205 C 
ATOM     22  C   UNL A   1      36.515  23.879  25.466  1.00  0.00     0.033 C 
ATOM     23  C   UNL A   1      37.428  21.770  25.046  1.00  0.00     0.087 C 
ATOM     24  C   UNL A   1      35.855  23.373  24.417  1.00  0.00    -0.012 C 
BRANCH  21  25
ATOM     25  N   UNL A   1      38.602  23.294  26.615  1.00  0.00    -0.352 N 
ATOM     26  H   UNL A   1      39.077  23.779  25.854  1.00  0.00     0.345 HD
ATOM     27  H   UNL A   1      39.165  22.498  26.914  1.00  0.00     0.345 HD
ATOM     28  H   UNL A   1      38.472  23.933  27.398  1.00  0.00     0.345 HD
ENDBRANCH  21  25
ENDBRANCH  18  20
ENDBRANCH   9  18
ENDBRANCH   5   8
ENDBRANCH   3   4
ENDBRANCH   2   3
ENDBRANCH   1   2
BRANCH   1  29
ATOM     29  C   UNL A   1      32.153  27.603  27.317  1.00  0.00     0.002 C 
BRANCH  29  30
ATOM     30  C   UNL A   1      32.331  29.123  27.230  1.00  0.00     0.021 C 
BRANCH  30  31
ATOM     31  C   UNL A   1      33.784  29.589  27.187  1.00  0.00     0.116 C 
BRANCH  31  32
ATOM     32  N   UNL A   1      33.883  31.036  27.314  1.00  0.00    -0.352 N 
ATOM     33  C   UNL A   1      34.756  31.782  28.064  1.00  0.00     0.251 C 
ATOM     34  H   UNL A   1      33.231  31.552  26.786  1.00  0.00     0.163 HD
ATOM     35  O   UNL A   1      34.527  32.967  28.282  1.00  0.00    -0.269 OA
BRANCH  33  36
ATOM     36  C   UNL A   1      35.978  31.147  28.596  1.00  0.00     0.039 A 
ATOM     37  C   UNL A   1      35.875  29.948  29.307  1.00  0.00     0.014 A 
ATOM     38  C   UNL A   1      37.222  31.756  28.408  1.00  0.00     0.014 A 
ATOM     39  C   UNL A   1      37.033  29.337  29.795  1.00  0.00     0.010 A 
ATOM     40  C   UNL A   1      38.376  31.107  28.827  1.00  0.00     0.010 A 
ATOM     41  C   UNL A   1      38.292  29.902  29.542  1.00  0.00    -0.014 A 
BRANCH  41  42
ATOM     42  C   UNL A   1      39.544  29.276  30.035  1.00  0.00     0.031 A 
ATOM     43  C   UNL A   1      40.283  29.900  31.187  1.00  0.00     0.074 A 
ATOM     44  C   UNL A   1      40.064  28.217  29.384  1.00  0.00     0.049 A 
ATOM     45  N   UNL A   1      41.446  29.580  31.690  1.00  0.00    -0.248 NA
ATOM     46  C   UNL A   1      39.648  31.059  31.837  1.00  0.00     0.031 C 
ATOM     47  C   UNL A   1      39.472  27.569  28.211  1.00  0.00     0.029 A 
ATOM     48  N   UNL A   1      41.229  27.523  29.594  1.00  0.00    -0.354 N 
ATOM     49  C   UNL A   1      41.702  30.522  32.680  1.00  0.00     0.074 A 
ATOM     50  C   UNL A   1      40.588  31.444  32.686  1.00  0.00     0.031 C 
ATOM     51  C   UNL A   1      40.279  26.576  27.805  1.00  0.00     0.029 A 
ATOM     52  C   UNL A   1      41.459  26.538  28.663  1.00  0.00     0.049 A 
ATOM     53  H   UNL A   1      41.842  27.713  30.341  1.00  0.00     0.167 HD
ATOM     54  C   UNL A   1      42.754  30.596  33.529  1.00  0.00     0.034 A 
ATOM     55  C   UNL A   1      42.509  25.707  28.510  1.00  0.00     0.034 A 
ATOM     56  C   UNL A   1      43.831  29.645  33.552  1.00  0.00     0.049 A 
ATOM     57  C   UNL A   1      43.645  25.782  29.494  1.00  0.00     0.074 A 
ATOM     58  C   UNL A   1      44.900  29.577  34.426  1.00  0.00     0.029 A 
ATOM     59  N   UNL A   1      43.977  28.596  32.657  1.00  0.00    -0.354 N 
ATOM     60  N   UNL A   1      43.800  26.590  30.515  1.00  0.00    -0.248 NA
ATOM     61  C   UNL A   1      44.734  24.806  29.331  1.00  0.00     0.031 C 
ATOM     62  C   UNL A   1      45.707  28.500  34.045  1.00  0.00     0.029 A 
ATOM     63  C   UNL A   1      45.121  27.878  32.954  1.00  0.00     0.049 A 
ATOM     64  H   UNL A   1      43.358  28.393  31.918  1.00  0.00     0.167 HD
ATOM     65  C   UNL A   1      44.975  26.192  31.142  1.00  0.00     0.074 A 
ATOM     66  C   UNL A   1      45.488  25.064  30.391  1.00  0.00     0.031 C 
ATOM     67  C   UNL A   1      45.580  26.718  32.235  1.00  0.00     0.034 A 
BRANCH  54  68
ATOM     68  C   UNL A   1      42.767  31.716  34.536  1.00  0.00     0.023 A 
ATOM     69  C   UNL A   1      43.443  32.917  34.237  1.00  0.00     0.012 A 
ATOM     70  C   UNL A   1      42.064  31.604  35.753  1.00  0.00     0.148 A 
ATOM     71  C   UNL A   1      43.455  33.973  35.147  1.00  0.00     0.002 A 
ATOM     72  C   UNL A   1      42.039  32.679  36.634  1.00  0.00     0.091 A 
ATOM     73  F   UNL A   1      41.444  30.449  36.029  1.00  0.00    -0.205 F 
ATOM     74  C   UNL A   1      42.745  33.858  36.338  1.00  0.00     0.022 A 
BRANCH  72  75
ATOM     75  S   UNL A   1      41.086  32.662  38.155  1.00  0.00     0.127 S 
ATOM     76  O   UNL A   1      41.016  34.087  38.475  1.00  0.00    -0.237 OA
ATOM     77  O   UNL A   1      39.819  32.074  37.718  1.00  0.00    -0.237 OA
ATOM     78  O   UNL A   1      41.842  31.847  39.095  1.00  0.00    -0.744 OA
ENDBRANCH  72  75
ENDBRANCH  54  68
BRANCH  55  79
ATOM     79  C   UNL A   1      42.504  24.693  27.418  1.00  0.00     0.023 A 
ATOM     80  C   UNL A   1      43.035  25.032  26.159  1.00  0.00     0.012 A 
ATOM     81  C   UNL A   1      42.007  23.393  27.627  1.00  0.00     0.148 A 
ATOM     82  C   UNL A   1      43.039  24.106  25.115  1.00  0.00     0.002 A 
ATOM     83  C   UNL A   1      42.065  22.457  26.600  1.00  0.00     0.091 A 
ATOM     84  F   UNL A   1      41.498  23.092  28.830  1.00  0.00    -0.205 F 
ATOM     85  C   UNL A   1      42.563  22.816  25.339  1.00  0.00     0.022 A 
BRANCH  83  86
ATOM     86  S   UNL A   1      41.597  20.738  26.838  1.00  0.00     0.127 S 
ATOM     87  O   UNL A   1      40.167  20.852  27.105  1.00  0.00    -0.237 OA
ATOM     88  O   UNL A   1      41.939  20.151  25.541  1.00  0.00    -0.237 OA
ATOM     89  O   UNL A   1      42.412  20.258  27.946  1.00  0.00    -0.744 OA
ENDBRANCH  83  86
ENDBRANCH  55  79
BRANCH  67  90
ATOM     90  C   UNL A   1      46.833  26.051  32.736  1.00  0.00     0.023 A 
ATOM     91  C   UNL A   1      48.096  26.542  32.355  1.00  0.00     0.012 A 
ATOM     92  C   UNL A   1      46.750  24.996  33.668  1.00  0.00     0.148 A 
ATOM     93  C   UNL A   1      49.261  25.977  32.875  1.00  0.00     0.002 A 
ATOM     94  C   UNL A   1      47.912  24.473  34.220  1.00  0.00     0.091 A 
ATOM     95  F   UNL A   1      45.538  24.533  34.001  1.00  0.00    -0.205 F 
ATOM     96  C   UNL A   1      49.168  24.954  33.817  1.00  0.00     0.022 A 
BRANCH  94  97
ATOM     97  S   UNL A   1      47.886  23.227  35.514  1.00  0.00     0.127 S 
ATOM     98  O   UNL A   1      47.497  24.018  36.681  1.00  0.00    -0.237 OA
ATOM     99  O   UNL A   1      46.859  22.303  35.033  1.00  0.00    -0.237 OA
ATOM    100  O   UNL A   1      49.231  22.666  35.561  1.00  0.00    -0.744 OA
ENDBRANCH  94  97
ENDBRANCH  67  90
ENDBRANCH  41  42
ENDBRANCH  33  36
ENDBRANCH  31  32
ENDBRANCH  30  31
ENDBRANCH  29  30
ENDBRANCH   1  29
TORSDOF 19
ENDMDL
MODEL 2
REMARK VINA RESULT:     -11.3      4.293      6.840
REMARK SMILES [NH3+][C@H]1C=C[C@H](C(=O)N2CCCc3c(C(=O)NCCCCCCNC(=O)c4ccc(-c5c6nc(c(-c7cccc(S(=O)(=O)[O-])c7F)c7ccc([nH]7)c(-c7cccc(S(=O)(=O)[O-])c7F)c7nc(c(-c8cccc(S(=O)(=O)[O-])c8F)c8ccc5[nH]8)C=C7)C=C6)cc4)cccc32)C1
REMARK SMILES IDX 19 1 18 2 17 3 16 4 14 5 15 6 13 8 8 9 9 10 92 11 10 12
REMARK SMILES IDX 12 13 91 14 11 15 90 16 89 17 6 18 7 19 5 20 2 21 3 22 93 23
REMARK SMILES IDX 4 24 1 25 20 29 21 30 22 31 23 32 24 33 25 35 26 36 27 37
REMARK SMILES IDX 88 38 28 39 87 40 29 41 30 42 31 43 81 44 32 45 86 46 80 47
REMARK SMILES IDX 82 48 33 49 85 50 79 51 78 52 34 54 66 55 46 56 65 57 47 58
REMARK SMILES IDX 50 59 64 60 83 61 48 62 49 63 63 65 84 66 51 67 35 68 36 69
REMARK SMILES IDX 44 70 37 71 39 72 45 73 38 74 40 75 41 76 42 77 43 78 67 79
REMARK SMILES IDX 68 80 76 81 69 82 71 83 77 84 70 85 72 86 73 87 74 88 75 89
REMARK SMILES IDX 52 90 53 91 61 92 54 93 56 94 62 95 55 96 57 97 58 98 59 99
REMARK SMILES IDX 60 100
REMARK H PARENT 16 7 1 26 1 27 1 28 23 34 82 53 50 64
REMARK Flexibility Score: inf
ROOT
ATOM      1  C   UNL A   1      35.600  33.535  29.106  1.00  0.00     0.002 C 
ENDROOT
BRANCH   1   2
ATOM      2  C   UNL A   1      34.977  32.142  29.187  1.00  0.00     0.021 C 
BRANCH   2   3
ATOM      3  C   UNL A   1      34.856  31.444  27.825  1.00  0.00     0.116 C 
BRANCH   3   4
ATOM      4  N   UNL A   1      34.282  30.126  27.978  1.00  0.00    -0.352 N 
ATOM      5  C   UNL A   1      33.254  29.382  27.489  1.00  0.00     0.251 C 
ATOM      6  O   UNL A   1      33.233  28.242  27.981  1.00  0.00    -0.269 OA
ATOM      7  H   UNL A   1      34.794  29.608  28.642  1.00  0.00     0.163 HD
BRANCH   5   8
ATOM      8  C   UNL A   1      32.194  29.713  26.463  1.00  0.00     0.045 A 
ATOM      9  N   UNL A   1      30.124  28.833  23.420  1.00  0.00    -0.312 N 
ATOM     10  C   UNL A   1      30.181  27.381  23.489  1.00  0.00     0.126 C 
ATOM     11  C   UNL A   1      30.755  29.581  24.470  1.00  0.00     0.048 A 
ATOM     12  C   UNL A   1      31.599  26.953  23.781  1.00  0.00     0.027 C 
ATOM     13  C   UNL A   1      31.653  28.958  25.386  1.00  0.00    -0.011 A 
ATOM     14  C   UNL A   1      30.437  30.939  24.610  1.00  0.00     0.027 A 
ATOM     15  C   UNL A   1      32.019  27.526  25.127  1.00  0.00     0.040 C 
ATOM     16  C   UNL A   1      30.938  31.678  25.664  1.00  0.00     0.003 A 
ATOM     17  C   UNL A   1      31.787  31.067  26.575  1.00  0.00     0.014 A 
BRANCH   9  18
ATOM     18  C   UNL A   1      29.638  29.459  22.281  1.00  0.00     0.234 C 
ATOM     19  O   UNL A   1      30.376  29.771  21.338  1.00  0.00    -0.274 OA
BRANCH  18  20
ATOM     20  C   UNL A   1      28.161  29.906  22.260  1.00  0.00     0.108 C 
ATOM     21  C   UNL A   1      28.198  32.154  21.327  1.00  0.00     0.205 C 
ATOM     22  C   UNL A   1      27.710  32.172  22.733  1.00  0.00     0.033 C 
ATOM     23  C   UNL A   1      27.951  30.688  20.944  1.00  0.00     0.087 C 
ATOM     24  C   UNL A   1      27.687  30.936  23.248  1.00  0.00    -0.012 C 
BRANCH  21  25
ATOM     25  N   UNL A   1      27.491  33.079  20.465  1.00  0.00    -0.352 N 
ATOM     26  H   UNL A   1      28.105  33.859  20.228  1.00  0.00     0.345 HD
ATOM     27  H   UNL A   1      26.665  33.431  20.948  1.00  0.00     0.345 HD
ATOM     28  H   UNL A   1      27.207  32.598  19.611  1.00  0.00     0.345 HD
ENDBRANCH  21  25
ENDBRANCH  18  20
ENDBRANCH   9  18
ENDBRANCH   5   8
ENDBRANCH   3   4
ENDBRANCH   2   3
ENDBRANCH   1   2
BRANCH   1  29
ATOM     29  C   UNL A   1      34.891  34.463  28.115  1.00  0.00     0.002 C 
BRANCH  29  30
ATOM     30  C   UNL A   1      34.004  35.536  28.757  1.00  0.00     0.021 C 
BRANCH  30  31
ATOM     31  C   UNL A   1      32.876  34.987  29.627  1.00  0.00     0.116 C 
BRANCH  31  32
ATOM     32  N   UNL A   1      32.486  35.941  30.657  1.00  0.00    -0.352 N 
ATOM     33  C   UNL A   1      32.831  35.972  31.984  1.00  0.00     0.251 C 
ATOM     34  H   UNL A   1      31.890  36.665  30.357  1.00  0.00     0.163 HD
ATOM     35  O   UNL A   1      32.196  36.666  32.771  1.00  0.00    -0.269 OA
BRANCH  33  36
ATOM     36  C   UNL A   1      33.979  35.171  32.452  1.00  0.00     0.039 A 
ATOM     37  C   UNL A   1      33.749  33.948  33.088  1.00  0.00     0.014 A 
ATOM     38  C   UNL A   1      35.281  35.646  32.278  1.00  0.00     0.014 A 
ATOM     39  C   UNL A   1      34.835  33.180  33.515  1.00  0.00     0.010 A 
ATOM     40  C   UNL A   1      36.360  34.846  32.634  1.00  0.00     0.010 A 
ATOM     41  C   UNL A   1      36.148  33.615  33.273  1.00  0.00    -0.014 A 
BRANCH  41  42
ATOM     42  C   UNL A   1      37.326  32.821  33.702  1.00  0.00     0.031 A 
ATOM     43  C   UNL A   1      38.109  33.248  34.913  1.00  0.00     0.074 A 
ATOM     44  C   UNL A   1      37.748  31.788  32.946  1.00  0.00     0.049 A 
ATOM     45  N   UNL A   1      39.228  32.765  35.384  1.00  0.00    -0.248 NA
ATOM     46  C   UNL A   1      37.582  34.392  35.677  1.00  0.00     0.031 C 
ATOM     47  C   UNL A   1      37.110  31.324  31.712  1.00  0.00     0.029 A 
ATOM     48  N   UNL A   1      38.837  30.964  33.087  1.00  0.00    -0.354 N 
ATOM     49  C   UNL A   1      39.563  33.571  36.466  1.00  0.00     0.074 A 
ATOM     50  C   UNL A   1      38.546  34.594  36.563  1.00  0.00     0.031 C 
ATOM     51  C   UNL A   1      37.820  30.302  31.208  1.00  0.00     0.029 A 
ATOM     52  C   UNL A   1      38.980  30.061  32.060  1.00  0.00     0.049 A 
ATOM     53  H   UNL A   1      39.456  31.015  33.851  1.00  0.00     0.167 HD
ATOM     54  C   UNL A   1      40.607  33.454  37.320  1.00  0.00     0.034 A 
ATOM     55  C   UNL A   1      39.945  29.151  31.826  1.00  0.00     0.034 A 
ATOM     56  C   UNL A   1      41.585  32.404  37.247  1.00  0.00     0.049 A 
ATOM     57  C   UNL A   1      41.072  29.012  32.814  1.00  0.00     0.074 A 
ATOM     58  C   UNL A   1      42.632  32.142  38.112  1.00  0.00     0.029 A 
ATOM     59  N   UNL A   1      41.639  31.443  36.250  1.00  0.00    -0.354 N 
ATOM     60  N   UNL A   1      41.292  29.692  33.913  1.00  0.00    -0.248 NA
ATOM     61  C   UNL A   1      42.061  27.955  32.554  1.00  0.00     0.031 C 
ATOM     62  C   UNL A   1      43.334  31.035  37.624  1.00  0.00     0.029 A 
ATOM     63  C   UNL A   1      42.703  30.589  36.474  1.00  0.00     0.049 A 
ATOM     64  H   UNL A   1      41.012  31.378  35.492  1.00  0.00     0.167 HD
ATOM     65  C   UNL A   1      42.415  29.119  34.498  1.00  0.00     0.074 A 
ATOM     66  C   UNL A   1      42.823  28.028  33.636  1.00  0.00     0.031 C 
ATOM     67  C   UNL A   1      43.055  29.469  35.641  1.00  0.00     0.034 A 
BRANCH  54  68
ATOM     68  C   UNL A   1      40.717  34.460  38.437  1.00  0.00     0.023 A 
ATOM     69  C   UNL A   1      41.554  35.584  38.284  1.00  0.00     0.012 A 
ATOM     70  C   UNL A   1      39.952  34.323  39.612  1.00  0.00     0.148 A 
ATOM     71  C   UNL A   1      41.660  36.535  39.298  1.00  0.00     0.002 A 
ATOM     72  C   UNL A   1      40.025  35.300  40.598  1.00  0.00     0.091 A 
ATOM     73  F   UNL A   1      39.178  33.238  39.748  1.00  0.00    -0.205 F 
ATOM     74  C   UNL A   1      40.888  36.399  40.448  1.00  0.00     0.022 A 
BRANCH  72  75
ATOM     75  S   UNL A   1      39.009  35.260  42.078  1.00  0.00     0.127 S 
ATOM     76  O   UNL A   1      39.354  36.536  42.706  1.00  0.00    -0.237 OA
ATOM     77  O   UNL A   1      37.657  35.201  41.521  1.00  0.00    -0.237 OA
ATOM     78  O   UNL A   1      39.417  34.071  42.813  1.00  0.00    -0.744 OA
ENDBRANCH  72  75
ENDBRANCH  54  68
BRANCH  55  79
ATOM     79  C   UNL A   1      39.854  28.258  30.635  1.00  0.00     0.023 A 
ATOM     80  C   UNL A   1      38.997  27.141  30.674  1.00  0.00     0.012 A 
ATOM     81  C   UNL A   1      40.583  28.525  29.461  1.00  0.00     0.148 A 
ATOM     82  C   UNL A   1      38.895  26.284  29.578  1.00  0.00     0.002 A 
ATOM     83  C   UNL A   1      40.434  27.699  28.352  1.00  0.00     0.091 A 
ATOM     84  F   UNL A   1      41.399  29.588  29.447  1.00  0.00    -0.205 F 
ATOM     85  C   UNL A   1      39.606  26.569  28.414  1.00  0.00     0.022 A 
BRANCH  83  86
ATOM     86  S   UNL A   1      41.208  28.063  26.771  1.00  0.00     0.127 S 
ATOM     87  O   UNL A   1      40.917  26.851  26.011  1.00  0.00    -0.237 OA
ATOM     88  O   UNL A   1      40.471  29.253  26.342  1.00  0.00    -0.237 OA
ATOM     89  O   UNL A   1      42.614  28.304  27.067  1.00  0.00    -0.744 OA
ENDBRANCH  83  86
ENDBRANCH  55  79
BRANCH  67  90
ATOM     90  C   UNL A   1      44.231  28.633  36.073  1.00  0.00     0.023 A 
ATOM     91  C   UNL A   1      45.528  28.956  35.632  1.00  0.00     0.012 A 
ATOM     92  C   UNL A   1      44.053  27.586  37.001  1.00  0.00     0.148 A 
ATOM     93  C   UNL A   1      46.630  28.234  36.089  1.00  0.00     0.002 A 
ATOM     94  C   UNL A   1      45.160  26.906  37.490  1.00  0.00     0.091 A 
ATOM     95  F   UNL A   1      42.807  27.285  37.392  1.00  0.00    -0.205 F 
ATOM     96  C   UNL A   1      46.447  27.220  37.027  1.00  0.00     0.022 A 
BRANCH  94  97
ATOM     97  S   UNL A   1      45.031  25.658  38.775  1.00  0.00     0.127 S 
ATOM     98  O   UNL A   1      44.378  24.561  38.061  1.00  0.00    -0.237 OA
ATOM     99  O   UNL A   1      46.434  25.416  39.113  1.00  0.00    -0.237 OA
ATOM    100  O   UNL A   1      44.246  26.259  39.846  1.00  0.00    -0.744 OA
ENDBRANCH  94  97
ENDBRANCH  67  90
ENDBRANCH  41  42
ENDBRANCH  33  36
ENDBRANCH  31  32
ENDBRANCH  30  31
ENDBRANCH  29  30
ENDBRANCH   1  29
TORSDOF 19
ENDMDL
MODEL 3
REMARK VINA RESULT:     -11.1      5.299      9.011
REMARK SMILES [NH3+][C@H]1C=C[C@H](C(=O)N2CCCc3c(C(=O)NCCCCCCNC(=O)c4ccc(-c5c6nc(c(-c7cccc(S(=O)(=O)[O-])c7F)c7ccc([nH]7)c(-c7cccc(S(=O)(=O)[O-])c7F)c7nc(c(-c8cccc(S(=O)(=O)[O-])c8F)c8ccc5[nH]8)C=C7)C=C6)cc4)cccc32)C1
REMARK SMILES IDX 19 1 18 2 17 3 16 4 14 5 15 6 13 8 8 9 9 10 92 11 10 12
REMARK SMILES IDX 12 13 91 14 11 15 90 16 89 17 6 18 7 19 5 20 2 21 3 22 93 23
REMARK SMILES IDX 4 24 1 25 20 29 21 30 22 31 23 32 24 33 25 35 26 36 27 37
REMARK SMILES IDX 88 38 28 39 87 40 29 41 30 42 31 43 81 44 32 45 86 46 80 47
REMARK SMILES IDX 82 48 33 49 85 50 79 51 78 52 34 54 66 55 46 56 65 57 47 58
REMARK SMILES IDX 50 59 64 60 83 61 48 62 49 63 63 65 84 66 51 67 35 68 36 69
REMARK SMILES IDX 44 70 37 71 39 72 45 73 38 74 40 75 41 76 42 77 43 78 67 79
REMARK SMILES IDX 68 80 76 81 69 82 71 83 77 84 70 85 72 86 73 87 74 88 75 89
REMARK SMILES IDX 52 90 53 91 61 92 54 93 56 94 62 95 55 96 57 97 58 98 59 99
REMARK SMILES IDX 60 100
REMARK H PARENT 16 7 1 26 1 27 1 28 23 34 82 53 50 64
REMARK Flexibility Score: inf
ROOT
ATOM      1  C   UNL A   1      37.159  22.001  24.545  1.00  0.00     0.002 C 
ENDROOT
BRANCH   1   2
ATOM      2  C   UNL A   1      35.715  22.481  24.404  1.00  0.00     0.021 C 
BRANCH   2   3
ATOM      3  C   UNL A   1      34.680  21.475  24.926  1.00  0.00     0.116 C 
BRANCH   3   4
ATOM      4  N   UNL A   1      33.542  21.410  24.038  1.00  0.00    -0.352 N 
ATOM      5  C   UNL A   1      32.786  22.234  23.262  1.00  0.00     0.251 C 
ATOM      6  O   UNL A   1      31.894  21.613  22.661  1.00  0.00    -0.269 OA
ATOM      7  H   UNL A   1      33.211  20.484  23.975  1.00  0.00     0.163 HD
BRANCH   5   8
ATOM      8  C   UNL A   1      32.881  23.722  23.015  1.00  0.00     0.045 A 
ATOM      9  N   UNL A   1      32.990  27.297  24.251  1.00  0.00    -0.312 N 
ATOM     10  C   UNL A   1      33.478  27.080  25.603  1.00  0.00     0.126 C 
ATOM     11  C   UNL A   1      32.863  26.155  23.390  1.00  0.00     0.048 A 
ATOM     12  C   UNL A   1      32.730  25.925  26.223  1.00  0.00     0.027 C 
ATOM     13  C   UNL A   1      32.926  24.828  23.908  1.00  0.00    -0.011 A 
ATOM     14  C   UNL A   1      32.722  26.367  22.012  1.00  0.00     0.027 A 
ATOM     15  C   UNL A   1      32.990  24.671  25.399  1.00  0.00     0.040 C 
ATOM     16  C   UNL A   1      32.698  25.303  21.131  1.00  0.00     0.003 A 
ATOM     17  C   UNL A   1      32.791  24.011  21.629  1.00  0.00     0.014 A 
BRANCH   9  18
ATOM     18  C   UNL A   1      32.490  28.538  23.879  1.00  0.00     0.234 C 
ATOM     19  O   UNL A   1      33.141  29.325  23.181  1.00  0.00    -0.274 OA
BRANCH  18  20
ATOM     20  C   UNL A   1      31.144  28.998  24.478  1.00  0.00     0.108 C 
ATOM     21  C   UNL A   1      29.462  27.643  23.355  1.00  0.00     0.205 C 
ATOM     22  C   UNL A   1      29.288  29.084  23.026  1.00  0.00     0.033 C 
ATOM     23  C   UNL A   1      30.278  27.730  24.653  1.00  0.00     0.087 C 
ATOM     24  C   UNL A   1      30.212  29.832  23.643  1.00  0.00    -0.012 C 
BRANCH  21  25
ATOM     25  N   UNL A   1      28.207  26.942  23.536  1.00  0.00    -0.352 N 
ATOM     26  H   UNL A   1      27.434  27.597  23.424  1.00  0.00     0.345 HD
ATOM     27  H   UNL A   1      28.177  26.535  24.470  1.00  0.00     0.345 HD
ATOM     28  H   UNL A   1      28.128  26.201  22.840  1.00  0.00     0.345 HD
ENDBRANCH  21  25
ENDBRANCH  18  20
ENDBRANCH   9  18
ENDBRANCH   5   8
ENDBRANCH   3   4
ENDBRANCH   2   3
ENDBRANCH   1   2
BRANCH   1  29
ATOM     29  C   UNL A   1      37.275  20.538  24.983  1.00  0.00     0.002 C 
BRANCH  29  30
ATOM     30  C   UNL A   1      38.688  19.950  24.900  1.00  0.00     0.021 C 
BRANCH  30  31
ATOM     31  C   UNL A   1      39.382  19.777  26.248  1.00  0.00     0.116 C 
BRANCH  31  32
ATOM     32  N   UNL A   1      40.575  18.949  26.130  1.00  0.00    -0.352 N 
ATOM     33  C   UNL A   1      41.888  19.332  26.024  1.00  0.00     0.251 C 
ATOM     34  H   UNL A   1      40.416  17.978  26.127  1.00  0.00     0.163 HD
ATOM     35  O   UNL A   1      42.737  18.531  25.648  1.00  0.00    -0.269 OA
BRANCH  33  36
ATOM     36  C   UNL A   1      42.269  20.715  26.374  1.00  0.00     0.039 A 
ATOM     37  C   UNL A   1      42.517  21.041  27.710  1.00  0.00     0.014 A 
ATOM     38  C   UNL A   1      42.357  21.690  25.378  1.00  0.00     0.014 A 
ATOM     39  C   UNL A   1      42.895  22.345  28.041  1.00  0.00     0.010 A 
ATOM     40  C   UNL A   1      42.808  22.964  25.699  1.00  0.00     0.010 A 
ATOM     41  C   UNL A   1      43.062  23.310  27.035  1.00  0.00    -0.014 A 
BRANCH  41  42
ATOM     42  C   UNL A   1      43.474  24.701  27.346  1.00  0.00     0.031 A 
ATOM     43  C   UNL A   1      42.484  25.646  27.971  1.00  0.00     0.074 A 
ATOM     44  C   UNL A   1      44.693  25.138  26.974  1.00  0.00     0.049 A 
ATOM     45  N   UNL A   1      42.605  26.925  28.214  1.00  0.00    -0.248 NA
ATOM     46  C   UNL A   1      41.172  25.088  28.341  1.00  0.00     0.031 C 
ATOM     47  C   UNL A   1      45.712  24.332  26.298  1.00  0.00     0.029 A 
ATOM     48  N   UNL A   1      45.267  26.380  27.077  1.00  0.00    -0.354 N 
ATOM     49  C   UNL A   1      41.376  27.333  28.718  1.00  0.00     0.074 A 
ATOM     50  C   UNL A   1      40.512  26.173  28.718  1.00  0.00     0.031 C 
ATOM     51  C   UNL A   1      46.783  25.100  26.045  1.00  0.00     0.029 A 
ATOM     52  C   UNL A   1      46.516  26.459  26.507  1.00  0.00     0.049 A 
ATOM     53  H   UNL A   1      44.826  27.142  27.519  1.00  0.00     0.167 HD
ATOM     54  C   UNL A   1      41.007  28.555  29.170  1.00  0.00     0.034 A 
ATOM     55  C   UNL A   1      47.345  27.510  26.362  1.00  0.00     0.034 A 
ATOM     56  C   UNL A   1      41.888  29.689  29.215  1.00  0.00     0.049 A 
ATOM     57  C   UNL A   1      46.929  28.848  26.911  1.00  0.00     0.074 A 
ATOM     58  C   UNL A   1      41.644  30.948  29.732  1.00  0.00     0.029 A 
ATOM     59  N   UNL A   1      43.184  29.703  28.722  1.00  0.00    -0.354 N 
ATOM     60  N   UNL A   1      45.814  29.180  27.516  1.00  0.00    -0.248 NA
ATOM     61  C   UNL A   1      47.898  29.948  26.794  1.00  0.00     0.031 C 
ATOM     62  C   UNL A   1      42.784  31.731  29.530  1.00  0.00     0.029 A 
ATOM     63  C   UNL A   1      43.750  30.949  28.917  1.00  0.00     0.049 A 
ATOM     64  H   UNL A   1      43.634  28.938  28.294  1.00  0.00     0.167 HD
ATOM     65  C   UNL A   1      45.965  30.509  27.892  1.00  0.00     0.074 A 
ATOM     66  C   UNL A   1      47.283  30.920  27.455  1.00  0.00     0.031 C 
ATOM     67  C   UNL A   1      45.088  31.319  28.534  1.00  0.00     0.034 A 
BRANCH  54  68
ATOM     68  C   UNL A   1      39.605  28.715  29.696  1.00  0.00     0.023 A 
ATOM     69  C   UNL A   1      39.296  28.285  31.003  1.00  0.00     0.012 A 
ATOM     70  C   UNL A   1      38.608  29.341  28.921  1.00  0.00     0.148 A 
ATOM     71  C   UNL A   1      38.009  28.438  31.517  1.00  0.00     0.002 A 
ATOM     72  C   UNL A   1      37.340  29.535  29.458  1.00  0.00     0.091 A 
ATOM     73  F   UNL A   1      38.914  29.725  27.675  1.00  0.00    -0.205 F 
ATOM     74  C   UNL A   1      37.036  29.072  30.749  1.00  0.00     0.022 A 
BRANCH  72  75
ATOM     75  S   UNL A   1      36.043  30.414  28.583  1.00  0.00     0.127 S 
ATOM     76  O   UNL A   1      35.309  29.313  27.960  1.00  0.00    -0.237 OA
ATOM     77  O   UNL A   1      35.331  31.079  29.675  1.00  0.00    -0.237 OA
ATOM     78  O   UNL A   1      36.719  31.316  27.660  1.00  0.00    -0.744 OA
ENDBRANCH  72  75
ENDBRANCH  54  68
BRANCH  55  79
ATOM     79  C   UNL A   1      48.678  27.325  25.721  1.00  0.00     0.023 A 
ATOM     80  C   UNL A   1      49.775  26.930  26.511  1.00  0.00     0.012 A 
ATOM     81  C   UNL A   1      48.858  27.506  24.337  1.00  0.00     0.148 A 
ATOM     82  C   UNL A   1      51.036  26.754  25.941  1.00  0.00     0.002 A 
ATOM     83  C   UNL A   1      50.105  27.274  23.765  1.00  0.00     0.091 A 
ATOM     84  F   UNL A   1      47.804  27.890  23.603  1.00  0.00    -0.205 F 
ATOM     85  C   UNL A   1      51.199  26.916  24.567  1.00  0.00     0.022 A 
BRANCH  83  86
ATOM     86  S   UNL A   1      50.374  27.332  21.989  1.00  0.00     0.127 S 
ATOM     87  O   UNL A   1      50.172  28.749  21.702  1.00  0.00    -0.237 OA
ATOM     88  O   UNL A   1      51.759  26.871  21.880  1.00  0.00    -0.237 OA
ATOM     89  O   UNL A   1      49.392  26.423  21.413  1.00  0.00    -0.744 OA
ENDBRANCH  83  86
ENDBRANCH  55  79
BRANCH  67  90
ATOM     90  C   UNL A   1      45.535  32.718  28.867  1.00  0.00     0.023 A 
ATOM     91  C   UNL A   1      46.250  32.968  30.053  1.00  0.00     0.012 A 
ATOM     92  C   UNL A   1      45.329  33.766  27.946  1.00  0.00     0.148 A 
ATOM     93  C   UNL A   1      46.734  34.247  30.330  1.00  0.00     0.002 A 
ATOM     94  C   UNL A   1      45.858  35.023  28.205  1.00  0.00     0.091 A 
ATOM     95  F   UNL A   1      44.630  33.508  26.832  1.00  0.00    -0.205 F 
ATOM     96  C   UNL A   1      46.550  35.269  29.401  1.00  0.00     0.022 A 
BRANCH  94  97
ATOM     97  S   UNL A   1      45.760  36.370  27.021  1.00  0.00     0.127 S 
ATOM     98  O   UNL A   1      46.534  37.414  27.693  1.00  0.00    -0.237 OA
ATOM     99  O   UNL A   1      46.408  35.794  25.842  1.00  0.00    -0.237 OA
ATOM    100  O   UNL A   1      44.341  36.657  26.852  1.00  0.00    -0.744 OA
ENDBRANCH  94  97
ENDBRANCH  67  90
ENDBRANCH  41  42
ENDBRANCH  33  36
ENDBRANCH  31  32
ENDBRANCH  30  31
ENDBRANCH  29  30
ENDBRANCH   1  29
TORSDOF 19
ENDMDL
