MODEL 1
REMARK VINA RESULT:      -9.3      0.000      0.000
REMARK SMILES C[C@@H]1CN(S(=O)(=O)c2cccc(C(=O)N3CCC[C@@H]3C(=O)NCCCCCCNC(=O)c3ccc(-c4c5nc(c(-c6cccc(S(=O)(=O)[O-])c6F)c6ccc([nH]6)c(-c6cccc(S(=O)(=O)[O-])c6F)c6nc(c(-c7cccc(S(=O)(=O)[O-])c7F)c7ccc4[nH]7)C=C6)C=C5)cc3)c2)C[C@H](C)O1
REMARK SMILES IDX 25 1 24 2 23 3 22 4 20 5 21 6 19 8 15 9 16 10 17 11 18 12
REMARK SMILES IDX 13 13 14 14 12 15 8 16 9 17 95 18 10 19 11 20 5 21 6 22 7 23
REMARK SMILES IDX 4 24 1 25 2 26 3 27 99 28 97 29 96 30 98 31 26 32 27 33
REMARK SMILES IDX 28 34 29 35 30 36 31 38 32 39 33 40 94 41 34 42 93 43 35 44
REMARK SMILES IDX 36 45 37 46 87 47 38 48 92 49 86 50 88 51 39 52 91 53 85 54
REMARK SMILES IDX 84 55 40 57 72 58 52 59 71 60 53 61 56 62 70 63 89 64 54 65
REMARK SMILES IDX 55 66 69 68 90 69 57 70 41 71 42 72 50 73 43 74 45 75 51 76
REMARK SMILES IDX 44 77 46 78 47 79 48 80 49 81 73 82 74 83 82 84 75 85 77 86
REMARK SMILES IDX 83 87 76 88 78 89 79 90 80 91 81 92 58 93 59 94 67 95 60 96
REMARK SMILES IDX 62 97 68 98 61 99 63 100 64 101 65 102 66 103
REMARK H PARENT 22 7 29 37 88 56 56 67
REMARK Flexibility Score: inf
ROOT
ATOM      1  C   UNL A   1      41.451  27.822  28.622  1.00  0.00     0.002 C 
ENDROOT
BRANCH   1   2
ATOM      2  C   UNL A   1      40.874  28.727  29.734  1.00  0.00     0.021 C 
BRANCH   2   3
ATOM      3  C   UNL A   1      41.770  29.194  30.889  1.00  0.00     0.116 C 
BRANCH   3   4
ATOM      4  N   UNL A   1      42.689  30.242  30.477  1.00  0.00    -0.354 N 
ATOM      5  C   UNL A   1      42.876  31.524  30.909  1.00  0.00     0.242 C 
ATOM      6  O   UNL A   1      43.581  32.237  30.182  1.00  0.00    -0.273 OA
ATOM      7  H   UNL A   1      43.293  29.976  29.747  1.00  0.00     0.163 HD
BRANCH   5   8
ATOM      8  C   UNL A   1      42.146  32.168  32.114  1.00  0.00     0.174 C 
ATOM      9  N   UNL A   1      41.157  33.201  31.853  1.00  0.00    -0.327 N 
ATOM     10  C   UNL A   1      41.067  34.063  33.023  1.00  0.00     0.121 C 
ATOM     11  C   UNL A   1      42.526  34.231  33.386  1.00  0.00     0.024 C 
ATOM     12  C   UNL A   1      43.123  32.846  33.098  1.00  0.00     0.037 C 
BRANCH   9  13
ATOM     13  C   UNL A   1      40.093  32.937  31.013  1.00  0.00     0.254 C 
ATOM     14  O   UNL A   1      40.068  33.291  29.839  1.00  0.00    -0.269 OA
BRANCH  13  15
ATOM     15  C   UNL A   1      38.848  32.437  31.676  1.00  0.00     0.041 A 
ATOM     16  C   UNL A   1      36.587  32.794  32.484  1.00  0.00     0.083 A 
ATOM     17  C   UNL A   1      36.449  31.428  32.736  1.00  0.00     0.022 A 
ATOM     18  C   UNL A   1      37.765  33.281  31.933  1.00  0.00     0.035 A 
ATOM     19  C   UNL A   1      37.517  30.566  32.461  1.00  0.00     0.002 A 
ATOM     20  C   UNL A   1      38.719  31.071  31.952  1.00  0.00     0.014 A 
BRANCH  16  21
ATOM     21  S   UNL A   1      35.491  33.981  33.227  1.00  0.00     0.243 S 
ATOM     22  O   UNL A   1      36.289  35.173  33.465  1.00  0.00    -0.207 OA
ATOM     23  O   UNL A   1      34.810  33.290  34.289  1.00  0.00    -0.207 OA
BRANCH  21  24
ATOM     24  N   UNL A   1      34.326  34.412  32.079  1.00  0.00    -0.193 NA
ATOM     25  C   UNL A   1      33.201  34.252  28.372  1.00  0.00     0.040 C 
ATOM     26  C   UNL A   1      33.654  34.897  29.680  1.00  0.00     0.130 C 
ATOM     27  C   UNL A   1      34.381  33.921  30.666  1.00  0.00     0.134 C 
ATOM     28  O   UNL A   1      32.479  35.466  30.275  1.00  0.00    -0.373 OA
ATOM     29  C   UNL A   1      32.730  36.164  31.509  1.00  0.00     0.130 C 
ATOM     30  C   UNL A   1      34.121  35.898  32.080  1.00  0.00     0.134 C 
ATOM     31  C   UNL A   1      31.683  35.728  32.531  1.00  0.00     0.040 C 
ENDBRANCH  21  24
ENDBRANCH  16  21
ENDBRANCH  13  15
ENDBRANCH   9  13
ENDBRANCH   5   8
ENDBRANCH   3   4
ENDBRANCH   2   3
ENDBRANCH   1   2
BRANCH   1  32
ATOM     32  C   UNL A   1      40.541  26.966  27.710  1.00  0.00     0.002 C 
BRANCH  32  33
ATOM     33  C   UNL A   1      40.118  25.512  28.066  1.00  0.00     0.021 C 
BRANCH  33  34
ATOM     34  C   UNL A   1      40.630  24.312  27.234  1.00  0.00     0.116 C 
BRANCH  34  35
ATOM     35  N   UNL A   1      41.486  23.371  27.957  1.00  0.00    -0.352 N 
ATOM     36  C   UNL A   1      42.756  23.432  28.503  1.00  0.00     0.251 C 
ATOM     37  H   UNL A   1      41.061  22.492  28.086  1.00  0.00     0.163 HD
ATOM     38  O   UNL A   1      43.141  22.426  29.108  1.00  0.00    -0.269 OA
BRANCH  36  39
ATOM     39  C   UNL A   1      43.724  24.572  28.383  1.00  0.00     0.039 A 
ATOM     40  C   UNL A   1      44.247  24.840  27.101  1.00  0.00     0.014 A 
ATOM     41  C   UNL A   1      44.194  25.354  29.439  1.00  0.00     0.014 A 
ATOM     42  C   UNL A   1      45.142  25.906  26.867  1.00  0.00     0.010 A 
ATOM     43  C   UNL A   1      45.070  26.445  29.197  1.00  0.00     0.010 A 
ATOM     44  C   UNL A   1      45.547  26.756  27.908  1.00  0.00    -0.014 A 
BRANCH  44  45
ATOM     45  C   UNL A   1      46.448  27.936  27.636  1.00  0.00     0.031 A 
ATOM     46  C   UNL A   1      47.956  27.796  27.647  1.00  0.00     0.074 A 
ATOM     47  C   UNL A   1      45.947  29.171  27.395  1.00  0.00     0.049 A 
ATOM     48  N   UNL A   1      48.876  28.695  27.380  1.00  0.00    -0.248 NA
ATOM     49  C   UNL A   1      48.502  26.483  28.017  1.00  0.00     0.031 C 
ATOM     50  C   UNL A   1      44.529  29.526  27.394  1.00  0.00     0.029 A 
ATOM     51  N   UNL A   1      46.579  30.369  27.119  1.00  0.00    -0.354 N 
ATOM     52  C   UNL A   1      50.102  28.066  27.565  1.00  0.00     0.074 A 
ATOM     53  C   UNL A   1      49.807  26.718  28.009  1.00  0.00     0.031 C 
ATOM     54  C   UNL A   1      44.397  30.841  27.142  1.00  0.00     0.029 A 
ATOM     55  C   UNL A   1      45.720  31.436  26.956  1.00  0.00     0.049 A 
ATOM     56  H   UNL A   1      47.557  30.452  27.045  1.00  0.00     0.167 HD
ATOM     57  C   UNL A   1      51.359  28.535  27.357  1.00  0.00     0.034 A 
ATOM     58  C   UNL A   1      45.952  32.738  26.676  1.00  0.00     0.034 A 
ATOM     59  C   UNL A   1      51.689  29.853  26.879  1.00  0.00     0.049 A 
ATOM     60  C   UNL A   1      47.357  33.234  26.430  1.00  0.00     0.074 A 
ATOM     61  C   UNL A   1      52.940  30.360  26.559  1.00  0.00     0.029 A 
ATOM     62  N   UNL A   1      50.782  30.874  26.662  1.00  0.00    -0.354 N 
ATOM     63  N   UNL A   1      48.481  32.563  26.425  1.00  0.00    -0.248 NA
ATOM     64  C   UNL A   1      47.519  34.664  26.107  1.00  0.00     0.031 C 
ATOM     65  C   UNL A   1      52.791  31.696  26.173  1.00  0.00     0.029 A 
ATOM     66  C   UNL A   1      51.446  32.014  26.227  1.00  0.00     0.049 A 
ATOM     67  H   UNL A   1      49.810  30.805  26.797  1.00  0.00     0.167 HD
ATOM     68  C   UNL A   1      49.469  33.472  26.054  1.00  0.00     0.074 A 
ATOM     69  C   UNL A   1      48.813  34.740  25.826  1.00  0.00     0.031 C 
ATOM     70  C   UNL A   1      50.803  33.268  25.927  1.00  0.00     0.034 A 
BRANCH  57  71
ATOM     71  C   UNL A   1      52.503  27.578  27.586  1.00  0.00     0.023 A 
ATOM     72  C   UNL A   1      53.075  27.484  28.872  1.00  0.00     0.012 A 
ATOM     73  C   UNL A   1      52.961  26.728  26.561  1.00  0.00     0.148 A 
ATOM     74  C   UNL A   1      54.112  26.588  29.125  1.00  0.00     0.002 A 
ATOM     75  C   UNL A   1      53.967  25.805  26.832  1.00  0.00     0.091 A 
ATOM     76  F   UNL A   1      52.412  26.838  25.343  1.00  0.00    -0.205 F 
ATOM     77  C   UNL A   1      54.551  25.744  28.108  1.00  0.00     0.022 A 
BRANCH  75  78
ATOM     78  S   UNL A   1      54.546  24.620  25.614  1.00  0.00     0.127 S 
ATOM     79  O   UNL A   1      55.291  23.681  26.450  1.00  0.00    -0.237 OA
ATOM     80  O   UNL A   1      53.293  24.093  25.073  1.00  0.00    -0.237 OA
ATOM     81  O   UNL A   1      55.344  25.381  24.663  1.00  0.00    -0.744 OA
ENDBRANCH  75  78
ENDBRANCH  57  71
BRANCH  58  82
ATOM     82  C   UNL A   1      44.809  33.691  26.531  1.00  0.00     0.023 A 
ATOM     83  C   UNL A   1      44.100  33.746  25.313  1.00  0.00     0.012 A 
ATOM     84  C   UNL A   1      44.446  34.565  27.574  1.00  0.00     0.148 A 
ATOM     85  C   UNL A   1      43.076  34.675  25.124  1.00  0.00     0.002 A 
ATOM     86  C   UNL A   1      43.392  35.455  27.395  1.00  0.00     0.091 A 
ATOM     87  F   UNL A   1      45.144  34.511  28.717  1.00  0.00    -0.205 F 
ATOM     88  C   UNL A   1      42.717  35.523  26.166  1.00  0.00     0.022 A 
BRANCH  86  89
ATOM     89  S   UNL A   1      42.791  36.519  28.712  1.00  0.00     0.127 S 
ATOM     90  O   UNL A   1      43.960  37.355  28.975  1.00  0.00    -0.237 OA
ATOM     91  O   UNL A   1      41.678  37.206  28.056  1.00  0.00    -0.237 OA
ATOM     92  O   UNL A   1      42.402  35.622  29.790  1.00  0.00    -0.744 OA
ENDBRANCH  86  89
ENDBRANCH  58  82
BRANCH  70  93
ATOM     93  C   UNL A   1      51.672  34.418  25.476  1.00  0.00     0.023 A 
ATOM     94  C   UNL A   1      51.936  34.607  24.105  1.00  0.00     0.012 A 
ATOM     95  C   UNL A   1      52.156  35.365  26.404  1.00  0.00     0.148 A 
ATOM     96  C   UNL A   1      52.686  35.700  23.667  1.00  0.00     0.002 A 
ATOM     97  C   UNL A   1      52.864  36.476  25.956  1.00  0.00     0.091 A 
ATOM     98  F   UNL A   1      51.915  35.163  27.707  1.00  0.00    -0.205 F 
ATOM     99  C   UNL A   1      53.139  36.640  24.589  1.00  0.00     0.022 A 
BRANCH  97 100
ATOM    100  S   UNL A   1      53.404  37.789  27.060  1.00  0.00     0.127 S 
ATOM    101  O   UNL A   1      54.827  37.485  27.211  1.00  0.00    -0.237 OA
ATOM    102  O   UNL A   1      53.117  38.992  26.279  1.00  0.00    -0.237 OA
ATOM    103  O   UNL A   1      52.604  37.650  28.269  1.00  0.00    -0.744 OA
ENDBRANCH  97 100
ENDBRANCH  70  93
ENDBRANCH  44  45
ENDBRANCH  36  39
ENDBRANCH  34  35
ENDBRANCH  33  34
ENDBRANCH  32  33
ENDBRANCH   1  32
TORSDOF 20
ENDMDL
MODEL 2
REMARK VINA RESULT:      -9.1      8.628     14.864
REMARK SMILES C[C@@H]1CN(S(=O)(=O)c2cccc(C(=O)N3CCC[C@@H]3C(=O)NCCCCCCNC(=O)c3ccc(-c4c5nc(c(-c6cccc(S(=O)(=O)[O-])c6F)c6ccc([nH]6)c(-c6cccc(S(=O)(=O)[O-])c6F)c6nc(c(-c7cccc(S(=O)(=O)[O-])c7F)c7ccc4[nH]7)C=C6)C=C5)cc3)c2)C[C@H](C)O1
REMARK SMILES IDX 25 1 24 2 23 3 22 4 20 5 21 6 19 8 15 9 16 10 17 11 18 12
REMARK SMILES IDX 13 13 14 14 12 15 8 16 9 17 95 18 10 19 11 20 5 21 6 22 7 23
REMARK SMILES IDX 4 24 1 25 2 26 3 27 99 28 97 29 96 30 98 31 26 32 27 33
REMARK SMILES IDX 28 34 29 35 30 36 31 38 32 39 33 40 94 41 34 42 93 43 35 44
REMARK SMILES IDX 36 45 37 46 87 47 38 48 92 49 86 50 88 51 39 52 91 53 85 54
REMARK SMILES IDX 84 55 40 57 72 58 52 59 71 60 53 61 56 62 70 63 89 64 54 65
REMARK SMILES IDX 55 66 69 68 90 69 57 70 41 71 42 72 50 73 43 74 45 75 51 76
REMARK SMILES IDX 44 77 46 78 47 79 48 80 49 81 73 82 74 83 82 84 75 85 77 86
REMARK SMILES IDX 83 87 76 88 78 89 79 90 80 91 81 92 58 93 59 94 67 95 60 96
REMARK SMILES IDX 62 97 68 98 61 99 63 100 64 101 65 102 66 103
REMARK H PARENT 22 7 29 37 88 56 56 67
REMARK Flexibility Score: inf
ROOT
ATOM      1  C   UNL A   1      46.247  27.190  39.576  1.00  0.00     0.002 C 
ENDROOT
BRANCH   1   2
ATOM      2  C   UNL A   1      47.041  25.874  39.727  1.00  0.00     0.021 C 
BRANCH   2   3
ATOM      3  C   UNL A   1      46.719  24.673  38.828  1.00  0.00     0.116 C 
BRANCH   3   4
ATOM      4  N   UNL A   1      47.900  23.880  38.530  1.00  0.00    -0.354 N 
ATOM      5  C   UNL A   1      48.061  22.625  38.017  1.00  0.00     0.242 C 
ATOM      6  O   UNL A   1      49.200  22.148  38.115  1.00  0.00    -0.273 OA
ATOM      7  H   UNL A   1      48.747  24.337  38.739  1.00  0.00     0.163 HD
BRANCH   5   8
ATOM      8  C   UNL A   1      46.912  21.726  37.499  1.00  0.00     0.174 C 
ATOM      9  N   UNL A   1      46.611  20.500  38.220  1.00  0.00    -0.327 N 
ATOM     10  C   UNL A   1      46.001  19.556  37.296  1.00  0.00     0.121 C 
ATOM     11  C   UNL A   1      46.867  19.733  36.068  1.00  0.00     0.024 C 
ATOM     12  C   UNL A   1      47.150  21.243  36.053  1.00  0.00     0.037 C 
BRANCH   9  13
ATOM     13  C   UNL A   1      46.317  20.551  39.569  1.00  0.00     0.254 C 
ATOM     14  O   UNL A   1      46.008  21.589  40.144  1.00  0.00    -0.269 OA
BRANCH  13  15
ATOM     15  C   UNL A   1      46.660  19.326  40.357  1.00  0.00     0.041 A 
ATOM     16  C   UNL A   1      46.034  17.533  41.869  1.00  0.00     0.083 A 
ATOM     17  C   UNL A   1      47.267  16.913  41.665  1.00  0.00     0.022 A 
ATOM     18  C   UNL A   1      45.729  18.710  41.197  1.00  0.00     0.035 A 
ATOM     19  C   UNL A   1      48.200  17.505  40.806  1.00  0.00     0.002 A 
ATOM     20  C   UNL A   1      47.906  18.717  40.170  1.00  0.00     0.014 A 
BRANCH  16  21
ATOM     21  S   UNL A   1      45.014  17.114  43.265  1.00  0.00     0.243 S 
ATOM     22  O   UNL A   1      44.079  18.215  43.427  1.00  0.00    -0.207 OA
ATOM     23  O   UNL A   1      45.914  16.711  44.313  1.00  0.00    -0.207 OA
BRANCH  21  24
ATOM     24  N   UNL A   1      44.087  15.761  42.852  1.00  0.00    -0.193 NA
ATOM     25  C   UNL A   1      41.699  14.122  40.274  1.00  0.00     0.040 C 
ATOM     26  C   UNL A   1      42.137  14.707  41.615  1.00  0.00     0.130 C 
ATOM     27  C   UNL A   1      43.386  15.650  41.534  1.00  0.00     0.134 C 
ATOM     28  O   UNL A   1      42.379  13.588  42.480  1.00  0.00    -0.373 OA
ATOM     29  C   UNL A   1      42.762  13.958  43.819  1.00  0.00     0.130 C 
ATOM     30  C   UNL A   1      43.124  15.436  43.955  1.00  0.00     0.134 C 
ATOM     31  C   UNL A   1      43.965  13.113  44.227  1.00  0.00     0.040 C 
ENDBRANCH  21  24
ENDBRANCH  16  21
ENDBRANCH  13  15
ENDBRANCH   9  13
ENDBRANCH   5   8
ENDBRANCH   3   4
ENDBRANCH   2   3
ENDBRANCH   1   2
BRANCH   1  32
ATOM     32  C   UNL A   1      46.835  28.423  38.850  1.00  0.00     0.002 C 
BRANCH  32  33
ATOM     33  C   UNL A   1      48.361  28.613  38.612  1.00  0.00     0.021 C 
BRANCH  33  34
ATOM     34  C   UNL A   1      48.976  28.407  37.208  1.00  0.00     0.116 C 
BRANCH  34  35
ATOM     35  N   UNL A   1      48.968  27.028  36.719  1.00  0.00    -0.352 N 
ATOM     36  C   UNL A   1      48.156  26.302  35.865  1.00  0.00     0.251 C 
ATOM     37  H   UNL A   1      49.713  26.493  37.079  1.00  0.00     0.163 HD
ATOM     38  O   UNL A   1      48.505  25.139  35.636  1.00  0.00    -0.269 OA
BRANCH  36  39
ATOM     39  C   UNL A   1      46.875  26.770  35.242  1.00  0.00     0.039 A 
ATOM     40  C   UNL A   1      46.920  27.969  34.501  1.00  0.00     0.014 A 
ATOM     41  C   UNL A   1      45.631  26.153  35.379  1.00  0.00     0.014 A 
ATOM     42  C   UNL A   1      45.781  28.487  33.848  1.00  0.00     0.010 A 
ATOM     43  C   UNL A   1      44.493  26.657  34.696  1.00  0.00     0.010 A 
ATOM     44  C   UNL A   1      44.547  27.822  33.903  1.00  0.00    -0.014 A 
BRANCH  44  45
ATOM     45  C   UNL A   1      43.351  28.345  33.143  1.00  0.00     0.031 A 
ATOM     46  C   UNL A   1      43.123  27.985  31.690  1.00  0.00     0.074 A 
ATOM     47  C   UNL A   1      42.450  29.173  33.721  1.00  0.00     0.049 A 
ATOM     48  N   UNL A   1      42.119  28.302  30.904  1.00  0.00    -0.248 NA
ATOM     49  C   UNL A   1      44.158  27.177  31.031  1.00  0.00     0.031 C 
ATOM     50  C   UNL A   1      42.519  29.680  35.090  1.00  0.00     0.029 A 
ATOM     51  N   UNL A   1      41.299  29.753  33.221  1.00  0.00    -0.354 N 
ATOM     52  C   UNL A   1      42.408  27.750  29.661  1.00  0.00     0.074 A 
ATOM     53  C   UNL A   1      43.703  27.113  29.787  1.00  0.00     0.031 C 
ATOM     54  C   UNL A   1      41.473  30.495  35.319  1.00  0.00     0.029 A 
ATOM     55  C   UNL A   1      40.645  30.574  34.116  1.00  0.00     0.049 A 
ATOM     56  H   UNL A   1      40.975  29.593  32.305  1.00  0.00     0.167 HD
ATOM     57  C   UNL A   1      41.666  27.734  28.524  1.00  0.00     0.034 A 
ATOM     58  C   UNL A   1      39.508  31.297  34.003  1.00  0.00     0.034 A 
ATOM     59  C   UNL A   1      40.359  28.319  28.373  1.00  0.00     0.049 A 
ATOM     60  C   UNL A   1      38.689  31.249  32.736  1.00  0.00     0.074 A 
ATOM     61  C   UNL A   1      39.513  28.258  27.275  1.00  0.00     0.029 A 
ATOM     62  N   UNL A   1      39.709  29.080  29.328  1.00  0.00    -0.354 N 
ATOM     63  N   UNL A   1      38.896  30.559  31.642  1.00  0.00    -0.248 NA
ATOM     64  C   UNL A   1      37.450  32.048  32.705  1.00  0.00     0.031 C 
ATOM     65  C   UNL A   1      38.364  29.003  27.558  1.00  0.00     0.029 A 
ATOM     66  C   UNL A   1      38.481  29.507  28.841  1.00  0.00     0.049 A 
ATOM     67  H   UNL A   1      40.065  29.290  30.221  1.00  0.00     0.167 HD
ATOM     68  C   UNL A   1      37.798  30.802  30.820  1.00  0.00     0.074 A 
ATOM     69  C   UNL A   1      36.917  31.690  31.544  1.00  0.00     0.031 C 
ATOM     70  C   UNL A   1      37.556  30.335  29.571  1.00  0.00     0.034 A 
BRANCH  57  71
ATOM     71  C   UNL A   1      42.227  26.986  27.339  1.00  0.00     0.023 A 
ATOM     72  C   UNL A   1      42.901  27.704  26.331  1.00  0.00     0.012 A 
ATOM     73  C   UNL A   1      42.153  25.583  27.259  1.00  0.00     0.148 A 
ATOM     74  C   UNL A   1      43.459  27.041  25.238  1.00  0.00     0.002 A 
ATOM     75  C   UNL A   1      42.750  24.924  26.188  1.00  0.00     0.091 A 
ATOM     76  F   UNL A   1      41.500  24.918  28.222  1.00  0.00    -0.205 F 
ATOM     77  C   UNL A   1      43.391  25.652  25.173  1.00  0.00     0.022 A 
BRANCH  75  78
ATOM     78  S   UNL A   1      42.787  23.133  26.053  1.00  0.00     0.127 S 
ATOM     79  O   UNL A   1      41.431  22.780  26.468  1.00  0.00    -0.237 OA
ATOM     80  O   UNL A   1      43.059  22.936  24.629  1.00  0.00    -0.237 OA
ATOM     81  O   UNL A   1      43.851  22.686  26.941  1.00  0.00    -0.744 OA
ENDBRANCH  75  78
ENDBRANCH  57  71
BRANCH  58  82
ATOM     82  C   UNL A   1      39.007  32.097  35.163  1.00  0.00     0.023 A 
ATOM     83  C   UNL A   1      39.189  33.494  35.172  1.00  0.00     0.012 A 
ATOM     84  C   UNL A   1      38.388  31.480  36.267  1.00  0.00     0.148 A 
ATOM     85  C   UNL A   1      38.797  34.258  36.272  1.00  0.00     0.002 A 
ATOM     86  C   UNL A   1      37.956  32.253  37.339  1.00  0.00     0.091 A 
ATOM     87  F   UNL A   1      38.242  30.147  36.247  1.00  0.00    -0.205 F 
ATOM     88  C   UNL A   1      38.174  33.640  37.351  1.00  0.00     0.022 A 
BRANCH  86  89
ATOM     89  S   UNL A   1      37.055  31.560  38.730  1.00  0.00     0.127 S 
ATOM     90  O   UNL A   1      37.992  31.779  39.829  1.00  0.00    -0.237 OA
ATOM     91  O   UNL A   1      35.861  32.405  38.762  1.00  0.00    -0.237 OA
ATOM     92  O   UNL A   1      36.807  30.170  38.380  1.00  0.00    -0.744 OA
ENDBRANCH  86  89
ENDBRANCH  58  82
BRANCH  70  93
ATOM     93  C   UNL A   1      36.264  30.723  28.891  1.00  0.00     0.023 A 
ATOM     94  C   UNL A   1      35.396  29.724  28.406  1.00  0.00     0.012 A 
ATOM     95  C   UNL A   1      35.867  32.074  28.812  1.00  0.00     0.148 A 
ATOM     96  C   UNL A   1      34.170  30.064  27.830  1.00  0.00     0.002 A 
ATOM     97  C   UNL A   1      34.623  32.402  28.278  1.00  0.00     0.091 A 
ATOM     98  F   UNL A   1      36.710  33.015  29.260  1.00  0.00    -0.205 F 
ATOM     99  C   UNL A   1      33.778  31.399  27.778  1.00  0.00     0.022 A 
BRANCH  97 100
ATOM    100  S   UNL A   1      33.994  34.086  28.257  1.00  0.00     0.127 S 
ATOM    101  O   UNL A   1      34.172  34.489  29.651  1.00  0.00    -0.237 OA
ATOM    102  O   UNL A   1      34.897  34.744  27.312  1.00  0.00    -0.237 OA
ATOM    103  O   UNL A   1      32.612  33.992  27.805  1.00  0.00    -0.744 OA
ENDBRANCH  97 100
ENDBRANCH  70  93
ENDBRANCH  44  45
ENDBRANCH  36  39
ENDBRANCH  34  35
ENDBRANCH  33  34
ENDBRANCH  32  33
ENDBRANCH   1  32
TORSDOF 20
ENDMDL
MODEL 3
REMARK VINA RESULT:      -9.1      6.947     13.984
REMARK SMILES C[C@@H]1CN(S(=O)(=O)c2cccc(C(=O)N3CCC[C@@H]3C(=O)NCCCCCCNC(=O)c3ccc(-c4c5nc(c(-c6cccc(S(=O)(=O)[O-])c6F)c6ccc([nH]6)c(-c6cccc(S(=O)(=O)[O-])c6F)c6nc(c(-c7cccc(S(=O)(=O)[O-])c7F)c7ccc4[nH]7)C=C6)C=C5)cc3)c2)C[C@H](C)O1
REMARK SMILES IDX 25 1 24 2 23 3 22 4 20 5 21 6 19 8 15 9 16 10 17 11 18 12
REMARK SMILES IDX 13 13 14 14 12 15 8 16 9 17 95 18 10 19 11 20 5 21 6 22 7 23
REMARK SMILES IDX 4 24 1 25 2 26 3 27 99 28 97 29 96 30 98 31 26 32 27 33
REMARK SMILES IDX 28 34 29 35 30 36 31 38 32 39 33 40 94 41 34 42 93 43 35 44
REMARK SMILES IDX 36 45 37 46 87 47 38 48 92 49 86 50 88 51 39 52 91 53 85 54
REMARK SMILES IDX 84 55 40 57 72 58 52 59 71 60 53 61 56 62 70 63 89 64 54 65
REMARK SMILES IDX 55 66 69 68 90 69 57 70 41 71 42 72 50 73 43 74 45 75 51 76
REMARK SMILES IDX 44 77 46 78 47 79 48 80 49 81 73 82 74 83 82 84 75 85 77 86
REMARK SMILES IDX 83 87 76 88 78 89 79 90 80 91 81 92 58 93 59 94 67 95 60 96
REMARK SMILES IDX 62 97 68 98 61 99 63 100 64 101 65 102 66 103
REMARK H PARENT 22 7 29 37 88 56 56 67
REMARK Flexibility Score: inf
ROOT
ATOM      1  C   UNL A   1      46.421  38.625  27.351  1.00  0.00     0.002 C 
ENDROOT
BRANCH   1   2
ATOM      2  C   UNL A   1      45.113  39.282  26.856  1.00  0.00     0.021 C 
BRANCH   2   3
ATOM      3  C   UNL A   1      43.930  39.463  27.816  1.00  0.00     0.116 C 
BRANCH   3   4
ATOM      4  N   UNL A   1      44.353  39.477  29.207  1.00  0.00    -0.354 N 
ATOM      5  C   UNL A   1      44.345  40.454  30.161  1.00  0.00     0.242 C 
ATOM      6  O   UNL A   1      45.002  40.211  31.183  1.00  0.00    -0.273 OA
ATOM      7  H   UNL A   1      44.714  38.617  29.520  1.00  0.00     0.163 HD
BRANCH   5   8
ATOM      8  C   UNL A   1      43.732  41.865  29.979  1.00  0.00     0.174 C 
ATOM      9  N   UNL A   1      44.591  43.023  30.166  1.00  0.00    -0.327 N 
ATOM     10  C   UNL A   1      43.766  44.154  30.562  1.00  0.00     0.121 C 
ATOM     11  C   UNL A   1      42.830  43.509  31.561  1.00  0.00     0.024 C 
ATOM     12  C   UNL A   1      42.561  42.126  30.949  1.00  0.00     0.037 C 
BRANCH   9  13
ATOM     13  C   UNL A   1      45.752  43.143  29.427  1.00  0.00     0.254 C 
ATOM     14  O   UNL A   1      46.870  43.059  29.924  1.00  0.00    -0.269 OA
BRANCH  13  15
ATOM     15  C   UNL A   1      45.584  43.658  28.032  1.00  0.00     0.041 A 
ATOM     16  C   UNL A   1      44.755  43.404  25.764  1.00  0.00     0.083 A 
ATOM     17  C   UNL A   1      45.101  44.726  25.477  1.00  0.00     0.022 A 
ATOM     18  C   UNL A   1      44.970  42.892  27.038  1.00  0.00     0.035 A 
ATOM     19  C   UNL A   1      45.694  45.513  26.471  1.00  0.00     0.002 A 
ATOM     20  C   UNL A   1      45.953  44.975  27.737  1.00  0.00     0.014 A 
BRANCH  16  21
ATOM     21  S   UNL A   1      44.448  42.231  24.464  1.00  0.00     0.243 S 
ATOM     22  O   UNL A   1      43.219  41.542  24.824  1.00  0.00    -0.207 OA
ATOM     23  O   UNL A   1      45.687  41.530  24.254  1.00  0.00    -0.207 OA
BRANCH  21  24
ATOM     24  N   UNL A   1      44.112  43.091  23.046  1.00  0.00    -0.193 NA
ATOM     25  C   UNL A   1      41.729  43.575  20.026  1.00  0.00     0.040 C 
ATOM     26  C   UNL A   1      43.030  43.248  20.756  1.00  0.00     0.130 C 
ATOM     27  C   UNL A   1      42.851  42.880  22.267  1.00  0.00     0.134 C 
ATOM     28  O   UNL A   1      43.880  44.393  20.591  1.00  0.00    -0.373 OA
ATOM     29  C   UNL A   1      45.184  44.241  21.184  1.00  0.00     0.130 C 
ATOM     30  C   UNL A   1      45.286  43.034  22.115  1.00  0.00     0.134 C 
ATOM     31  C   UNL A   1      45.504  45.506  21.976  1.00  0.00     0.040 C 
ENDBRANCH  21  24
ENDBRANCH  16  21
ENDBRANCH  13  15
ENDBRANCH   9  13
ENDBRANCH   5   8
ENDBRANCH   3   4
ENDBRANCH   2   3
ENDBRANCH   1   2
BRANCH   1  32
ATOM     32  C   UNL A   1      47.325  37.793  26.411  1.00  0.00     0.002 C 
BRANCH  32  33
ATOM     33  C   UNL A   1      47.903  36.405  26.808  1.00  0.00     0.021 C 
BRANCH  33  34
ATOM     34  C   UNL A   1      48.219  35.340  25.731  1.00  0.00     0.116 C 
BRANCH  34  35
ATOM     35  N   UNL A   1      47.063  34.851  24.980  1.00  0.00    -0.352 N 
ATOM     36  C   UNL A   1      45.725  34.652  25.271  1.00  0.00     0.251 C 
ATOM     37  H   UNL A   1      47.288  34.608  24.052  1.00  0.00     0.163 HD
ATOM     38  O   UNL A   1      45.012  34.267  24.338  1.00  0.00    -0.269 OA
BRANCH  36  39
ATOM     39  C   UNL A   1      45.073  34.804  26.614  1.00  0.00     0.039 A 
ATOM     40  C   UNL A   1      45.376  33.832  27.589  1.00  0.00     0.014 A 
ATOM     41  C   UNL A   1      44.150  35.791  26.963  1.00  0.00     0.014 A 
ATOM     42  C   UNL A   1      44.842  33.893  28.895  1.00  0.00     0.010 A 
ATOM     43  C   UNL A   1      43.639  35.869  28.285  1.00  0.00     0.010 A 
ATOM     44  C   UNL A   1      43.987  34.935  29.282  1.00  0.00    -0.014 A 
BRANCH  44  45
ATOM     45  C   UNL A   1      43.478  35.032  30.701  1.00  0.00     0.031 A 
ATOM     46  C   UNL A   1      44.277  35.736  31.778  1.00  0.00     0.074 A 
ATOM     47  C   UNL A   1      42.301  34.475  31.072  1.00  0.00     0.049 A 
ATOM     48  N   UNL A   1      43.961  35.958  33.033  1.00  0.00    -0.248 NA
ATOM     49  C   UNL A   1      45.603  36.243  31.402  1.00  0.00     0.031 C 
ATOM     50  C   UNL A   1      41.411  33.711  30.200  1.00  0.00     0.029 A 
ATOM     51  N   UNL A   1      41.653  34.452  32.292  1.00  0.00    -0.354 N 
ATOM     52  C   UNL A   1      45.050  36.612  33.599  1.00  0.00     0.074 A 
ATOM     53  C   UNL A   1      46.053  36.713  32.558  1.00  0.00     0.031 C 
ATOM     54  C   UNL A   1      40.347  33.288  30.906  1.00  0.00     0.029 A 
ATOM     55  C   UNL A   1      40.465  33.751  32.288  1.00  0.00     0.049 A 
ATOM     56  H   UNL A   1      42.009  34.898  33.095  1.00  0.00     0.167 HD
ATOM     57  C   UNL A   1      45.206  37.119  34.849  1.00  0.00     0.034 A 
ATOM     58  C   UNL A   1      39.561  33.514  33.265  1.00  0.00     0.034 A 
ATOM     59  C   UNL A   1      44.218  37.074  35.896  1.00  0.00     0.049 A 
ATOM     60  C   UNL A   1      39.746  34.102  34.643  1.00  0.00     0.074 A 
ATOM     61  C   UNL A   1      44.278  37.650  37.157  1.00  0.00     0.029 A 
ATOM     62  N   UNL A   1      43.005  36.414  35.822  1.00  0.00    -0.354 N 
ATOM     63  N   UNL A   1      40.700  34.881  35.089  1.00  0.00    -0.248 NA
ATOM     64  C   UNL A   1      38.701  33.814  35.644  1.00  0.00     0.031 C 
ATOM     65  C   UNL A   1      43.111  37.317  37.853  1.00  0.00     0.029 A 
ATOM     66  C   UNL A   1      42.313  36.556  37.018  1.00  0.00     0.049 A 
ATOM     67  H   UNL A   1      42.679  35.917  35.038  1.00  0.00     0.167 HD
ATOM     68  C   UNL A   1      40.347  35.211  36.396  1.00  0.00     0.074 A 
ATOM     69  C   UNL A   1      39.084  34.564  36.669  1.00  0.00     0.031 C 
ATOM     70  C   UNL A   1      41.022  35.977  37.288  1.00  0.00     0.034 A 
BRANCH  57  71
ATOM     71  C   UNL A   1      46.495  37.844  35.149  1.00  0.00     0.023 A 
ATOM     72  C   UNL A   1      47.576  37.125  35.701  1.00  0.00     0.012 A 
ATOM     73  C   UNL A   1      46.663  39.203  34.821  1.00  0.00     0.148 A 
ATOM     74  C   UNL A   1      48.791  37.758  35.960  1.00  0.00     0.002 A 
ATOM     75  C   UNL A   1      47.892  39.816  35.042  1.00  0.00     0.091 A 
ATOM     76  F   UNL A   1      45.622  39.872  34.306  1.00  0.00    -0.205 F 
ATOM     77  C   UNL A   1      48.951  39.099  35.622  1.00  0.00     0.022 A 
BRANCH  75  78
ATOM     78  S   UNL A   1      48.224  41.517  34.569  1.00  0.00     0.127 S 
ATOM     79  O   UNL A   1      49.673  41.593  34.745  1.00  0.00    -0.237 OA
ATOM     80  O   UNL A   1      47.777  41.544  33.176  1.00  0.00    -0.237 OA
ATOM     81  O   UNL A   1      47.438  42.345  35.473  1.00  0.00    -0.744 OA
ENDBRANCH  75  78
ENDBRANCH  57  71
BRANCH  58  82
ATOM     82  C   UNL A   1      38.326  32.724  32.971  1.00  0.00     0.023 A 
ATOM     83  C   UNL A   1      38.330  31.329  33.173  1.00  0.00     0.012 A 
ATOM     84  C   UNL A   1      37.166  33.340  32.463  1.00  0.00     0.148 A 
ATOM     85  C   UNL A   1      37.216  30.557  32.840  1.00  0.00     0.002 A 
ATOM     86  C   UNL A   1      36.043  32.570  32.178  1.00  0.00     0.091 A 
ATOM     87  F   UNL A   1      37.189  34.664  32.261  1.00  0.00    -0.205 F 
ATOM     88  C   UNL A   1      36.071  31.177  32.350  1.00  0.00     0.022 A 
BRANCH  86  89
ATOM     89  S   UNL A   1      34.489  33.290  31.638  1.00  0.00     0.127 S 
ATOM     90  O   UNL A   1      34.272  32.609  30.365  1.00  0.00    -0.237 OA
ATOM     91  O   UNL A   1      33.583  32.887  32.714  1.00  0.00    -0.237 OA
ATOM     92  O   UNL A   1      34.732  34.723  31.553  1.00  0.00    -0.744 OA
ENDBRANCH  86  89
ENDBRANCH  58  82
BRANCH  70  93
ATOM     93  C   UNL A   1      40.410  36.215  38.648  1.00  0.00     0.023 A 
ATOM     94  C   UNL A   1      39.487  37.264  38.830  1.00  0.00     0.012 A 
ATOM     95  C   UNL A   1      40.682  35.345  39.724  1.00  0.00     0.148 A 
ATOM     96  C   UNL A   1      38.865  37.459  40.066  1.00  0.00     0.002 A 
ATOM     97  C   UNL A   1      40.024  35.518  40.939  1.00  0.00     0.091 A 
ATOM     98  F   UNL A   1      41.576  34.364  39.543  1.00  0.00    -0.205 F 
ATOM     99  C   UNL A   1      39.124  36.581  41.115  1.00  0.00     0.022 A 
BRANCH  97 100
ATOM    100  S   UNL A   1      40.222  34.379  42.317  1.00  0.00     0.127 S 
ATOM    101  O   UNL A   1      41.647  34.515  42.615  1.00  0.00    -0.237 OA
ATOM    102  O   UNL A   1      39.331  34.952  43.326  1.00  0.00    -0.237 OA
ATOM    103  O   UNL A   1      39.810  33.074  41.820  1.00  0.00    -0.744 OA
ENDBRANCH  97 100
ENDBRANCH  70  93
ENDBRANCH  44  45
ENDBRANCH  36  39
ENDBRANCH  34  35
ENDBRANCH  33  34
ENDBRANCH  32  33
ENDBRANCH   1  32
TORSDOF 20
ENDMDL
