MODEL 1
REMARK VINA RESULT:     -11.8      0.000      0.000
REMARK SMILES CSc1nc(O)nc(C)c1C(=O)N1C[C@@H](O)C[C@@H]1C(=O)NCCCCCCNC(=O)c1ccc(-c2c3nc(c(-c4cccc(S(=O)(=O)[O-])c4F)c4ccc([nH]4)c(-c4cccc(S(=O)(=O)[O-])c4F)c4nc(c(-c5cccc(S(=O)(=O)[O-])c5F)c5ccc2[nH]5)C=C4)C=C3)cc1
REMARK SMILES IDX 24 1 23 2 22 3 21 4 19 5 20 6 18 8 13 9 14 10 15 11 17 12
REMARK SMILES IDX 11 13 12 14 10 15 3 16 4 17 5 18 8 19 7 20 9 21 2 22 1 23
REMARK SMILES IDX 6 24 16 26 25 28 26 29 27 30 28 31 29 32 30 34 31 35 32 36
REMARK SMILES IDX 93 37 33 38 92 39 34 40 35 41 36 42 86 43 37 44 91 45 85 46
REMARK SMILES IDX 87 47 38 48 90 49 84 50 83 51 39 53 71 54 51 55 70 56 52 57
REMARK SMILES IDX 55 58 69 59 88 60 53 61 54 62 68 64 89 65 56 66 40 67 41 68
REMARK SMILES IDX 49 69 42 70 44 71 50 72 43 73 45 74 46 75 47 76 48 77 72 78
REMARK SMILES IDX 73 79 81 80 74 81 76 82 82 83 75 84 77 85 78 86 79 87 80 88
REMARK SMILES IDX 57 89 58 90 66 91 59 92 61 93 67 94 60 95 62 96 63 97 64 98
REMARK SMILES IDX 65 99
REMARK H PARENT 21 7 6 25 16 27 28 33 87 52 55 63
REMARK Flexibility Score: inf
ROOT
ATOM      1  C   UNL A   1      32.605  29.567  27.234  1.00  0.00     0.002 C 
ENDROOT
BRANCH   1   2
ATOM      2  C   UNL A   1      31.837  28.300  27.617  1.00  0.00     0.021 C 
BRANCH   2   3
ATOM      3  C   UNL A   1      32.063  27.104  26.689  1.00  0.00     0.116 C 
BRANCH   3   4
ATOM      4  N   UNL A   1      31.049  26.079  26.875  1.00  0.00    -0.354 N 
ATOM      5  C   UNL A   1      31.101  24.735  26.630  1.00  0.00     0.242 C 
ATOM      6  O   UNL A   1      30.087  24.071  26.863  1.00  0.00    -0.273 OA
ATOM      7  H   UNL A   1      30.191  26.403  27.233  1.00  0.00     0.163 HD
BRANCH   5   8
ATOM      8  C   UNL A   1      32.358  24.108  25.991  1.00  0.00     0.177 C 
ATOM      9  N   UNL A   1      31.977  23.159  24.935  1.00  0.00    -0.324 N 
ATOM     10  C   UNL A   1      32.720  21.922  25.091  1.00  0.00     0.152 C 
ATOM     11  C   UNL A   1      32.929  21.819  26.598  1.00  0.00     0.136 C 
ATOM     12  C   UNL A   1      33.149  23.274  27.015  1.00  0.00     0.069 C 
BRANCH   9  13
ATOM     13  C   UNL A   1      31.518  23.618  23.716  1.00  0.00     0.259 C 
ATOM     14  O   UNL A   1      30.656  22.968  23.132  1.00  0.00    -0.269 OA
BRANCH  13  15
ATOM     15  C   UNL A   1      32.098  24.849  23.079  1.00  0.00     0.093 A 
ATOM     16  C   UNL A   1      31.438  26.077  22.924  1.00  0.00     0.116 A 
ATOM     17  N   UNL A   1      31.996  27.155  22.319  1.00  0.00    -0.188 NA
ATOM     18  C   UNL A   1      33.250  27.019  21.929  1.00  0.00     0.315 A 
ATOM     19  C   UNL A   1      33.442  24.866  22.663  1.00  0.00     0.058 A 
ATOM     20  N   UNL A   1      34.018  25.952  22.080  1.00  0.00    -0.200 NA
ATOM     21  C   UNL A   1      34.453  23.783  22.931  1.00  0.00     0.068 C 
BRANCH  16  22
ATOM     22  S   UNL A   1      29.854  26.514  23.632  1.00  0.00    -0.109 SA
ATOM     23  C   UNL A   1      29.663  28.175  22.935  1.00  0.00     0.092 C 
ENDBRANCH  16  22
BRANCH  18  24
ATOM     24  O   UNL A   1      33.861  28.087  21.357  1.00  0.00    -0.479 OA
ATOM     25  H   UNL A   1      33.886  28.168  20.424  1.00  0.00     0.297 HD
ENDBRANCH  18  24
ENDBRANCH  13  15
ENDBRANCH   9  13
BRANCH  11  26
ATOM     26  O   UNL A   1      34.032  20.996  26.945  1.00  0.00    -0.391 OA
ATOM     27  H   UNL A   1      34.090  20.924  27.911  1.00  0.00     0.211 HD
ENDBRANCH  11  26
ENDBRANCH   5   8
ENDBRANCH   3   4
ENDBRANCH   2   3
ENDBRANCH   1   2
BRANCH   1  28
ATOM     28  C   UNL A   1      31.885  30.497  26.256  1.00  0.00     0.002 C 
BRANCH  28  29
ATOM     29  C   UNL A   1      31.629  31.916  26.772  1.00  0.00     0.021 C 
BRANCH  29  30
ATOM     30  C   UNL A   1      32.835  32.587  27.424  1.00  0.00     0.116 C 
BRANCH  30  31
ATOM     31  N   UNL A   1      32.594  33.999  27.684  1.00  0.00    -0.352 N 
ATOM     32  C   UNL A   1      33.156  34.800  28.647  1.00  0.00     0.251 C 
ATOM     33  H   UNL A   1      31.941  34.439  27.091  1.00  0.00     0.163 HD
ATOM     34  O   UNL A   1      32.712  35.923  28.865  1.00  0.00    -0.269 OA
BRANCH  32  35
ATOM     35  C   UNL A   1      34.296  34.286  29.431  1.00  0.00     0.039 A 
ATOM     36  C   UNL A   1      34.048  33.509  30.565  1.00  0.00     0.014 A 
ATOM     37  C   UNL A   1      35.606  34.556  29.022  1.00  0.00     0.014 A 
ATOM     38  C   UNL A   1      35.121  32.949  31.261  1.00  0.00     0.010 A 
ATOM     39  C   UNL A   1      36.671  33.962  29.691  1.00  0.00     0.010 A 
ATOM     40  C   UNL A   1      36.436  33.152  30.813  1.00  0.00    -0.014 A 
BRANCH  40  41
ATOM     41  C   UNL A   1      37.589  32.524  31.499  1.00  0.00     0.031 A 
ATOM     42  C   UNL A   1      38.286  31.352  30.873  1.00  0.00     0.074 A 
ATOM     43  C   UNL A   1      37.953  32.960  32.719  1.00  0.00     0.049 A 
ATOM     44  N   UNL A   1      39.260  30.625  31.351  1.00  0.00    -0.248 NA
ATOM     45  C   UNL A   1      37.817  30.935  29.541  1.00  0.00     0.031 C 
ATOM     46  C   UNL A   1      37.321  34.060  33.446  1.00  0.00     0.029 A 
ATOM     47  N   UNL A   1      38.932  32.514  33.571  1.00  0.00    -0.354 N 
ATOM     48  C   UNL A   1      39.512  29.655  30.391  1.00  0.00     0.074 A 
ATOM     49  C   UNL A   1      38.568  29.867  29.314  1.00  0.00     0.031 C 
ATOM     50  C   UNL A   1      37.930  34.207  34.635  1.00  0.00     0.029 A 
ATOM     51  C   UNL A   1      38.981  33.200  34.760  1.00  0.00     0.049 A 
ATOM     52  H   UNL A   1      39.542  31.773  33.351  1.00  0.00     0.167 HD
ATOM     53  C   UNL A   1      40.464  28.695  30.390  1.00  0.00     0.034 A 
ATOM     54  C   UNL A   1      39.781  33.039  35.832  1.00  0.00     0.034 A 
ATOM     55  C   UNL A   1      41.418  28.502  31.446  1.00  0.00     0.049 A 
ATOM     56  C   UNL A   1      40.841  31.975  35.806  1.00  0.00     0.074 A 
ATOM     57  C   UNL A   1      42.439  27.572  31.522  1.00  0.00     0.029 A 
ATOM     58  N   UNL A   1      41.474  29.256  32.608  1.00  0.00    -0.354 N 
ATOM     59  N   UNL A   1      41.118  31.117  34.853  1.00  0.00    -0.248 NA
ATOM     60  C   UNL A   1      41.718  31.872  36.981  1.00  0.00     0.031 C 
ATOM     61  C   UNL A   1      43.116  27.767  32.731  1.00  0.00     0.029 A 
ATOM     62  C   UNL A   1      42.519  28.824  33.402  1.00  0.00     0.049 A 
ATOM     63  H   UNL A   1      40.858  29.991  32.834  1.00  0.00     0.167 HD
ATOM     64  C   UNL A   1      42.219  30.395  35.298  1.00  0.00     0.074 A 
ATOM     65  C   UNL A   1      42.560  30.917  36.606  1.00  0.00     0.031 C 
ATOM     66  C   UNL A   1      42.879  29.388  34.678  1.00  0.00     0.034 A 
BRANCH  53  67
ATOM     67  C   UNL A   1      40.565  27.822  29.170  1.00  0.00     0.023 A 
ATOM     68  C   UNL A   1      39.704  26.711  29.057  1.00  0.00     0.012 A 
ATOM     69  C   UNL A   1      41.460  28.119  28.126  1.00  0.00     0.148 A 
ATOM     70  C   UNL A   1      39.747  25.894  27.929  1.00  0.00     0.002 A 
ATOM     71  C   UNL A   1      41.474  27.317  26.990  1.00  0.00     0.091 A 
ATOM     72  F   UNL A   1      42.283  29.167  28.267  1.00  0.00    -0.205 F 
ATOM     73  C   UNL A   1      40.624  26.202  26.893  1.00  0.00     0.022 A 
BRANCH  71  74
ATOM     74  S   UNL A   1      42.531  27.657  25.578  1.00  0.00     0.127 S 
ATOM     75  O   UNL A   1      43.847  27.743  26.210  1.00  0.00    -0.237 OA
ATOM     76  O   UNL A   1      42.329  26.468  24.748  1.00  0.00    -0.237 OA
ATOM     77  O   UNL A   1      42.038  28.896  24.995  1.00  0.00    -0.744 OA
ENDBRANCH  71  74
ENDBRANCH  53  67
BRANCH  54  78
ATOM     78  C   UNL A   1      39.660  33.989  36.968  1.00  0.00     0.023 A 
ATOM     79  C   UNL A   1      40.006  35.339  36.764  1.00  0.00     0.012 A 
ATOM     80  C   UNL A   1      39.108  33.595  38.203  1.00  0.00     0.148 A 
ATOM     81  C   UNL A   1      39.805  36.283  37.771  1.00  0.00     0.002 A 
ATOM     82  C   UNL A   1      38.877  34.548  39.188  1.00  0.00     0.091 A 
ATOM     83  F   UNL A   1      38.778  32.307  38.364  1.00  0.00    -0.205 F 
ATOM     84  C   UNL A   1      39.233  35.890  38.978  1.00  0.00     0.022 A 
BRANCH  82  85
ATOM     85  S   UNL A   1      38.051  34.165  40.737  1.00  0.00     0.127 S 
ATOM     86  O   UNL A   1      36.881  33.419  40.279  1.00  0.00    -0.237 OA
ATOM     87  O   UNL A   1      39.065  33.363  41.421  1.00  0.00    -0.237 OA
ATOM     88  O   UNL A   1      37.760  35.447  41.363  1.00  0.00    -0.744 OA
ENDBRANCH  82  85
ENDBRANCH  54  78
BRANCH  66  89
ATOM     89  C   UNL A   1      44.065  28.783  35.377  1.00  0.00     0.023 A 
ATOM     90  C   UNL A   1      45.343  29.340  35.182  1.00  0.00     0.012 A 
ATOM     91  C   UNL A   1      43.888  27.757  36.326  1.00  0.00     0.148 A 
ATOM     92  C   UNL A   1      46.433  28.879  35.920  1.00  0.00     0.002 A 
ATOM     93  C   UNL A   1      44.973  27.326  37.081  1.00  0.00     0.091 A 
ATOM     94  F   UNL A   1      42.662  27.237  36.484  1.00  0.00    -0.205 F 
ATOM     95  C   UNL A   1      46.246  27.883  36.877  1.00  0.00     0.022 A 
BRANCH  93  96
ATOM     96  S   UNL A   1      44.817  26.103  38.389  1.00  0.00     0.127 S 
ATOM     97  O   UNL A   1      44.272  24.958  37.661  1.00  0.00    -0.237 OA
ATOM     98  O   UNL A   1      46.203  25.944  38.830  1.00  0.00    -0.237 OA
ATOM     99  O   UNL A   1      43.926  26.687  39.384  1.00  0.00    -0.744 OA
ENDBRANCH  93  96
ENDBRANCH  66  89
ENDBRANCH  40  41
ENDBRANCH  32  35
ENDBRANCH  30  31
ENDBRANCH  29  30
ENDBRANCH  28  29
ENDBRANCH   1  28
TORSDOF 21
ENDMDL
MODEL 2
REMARK VINA RESULT:     -11.5      6.093      9.750
REMARK SMILES CSc1nc(O)nc(C)c1C(=O)N1C[C@@H](O)C[C@@H]1C(=O)NCCCCCCNC(=O)c1ccc(-c2c3nc(c(-c4cccc(S(=O)(=O)[O-])c4F)c4ccc([nH]4)c(-c4cccc(S(=O)(=O)[O-])c4F)c4nc(c(-c5cccc(S(=O)(=O)[O-])c5F)c5ccc2[nH]5)C=C4)C=C3)cc1
REMARK SMILES IDX 24 1 23 2 22 3 21 4 19 5 20 6 18 8 13 9 14 10 15 11 17 12
REMARK SMILES IDX 11 13 12 14 10 15 3 16 4 17 5 18 8 19 7 20 9 21 2 22 1 23
REMARK SMILES IDX 6 24 16 26 25 28 26 29 27 30 28 31 29 32 30 34 31 35 32 36
REMARK SMILES IDX 93 37 33 38 92 39 34 40 35 41 36 42 86 43 37 44 91 45 85 46
REMARK SMILES IDX 87 47 38 48 90 49 84 50 83 51 39 53 71 54 51 55 70 56 52 57
REMARK SMILES IDX 55 58 69 59 88 60 53 61 54 62 68 64 89 65 56 66 40 67 41 68
REMARK SMILES IDX 49 69 42 70 44 71 50 72 43 73 45 74 46 75 47 76 48 77 72 78
REMARK SMILES IDX 73 79 81 80 74 81 76 82 82 83 75 84 77 85 78 86 79 87 80 88
REMARK SMILES IDX 57 89 58 90 66 91 59 92 61 93 67 94 60 95 62 96 63 97 64 98
REMARK SMILES IDX 65 99
REMARK H PARENT 21 7 6 25 16 27 28 33 87 52 55 63
REMARK Flexibility Score: inf
ROOT
ATOM      1  C   UNL A   1      37.039  22.498  25.160  1.00  0.00     0.002 C 
ENDROOT
BRANCH   1   2
ATOM      2  C   UNL A   1      35.627  22.954  25.534  1.00  0.00     0.021 C 
BRANCH   2   3
ATOM      3  C   UNL A   1      35.218  24.316  24.969  1.00  0.00     0.116 C 
BRANCH   3   4
ATOM      4  N   UNL A   1      34.819  24.223  23.574  1.00  0.00    -0.354 N 
ATOM      5  C   UNL A   1      33.901  24.952  22.871  1.00  0.00     0.242 C 
ATOM      6  O   UNL A   1      33.734  24.667  21.681  1.00  0.00    -0.273 OA
ATOM      7  H   UNL A   1      35.283  23.527  23.054  1.00  0.00     0.163 HD
BRANCH   5   8
ATOM      8  C   UNL A   1      33.044  26.019  23.583  1.00  0.00     0.177 C 
ATOM      9  N   UNL A   1      31.635  25.898  23.181  1.00  0.00    -0.324 N 
ATOM     10  C   UNL A   1      31.103  27.205  22.841  1.00  0.00     0.152 C 
ATOM     11  C   UNL A   1      32.313  27.950  22.288  1.00  0.00     0.136 C 
ATOM     12  C   UNL A   1      33.459  27.442  23.164  1.00  0.00     0.069 C 
BRANCH   9  13
ATOM     13  C   UNL A   1      30.856  24.867  23.669  1.00  0.00     0.259 C 
ATOM     14  O   UNL A   1      29.788  24.626  23.115  1.00  0.00    -0.269 OA
BRANCH  13  15
ATOM     15  C   UNL A   1      31.266  24.091  24.889  1.00  0.00     0.093 A 
ATOM     16  C   UNL A   1      31.761  22.779  24.895  1.00  0.00     0.116 A 
ATOM     17  N   UNL A   1      32.096  22.111  26.027  1.00  0.00    -0.188 NA
ATOM     18  C   UNL A   1      31.998  22.791  27.154  1.00  0.00     0.315 A 
ATOM     19  C   UNL A   1      31.265  24.707  26.154  1.00  0.00     0.058 A 
ATOM     20  N   UNL A   1      31.625  24.052  27.291  1.00  0.00    -0.200 NA
ATOM     21  C   UNL A   1      31.024  26.171  26.412  1.00  0.00     0.068 C 
BRANCH  16  22
ATOM     22  S   UNL A   1      32.210  21.819  23.452  1.00  0.00    -0.109 SA
ATOM     23  C   UNL A   1      33.059  20.440  24.263  1.00  0.00     0.092 C 
ENDBRANCH  16  22
BRANCH  18  24
ATOM     24  O   UNL A   1      32.364  22.174  28.306  1.00  0.00    -0.479 OA
ATOM     25  H   UNL A   1      32.705  21.302  28.282  1.00  0.00     0.297 HD
ENDBRANCH  18  24
ENDBRANCH  13  15
ENDBRANCH   9  13
BRANCH  11  26
ATOM     26  O   UNL A   1      32.173  29.360  22.365  1.00  0.00    -0.391 OA
ATOM     27  H   UNL A   1      31.850  29.699  21.515  1.00  0.00     0.211 HD
ENDBRANCH  11  26
ENDBRANCH   5   8
ENDBRANCH   3   4
ENDBRANCH   2   3
ENDBRANCH   1   2
BRANCH   1  28
ATOM     28  C   UNL A   1      37.110  21.244  24.287  1.00  0.00     0.002 C 
BRANCH  28  29
ATOM     29  C   UNL A   1      37.854  20.058  24.908  1.00  0.00     0.021 C 
BRANCH  29  30
ATOM     30  C   UNL A   1      38.899  20.435  25.955  1.00  0.00     0.116 C 
BRANCH  30  31
ATOM     31  N   UNL A   1      39.965  19.447  26.036  1.00  0.00    -0.352 N 
ATOM     32  C   UNL A   1      41.317  19.654  26.151  1.00  0.00     0.251 C 
ATOM     33  H   UNL A   1      39.679  18.505  26.005  1.00  0.00     0.163 HD
ATOM     34  O   UNL A   1      42.107  18.725  26.017  1.00  0.00    -0.269 OA
BRANCH  32  35
ATOM     35  C   UNL A   1      41.813  21.017  26.424  1.00  0.00     0.039 A 
ATOM     36  C   UNL A   1      42.005  21.898  25.357  1.00  0.00     0.014 A 
ATOM     37  C   UNL A   1      42.060  21.423  27.739  1.00  0.00     0.014 A 
ATOM     38  C   UNL A   1      42.391  23.215  25.616  1.00  0.00     0.010 A 
ATOM     39  C   UNL A   1      42.402  22.746  27.998  1.00  0.00     0.010 A 
ATOM     40  C   UNL A   1      42.568  23.651  26.939  1.00  0.00    -0.014 A 
BRANCH  40  41
ATOM     41  C   UNL A   1      42.922  25.057  27.245  1.00  0.00     0.031 A 
ATOM     42  C   UNL A   1      44.293  25.573  26.922  1.00  0.00     0.074 A 
ATOM     43  C   UNL A   1      42.033  25.841  27.884  1.00  0.00     0.049 A 
ATOM     44  N   UNL A   1      44.812  26.744  27.180  1.00  0.00    -0.248 NA
ATOM     45  C   UNL A   1      45.205  24.646  26.232  1.00  0.00     0.031 C 
ATOM     46  C   UNL A   1      40.687  25.435  28.289  1.00  0.00     0.029 A 
ATOM     47  N   UNL A   1      42.140  27.136  28.323  1.00  0.00    -0.354 N 
ATOM     48  C   UNL A   1      46.113  26.692  26.701  1.00  0.00     0.074 A 
ATOM     49  C   UNL A   1      46.317  25.364  26.162  1.00  0.00     0.031 C 
ATOM     50  C   UNL A   1      40.090  26.462  28.915  1.00  0.00     0.029 A 
ATOM     51  C   UNL A   1      41.017  27.591  28.973  1.00  0.00     0.049 A 
ATOM     52  H   UNL A   1      42.943  27.688  28.187  1.00  0.00     0.167 HD
ATOM     53  C   UNL A   1      47.045  27.673  26.681  1.00  0.00     0.034 A 
ATOM     54  C   UNL A   1      40.760  28.781  29.548  1.00  0.00     0.034 A 
ATOM     55  C   UNL A   1      46.834  28.998  27.191  1.00  0.00     0.049 A 
ATOM     56  C   UNL A   1      41.804  29.861  29.504  1.00  0.00     0.074 A 
ATOM     57  C   UNL A   1      47.710  30.069  27.190  1.00  0.00     0.029 A 
ATOM     58  N   UNL A   1      45.662  29.438  27.787  1.00  0.00    -0.354 N 
ATOM     59  N   UNL A   1      43.002  29.821  28.974  1.00  0.00    -0.248 NA
ATOM     60  C   UNL A   1      41.455  31.156  30.106  1.00  0.00     0.031 C 
ATOM     61  C   UNL A   1      47.065  31.159  27.783  1.00  0.00     0.029 A 
ATOM     62  C   UNL A   1      45.785  30.768  28.146  1.00  0.00     0.049 A 
ATOM     63  H   UNL A   1      44.861  28.885  27.933  1.00  0.00     0.167 HD
ATOM     64  C   UNL A   1      43.539  31.090  29.148  1.00  0.00     0.074 A 
ATOM     65  C   UNL A   1      42.534  31.879  29.831  1.00  0.00     0.031 C 
ATOM     66  C   UNL A   1      44.757  31.554  28.778  1.00  0.00     0.034 A 
BRANCH  53  67
ATOM     67  C   UNL A   1      48.359  27.364  26.019  1.00  0.00     0.023 A 
ATOM     68  C   UNL A   1      49.416  26.865  26.808  1.00  0.00     0.012 A 
ATOM     69  C   UNL A   1      48.537  27.514  24.632  1.00  0.00     0.148 A 
ATOM     70  C   UNL A   1      50.641  26.540  26.228  1.00  0.00     0.002 A 
ATOM     71  C   UNL A   1      49.751  27.159  24.056  1.00  0.00     0.091 A 
ATOM     72  F   UNL A   1      47.525  28.012  23.907  1.00  0.00    -0.205 F 
ATOM     73  C   UNL A   1      50.805  26.678  24.852  1.00  0.00     0.022 A 
BRANCH  71  74
ATOM     74  S   UNL A   1      50.049  27.251  22.288  1.00  0.00     0.127 S 
ATOM     75  O   UNL A   1      48.988  26.388  21.765  1.00  0.00    -0.237 OA
ATOM     76  O   UNL A   1      49.864  28.677  22.016  1.00  0.00    -0.237 OA
ATOM     77  O   UNL A   1      51.405  26.764  22.081  1.00  0.00    -0.744 OA
ENDBRANCH  71  74
ENDBRANCH  53  67
BRANCH  54  78
ATOM     78  C   UNL A   1      39.410  29.026  30.120  1.00  0.00     0.023 A 
ATOM     79  C   UNL A   1      39.138  28.588  31.431  1.00  0.00     0.012 A 
ATOM     80  C   UNL A   1      38.441  29.775  29.426  1.00  0.00     0.148 A 
ATOM     81  C   UNL A   1      37.923  28.893  32.043  1.00  0.00     0.002 A 
ATOM     82  C   UNL A   1      37.246  30.106  30.056  1.00  0.00     0.091 A 
ATOM     83  F   UNL A   1      38.731  30.187  28.185  1.00  0.00    -0.205 F 
ATOM     84  C   UNL A   1      36.982  29.658  31.360  1.00  0.00     0.022 A 
BRANCH  82  85
ATOM     85  S   UNL A   1      36.012  31.173  29.303  1.00  0.00     0.127 S 
ATOM     86  O   UNL A   1      35.321  30.248  28.406  1.00  0.00    -0.237 OA
ATOM     87  O   UNL A   1      35.237  31.596  30.469  1.00  0.00    -0.237 OA
ATOM     88  O   UNL A   1      36.754  32.237  28.641  1.00  0.00    -0.744 OA
ENDBRANCH  82  85
ENDBRANCH  54  78
BRANCH  66  89
ATOM     89  C   UNL A   1      45.086  32.992  29.071  1.00  0.00     0.023 A 
ATOM     90  C   UNL A   1      45.716  33.326  30.285  1.00  0.00     0.012 A 
ATOM     91  C   UNL A   1      44.895  33.983  28.088  1.00  0.00     0.148 A 
ATOM     92  C   UNL A   1      46.147  34.631  30.520  1.00  0.00     0.002 A 
ATOM     93  C   UNL A   1      45.357  35.274  28.317  1.00  0.00     0.091 A 
ATOM     94  F   UNL A   1      44.283  33.639  26.946  1.00  0.00    -0.205 F 
ATOM     95  C   UNL A   1      45.979  35.600  29.533  1.00  0.00     0.022 A 
BRANCH  93  96
ATOM     96  S   UNL A   1      45.257  36.571  27.077  1.00  0.00     0.127 S 
ATOM     97  O   UNL A   1      46.121  36.041  26.022  1.00  0.00    -0.237 OA
ATOM     98  O   UNL A   1      43.830  36.577  26.751  1.00  0.00    -0.237 OA
ATOM     99  O   UNL A   1      45.738  37.785  27.722  1.00  0.00    -0.744 OA
ENDBRANCH  93  96
ENDBRANCH  66  89
ENDBRANCH  40  41
ENDBRANCH  32  35
ENDBRANCH  30  31
ENDBRANCH  29  30
ENDBRANCH  28  29
ENDBRANCH   1  28
TORSDOF 21
ENDMDL
MODEL 3
REMARK VINA RESULT:     -11.5      1.364      8.132
REMARK SMILES CSc1nc(O)nc(C)c1C(=O)N1C[C@@H](O)C[C@@H]1C(=O)NCCCCCCNC(=O)c1ccc(-c2c3nc(c(-c4cccc(S(=O)(=O)[O-])c4F)c4ccc([nH]4)c(-c4cccc(S(=O)(=O)[O-])c4F)c4nc(c(-c5cccc(S(=O)(=O)[O-])c5F)c5ccc2[nH]5)C=C4)C=C3)cc1
REMARK SMILES IDX 24 1 23 2 22 3 21 4 19 5 20 6 18 8 13 9 14 10 15 11 17 12
REMARK SMILES IDX 11 13 12 14 10 15 3 16 4 17 5 18 8 19 7 20 9 21 2 22 1 23
REMARK SMILES IDX 6 24 16 26 25 28 26 29 27 30 28 31 29 32 30 34 31 35 32 36
REMARK SMILES IDX 93 37 33 38 92 39 34 40 35 41 36 42 86 43 37 44 91 45 85 46
REMARK SMILES IDX 87 47 38 48 90 49 84 50 83 51 39 53 71 54 51 55 70 56 52 57
REMARK SMILES IDX 55 58 69 59 88 60 53 61 54 62 68 64 89 65 56 66 40 67 41 68
REMARK SMILES IDX 49 69 42 70 44 71 50 72 43 73 45 74 46 75 47 76 48 77 72 78
REMARK SMILES IDX 73 79 81 80 74 81 76 82 82 83 75 84 77 85 78 86 79 87 80 88
REMARK SMILES IDX 57 89 58 90 66 91 59 92 61 93 67 94 60 95 62 96 63 97 64 98
REMARK SMILES IDX 65 99
REMARK H PARENT 21 7 6 25 16 27 28 33 87 52 55 63
REMARK Flexibility Score: inf
ROOT
ATOM      1  C   UNL A   1      32.229  30.425  26.890  1.00  0.00     0.002 C 
ENDROOT
BRANCH   1   2
ATOM      2  C   UNL A   1      31.802  28.962  27.023  1.00  0.00     0.021 C 
BRANCH   2   3
ATOM      3  C   UNL A   1      31.448  28.271  25.704  1.00  0.00     0.116 C 
BRANCH   3   4
ATOM      4  N   UNL A   1      32.328  28.686  24.624  1.00  0.00    -0.354 N 
ATOM      5  C   UNL A   1      32.733  28.007  23.509  1.00  0.00     0.242 C 
ATOM      6  O   UNL A   1      33.505  28.584  22.737  1.00  0.00    -0.273 OA
ATOM      7  H   UNL A   1      32.687  29.599  24.708  1.00  0.00     0.163 HD
BRANCH   5   8
ATOM      8  C   UNL A   1      32.310  26.539  23.294  1.00  0.00     0.177 C 
ATOM      9  N   UNL A   1      33.430  25.634  23.592  1.00  0.00    -0.324 N 
ATOM     10  C   UNL A   1      33.567  24.654  22.531  1.00  0.00     0.152 C 
ATOM     11  C   UNL A   1      33.098  25.403  21.288  1.00  0.00     0.136 C 
ATOM     12  C   UNL A   1      31.955  26.269  21.821  1.00  0.00     0.069 C 
BRANCH   9  13
ATOM     13  C   UNL A   1      33.804  25.393  24.899  1.00  0.00     0.259 C 
ATOM     14  O   UNL A   1      34.228  26.330  25.569  1.00  0.00    -0.269 OA
BRANCH  13  15
ATOM     15  C   UNL A   1      33.759  24.008  25.480  1.00  0.00     0.093 A 
ATOM     16  C   UNL A   1      34.845  23.125  25.571  1.00  0.00     0.116 A 
ATOM     17  N   UNL A   1      34.749  21.872  26.083  1.00  0.00    -0.188 NA
ATOM     18  C   UNL A   1      33.570  21.532  26.570  1.00  0.00     0.315 A 
ATOM     19  C   UNL A   1      32.581  23.531  26.084  1.00  0.00     0.058 A 
ATOM     20  N   UNL A   1      32.485  22.286  26.624  1.00  0.00    -0.200 NA
ATOM     21  C   UNL A   1      31.346  24.347  26.352  1.00  0.00     0.068 C 
BRANCH  16  22
ATOM     22  S   UNL A   1      36.554  23.520  25.215  1.00  0.00    -0.109 SA
ATOM     23  C   UNL A   1      36.639  22.956  23.496  1.00  0.00     0.092 C 
ENDBRANCH  16  22
BRANCH  18  24
ATOM     24  O   UNL A   1      33.441  20.303  27.132  1.00  0.00    -0.479 OA
ATOM     25  H   UNL A   1      34.055  19.626  26.923  1.00  0.00     0.297 HD
ENDBRANCH  18  24
ENDBRANCH  13  15
ENDBRANCH   9  13
BRANCH  11  26
ATOM     26  O   UNL A   1      32.666  24.534  20.252  1.00  0.00    -0.391 OA
ATOM     27  H   UNL A   1      32.431  23.672  20.630  1.00  0.00     0.211 HD
ENDBRANCH  11  26
ENDBRANCH   5   8
ENDBRANCH   3   4
ENDBRANCH   2   3
ENDBRANCH   1   2
BRANCH   1  28
ATOM     28  C   UNL A   1      31.155  31.372  26.352  1.00  0.00     0.002 C 
BRANCH  28  29
ATOM     29  C   UNL A   1      31.455  32.864  26.525  1.00  0.00     0.021 C 
BRANCH  29  30
ATOM     30  C   UNL A   1      32.686  33.176  27.371  1.00  0.00     0.116 C 
BRANCH  30  31
ATOM     31  N   UNL A   1      32.613  34.501  27.968  1.00  0.00    -0.352 N 
ATOM     32  C   UNL A   1      33.321  35.001  29.032  1.00  0.00     0.251 C 
ATOM     33  H   UNL A   1      31.969  35.122  27.554  1.00  0.00     0.163 HD
ATOM     34  O   UNL A   1      33.012  36.074  29.541  1.00  0.00    -0.269 OA
BRANCH  32  35
ATOM     35  C   UNL A   1      34.453  34.221  29.570  1.00  0.00     0.039 A 
ATOM     36  C   UNL A   1      35.741  34.473  29.092  1.00  0.00     0.014 A 
ATOM     37  C   UNL A   1      34.233  33.262  30.564  1.00  0.00     0.014 A 
ATOM     38  C   UNL A   1      36.826  33.800  29.658  1.00  0.00     0.010 A 
ATOM     39  C   UNL A   1      35.318  32.625  31.156  1.00  0.00     0.010 A 
ATOM     40  C   UNL A   1      36.622  32.891  30.709  1.00  0.00    -0.014 A 
BRANCH  40  41
ATOM     41  C   UNL A   1      37.760  32.206  31.365  1.00  0.00     0.031 A 
ATOM     42  C   UNL A   1      38.274  32.701  32.684  1.00  0.00     0.074 A 
ATOM     43  C   UNL A   1      38.376  31.189  30.733  1.00  0.00     0.049 A 
ATOM     44  N   UNL A   1      39.300  32.283  33.376  1.00  0.00    -0.248 NA
ATOM     45  C   UNL A   1      37.547  33.823  33.301  1.00  0.00     0.031 C 
ATOM     46  C   UNL A   1      37.994  30.651  29.428  1.00  0.00     0.029 A 
ATOM     47  N   UNL A   1      39.468  30.442  31.098  1.00  0.00    -0.354 N 
ATOM     48  C   UNL A   1      39.356  33.097  34.498  1.00  0.00     0.074 A 
ATOM     49  C   UNL A   1      38.277  34.054  34.383  1.00  0.00     0.031 C 
ATOM     50  C   UNL A   1      38.836  29.657  29.100  1.00  0.00     0.029 A 
ATOM     51  C   UNL A   1      39.827  29.502  30.162  1.00  0.00     0.049 A 
ATOM     52  H   UNL A   1      39.948  30.568  31.947  1.00  0.00     0.167 HD
ATOM     53  C   UNL A   1      40.207  33.032  35.547  1.00  0.00     0.034 A 
ATOM     54  C   UNL A   1      40.839  28.613  30.160  1.00  0.00     0.034 A 
ATOM     55  C   UNL A   1      41.261  32.064  35.674  1.00  0.00     0.049 A 
ATOM     56  C   UNL A   1      41.767  28.549  31.340  1.00  0.00     0.074 A 
ATOM     57  C   UNL A   1      42.158  31.903  36.714  1.00  0.00     0.029 A 
ATOM     58  N   UNL A   1      41.556  31.090  34.734  1.00  0.00    -0.354 N 
ATOM     59  N   UNL A   1      41.754  29.274  32.432  1.00  0.00    -0.248 NA
ATOM     60  C   UNL A   1      42.826  27.529  31.307  1.00  0.00     0.031 C 
ATOM     61  C   UNL A   1      42.995  30.826  36.403  1.00  0.00     0.029 A 
ATOM     62  C   UNL A   1      42.611  30.313  35.173  1.00  0.00     0.049 A 
ATOM     63  H   UNL A   1      41.082  30.968  33.878  1.00  0.00     0.167 HD
ATOM     64  C   UNL A   1      42.780  28.781  33.230  1.00  0.00     0.074 A 
ATOM     65  C   UNL A   1      43.392  27.692  32.497  1.00  0.00     0.031 C 
ATOM     66  C   UNL A   1      43.177  29.199  34.456  1.00  0.00     0.034 A 
BRANCH  53  67
ATOM     67  C   UNL A   1      39.985  33.997  36.678  1.00  0.00     0.023 A 
ATOM     68  C   UNL A   1      40.325  35.353  36.490  1.00  0.00     0.012 A 
ATOM     69  C   UNL A   1      39.404  33.586  37.891  1.00  0.00     0.148 A 
ATOM     70  C   UNL A   1      40.108  36.284  37.504  1.00  0.00     0.002 A 
ATOM     71  C   UNL A   1      39.163  34.527  38.886  1.00  0.00     0.091 A 
ATOM     72  F   UNL A   1      39.112  32.288  38.054  1.00  0.00    -0.205 F 
ATOM     73  C   UNL A   1      39.519  35.873  38.697  1.00  0.00     0.022 A 
BRANCH  71  74
ATOM     74  S   UNL A   1      38.363  34.111  40.439  1.00  0.00     0.127 S 
ATOM     75  O   UNL A   1      38.209  35.429  41.054  1.00  0.00    -0.237 OA
ATOM     76  O   UNL A   1      37.113  33.498  39.989  1.00  0.00    -0.237 OA
ATOM     77  O   UNL A   1      39.271  33.205  41.129  1.00  0.00    -0.744 OA
ENDBRANCH  71  74
ENDBRANCH  53  67
BRANCH  54  78
ATOM     78  C   UNL A   1      40.946  27.649  29.033  1.00  0.00     0.023 A 
ATOM     79  C   UNL A   1      40.052  26.562  28.983  1.00  0.00     0.012 A 
ATOM     80  C   UNL A   1      41.842  27.858  27.967  1.00  0.00     0.148 A 
ATOM     81  C   UNL A   1      40.047  25.698  27.889  1.00  0.00     0.002 A 
ATOM     82  C   UNL A   1      41.807  27.014  26.863  1.00  0.00     0.091 A 
ATOM     83  F   UNL A   1      42.674  28.906  28.037  1.00  0.00    -0.205 F 
ATOM     84  C   UNL A   1      40.917  25.928  26.826  1.00  0.00     0.022 A 
BRANCH  82  85
ATOM     85  S   UNL A   1      42.812  27.284  25.399  1.00  0.00     0.127 S 
ATOM     86  O   UNL A   1      44.145  27.450  25.975  1.00  0.00    -0.237 OA
ATOM     87  O   UNL A   1      42.608  26.034  24.667  1.00  0.00    -0.237 OA
ATOM     88  O   UNL A   1      42.266  28.469  24.752  1.00  0.00    -0.744 OA
ENDBRANCH  82  85
ENDBRANCH  54  78
BRANCH  66  89
ATOM     89  C   UNL A   1      44.314  28.471  35.118  1.00  0.00     0.023 A 
ATOM     90  C   UNL A   1      45.638  28.869  34.855  1.00  0.00     0.012 A 
ATOM     91  C   UNL A   1      44.060  27.492  36.098  1.00  0.00     0.148 A 
ATOM     92  C   UNL A   1      46.698  28.296  35.556  1.00  0.00     0.002 A 
ATOM     93  C   UNL A   1      45.120  26.950  36.816  1.00  0.00     0.091 A 
ATOM     94  F   UNL A   1      42.790  27.125  36.321  1.00  0.00    -0.205 F 
ATOM     95  C   UNL A   1      46.439  27.348  36.544  1.00  0.00     0.022 A 
BRANCH  93  96
ATOM     96  S   UNL A   1      44.881  25.779  38.159  1.00  0.00     0.127 S 
ATOM     97  O   UNL A   1      44.011  26.535  39.059  1.00  0.00    -0.237 OA
ATOM     98  O   UNL A   1      44.230  24.659  37.479  1.00  0.00    -0.237 OA
ATOM     99  O   UNL A   1      46.209  25.485  38.681  1.00  0.00    -0.744 OA
ENDBRANCH  93  96
ENDBRANCH  66  89
ENDBRANCH  40  41
ENDBRANCH  32  35
ENDBRANCH  30  31
ENDBRANCH  29  30
ENDBRANCH  28  29
ENDBRANCH   1  28
TORSDOF 21
ENDMDL
