MODEL 1
REMARK VINA RESULT:     -11.6      0.000      0.000
REMARK SMILES Cc1cc2n(n1)[C@H](C(F)(F)F)CCN2C(=O)c1cnn([C@@H](C)C(=O)NCCCCCCNC(=O)c2ccc(-c3c4nc(c(-c5cccc(S(=O)(=O)[O-])c5F)c5ccc([nH]5)c(-c5cccc(S(=O)(=O)[O-])c5F)c5nc(c(-c6cccc(S(=O)(=O)[O-])c6F)c6ccc3[nH]6)C=C5)C=C4)cc2)c1
REMARK SMILES IDX 28 1 27 2 26 3 25 4 23 5 24 6 21 8 22 9 20 10 17 11 18 12
REMARK SMILES IDX 98 13 19 14 15 15 16 16 14 17 1 18 2 19 3 20 6 21 4 22 5 23
REMARK SMILES IDX 7 24 13 25 12 26 8 27 9 28 10 29 11 30 29 31 30 32 31 33
REMARK SMILES IDX 32 34 33 35 34 37 35 38 36 39 97 40 37 41 96 42 38 43 39 44
REMARK SMILES IDX 40 45 90 46 41 47 95 48 89 49 91 50 42 51 94 52 88 53 87 54
REMARK SMILES IDX 43 56 75 57 55 58 74 59 56 60 59 61 73 62 92 63 57 64 58 65
REMARK SMILES IDX 72 67 93 68 60 69 44 70 45 71 53 72 46 73 48 74 54 75 47 76
REMARK SMILES IDX 49 77 50 78 51 79 52 80 76 81 77 82 85 83 78 84 80 85 86 86
REMARK SMILES IDX 79 87 81 88 82 89 83 90 84 91 61 92 62 93 70 94 63 95 65 96
REMARK SMILES IDX 71 97 64 98 66 99 67 100 68 101 69 102
REMARK H PARENT 25 7 32 36 91 55 59 66
REMARK Flexibility Score: inf
ROOT
ATOM      1  C   UNL A   1      34.446  29.041  27.572  1.00  0.00     0.002 C 
ENDROOT
BRANCH   1   2
ATOM      2  C   UNL A   1      33.534  28.071  26.815  1.00  0.00     0.021 C 
BRANCH   2   3
ATOM      3  C   UNL A   1      32.041  28.341  27.006  1.00  0.00     0.116 C 
BRANCH   3   4
ATOM      4  N   UNL A   1      31.275  27.109  27.076  1.00  0.00    -0.354 N 
ATOM      5  C   UNL A   1      30.574  26.449  26.114  1.00  0.00     0.244 C 
ATOM      6  O   UNL A   1      29.932  25.455  26.479  1.00  0.00    -0.273 OA
ATOM      7  H   UNL A   1      31.259  26.683  27.964  1.00  0.00     0.163 HD
BRANCH   5   8
ATOM      8  C   UNL A   1      30.614  26.822  24.635  1.00  0.00     0.193 C 
ATOM      9  C   UNL A   1      29.252  26.752  23.948  1.00  0.00     0.044 C 
BRANCH   8  10
ATOM     10  N   UNL A   1      31.706  26.179  23.913  1.00  0.00    -0.260 N 
ATOM     11  C   UNL A   1      32.979  24.691  22.880  1.00  0.00     0.078 A 
ATOM     12  C   UNL A   1      33.475  26.002  22.772  1.00  0.00     0.149 A 
ATOM     13  C   UNL A   1      31.796  24.856  23.587  1.00  0.00     0.123 A 
ATOM     14  N   UNL A   1      32.798  26.864  23.533  1.00  0.00    -0.180 NA
BRANCH  11  15
ATOM     15  C   UNL A   1      33.444  23.423  22.342  1.00  0.00     0.262 C 
ATOM     16  O   UNL A   1      33.576  23.252  21.145  1.00  0.00    -0.269 OA
BRANCH  15  17
ATOM     17  N   UNL A   1      33.411  22.310  23.293  1.00  0.00    -0.293 N 
ATOM     18  C   UNL A   1      37.984  22.093  25.322  1.00  0.00     0.069 C 
ATOM     19  C   UNL A   1      36.599  21.824  24.883  1.00  0.00     0.062 A 
ATOM     20  C   UNL A   1      35.794  22.620  24.037  1.00  0.00     0.072 A 
ATOM     21  N   UNL A   1      35.952  20.726  25.295  1.00  0.00    -0.176 NA
ATOM     22  C   UNL A   1      34.580  21.980  23.980  1.00  0.00     0.134 A 
ATOM     23  N   UNL A   1      34.711  20.899  24.805  1.00  0.00    -0.237 N 
ATOM     24  C   UNL A   1      33.662  19.952  25.097  1.00  0.00     0.216 C 
ATOM     25  C   UNL A   1      32.213  21.479  23.504  1.00  0.00     0.130 C 
ATOM     26  C   UNL A   1      32.290  20.408  24.588  1.00  0.00     0.059 C 
BRANCH  24  27
ATOM     27  C   UNL A   1      34.028  18.592  24.542  1.00  0.00     0.410 C 
ATOM     28  F   UNL A   1      33.571  18.435  23.274  1.00  0.00    -0.169 F 
ATOM     29  F   UNL A   1      35.354  18.339  24.537  1.00  0.00    -0.169 F 
ATOM     30  F   UNL A   1      33.459  17.600  25.271  1.00  0.00    -0.169 F 
ENDBRANCH  24  27
ENDBRANCH  15  17
ENDBRANCH  11  15
ENDBRANCH   8  10
ENDBRANCH   5   8
ENDBRANCH   3   4
ENDBRANCH   2   3
ENDBRANCH   1   2
BRANCH   1  31
ATOM     31  C   UNL A   1      34.507  30.468  27.009  1.00  0.00     0.002 C 
BRANCH  31  32
ATOM     32  C   UNL A   1      33.688  31.531  27.758  1.00  0.00     0.021 C 
BRANCH  32  33
ATOM     33  C   UNL A   1      34.537  32.644  28.350  1.00  0.00     0.116 C 
BRANCH  33  34
ATOM     34  N   UNL A   1      34.333  32.776  29.793  1.00  0.00    -0.352 N 
ATOM     35  C   UNL A   1      35.052  32.184  30.810  1.00  0.00     0.251 C 
ATOM     36  H   UNL A   1      33.591  33.359  30.073  1.00  0.00     0.163 HD
ATOM     37  O   UNL A   1      34.589  32.079  31.939  1.00  0.00    -0.269 OA
BRANCH  35  38
ATOM     38  C   UNL A   1      36.404  31.695  30.504  1.00  0.00     0.039 A 
ATOM     39  C   UNL A   1      37.501  32.558  30.435  1.00  0.00     0.014 A 
ATOM     40  C   UNL A   1      36.554  30.320  30.339  1.00  0.00     0.014 A 
ATOM     41  C   UNL A   1      38.768  32.008  30.269  1.00  0.00     0.010 A 
ATOM     42  C   UNL A   1      37.807  29.775  30.356  1.00  0.00     0.010 A 
ATOM     43  C   UNL A   1      38.910  30.613  30.244  1.00  0.00    -0.014 A 
BRANCH  43  44
ATOM     44  C   UNL A   1      40.223  29.990  30.189  1.00  0.00     0.031 A 
ATOM     45  C   UNL A   1      40.843  29.740  31.517  1.00  0.00     0.074 A 
ATOM     46  C   UNL A   1      40.705  29.460  29.043  1.00  0.00     0.049 A 
ATOM     47  N   UNL A   1      41.890  30.303  32.023  1.00  0.00    -0.248 NA
ATOM     48  C   UNL A   1      40.124  28.869  32.460  1.00  0.00     0.031 C 
ATOM     49  C   UNL A   1      40.010  29.320  27.752  1.00  0.00     0.029 A 
ATOM     50  N   UNL A   1      41.865  28.786  28.828  1.00  0.00    -0.354 N 
ATOM     51  C   UNL A   1      42.101  29.666  33.246  1.00  0.00     0.074 A 
ATOM     52  C   UNL A   1      40.876  28.981  33.556  1.00  0.00     0.031 C 
ATOM     53  C   UNL A   1      40.637  28.390  27.001  1.00  0.00     0.029 A 
ATOM     54  C   UNL A   1      41.870  28.024  27.665  1.00  0.00     0.049 A 
ATOM     55  H   UNL A   1      42.634  28.835  29.441  1.00  0.00     0.167 HD
ATOM     56  C   UNL A   1      43.355  29.520  33.756  1.00  0.00     0.034 A 
ATOM     57  C   UNL A   1      42.801  27.111  27.300  1.00  0.00     0.034 A 
ATOM     58  C   UNL A   1      44.292  30.376  33.071  1.00  0.00     0.049 A 
ATOM     59  C   UNL A   1      44.020  27.393  28.084  1.00  0.00     0.074 A 
ATOM     60  C   UNL A   1      44.433  31.734  32.879  1.00  0.00     0.029 A 
ATOM     61  N   UNL A   1      45.063  29.771  32.109  1.00  0.00    -0.354 N 
ATOM     62  N   UNL A   1      44.711  28.493  27.964  1.00  0.00    -0.248 NA
ATOM     63  C   UNL A   1      44.237  26.645  29.309  1.00  0.00     0.031 C 
ATOM     64  C   UNL A   1      44.918  31.870  31.544  1.00  0.00     0.029 A 
ATOM     65  C   UNL A   1      45.112  30.591  31.015  1.00  0.00     0.049 A 
ATOM     66  H   UNL A   1      45.506  28.896  32.191  1.00  0.00     0.167 HD
ATOM     67  C   UNL A   1      45.080  28.808  29.264  1.00  0.00     0.074 A 
ATOM     68  C   UNL A   1      44.881  27.574  30.021  1.00  0.00     0.031 C 
ATOM     69  C   UNL A   1      45.221  30.109  29.653  1.00  0.00     0.034 A 
BRANCH  56  70
ATOM     70  C   UNL A   1      43.840  28.332  34.569  1.00  0.00     0.023 A 
ATOM     71  C   UNL A   1      44.530  28.616  35.770  1.00  0.00     0.012 A 
ATOM     72  C   UNL A   1      43.915  27.000  34.097  1.00  0.00     0.148 A 
ATOM     73  C   UNL A   1      45.302  27.650  36.426  1.00  0.00     0.002 A 
ATOM     74  C   UNL A   1      44.625  26.022  34.789  1.00  0.00     0.091 A 
ATOM     75  F   UNL A   1      43.413  26.677  32.904  1.00  0.00    -0.205 F 
ATOM     76  C   UNL A   1      45.347  26.350  35.938  1.00  0.00     0.022 A 
BRANCH  74  77
ATOM     77  S   UNL A   1      44.686  24.317  34.213  1.00  0.00     0.127 S 
ATOM     78  O   UNL A   1      45.387  24.455  32.940  1.00  0.00    -0.237 OA
ATOM     79  O   UNL A   1      45.449  23.668  35.278  1.00  0.00    -0.237 OA
ATOM     80  O   UNL A   1      43.300  23.872  34.115  1.00  0.00    -0.744 OA
ENDBRANCH  74  77
ENDBRANCH  56  70
BRANCH  57  81
ATOM     81  C   UNL A   1      42.606  25.835  26.579  1.00  0.00     0.023 A 
ATOM     82  C   UNL A   1      43.160  25.659  25.297  1.00  0.00     0.012 A 
ATOM     83  C   UNL A   1      42.151  24.695  27.277  1.00  0.00     0.148 A 
ATOM     84  C   UNL A   1      43.277  24.381  24.737  1.00  0.00     0.002 A 
ATOM     85  C   UNL A   1      42.285  23.428  26.723  1.00  0.00     0.091 A 
ATOM     86  F   UNL A   1      41.704  24.835  28.532  1.00  0.00    -0.205 F 
ATOM     87  C   UNL A   1      42.848  23.263  25.451  1.00  0.00     0.022 A 
BRANCH  85  88
ATOM     88  S   UNL A   1      41.902  21.964  27.688  1.00  0.00     0.127 S 
ATOM     89  O   UNL A   1      40.451  22.049  27.853  1.00  0.00    -0.237 OA
ATOM     90  O   UNL A   1      42.364  20.900  26.803  1.00  0.00    -0.237 OA
ATOM     91  O   UNL A   1      42.650  22.082  28.936  1.00  0.00    -0.744 OA
ENDBRANCH  85  88
ENDBRANCH  57  81
BRANCH  69  92
ATOM     92  C   UNL A   1      45.272  31.164  28.574  1.00  0.00     0.023 A 
ATOM     93  C   UNL A   1      44.118  31.778  28.045  1.00  0.00     0.012 A 
ATOM     94  C   UNL A   1      46.533  31.657  28.205  1.00  0.00     0.148 A 
ATOM     95  C   UNL A   1      44.223  32.850  27.152  1.00  0.00     0.002 A 
ATOM     96  C   UNL A   1      46.633  32.752  27.357  1.00  0.00     0.091 A 
ATOM     97  F   UNL A   1      47.619  31.059  28.717  1.00  0.00    -0.205 F 
ATOM     98  C   UNL A   1      45.481  33.347  26.819  1.00  0.00     0.022 A 
BRANCH  96  99
ATOM     99  S   UNL A   1      48.217  33.511  26.997  1.00  0.00     0.127 S 
ATOM    100  O   UNL A   1      48.717  33.818  28.334  1.00  0.00    -0.237 OA
ATOM    101  O   UNL A   1      48.929  32.433  26.307  1.00  0.00    -0.237 OA
ATOM    102  O   UNL A   1      47.925  34.663  26.154  1.00  0.00    -0.744 OA
ENDBRANCH  96  99
ENDBRANCH  69  92
ENDBRANCH  43  44
ENDBRANCH  35  38
ENDBRANCH  33  34
ENDBRANCH  32  33
ENDBRANCH  31  32
ENDBRANCH   1  31
TORSDOF 20
ENDMDL
MODEL 2
REMARK VINA RESULT:     -11.4      3.619      9.250
REMARK SMILES Cc1cc2n(n1)[C@H](C(F)(F)F)CCN2C(=O)c1cnn([C@@H](C)C(=O)NCCCCCCNC(=O)c2ccc(-c3c4nc(c(-c5cccc(S(=O)(=O)[O-])c5F)c5ccc([nH]5)c(-c5cccc(S(=O)(=O)[O-])c5F)c5nc(c(-c6cccc(S(=O)(=O)[O-])c6F)c6ccc3[nH]6)C=C5)C=C4)cc2)c1
REMARK SMILES IDX 28 1 27 2 26 3 25 4 23 5 24 6 21 8 22 9 20 10 17 11 18 12
REMARK SMILES IDX 98 13 19 14 15 15 16 16 14 17 1 18 2 19 3 20 6 21 4 22 5 23
REMARK SMILES IDX 7 24 13 25 12 26 8 27 9 28 10 29 11 30 29 31 30 32 31 33
REMARK SMILES IDX 32 34 33 35 34 37 35 38 36 39 97 40 37 41 96 42 38 43 39 44
REMARK SMILES IDX 40 45 90 46 41 47 95 48 89 49 91 50 42 51 94 52 88 53 87 54
REMARK SMILES IDX 43 56 75 57 55 58 74 59 56 60 59 61 73 62 92 63 57 64 58 65
REMARK SMILES IDX 72 67 93 68 60 69 44 70 45 71 53 72 46 73 48 74 54 75 47 76
REMARK SMILES IDX 49 77 50 78 51 79 52 80 76 81 77 82 85 83 78 84 80 85 86 86
REMARK SMILES IDX 79 87 81 88 82 89 83 90 84 91 61 92 62 93 70 94 63 95 65 96
REMARK SMILES IDX 71 97 64 98 66 99 67 100 68 101 69 102
REMARK H PARENT 25 7 32 36 91 55 59 66
REMARK Flexibility Score: inf
ROOT
ATOM      1  C   UNL A   1      40.032  21.399  26.463  1.00  0.00     0.002 C 
ENDROOT
BRANCH   1   2
ATOM      2  C   UNL A   1      39.846  22.798  27.055  1.00  0.00     0.021 C 
BRANCH   2   3
ATOM      3  C   UNL A   1      38.620  23.543  26.525  1.00  0.00     0.116 C 
BRANCH   3   4
ATOM      4  N   UNL A   1      38.137  22.970  25.281  1.00  0.00    -0.354 N 
ATOM      5  C   UNL A   1      36.890  22.555  24.926  1.00  0.00     0.244 C 
ATOM      6  O   UNL A   1      36.780  22.016  23.817  1.00  0.00    -0.273 OA
ATOM      7  H   UNL A   1      38.822  22.863  24.583  1.00  0.00     0.163 HD
BRANCH   5   8
ATOM      8  C   UNL A   1      35.646  22.796  25.776  1.00  0.00     0.193 C 
ATOM      9  C   UNL A   1      35.097  21.532  26.433  1.00  0.00     0.044 C 
BRANCH   8  10
ATOM     10  N   UNL A   1      34.651  23.630  25.109  1.00  0.00    -0.260 N 
ATOM     11  C   UNL A   1      32.802  24.748  24.624  1.00  0.00     0.078 A 
ATOM     12  C   UNL A   1      33.848  25.002  23.718  1.00  0.00     0.149 A 
ATOM     13  C   UNL A   1      33.383  23.888  25.546  1.00  0.00     0.123 A 
ATOM     14  N   UNL A   1      34.897  24.202  23.919  1.00  0.00    -0.180 NA
BRANCH  11  15
ATOM     15  C   UNL A   1      31.452  25.273  24.728  1.00  0.00     0.262 C 
ATOM     16  O   UNL A   1      30.535  24.587  25.141  1.00  0.00    -0.269 OA
BRANCH  15  17
ATOM     17  N   UNL A   1      31.227  26.526  24.005  1.00  0.00    -0.293 N 
ATOM     18  C   UNL A   1      32.277  30.195  27.248  1.00  0.00     0.069 C 
ATOM     19  C   UNL A   1      31.820  29.392  26.094  1.00  0.00     0.062 A 
ATOM     20  C   UNL A   1      31.891  27.989  25.942  1.00  0.00     0.072 A 
ATOM     21  N   UNL A   1      31.270  29.980  25.025  1.00  0.00    -0.176 NA
ATOM     22  C   UNL A   1      31.396  27.733  24.685  1.00  0.00     0.134 A 
ATOM     23  N   UNL A   1      31.112  28.961  24.161  1.00  0.00    -0.237 N 
ATOM     24  C   UNL A   1      30.609  29.193  22.829  1.00  0.00     0.216 C 
ATOM     25  C   UNL A   1      30.763  26.566  22.608  1.00  0.00     0.130 C 
ATOM     26  C   UNL A   1      30.655  27.939  21.948  1.00  0.00     0.059 C 
BRANCH  24  27
ATOM     27  C   UNL A   1      29.207  29.760  22.900  1.00  0.00     0.410 C 
ATOM     28  F   UNL A   1      28.398  28.990  23.670  1.00  0.00    -0.169 F 
ATOM     29  F   UNL A   1      29.148  31.023  23.375  1.00  0.00    -0.169 F 
ATOM     30  F   UNL A   1      28.633  29.794  21.671  1.00  0.00    -0.169 F 
ENDBRANCH  24  27
ENDBRANCH  15  17
ENDBRANCH  11  15
ENDBRANCH   8  10
ENDBRANCH   5   8
ENDBRANCH   3   4
ENDBRANCH   2   3
ENDBRANCH   1   2
BRANCH   1  31
ATOM     31  C   UNL A   1      41.221  20.599  27.014  1.00  0.00     0.002 C 
BRANCH  31  32
ATOM     32  C   UNL A   1      41.717  19.432  26.145  1.00  0.00     0.021 C 
BRANCH  32  33
ATOM     33  C   UNL A   1      43.186  19.104  26.353  1.00  0.00     0.116 C 
BRANCH  33  34
ATOM     34  N   UNL A   1      43.917  19.048  25.086  1.00  0.00    -0.352 N 
ATOM     35  C   UNL A   1      44.318  20.101  24.290  1.00  0.00     0.251 C 
ATOM     36  H   UNL A   1      44.151  18.149  24.762  1.00  0.00     0.163 HD
ATOM     37  O   UNL A   1      44.598  19.934  23.109  1.00  0.00    -0.269 OA
BRANCH  35  38
ATOM     38  C   UNL A   1      44.416  21.431  24.905  1.00  0.00     0.039 A 
ATOM     39  C   UNL A   1      43.427  22.402  24.720  1.00  0.00     0.014 A 
ATOM     40  C   UNL A   1      45.514  21.666  25.727  1.00  0.00     0.014 A 
ATOM     41  C   UNL A   1      43.523  23.591  25.436  1.00  0.00     0.010 A 
ATOM     42  C   UNL A   1      45.511  22.752  26.558  1.00  0.00     0.010 A 
ATOM     43  C   UNL A   1      44.564  23.749  26.363  1.00  0.00    -0.014 A 
BRANCH  43  44
ATOM     44  C   UNL A   1      44.640  24.924  27.217  1.00  0.00     0.031 A 
ATOM     45  C   UNL A   1      45.773  25.837  26.910  1.00  0.00     0.074 A 
ATOM     46  C   UNL A   1      43.622  25.269  28.036  1.00  0.00     0.049 A 
ATOM     47  N   UNL A   1      46.811  26.088  27.637  1.00  0.00    -0.248 NA
ATOM     48  C   UNL A   1      45.837  26.425  25.562  1.00  0.00     0.031 C 
ATOM     49  C   UNL A   1      42.295  24.639  28.139  1.00  0.00     0.029 A 
ATOM     50  N   UNL A   1      43.495  26.357  28.839  1.00  0.00    -0.354 N 
ATOM     51  C   UNL A   1      47.527  27.062  26.942  1.00  0.00     0.074 A 
ATOM     52  C   UNL A   1      47.015  27.051  25.599  1.00  0.00     0.031 C 
ATOM     53  C   UNL A   1      41.435  25.493  28.731  1.00  0.00     0.029 A 
ATOM     54  C   UNL A   1      42.186  26.630  29.220  1.00  0.00     0.049 A 
ATOM     55  H   UNL A   1      44.262  26.902  29.128  1.00  0.00     0.167 HD
ATOM     56  C   UNL A   1      48.275  27.990  27.601  1.00  0.00     0.034 A 
ATOM     57  C   UNL A   1      41.741  27.744  29.848  1.00  0.00     0.034 A 
ATOM     58  C   UNL A   1      48.480  27.604  28.976  1.00  0.00     0.049 A 
ATOM     59  C   UNL A   1      42.914  28.391  30.471  1.00  0.00     0.074 A 
ATOM     60  C   UNL A   1      49.067  26.539  29.626  1.00  0.00     0.029 A 
ATOM     61  N   UNL A   1      47.666  28.214  29.898  1.00  0.00    -0.354 N 
ATOM     62  N   UNL A   1      43.609  27.845  31.429  1.00  0.00    -0.248 NA
ATOM     63  C   UNL A   1      43.577  29.458  29.743  1.00  0.00     0.031 C 
ATOM     64  C   UNL A   1      48.239  26.299  30.764  1.00  0.00     0.029 A 
ATOM     65  C   UNL A   1      47.232  27.268  30.786  1.00  0.00     0.049 A 
ATOM     66  H   UNL A   1      47.432  29.170  29.917  1.00  0.00     0.167 HD
ATOM     67  C   UNL A   1      44.924  28.166  31.122  1.00  0.00     0.074 A 
ATOM     68  C   UNL A   1      44.830  29.265  30.164  1.00  0.00     0.031 C 
ATOM     69  C   UNL A   1      45.942  27.315  31.444  1.00  0.00     0.034 A 
BRANCH  56  70
ATOM     70  C   UNL A   1      48.475  29.430  27.162  1.00  0.00     0.023 A 
ATOM     71  C   UNL A   1      49.804  29.915  27.143  1.00  0.00     0.012 A 
ATOM     72  C   UNL A   1      47.448  30.397  27.049  1.00  0.00     0.148 A 
ATOM     73  C   UNL A   1      50.091  31.284  27.083  1.00  0.00     0.002 A 
ATOM     74  C   UNL A   1      47.737  31.752  26.917  1.00  0.00     0.091 A 
ATOM     75  F   UNL A   1      46.171  30.044  27.197  1.00  0.00    -0.205 F 
ATOM     76  C   UNL A   1      49.057  32.204  26.965  1.00  0.00     0.022 A 
BRANCH  74  77
ATOM     77  S   UNL A   1      46.433  32.979  26.730  1.00  0.00     0.127 S 
ATOM     78  O   UNL A   1      45.828  32.979  28.058  1.00  0.00    -0.237 OA
ATOM     79  O   UNL A   1      47.196  34.180  26.393  1.00  0.00    -0.237 OA
ATOM     80  O   UNL A   1      45.573  32.497  25.653  1.00  0.00    -0.744 OA
ENDBRANCH  74  77
ENDBRANCH  56  70
BRANCH  57  81
ATOM     81  C   UNL A   1      40.454  28.450  29.670  1.00  0.00     0.023 A 
ATOM     82  C   UNL A   1      39.810  28.434  28.419  1.00  0.00     0.012 A 
ATOM     83  C   UNL A   1      39.716  28.864  30.800  1.00  0.00     0.148 A 
ATOM     84  C   UNL A   1      38.464  28.799  28.301  1.00  0.00     0.002 A 
ATOM     85  C   UNL A   1      38.376  29.210  30.681  1.00  0.00     0.091 A 
ATOM     86  F   UNL A   1      40.287  28.800  32.011  1.00  0.00    -0.205 F 
ATOM     87  C   UNL A   1      37.742  29.180  29.432  1.00  0.00     0.022 A 
BRANCH  85  88
ATOM     88  S   UNL A   1      37.383  29.534  32.140  1.00  0.00     0.127 S 
ATOM     89  O   UNL A   1      37.450  28.270  32.871  1.00  0.00    -0.237 OA
ATOM     90  O   UNL A   1      38.111  30.642  32.749  1.00  0.00    -0.237 OA
ATOM     91  O   UNL A   1      36.046  29.876  31.664  1.00  0.00    -0.744 OA
ENDBRANCH  85  88
ENDBRANCH  57  81
BRANCH  69  92
ATOM     92  C   UNL A   1      45.641  26.188  32.402  1.00  0.00     0.023 A 
ATOM     93  C   UNL A   1      45.136  24.938  31.984  1.00  0.00     0.012 A 
ATOM     94  C   UNL A   1      46.033  26.347  33.739  1.00  0.00     0.148 A 
ATOM     95  C   UNL A   1      45.009  23.879  32.888  1.00  0.00     0.002 A 
ATOM     96  C   UNL A   1      45.952  25.278  34.623  1.00  0.00     0.091 A 
ATOM     97  F   UNL A   1      46.510  27.542  34.119  1.00  0.00    -0.205 F 
ATOM     98  C   UNL A   1      45.431  24.044  34.205  1.00  0.00     0.022 A 
BRANCH  96  99
ATOM     99  S   UNL A   1      46.598  25.397  36.291  1.00  0.00     0.127 S 
ATOM    100  O   UNL A   1      46.334  24.060  36.815  1.00  0.00    -0.237 OA
ATOM    101  O   UNL A   1      48.012  25.697  36.057  1.00  0.00    -0.237 OA
ATOM    102  O   UNL A   1      45.860  26.481  36.928  1.00  0.00    -0.744 OA
ENDBRANCH  96  99
ENDBRANCH  69  92
ENDBRANCH  43  44
ENDBRANCH  35  38
ENDBRANCH  33  34
ENDBRANCH  32  33
ENDBRANCH  31  32
ENDBRANCH   1  31
TORSDOF 20
ENDMDL
MODEL 3
REMARK VINA RESULT:     -11.1      3.571      5.415
REMARK SMILES Cc1cc2n(n1)[C@H](C(F)(F)F)CCN2C(=O)c1cnn([C@@H](C)C(=O)NCCCCCCNC(=O)c2ccc(-c3c4nc(c(-c5cccc(S(=O)(=O)[O-])c5F)c5ccc([nH]5)c(-c5cccc(S(=O)(=O)[O-])c5F)c5nc(c(-c6cccc(S(=O)(=O)[O-])c6F)c6ccc3[nH]6)C=C5)C=C4)cc2)c1
REMARK SMILES IDX 28 1 27 2 26 3 25 4 23 5 24 6 21 8 22 9 20 10 17 11 18 12
REMARK SMILES IDX 98 13 19 14 15 15 16 16 14 17 1 18 2 19 3 20 6 21 4 22 5 23
REMARK SMILES IDX 7 24 13 25 12 26 8 27 9 28 10 29 11 30 29 31 30 32 31 33
REMARK SMILES IDX 32 34 33 35 34 37 35 38 36 39 97 40 37 41 96 42 38 43 39 44
REMARK SMILES IDX 40 45 90 46 41 47 95 48 89 49 91 50 42 51 94 52 88 53 87 54
REMARK SMILES IDX 43 56 75 57 55 58 74 59 56 60 59 61 73 62 92 63 57 64 58 65
REMARK SMILES IDX 72 67 93 68 60 69 44 70 45 71 53 72 46 73 48 74 54 75 47 76
REMARK SMILES IDX 49 77 50 78 51 79 52 80 76 81 77 82 85 83 78 84 80 85 86 86
REMARK SMILES IDX 79 87 81 88 82 89 83 90 84 91 61 92 62 93 70 94 63 95 65 96
REMARK SMILES IDX 71 97 64 98 66 99 67 100 68 101 69 102
REMARK H PARENT 25 7 32 36 91 55 59 66
REMARK Flexibility Score: inf
ROOT
ATOM      1  C   UNL A   1      34.670  33.102  33.340  1.00  0.00     0.002 C 
ENDROOT
BRANCH   1   2
ATOM      2  C   UNL A   1      34.555  33.565  31.886  1.00  0.00     0.021 C 
BRANCH   2   3
ATOM      3  C   UNL A   1      34.777  32.455  30.858  1.00  0.00     0.116 C 
BRANCH   3   4
ATOM      4  N   UNL A   1      35.149  32.988  29.560  1.00  0.00    -0.354 N 
ATOM      5  C   UNL A   1      35.585  32.354  28.437  1.00  0.00     0.244 C 
ATOM      6  O   UNL A   1      35.921  33.076  27.488  1.00  0.00    -0.273 OA
ATOM      7  H   UNL A   1      35.076  33.966  29.480  1.00  0.00     0.163 HD
BRANCH   5   8
ATOM      8  C   UNL A   1      35.594  30.837  28.273  1.00  0.00     0.193 C 
ATOM      9  C   UNL A   1      36.862  30.299  27.615  1.00  0.00     0.044 C 
BRANCH   8  10
ATOM     10  N   UNL A   1      34.345  30.313  27.732  1.00  0.00    -0.260 N 
ATOM     11  C   UNL A   1      32.795  28.975  26.887  1.00  0.00     0.078 A 
ATOM     12  C   UNL A   1      32.294  30.244  27.229  1.00  0.00     0.149 A 
ATOM     13  C   UNL A   1      34.125  29.043  27.279  1.00  0.00     0.123 A 
ATOM     14  N   UNL A   1      33.262  31.093  27.579  1.00  0.00    -0.180 NA
BRANCH  11  15
ATOM     15  C   UNL A   1      32.157  27.785  26.351  1.00  0.00     0.262 C 
ATOM     16  O   UNL A   1      31.666  26.945  27.081  1.00  0.00    -0.269 OA
BRANCH  15  17
ATOM     17  N   UNL A   1      32.445  27.523  24.940  1.00  0.00    -0.293 N 
ATOM     18  C   UNL A   1      28.653  29.533  22.360  1.00  0.00     0.069 C 
ATOM     19  C   UNL A   1      29.848  28.778  22.795  1.00  0.00     0.062 A 
ATOM     20  C   UNL A   1      30.385  28.697  24.099  1.00  0.00     0.072 A 
ATOM     21  N   UNL A   1      30.567  28.071  21.916  1.00  0.00    -0.176 NA
ATOM     22  C   UNL A   1      31.521  27.932  23.979  1.00  0.00     0.134 A 
ATOM     23  N   UNL A   1      31.616  27.650  22.646  1.00  0.00    -0.237 N 
ATOM     24  C   UNL A   1      32.689  26.902  22.036  1.00  0.00     0.216 C 
ATOM     25  C   UNL A   1      33.640  26.783  24.496  1.00  0.00     0.130 C 
ATOM     26  C   UNL A   1      33.863  26.658  22.991  1.00  0.00     0.059 C 
BRANCH  24  27
ATOM     27  C   UNL A   1      32.156  25.599  21.479  1.00  0.00     0.410 C 
ATOM     28  F   UNL A   1      31.042  25.196  22.140  1.00  0.00    -0.169 F 
ATOM     29  F   UNL A   1      31.860  25.644  20.162  1.00  0.00    -0.169 F 
ATOM     30  F   UNL A   1      33.062  24.601  21.626  1.00  0.00    -0.169 F 
ENDBRANCH  24  27
ENDBRANCH  15  17
ENDBRANCH  11  15
ENDBRANCH   8  10
ENDBRANCH   5   8
ENDBRANCH   3   4
ENDBRANCH   2   3
ENDBRANCH   1   2
BRANCH   1  31
ATOM     31  C   UNL A   1      36.010  33.404  34.028  1.00  0.00     0.002 C 
BRANCH  31  32
ATOM     32  C   UNL A   1      37.111  32.344  33.867  1.00  0.00     0.021 C 
BRANCH  32  33
ATOM     33  C   UNL A   1      38.306  32.830  33.064  1.00  0.00     0.116 C 
BRANCH  33  34
ATOM     34  N   UNL A   1      37.899  33.454  31.804  1.00  0.00    -0.352 N 
ATOM     35  C   UNL A   1      38.513  33.361  30.573  1.00  0.00     0.251 C 
ATOM     36  H   UNL A   1      37.087  34.010  31.840  1.00  0.00     0.163 HD
ATOM     37  O   UNL A   1      38.301  34.186  29.692  1.00  0.00    -0.269 OA
BRANCH  35  38
ATOM     38  C   UNL A   1      39.420  32.229  30.339  1.00  0.00     0.039 A 
ATOM     39  C   UNL A   1      40.806  32.397  30.271  1.00  0.00     0.014 A 
ATOM     40  C   UNL A   1      38.841  30.966  30.244  1.00  0.00     0.014 A 
ATOM     41  C   UNL A   1      41.609  31.265  30.176  1.00  0.00     0.010 A 
ATOM     42  C   UNL A   1      39.632  29.855  30.332  1.00  0.00     0.010 A 
ATOM     43  C   UNL A   1      41.010  29.997  30.222  1.00  0.00    -0.014 A 
BRANCH  43  44
ATOM     44  C   UNL A   1      41.813  28.785  30.243  1.00  0.00     0.031 A 
ATOM     45  C   UNL A   1      42.442  28.486  31.557  1.00  0.00     0.074 A 
ATOM     46  C   UNL A   1      41.771  27.892  29.230  1.00  0.00     0.049 A 
ATOM     47  N   UNL A   1      43.699  28.503  31.858  1.00  0.00    -0.248 NA
ATOM     48  C   UNL A   1      41.557  28.295  32.717  1.00  0.00     0.031 C 
ATOM     49  C   UNL A   1      40.892  27.910  28.049  1.00  0.00     0.029 A 
ATOM     50  N   UNL A   1      42.392  26.689  29.117  1.00  0.00    -0.354 N 
ATOM     51  C   UNL A   1      43.769  28.074  33.184  1.00  0.00     0.074 A 
ATOM     52  C   UNL A   1      42.438  28.190  33.712  1.00  0.00     0.031 C 
ATOM     53  C   UNL A   1      40.842  26.676  27.505  1.00  0.00     0.029 A 
ATOM     54  C   UNL A   1      41.824  25.845  28.169  1.00  0.00     0.049 A 
ATOM     55  H   UNL A   1      43.175  26.438  29.658  1.00  0.00     0.167 HD
ATOM     56  C   UNL A   1      44.853  27.390  33.645  1.00  0.00     0.034 A 
ATOM     57  C   UNL A   1      42.107  24.534  27.979  1.00  0.00     0.034 A 
ATOM     58  C   UNL A   1      45.960  27.501  32.727  1.00  0.00     0.049 A 
ATOM     59  C   UNL A   1      43.418  24.276  28.607  1.00  0.00     0.074 A 
ATOM     60  C   UNL A   1      46.719  28.531  32.212  1.00  0.00     0.029 A 
ATOM     61  N   UNL A   1      46.158  26.427  31.894  1.00  0.00    -0.354 N 
ATOM     62  N   UNL A   1      44.530  24.816  28.194  1.00  0.00    -0.248 NA
ATOM     63  C   UNL A   1      43.439  23.751  29.960  1.00  0.00     0.031 C 
ATOM     64  C   UNL A   1      46.976  28.160  30.858  1.00  0.00     0.029 A 
ATOM     65  C   UNL A   1      46.421  26.897  30.636  1.00  0.00     0.049 A 
ATOM     66  H   UNL A   1      46.117  25.479  32.156  1.00  0.00     0.167 HD
ATOM     67  C   UNL A   1      45.218  25.116  29.361  1.00  0.00     0.074 A 
ATOM     68  C   UNL A   1      44.567  24.318  30.397  1.00  0.00     0.031 C 
ATOM     69  C   UNL A   1      46.047  26.199  29.423  1.00  0.00     0.034 A 
BRANCH  56  70
ATOM     70  C   UNL A   1      44.817  26.286  34.687  1.00  0.00     0.023 A 
ATOM     71  C   UNL A   1      44.199  25.070  34.310  1.00  0.00     0.012 A 
ATOM     72  C   UNL A   1      45.082  26.460  36.066  1.00  0.00     0.148 A 
ATOM     73  C   UNL A   1      43.809  24.115  35.257  1.00  0.00     0.002 A 
ATOM     74  C   UNL A   1      44.757  25.477  36.998  1.00  0.00     0.091 A 
ATOM     75  F   UNL A   1      45.533  27.628  36.524  1.00  0.00    -0.205 F 
ATOM     76  C   UNL A   1      44.092  24.316  36.602  1.00  0.00     0.022 A 
BRANCH  74  77
ATOM     77  S   UNL A   1      45.133  25.678  38.748  1.00  0.00     0.127 S 
ATOM     78  O   UNL A   1      44.932  24.325  39.255  1.00  0.00    -0.237 OA
ATOM     79  O   UNL A   1      46.524  26.128  38.706  1.00  0.00    -0.237 OA
ATOM     80  O   UNL A   1      44.198  26.678  39.252  1.00  0.00    -0.744 OA
ENDBRANCH  74  77
ENDBRANCH  56  70
BRANCH  57  81
ATOM     81  C   UNL A   1      41.189  23.442  27.592  1.00  0.00     0.023 A 
ATOM     82  C   UNL A   1      39.892  23.741  27.135  1.00  0.00     0.012 A 
ATOM     83  C   UNL A   1      41.695  22.142  27.374  1.00  0.00     0.148 A 
ATOM     84  C   UNL A   1      39.130  22.778  26.461  1.00  0.00     0.002 A 
ATOM     85  C   UNL A   1      40.941  21.196  26.690  1.00  0.00     0.091 A 
ATOM     86  F   UNL A   1      42.960  21.868  27.723  1.00  0.00    -0.205 F 
ATOM     87  C   UNL A   1      39.655  21.508  26.230  1.00  0.00     0.022 A 
BRANCH  85  88
ATOM     88  S   UNL A   1      41.658  19.616  26.231  1.00  0.00     0.127 S 
ATOM     89  O   UNL A   1      40.517  18.886  25.679  1.00  0.00    -0.237 OA
ATOM     90  O   UNL A   1      42.664  20.023  25.256  1.00  0.00    -0.237 OA
ATOM     91  O   UNL A   1      42.199  19.034  27.455  1.00  0.00    -0.744 OA
ENDBRANCH  85  88
ENDBRANCH  57  81
BRANCH  69  92
ATOM     92  C   UNL A   1      46.430  26.868  28.125  1.00  0.00     0.023 A 
ATOM     93  C   UNL A   1      45.715  27.955  27.579  1.00  0.00     0.012 A 
ATOM     94  C   UNL A   1      47.641  26.485  27.528  1.00  0.00     0.148 A 
ATOM     95  C   UNL A   1      46.191  28.631  26.452  1.00  0.00     0.002 A 
ATOM     96  C   UNL A   1      48.135  27.189  26.438  1.00  0.00     0.091 A 
ATOM     97  F   UNL A   1      48.306  25.448  28.059  1.00  0.00    -0.205 F 
ATOM     98  C   UNL A   1      47.409  28.258  25.889  1.00  0.00     0.022 A 
BRANCH  96  99
ATOM     99  S   UNL A   1      49.755  26.834  25.756  1.00  0.00     0.127 S 
ATOM    100  O   UNL A   1      50.094  25.578  26.417  1.00  0.00    -0.237 OA
ATOM    101  O   UNL A   1      49.472  26.719  24.324  1.00  0.00    -0.237 OA
ATOM    102  O   UNL A   1      50.593  27.975  26.104  1.00  0.00    -0.744 OA
ENDBRANCH  96  99
ENDBRANCH  69  92
ENDBRANCH  43  44
ENDBRANCH  35  38
ENDBRANCH  33  34
ENDBRANCH  32  33
ENDBRANCH  31  32
ENDBRANCH   1  31
TORSDOF 20
ENDMDL
