MODEL 1
REMARK VINA RESULT:     -10.0      0.000      0.000
REMARK SMILES C[C@H]1CCC[C@H](S[C@@H](C)[C@@H](C)C(=O)NCCCCCCNC(=O)c2ccc(-c3c4nc(c(-c5cccc(S(=O)(=O)[O-])c5F)c5ccc([nH]5)c(-c5cccc(S(=O)(=O)[O-])c5F)c5nc(c(-c6cccc(S(=O)(=O)[O-])c6F)c6ccc3[nH]6)C=C5)C=C4)cc2)C1
REMARK SMILES IDX 17 1 16 2 15 3 14 4 12 5 13 6 10 8 11 9 8 10 9 11 7 12 6 13
REMARK SMILES IDX 1 14 2 15 3 16 87 17 4 18 5 19 18 20 19 21 20 22 21 23 22 24
REMARK SMILES IDX 23 26 24 27 25 28 86 29 26 30 85 31 27 32 28 33 29 34 79 35
REMARK SMILES IDX 30 36 84 37 78 38 80 39 31 40 83 41 77 42 76 43 32 45 64 46
REMARK SMILES IDX 44 47 63 48 45 49 48 50 62 51 81 52 46 53 47 54 61 56 82 57
REMARK SMILES IDX 49 58 33 59 34 60 42 61 35 62 37 63 43 64 36 65 38 66 39 67
REMARK SMILES IDX 40 68 41 69 65 70 66 71 74 72 67 73 69 74 75 75 68 76 70 77
REMARK SMILES IDX 71 78 72 79 73 80 50 81 51 82 59 83 52 84 54 85 60 86 53 87
REMARK SMILES IDX 55 88 56 89 57 90 58 91
REMARK H PARENT 14 7 21 25 80 44 48 55
REMARK Flexibility Score: inf
ROOT
ATOM      1  C   UNL A   1      33.088  30.224  26.899  1.00  0.00     0.002 C 
ENDROOT
BRANCH   1   2
ATOM      2  C   UNL A   1      32.884  28.862  27.571  1.00  0.00     0.021 C 
BRANCH   2   3
ATOM      3  C   UNL A   1      32.772  27.704  26.581  1.00  0.00     0.116 C 
BRANCH   3   4
ATOM      4  N   UNL A   1      33.368  28.065  25.311  1.00  0.00    -0.356 N 
ATOM      5  C   UNL A   1      33.086  27.672  24.048  1.00  0.00     0.223 C 
ATOM      6  O   UNL A   1      33.867  28.029  23.159  1.00  0.00    -0.275 OA
ATOM      7  H   UNL A   1      34.108  28.709  25.380  1.00  0.00     0.163 HD
BRANCH   5   8
ATOM      8  C   UNL A   1      31.830  26.885  23.697  1.00  0.00     0.088 C 
ATOM      9  C   UNL A   1      32.089  26.103  22.406  1.00  0.00     0.019 C 
BRANCH   8  10
ATOM     10  C   UNL A   1      30.514  27.678  23.750  1.00  0.00     0.056 C 
ATOM     11  C   UNL A   1      29.268  26.801  23.571  1.00  0.00     0.020 C 
BRANCH  10  12
ATOM     12  S   UNL A   1      30.471  29.345  22.910  1.00  0.00    -0.155 SA
BRANCH  12  13
ATOM     13  C   UNL A   1      28.835  30.205  23.076  1.00  0.00     0.047 C 
ATOM     14  C   UNL A   1      27.705  31.718  19.696  1.00  0.00     0.007 C 
ATOM     15  C   UNL A   1      28.451  31.594  21.021  1.00  0.00    -0.013 C 
ATOM     16  C   UNL A   1      28.420  32.890  21.833  1.00  0.00     0.003 C 
ATOM     17  C   UNL A   1      28.009  30.374  21.805  1.00  0.00     0.017 C 
ATOM     18  C   UNL A   1      28.871  32.793  23.294  1.00  0.00     0.001 C 
ATOM     19  C   UNL A   1      28.717  31.438  23.973  1.00  0.00     0.014 C 
ENDBRANCH  12  13
ENDBRANCH  10  12
ENDBRANCH   8  10
ENDBRANCH   5   8
ENDBRANCH   3   4
ENDBRANCH   2   3
ENDBRANCH   1   2
BRANCH   1  20
ATOM     20  C   UNL A   1      31.788  30.895  26.450  1.00  0.00     0.002 C 
BRANCH  20  21
ATOM     21  C   UNL A   1      31.580  32.297  27.026  1.00  0.00     0.021 C 
BRANCH  21  22
ATOM     22  C   UNL A   1      32.874  33.062  27.249  1.00  0.00     0.116 C 
BRANCH  22  23
ATOM     23  N   UNL A   1      32.630  34.322  27.929  1.00  0.00    -0.352 N 
ATOM     24  C   UNL A   1      33.204  34.776  29.082  1.00  0.00     0.251 C 
ATOM     25  H   UNL A   1      31.971  34.920  27.508  1.00  0.00     0.163 HD
ATOM     26  O   UNL A   1      32.721  35.743  29.678  1.00  0.00    -0.269 OA
BRANCH  24  27
ATOM     27  C   UNL A   1      34.402  34.093  29.603  1.00  0.00     0.039 A 
ATOM     28  C   UNL A   1      34.259  33.160  30.630  1.00  0.00     0.014 A 
ATOM     29  C   UNL A   1      35.664  34.383  29.074  1.00  0.00     0.014 A 
ATOM     30  C   UNL A   1      35.390  32.514  31.127  1.00  0.00     0.010 A 
ATOM     31  C   UNL A   1      36.775  33.670  29.506  1.00  0.00     0.010 A 
ATOM     32  C   UNL A   1      36.655  32.763  30.567  1.00  0.00    -0.014 A 
BRANCH  32  33
ATOM     33  C   UNL A   1      37.873  32.138  31.135  1.00  0.00     0.031 A 
ATOM     34  C   UNL A   1      38.474  32.690  32.401  1.00  0.00     0.074 A 
ATOM     35  C   UNL A   1      38.460  31.110  30.493  1.00  0.00     0.049 A 
ATOM     36  N   UNL A   1      39.532  32.287  33.055  1.00  0.00    -0.248 NA
ATOM     37  C   UNL A   1      37.818  33.868  32.996  1.00  0.00     0.031 C 
ATOM     38  C   UNL A   1      38.016  30.543  29.217  1.00  0.00     0.029 A 
ATOM     39  N   UNL A   1      39.564  30.368  30.820  1.00  0.00    -0.354 N 
ATOM     40  C   UNL A   1      39.687  33.179  34.110  1.00  0.00     0.074 A 
ATOM     41  C   UNL A   1      38.647  34.174  33.982  1.00  0.00     0.031 C 
ATOM     42  C   UNL A   1      38.834  29.534  28.878  1.00  0.00     0.029 A 
ATOM     43  C   UNL A   1      39.868  29.395  29.899  1.00  0.00     0.049 A 
ATOM     44  H   UNL A   1      40.090  30.518  31.639  1.00  0.00     0.167 HD
ATOM     45  C   UNL A   1      40.592  33.155  35.117  1.00  0.00     0.034 A 
ATOM     46  C   UNL A   1      40.867  28.491  29.885  1.00  0.00     0.034 A 
ATOM     47  C   UNL A   1      41.594  32.135  35.265  1.00  0.00     0.049 A 
ATOM     48  C   UNL A   1      41.820  28.445  31.048  1.00  0.00     0.074 A 
ATOM     49  C   UNL A   1      42.509  31.968  36.287  1.00  0.00     0.029 A 
ATOM     50  N   UNL A   1      41.813  31.109  34.359  1.00  0.00    -0.354 N 
ATOM     51  N   UNL A   1      41.859  29.206  32.116  1.00  0.00    -0.248 NA
ATOM     52  C   UNL A   1      42.837  27.385  31.028  1.00  0.00     0.031 C 
ATOM     53  C   UNL A   1      43.297  30.851  35.988  1.00  0.00     0.029 A 
ATOM     54  C   UNL A   1      42.848  30.302  34.798  1.00  0.00     0.049 A 
ATOM     55  H   UNL A   1      41.306  30.973  33.526  1.00  0.00     0.167 HD
ATOM     56  C   UNL A   1      42.872  28.688  32.916  1.00  0.00     0.074 A 
ATOM     57  C   UNL A   1      43.405  27.537  32.216  1.00  0.00     0.031 C 
ATOM     58  C   UNL A   1      43.328  29.130  34.114  1.00  0.00     0.034 A 
BRANCH  45  59
ATOM     59  C   UNL A   1      40.502  34.237  36.163  1.00  0.00     0.023 A 
ATOM     60  C   UNL A   1      40.940  35.542  35.858  1.00  0.00     0.012 A 
ATOM     61  C   UNL A   1      39.949  33.975  37.431  1.00  0.00     0.148 A 
ATOM     62  C   UNL A   1      40.869  36.558  36.810  1.00  0.00     0.002 A 
ATOM     63  C   UNL A   1      39.833  35.004  38.358  1.00  0.00     0.091 A 
ATOM     64  F   UNL A   1      39.559  32.723  37.713  1.00  0.00    -0.205 F 
ATOM     65  C   UNL A   1      40.306  36.292  38.054  1.00  0.00     0.022 A 
BRANCH  63  66
ATOM     66  S   UNL A   1      39.047  34.785  39.957  1.00  0.00     0.127 S 
ATOM     67  O   UNL A   1      37.905  33.940  39.613  1.00  0.00    -0.237 OA
ATOM     68  O   UNL A   1      40.096  34.111  40.724  1.00  0.00    -0.237 OA
ATOM     69  O   UNL A   1      38.715  36.121  40.429  1.00  0.00    -0.744 OA
ENDBRANCH  63  66
ENDBRANCH  45  59
BRANCH  46  70
ATOM     70  C   UNL A   1      40.965  27.505  28.772  1.00  0.00     0.023 A 
ATOM     71  C   UNL A   1      40.091  26.402  28.744  1.00  0.00     0.012 A 
ATOM     72  C   UNL A   1      41.904  27.664  27.735  1.00  0.00     0.148 A 
ATOM     73  C   UNL A   1      40.177  25.450  27.727  1.00  0.00     0.002 A 
ATOM     74  C   UNL A   1      41.947  26.744  26.695  1.00  0.00     0.091 A 
ATOM     75  F   UNL A   1      42.730  28.719  27.783  1.00  0.00    -0.205 F 
ATOM     76  C   UNL A   1      41.099  25.626  26.699  1.00  0.00     0.022 A 
BRANCH  74  77
ATOM     77  S   UNL A   1      43.011  26.959  25.264  1.00  0.00     0.127 S 
ATOM     78  O   UNL A   1      42.867  25.672  24.588  1.00  0.00    -0.237 OA
ATOM     79  O   UNL A   1      42.375  28.087  24.583  1.00  0.00    -0.237 OA
ATOM     80  O   UNL A   1      44.335  27.248  25.796  1.00  0.00    -0.744 OA
ENDBRANCH  74  77
ENDBRANCH  46  70
BRANCH  58  81
ATOM     81  C   UNL A   1      44.424  28.334  34.774  1.00  0.00     0.023 A 
ATOM     82  C   UNL A   1      45.775  28.674  34.562  1.00  0.00     0.012 A 
ATOM     83  C   UNL A   1      44.107  27.274  35.648  1.00  0.00     0.148 A 
ATOM     84  C   UNL A   1      46.794  27.941  35.168  1.00  0.00     0.002 A 
ATOM     85  C   UNL A   1      45.126  26.583  36.291  1.00  0.00     0.091 A 
ATOM     86  F   UNL A   1      42.817  26.951  35.824  1.00  0.00    -0.205 F 
ATOM     87  C   UNL A   1      46.470  26.903  36.039  1.00  0.00     0.022 A 
BRANCH  85  88
ATOM     88  S   UNL A   1      44.793  25.304  37.507  1.00  0.00     0.127 S 
ATOM     89  O   UNL A   1      44.106  26.059  38.553  1.00  0.00    -0.237 OA
ATOM     90  O   UNL A   1      43.941  24.378  36.761  1.00  0.00    -0.237 OA
ATOM     91  O   UNL A   1      46.094  24.759  37.875  1.00  0.00    -0.744 OA
ENDBRANCH  85  88
ENDBRANCH  58  81
ENDBRANCH  32  33
ENDBRANCH  24  27
ENDBRANCH  22  23
ENDBRANCH  21  22
ENDBRANCH  20  21
ENDBRANCH   1  20
TORSDOF 19
ENDMDL
MODEL 2
REMARK VINA RESULT:     -10.0      1.418      2.056
REMARK SMILES C[C@H]1CCC[C@H](S[C@@H](C)[C@@H](C)C(=O)NCCCCCCNC(=O)c2ccc(-c3c4nc(c(-c5cccc(S(=O)(=O)[O-])c5F)c5ccc([nH]5)c(-c5cccc(S(=O)(=O)[O-])c5F)c5nc(c(-c6cccc(S(=O)(=O)[O-])c6F)c6ccc3[nH]6)C=C5)C=C4)cc2)C1
REMARK SMILES IDX 17 1 16 2 15 3 14 4 12 5 13 6 10 8 11 9 8 10 9 11 7 12 6 13
REMARK SMILES IDX 1 14 2 15 3 16 87 17 4 18 5 19 18 20 19 21 20 22 21 23 22 24
REMARK SMILES IDX 23 26 24 27 25 28 86 29 26 30 85 31 27 32 28 33 29 34 79 35
REMARK SMILES IDX 30 36 84 37 78 38 80 39 31 40 83 41 77 42 76 43 32 45 64 46
REMARK SMILES IDX 44 47 63 48 45 49 48 50 62 51 81 52 46 53 47 54 61 56 82 57
REMARK SMILES IDX 49 58 33 59 34 60 42 61 35 62 37 63 43 64 36 65 38 66 39 67
REMARK SMILES IDX 40 68 41 69 65 70 66 71 74 72 67 73 69 74 75 75 68 76 70 77
REMARK SMILES IDX 71 78 72 79 73 80 50 81 51 82 59 83 52 84 54 85 60 86 53 87
REMARK SMILES IDX 55 88 56 89 57 90 58 91
REMARK H PARENT 14 7 21 25 80 44 48 55
REMARK Flexibility Score: inf
ROOT
ATOM      1  C   UNL A   1      34.645  31.386  27.668  1.00  0.00     0.002 C 
ENDROOT
BRANCH   1   2
ATOM      2  C   UNL A   1      35.369  30.036  27.723  1.00  0.00     0.021 C 
BRANCH   2   3
ATOM      3  C   UNL A   1      34.707  28.954  26.870  1.00  0.00     0.116 C 
BRANCH   3   4
ATOM      4  N   UNL A   1      33.420  28.590  27.424  1.00  0.00    -0.356 N 
ATOM      5  C   UNL A   1      32.161  28.881  27.026  1.00  0.00     0.223 C 
ATOM      6  O   UNL A   1      31.240  28.562  27.786  1.00  0.00    -0.275 OA
ATOM      7  H   UNL A   1      33.471  28.032  28.233  1.00  0.00     0.163 HD
BRANCH   5   8
ATOM      8  C   UNL A   1      31.857  29.511  25.672  1.00  0.00     0.088 C 
ATOM      9  C   UNL A   1      31.332  30.931  25.902  1.00  0.00     0.019 C 
BRANCH   8  10
ATOM     10  C   UNL A   1      31.038  28.640  24.705  1.00  0.00     0.056 C 
ATOM     11  C   UNL A   1      31.006  27.158  25.101  1.00  0.00     0.020 C 
BRANCH  10  12
ATOM     12  S   UNL A   1      31.187  28.997  22.878  1.00  0.00    -0.155 SA
BRANCH  12  13
ATOM     13  C   UNL A   1      29.585  29.529  22.104  1.00  0.00     0.047 C 
ATOM     14  C   UNL A   1      28.796  33.228  22.928  1.00  0.00     0.007 C 
ATOM     15  C   UNL A   1      28.895  31.718  23.119  1.00  0.00    -0.013 C 
ATOM     16  C   UNL A   1      27.609  31.114  23.686  1.00  0.00     0.003 C 
ATOM     17  C   UNL A   1      29.392  31.022  21.867  1.00  0.00     0.017 C 
ATOM     18  C   UNL A   1      27.489  29.588  23.636  1.00  0.00     0.001 C 
ATOM     19  C   UNL A   1      28.278  28.871  22.548  1.00  0.00     0.014 C 
ENDBRANCH  12  13
ENDBRANCH  10  12
ENDBRANCH   8  10
ENDBRANCH   5   8
ENDBRANCH   3   4
ENDBRANCH   2   3
ENDBRANCH   1   2
BRANCH   1  20
ATOM     20  C   UNL A   1      35.542  32.583  27.991  1.00  0.00     0.002 C 
BRANCH  20  21
ATOM     21  C   UNL A   1      34.789  33.909  28.118  1.00  0.00     0.021 C 
BRANCH  21  22
ATOM     22  C   UNL A   1      33.332  33.747  28.523  1.00  0.00     0.116 C 
BRANCH  22  23
ATOM     23  N   UNL A   1      32.929  34.779  29.462  1.00  0.00    -0.352 N 
ATOM     24  C   UNL A   1      33.388  34.980  30.732  1.00  0.00     0.251 C 
ATOM     25  H   UNL A   1      32.242  35.408  29.144  1.00  0.00     0.163 HD
ATOM     26  O   UNL A   1      32.781  35.731  31.500  1.00  0.00    -0.269 OA
BRANCH  24  27
ATOM     27  C   UNL A   1      34.613  34.287  31.170  1.00  0.00     0.039 A 
ATOM     28  C   UNL A   1      35.851  34.889  30.947  1.00  0.00     0.014 A 
ATOM     29  C   UNL A   1      34.530  33.038  31.796  1.00  0.00     0.014 A 
ATOM     30  C   UNL A   1      37.012  34.236  31.359  1.00  0.00     0.010 A 
ATOM     31  C   UNL A   1      35.680  32.434  32.287  1.00  0.00     0.010 A 
ATOM     32  C   UNL A   1      36.934  33.005  32.033  1.00  0.00    -0.014 A 
BRANCH  32  33
ATOM     33  C   UNL A   1      38.163  32.265  32.409  1.00  0.00     0.031 A 
ATOM     34  C   UNL A   1      38.881  32.614  33.685  1.00  0.00     0.074 A 
ATOM     35  C   UNL A   1      38.652  31.318  31.587  1.00  0.00     0.049 A 
ATOM     36  N   UNL A   1      39.967  32.089  34.190  1.00  0.00    -0.248 NA
ATOM     37  C   UNL A   1      38.326  33.719  34.487  1.00  0.00     0.031 C 
ATOM     38  C   UNL A   1      38.089  30.951  30.286  1.00  0.00     0.029 A 
ATOM     39  N   UNL A   1      39.744  30.501  31.719  1.00  0.00    -0.354 N 
ATOM     40  C   UNL A   1      40.241  32.819  35.341  1.00  0.00     0.074 A 
ATOM     41  C   UNL A   1      39.240  33.855  35.435  1.00  0.00     0.031 C 
ATOM     42  C   UNL A   1      38.832  29.971  29.747  1.00  0.00     0.029 A 
ATOM     43  C   UNL A   1      39.933  29.656  30.651  1.00  0.00     0.049 A 
ATOM     44  H   UNL A   1      40.337  30.517  32.505  1.00  0.00     0.167 HD
ATOM     45  C   UNL A   1      41.218  32.623  36.259  1.00  0.00     0.034 A 
ATOM     46  C   UNL A   1      40.887  28.730  30.433  1.00  0.00     0.034 A 
ATOM     47  C   UNL A   1      42.182  31.559  36.184  1.00  0.00     0.049 A 
ATOM     48  C   UNL A   1      41.922  28.490  31.498  1.00  0.00     0.074 A 
ATOM     49  C   UNL A   1      43.163  31.219  37.096  1.00  0.00     0.029 A 
ATOM     50  N   UNL A   1      42.285  30.662  35.131  1.00  0.00    -0.354 N 
ATOM     51  N   UNL A   1      42.076  29.092  32.653  1.00  0.00    -0.248 NA
ATOM     52  C   UNL A   1      42.886  27.408  31.250  1.00  0.00     0.031 C 
ATOM     53  C   UNL A   1      43.875  30.130  36.584  1.00  0.00     0.029 A 
ATOM     54  C   UNL A   1      43.313  29.768  35.371  1.00  0.00     0.049 A 
ATOM     55  H   UNL A   1      41.710  30.662  34.332  1.00  0.00     0.167 HD
ATOM     56  C   UNL A   1      43.122  28.433  33.289  1.00  0.00     0.074 A 
ATOM     57  C   UNL A   1      43.549  27.374  32.398  1.00  0.00     0.031 C 
ATOM     58  C   UNL A   1      43.687  28.687  34.496  1.00  0.00     0.034 A 
BRANCH  45  59
ATOM     59  C   UNL A   1      41.256  33.550  37.446  1.00  0.00     0.023 A 
ATOM     60  C   UNL A   1      42.060  34.708  37.404  1.00  0.00     0.012 A 
ATOM     61  C   UNL A   1      40.468  33.301  38.587  1.00  0.00     0.148 A 
ATOM     62  C   UNL A   1      42.113  35.579  38.491  1.00  0.00     0.002 A 
ATOM     63  C   UNL A   1      40.486  34.200  39.646  1.00  0.00     0.091 A 
ATOM     64  F   UNL A   1      39.727  32.184  38.620  1.00  0.00    -0.205 F 
ATOM     65  C   UNL A   1      41.318  35.331  39.606  1.00  0.00     0.022 A 
BRANCH  63  66
ATOM     66  S   UNL A   1      39.437  34.016  41.092  1.00  0.00     0.127 S 
ATOM     67  O   UNL A   1      40.193  34.755  42.102  1.00  0.00    -0.237 OA
ATOM     68  O   UNL A   1      38.201  34.667  40.658  1.00  0.00    -0.237 OA
ATOM     69  O   UNL A   1      39.321  32.584  41.325  1.00  0.00    -0.744 OA
ENDBRANCH  63  66
ENDBRANCH  45  59
BRANCH  46  70
ATOM     70  C   UNL A   1      40.856  27.907  29.191  1.00  0.00     0.023 A 
ATOM     71  C   UNL A   1      39.949  26.834  29.093  1.00  0.00     0.012 A 
ATOM     72  C   UNL A   1      41.704  28.191  28.105  1.00  0.00     0.148 A 
ATOM     73  C   UNL A   1      39.917  26.031  27.952  1.00  0.00     0.002 A 
ATOM     74  C   UNL A   1      41.627  27.423  26.948  1.00  0.00     0.091 A 
ATOM     75  F   UNL A   1      42.563  29.214  28.220  1.00  0.00    -0.205 F 
ATOM     76  C   UNL A   1      40.749  26.332  26.877  1.00  0.00     0.022 A 
BRANCH  74  77
ATOM     77  S   UNL A   1      42.566  27.816  25.469  1.00  0.00     0.127 S 
ATOM     78  O   UNL A   1      42.325  26.638  24.640  1.00  0.00    -0.237 OA
ATOM     79  O   UNL A   1      41.907  29.039  25.009  1.00  0.00    -0.237 OA
ATOM     80  O   UNL A   1      43.941  28.006  25.912  1.00  0.00    -0.744 OA
ENDBRANCH  74  77
ENDBRANCH  46  70
BRANCH  58  81
ATOM     81  C   UNL A   1      44.793  27.770  34.950  1.00  0.00     0.023 A 
ATOM     82  C   UNL A   1      46.140  28.132  34.754  1.00  0.00     0.012 A 
ATOM     83  C   UNL A   1      44.491  26.566  35.618  1.00  0.00     0.148 A 
ATOM     84  C   UNL A   1      47.169  27.287  35.169  1.00  0.00     0.002 A 
ATOM     85  C   UNL A   1      45.521  25.756  36.078  1.00  0.00     0.091 A 
ATOM     86  F   UNL A   1      43.203  26.227  35.780  1.00  0.00    -0.205 F 
ATOM     87  C   UNL A   1      46.860  26.106  35.840  1.00  0.00     0.022 A 
BRANCH  85  88
ATOM     88  S   UNL A   1      45.212  24.272  37.042  1.00  0.00     0.127 S 
ATOM     89  O   UNL A   1      46.569  23.799  37.304  1.00  0.00    -0.237 OA
ATOM     90  O   UNL A   1      44.512  24.801  38.213  1.00  0.00    -0.237 OA
ATOM     91  O   UNL A   1      44.397  23.412  36.193  1.00  0.00    -0.744 OA
ENDBRANCH  85  88
ENDBRANCH  58  81
ENDBRANCH  32  33
ENDBRANCH  24  27
ENDBRANCH  22  23
ENDBRANCH  21  22
ENDBRANCH  20  21
ENDBRANCH   1  20
TORSDOF 19
ENDMDL
MODEL 3
REMARK VINA RESULT:      -9.9      2.085      8.674
REMARK SMILES C[C@H]1CCC[C@H](S[C@@H](C)[C@@H](C)C(=O)NCCCCCCNC(=O)c2ccc(-c3c4nc(c(-c5cccc(S(=O)(=O)[O-])c5F)c5ccc([nH]5)c(-c5cccc(S(=O)(=O)[O-])c5F)c5nc(c(-c6cccc(S(=O)(=O)[O-])c6F)c6ccc3[nH]6)C=C5)C=C4)cc2)C1
REMARK SMILES IDX 17 1 16 2 15 3 14 4 12 5 13 6 10 8 11 9 8 10 9 11 7 12 6 13
REMARK SMILES IDX 1 14 2 15 3 16 87 17 4 18 5 19 18 20 19 21 20 22 21 23 22 24
REMARK SMILES IDX 23 26 24 27 25 28 86 29 26 30 85 31 27 32 28 33 29 34 79 35
REMARK SMILES IDX 30 36 84 37 78 38 80 39 31 40 83 41 77 42 76 43 32 45 64 46
REMARK SMILES IDX 44 47 63 48 45 49 48 50 62 51 81 52 46 53 47 54 61 56 82 57
REMARK SMILES IDX 49 58 33 59 34 60 42 61 35 62 37 63 43 64 36 65 38 66 39 67
REMARK SMILES IDX 40 68 41 69 65 70 66 71 74 72 67 73 69 74 75 75 68 76 70 77
REMARK SMILES IDX 71 78 72 79 73 80 50 81 51 82 59 83 52 84 54 85 60 86 53 87
REMARK SMILES IDX 55 88 56 89 57 90 58 91
REMARK H PARENT 14 7 21 25 80 44 48 55
REMARK Flexibility Score: inf
ROOT
ATOM      1  C   UNL A   1      32.625  29.800  26.901  1.00  0.00     0.002 C 
ENDROOT
BRANCH   1   2
ATOM      2  C   UNL A   1      31.903  28.611  27.546  1.00  0.00     0.021 C 
BRANCH   2   3
ATOM      3  C   UNL A   1      31.394  27.586  26.533  1.00  0.00     0.116 C 
BRANCH   3   4
ATOM      4  N   UNL A   1      31.919  27.873  25.215  1.00  0.00    -0.356 N 
ATOM      5  C   UNL A   1      32.044  27.097  24.114  1.00  0.00     0.223 C 
ATOM      6  O   UNL A   1      32.676  27.566  23.162  1.00  0.00    -0.275 OA
ATOM      7  H   UNL A   1      32.242  28.795  25.100  1.00  0.00     0.163 HD
BRANCH   5   8
ATOM      8  C   UNL A   1      31.383  25.729  23.999  1.00  0.00     0.088 C 
ATOM      9  C   UNL A   1      29.885  25.886  24.275  1.00  0.00     0.019 C 
BRANCH   8  10
ATOM     10  C   UNL A   1      32.088  24.587  24.748  1.00  0.00     0.056 C 
ATOM     11  C   UNL A   1      31.297  24.074  25.959  1.00  0.00     0.020 C 
BRANCH  10  12
ATOM     12  S   UNL A   1      33.938  24.707  24.970  1.00  0.00    -0.155 SA
BRANCH  12  13
ATOM     13  C   UNL A   1      34.756  23.057  25.200  1.00  0.00     0.047 C 
ATOM     14  C   UNL A   1      32.601  20.210  23.704  1.00  0.00     0.007 C 
ATOM     15  C   UNL A   1      33.078  21.258  24.705  1.00  0.00    -0.013 C 
ATOM     16  C   UNL A   1      33.160  20.709  26.131  1.00  0.00     0.003 C 
ATOM     17  C   UNL A   1      34.349  21.942  24.242  1.00  0.00     0.017 C 
ATOM     18  C   UNL A   1      33.906  21.573  27.154  1.00  0.00     0.001 C 
ATOM     19  C   UNL A   1      34.974  22.513  26.612  1.00  0.00     0.014 C 
ENDBRANCH  12  13
ENDBRANCH  10  12
ENDBRANCH   8  10
ENDBRANCH   5   8
ENDBRANCH   3   4
ENDBRANCH   2   3
ENDBRANCH   1   2
BRANCH   1  20
ATOM     20  C   UNL A   1      31.689  30.781  26.190  1.00  0.00     0.002 C 
BRANCH  20  21
ATOM     21  C   UNL A   1      31.498  32.107  26.930  1.00  0.00     0.021 C 
BRANCH  21  22
ATOM     22  C   UNL A   1      32.803  32.802  27.282  1.00  0.00     0.116 C 
BRANCH  22  23
ATOM     23  N   UNL A   1      32.579  34.191  27.641  1.00  0.00    -0.352 N 
ATOM     24  C   UNL A   1      33.099  34.875  28.702  1.00  0.00     0.251 C 
ATOM     25  H   UNL A   1      31.980  34.700  27.048  1.00  0.00     0.163 HD
ATOM     26  O   UNL A   1      32.628  35.968  29.027  1.00  0.00    -0.269 OA
BRANCH  24  27
ATOM     27  C   UNL A   1      34.224  34.288  29.452  1.00  0.00     0.039 A 
ATOM     28  C   UNL A   1      35.515  34.398  28.935  1.00  0.00     0.014 A 
ATOM     29  C   UNL A   1      33.995  33.627  30.664  1.00  0.00     0.014 A 
ATOM     30  C   UNL A   1      36.582  33.842  29.641  1.00  0.00     0.010 A 
ATOM     31  C   UNL A   1      35.068  33.158  31.408  1.00  0.00     0.010 A 
ATOM     32  C   UNL A   1      36.366  33.220  30.883  1.00  0.00    -0.014 A 
BRANCH  32  33
ATOM     33  C   UNL A   1      37.479  32.562  31.606  1.00  0.00     0.031 A 
ATOM     34  C   UNL A   1      38.217  31.420  30.959  1.00  0.00     0.074 A 
ATOM     35  C   UNL A   1      37.795  32.959  32.854  1.00  0.00     0.049 A 
ATOM     36  N   UNL A   1      39.215  30.715  31.423  1.00  0.00    -0.248 NA
ATOM     37  C   UNL A   1      37.755  30.992  29.626  1.00  0.00     0.031 C 
ATOM     38  C   UNL A   1      37.098  33.999  33.614  1.00  0.00     0.029 A 
ATOM     39  N   UNL A   1      38.776  32.525  33.705  1.00  0.00    -0.354 N 
ATOM     40  C   UNL A   1      39.474  29.744  30.462  1.00  0.00     0.074 A 
ATOM     41  C   UNL A   1      38.498  29.917  29.411  1.00  0.00     0.031 C 
ATOM     42  C   UNL A   1      37.684  34.130  34.815  1.00  0.00     0.029 A 
ATOM     43  C   UNL A   1      38.782  33.174  34.917  1.00  0.00     0.049 A 
ATOM     44  H   UNL A   1      39.418  31.815  33.472  1.00  0.00     0.167 HD
ATOM     45  C   UNL A   1      40.458  28.814  30.437  1.00  0.00     0.034 A 
ATOM     46  C   UNL A   1      39.586  33.015  35.986  1.00  0.00     0.034 A 
ATOM     47  C   UNL A   1      41.455  28.679  31.463  1.00  0.00     0.049 A 
ATOM     48  C   UNL A   1      40.710  32.018  35.906  1.00  0.00     0.074 A 
ATOM     49  C   UNL A   1      42.542  27.826  31.501  1.00  0.00     0.029 A 
ATOM     50  N   UNL A   1      41.484  29.418  32.635  1.00  0.00    -0.354 N 
ATOM     51  N   UNL A   1      41.032  31.211  34.923  1.00  0.00    -0.248 NA
ATOM     52  C   UNL A   1      41.613  31.946  37.063  1.00  0.00     0.031 C 
ATOM     53  C   UNL A   1      43.217  28.034  32.708  1.00  0.00     0.029 A 
ATOM     54  C   UNL A   1      42.571  29.043  33.405  1.00  0.00     0.049 A 
ATOM     55  H   UNL A   1      40.828  30.110  32.883  1.00  0.00     0.167 HD
ATOM     56  C   UNL A   1      42.199  30.569  35.324  1.00  0.00     0.074 A 
ATOM     57  C   UNL A   1      42.536  31.098  36.629  1.00  0.00     0.031 C 
ATOM     58  C   UNL A   1      42.920  29.620  34.677  1.00  0.00     0.034 A 
BRANCH  45  59
ATOM     59  C   UNL A   1      40.530  27.906  29.235  1.00  0.00     0.023 A 
ATOM     60  C   UNL A   1      39.679  26.785  29.154  1.00  0.00     0.012 A 
ATOM     61  C   UNL A   1      41.406  28.184  28.168  1.00  0.00     0.148 A 
ATOM     62  C   UNL A   1      39.729  25.930  28.054  1.00  0.00     0.002 A 
ATOM     63  C   UNL A   1      41.415  27.357  27.052  1.00  0.00     0.091 A 
ATOM     64  F   UNL A   1      42.224  29.241  28.271  1.00  0.00    -0.205 F 
ATOM     65  C   UNL A   1      40.588  26.222  26.999  1.00  0.00     0.022 A 
BRANCH  63  66
ATOM     66  S   UNL A   1      42.424  27.692  25.604  1.00  0.00     0.127 S 
ATOM     67  O   UNL A   1      43.769  27.700  26.177  1.00  0.00    -0.237 OA
ATOM     68  O   UNL A   1      42.130  26.538  24.753  1.00  0.00    -0.237 OA
ATOM     69  O   UNL A   1      41.962  28.968  25.079  1.00  0.00    -0.744 OA
ENDBRANCH  63  66
ENDBRANCH  45  59
BRANCH  46  70
ATOM     70  C   UNL A   1      39.406  33.875  37.189  1.00  0.00     0.023 A 
ATOM     71  C   UNL A   1      39.868  35.206  37.165  1.00  0.00     0.012 A 
ATOM     72  C   UNL A   1      38.768  33.391  38.346  1.00  0.00     0.148 A 
ATOM     73  C   UNL A   1      39.735  36.026  38.287  1.00  0.00     0.002 A 
ATOM     74  C   UNL A   1      38.587  34.230  39.439  1.00  0.00     0.091 A 
ATOM     75  F   UNL A   1      38.339  32.120  38.350  1.00  0.00    -0.205 F 
ATOM     76  C   UNL A   1      39.087  35.541  39.419  1.00  0.00     0.022 A 
BRANCH  74  77
ATOM     77  S   UNL A   1      37.651  33.734  40.889  1.00  0.00     0.127 S 
ATOM     78  O   UNL A   1      37.493  35.004  41.592  1.00  0.00    -0.237 OA
ATOM     79  O   UNL A   1      36.426  33.204  40.289  1.00  0.00    -0.237 OA
ATOM     80  O   UNL A   1      38.469  32.735  41.564  1.00  0.00    -0.744 OA
ENDBRANCH  74  77
ENDBRANCH  46  70
BRANCH  58  81
ATOM     81  C   UNL A   1      44.178  29.131  35.345  1.00  0.00     0.023 A 
ATOM     82  C   UNL A   1      45.410  29.764  35.088  1.00  0.00     0.012 A 
ATOM     83  C   UNL A   1      44.127  28.069  36.271  1.00  0.00     0.148 A 
ATOM     84  C   UNL A   1      46.579  29.316  35.702  1.00  0.00     0.002 A 
ATOM     85  C   UNL A   1      45.286  27.663  36.919  1.00  0.00     0.091 A 
ATOM     86  F   UNL A   1      42.950  27.464  36.490  1.00  0.00    -0.205 F 
ATOM     87  C   UNL A   1      46.516  28.274  36.624  1.00  0.00     0.022 A 
BRANCH  85  88
ATOM     88  S   UNL A   1      45.275  26.400  38.197  1.00  0.00     0.127 S 
ATOM     89  O   UNL A   1      46.665  26.419  38.647  1.00  0.00    -0.237 OA
ATOM     90  O   UNL A   1      44.313  26.939  39.160  1.00  0.00    -0.237 OA
ATOM     91  O   UNL A   1      44.842  25.175  37.538  1.00  0.00    -0.744 OA
ENDBRANCH  85  88
ENDBRANCH  58  81
ENDBRANCH  32  33
ENDBRANCH  24  27
ENDBRANCH  22  23
ENDBRANCH  21  22
ENDBRANCH  20  21
ENDBRANCH   1  20
TORSDOF 19
ENDMDL
