MODEL 1
REMARK VINA RESULT:     -11.8      0.000      0.000
REMARK SMILES Cc1nonc1-c1noc(CCC(=O)NCCCCCCNC(=O)c2ccc(-c3c4nc(c(-c5cccc(S(=O)(=O)[O-])c5F)c5ccc([nH]5)c(-c5cccc(S(=O)(=O)[O-])c5F)c5nc(c(-c6cccc(S(=O)(=O)[O-])c6F)c6ccc3[nH]6)C=C5)C=C4)cc2)n1
REMARK SMILES IDX 18 1 17 2 16 3 15 4 13 5 14 6 12 8 11 9 10 10 7 11 8 12
REMARK SMILES IDX 88 13 9 14 6 15 1 16 2 17 3 18 4 19 5 20 19 21 20 22 21 23
REMARK SMILES IDX 22 24 23 25 24 27 25 28 26 29 87 30 27 31 86 32 28 33 29 34
REMARK SMILES IDX 30 35 80 36 31 37 85 38 79 39 81 40 32 41 84 42 78 43 77 44
REMARK SMILES IDX 33 46 65 47 45 48 64 49 46 50 49 51 63 52 82 53 47 54 48 55
REMARK SMILES IDX 62 57 83 58 50 59 34 60 35 61 43 62 36 63 38 64 44 65 37 66
REMARK SMILES IDX 39 67 40 68 41 69 42 70 66 71 67 72 75 73 68 74 70 75 76 76
REMARK SMILES IDX 69 77 71 78 72 79 73 80 74 81 51 82 52 83 60 84 53 85 55 86
REMARK SMILES IDX 61 87 54 88 56 89 57 90 58 91 59 92
REMARK H PARENT 15 7 22 26 81 45 49 56
REMARK Flexibility Score: inf
ROOT
ATOM      1  C   UNL A   1      31.504  29.847  25.285  1.00  0.00     0.002 C 
ENDROOT
BRANCH   1   2
ATOM      2  C   UNL A   1      32.764  29.182  24.721  1.00  0.00     0.021 C 
BRANCH   2   3
ATOM      3  C   UNL A   1      32.559  27.728  24.296  1.00  0.00     0.116 C 
BRANCH   3   4
ATOM      4  N   UNL A   1      31.800  27.006  25.302  1.00  0.00    -0.356 N 
ATOM      5  C   UNL A   1      30.648  26.296  25.179  1.00  0.00     0.220 C 
ATOM      6  O   UNL A   1      30.121  25.843  26.197  1.00  0.00    -0.275 OA
ATOM      7  H   UNL A   1      32.177  27.036  26.211  1.00  0.00     0.163 HD
BRANCH   5   8
ATOM      8  C   UNL A   1      30.013  26.080  23.824  1.00  0.00     0.110 C 
BRANCH   8   9
ATOM      9  C   UNL A   1      28.740  26.905  23.668  1.00  0.00     0.110 C 
BRANCH   9  10
ATOM     10  C   UNL A   1      28.983  28.228  23.049  1.00  0.00     0.227 A 
ATOM     11  C   UNL A   1      29.079  30.234  22.449  1.00  0.00     0.226 A 
ATOM     12  N   UNL A   1      30.034  29.645  21.713  1.00  0.00    -0.055 NA
ATOM     13  N   UNL A   1      28.402  29.380  23.288  1.00  0.00    -0.190 NA
ATOM     14  O   UNL A   1      29.973  28.308  22.113  1.00  0.00    -0.339 OA
BRANCH  11  15
ATOM     15  C   UNL A   1      28.695  31.639  22.342  1.00  0.00     0.178 A 
ATOM     16  C   UNL A   1      27.794  31.769  19.875  1.00  0.00     0.073 C 
ATOM     17  C   UNL A   1      28.115  32.271  21.228  1.00  0.00     0.113 A 
ATOM     18  N   UNL A   1      27.873  33.549  21.534  1.00  0.00    -0.054 NA
ATOM     19  O   UNL A   1      28.339  33.712  22.833  1.00  0.00    -0.244 OA
ATOM     20  N   UNL A   1      28.832  32.513  23.342  1.00  0.00    -0.046 NA
ENDBRANCH  11  15
ENDBRANCH   9  10
ENDBRANCH   8   9
ENDBRANCH   5   8
ENDBRANCH   3   4
ENDBRANCH   2   3
ENDBRANCH   1   2
BRANCH   1  21
ATOM     21  C   UNL A   1      31.658  30.444  26.689  1.00  0.00     0.002 C 
BRANCH  21  22
ATOM     22  C   UNL A   1      31.559  31.971  26.778  1.00  0.00     0.021 C 
BRANCH  22  23
ATOM     23  C   UNL A   1      32.861  32.695  27.115  1.00  0.00     0.116 C 
BRANCH  23  24
ATOM     24  N   UNL A   1      32.628  34.045  27.602  1.00  0.00    -0.352 N 
ATOM     25  C   UNL A   1      33.191  34.700  28.667  1.00  0.00     0.251 C 
ATOM     26  H   UNL A   1      31.966  34.567  27.092  1.00  0.00     0.163 HD
ATOM     27  O   UNL A   1      32.726  35.779  29.033  1.00  0.00    -0.269 OA
BRANCH  25  28
ATOM     28  C   UNL A   1      34.343  34.114  29.386  1.00  0.00     0.039 A 
ATOM     29  C   UNL A   1      34.100  33.223  30.436  1.00  0.00     0.014 A 
ATOM     30  C   UNL A   1      35.655  34.464  29.054  1.00  0.00     0.014 A 
ATOM     31  C   UNL A   1      35.171  32.644  31.120  1.00  0.00     0.010 A 
ATOM     32  C   UNL A   1      36.724  33.843  29.699  1.00  0.00     0.010 A 
ATOM     33  C   UNL A   1      36.493  32.934  30.743  1.00  0.00    -0.014 A 
BRANCH  33  34
ATOM     34  C   UNL A   1      37.646  32.292  31.423  1.00  0.00     0.031 A 
ATOM     35  C   UNL A   1      38.386  31.165  30.758  1.00  0.00     0.074 A 
ATOM     36  C   UNL A   1      37.970  32.666  32.675  1.00  0.00     0.049 A 
ATOM     37  N   UNL A   1      39.379  30.446  31.217  1.00  0.00    -0.248 NA
ATOM     38  C   UNL A   1      37.940  30.778  29.409  1.00  0.00     0.031 C 
ATOM     39  C   UNL A   1      37.280  33.695  33.455  1.00  0.00     0.029 A 
ATOM     40  N   UNL A   1      38.944  32.202  33.524  1.00  0.00    -0.354 N 
ATOM     41  C   UNL A   1      39.652  29.504  30.233  1.00  0.00     0.074 A 
ATOM     42  C   UNL A   1      38.706  29.725  29.162  1.00  0.00     0.031 C 
ATOM     43  C   UNL A   1      37.849  33.783  34.668  1.00  0.00     0.029 A 
ATOM     44  C   UNL A   1      38.930  32.805  34.760  1.00  0.00     0.049 A 
ATOM     45  H   UNL A   1      39.592  31.506  33.272  1.00  0.00     0.167 HD
ATOM     46  C   UNL A   1      40.622  28.558  30.210  1.00  0.00     0.034 A 
ATOM     47  C   UNL A   1      39.699  32.592  35.846  1.00  0.00     0.034 A 
ATOM     48  C   UNL A   1      41.595  28.375  31.253  1.00  0.00     0.049 A 
ATOM     49  C   UNL A   1      40.803  31.573  35.775  1.00  0.00     0.074 A 
ATOM     50  C   UNL A   1      42.673  27.506  31.282  1.00  0.00     0.029 A 
ATOM     51  N   UNL A   1      41.612  29.071  32.451  1.00  0.00    -0.354 N 
ATOM     52  N   UNL A   1      41.151  30.803  34.771  1.00  0.00    -0.248 NA
ATOM     53  C   UNL A   1      41.645  31.418  36.970  1.00  0.00     0.031 C 
ATOM     54  C   UNL A   1      43.337  27.675  32.502  1.00  0.00     0.029 A 
ATOM     55  C   UNL A   1      42.677  28.652  33.229  1.00  0.00     0.049 A 
ATOM     56  H   UNL A   1      40.960  29.763  32.711  1.00  0.00     0.167 HD
ATOM     57  C   UNL A   1      42.268  30.098  35.201  1.00  0.00     0.074 A 
ATOM     58  C   UNL A   1      42.553  30.546  36.549  1.00  0.00     0.031 C 
ATOM     59  C   UNL A   1      42.983  29.151  34.545  1.00  0.00     0.034 A 
BRANCH  46  60
ATOM     60  C   UNL A   1      40.722  27.694  28.981  1.00  0.00     0.023 A 
ATOM     61  C   UNL A   1      39.818  26.625  28.818  1.00  0.00     0.012 A 
ATOM     62  C   UNL A   1      41.665  27.964  27.971  1.00  0.00     0.148 A 
ATOM     63  C   UNL A   1      39.871  25.817  27.682  1.00  0.00     0.002 A 
ATOM     64  C   UNL A   1      41.686  27.176  26.824  1.00  0.00     0.091 A 
ATOM     65  F   UNL A   1      42.533  28.968  28.153  1.00  0.00    -0.205 F 
ATOM     66  C   UNL A   1      40.796  26.099  26.682  1.00  0.00     0.022 A 
BRANCH  64  67
ATOM     67  S   UNL A   1      42.800  27.507  25.453  1.00  0.00     0.127 S 
ATOM     68  O   UNL A   1      42.811  26.220  24.762  1.00  0.00    -0.237 OA
ATOM     69  O   UNL A   1      42.106  28.578  24.735  1.00  0.00    -0.237 OA
ATOM     70  O   UNL A   1      44.063  27.911  26.059  1.00  0.00    -0.744 OA
ENDBRANCH  64  67
ENDBRANCH  46  60
BRANCH  47  71
ATOM     71  C   UNL A   1      39.507  33.432  37.062  1.00  0.00     0.023 A 
ATOM     72  C   UNL A   1      40.055  34.729  37.091  1.00  0.00     0.012 A 
ATOM     73  C   UNL A   1      38.753  32.980  38.162  1.00  0.00     0.148 A 
ATOM     74  C   UNL A   1      39.876  35.554  38.201  1.00  0.00     0.002 A 
ATOM     75  C   UNL A   1      38.536  33.825  39.245  1.00  0.00     0.091 A 
ATOM     76  F   UNL A   1      38.253  31.737  38.124  1.00  0.00    -0.205 F 
ATOM     77  C   UNL A   1      39.108  35.106  39.273  1.00  0.00     0.022 A 
BRANCH  75  78
ATOM     78  S   UNL A   1      37.456  33.379  40.610  1.00  0.00     0.127 S 
ATOM     79  O   UNL A   1      37.448  34.605  41.401  1.00  0.00    -0.237 OA
ATOM     80  O   UNL A   1      36.199  33.082  39.921  1.00  0.00    -0.237 OA
ATOM     81  O   UNL A   1      38.079  32.220  41.236  1.00  0.00    -0.744 OA
ENDBRANCH  75  78
ENDBRANCH  47  71
BRANCH  59  82
ATOM     82  C   UNL A   1      44.161  28.544  35.262  1.00  0.00     0.023 A 
ATOM     83  C   UNL A   1      45.454  29.045  35.017  1.00  0.00     0.012 A 
ATOM     84  C   UNL A   1      43.979  27.541  36.233  1.00  0.00     0.148 A 
ATOM     85  C   UNL A   1      46.552  28.540  35.711  1.00  0.00     0.002 A 
ATOM     86  C   UNL A   1      45.073  27.071  36.950  1.00  0.00     0.091 A 
ATOM     87  F   UNL A   1      42.743  27.060  36.437  1.00  0.00    -0.205 F 
ATOM     88  C   UNL A   1      46.361  27.563  36.685  1.00  0.00     0.022 A 
BRANCH  86  89
ATOM     89  S   UNL A   1      44.900  25.877  38.282  1.00  0.00     0.127 S 
ATOM     90  O   UNL A   1      46.283  25.725  38.730  1.00  0.00    -0.237 OA
ATOM     91  O   UNL A   1      44.028  26.578  39.224  1.00  0.00    -0.237 OA
ATOM     92  O   UNL A   1      44.301  24.695  37.678  1.00  0.00    -0.744 OA
ENDBRANCH  86  89
ENDBRANCH  59  82
ENDBRANCH  33  34
ENDBRANCH  25  28
ENDBRANCH  23  24
ENDBRANCH  22  23
ENDBRANCH  21  22
ENDBRANCH   1  21
TORSDOF 19
ENDMDL
MODEL 2
REMARK VINA RESULT:     -10.7      4.811      8.422
REMARK SMILES Cc1nonc1-c1noc(CCC(=O)NCCCCCCNC(=O)c2ccc(-c3c4nc(c(-c5cccc(S(=O)(=O)[O-])c5F)c5ccc([nH]5)c(-c5cccc(S(=O)(=O)[O-])c5F)c5nc(c(-c6cccc(S(=O)(=O)[O-])c6F)c6ccc3[nH]6)C=C5)C=C4)cc2)n1
REMARK SMILES IDX 18 1 17 2 16 3 15 4 13 5 14 6 12 8 11 9 10 10 7 11 8 12
REMARK SMILES IDX 88 13 9 14 6 15 1 16 2 17 3 18 4 19 5 20 19 21 20 22 21 23
REMARK SMILES IDX 22 24 23 25 24 27 25 28 26 29 87 30 27 31 86 32 28 33 29 34
REMARK SMILES IDX 30 35 80 36 31 37 85 38 79 39 81 40 32 41 84 42 78 43 77 44
REMARK SMILES IDX 33 46 65 47 45 48 64 49 46 50 49 51 63 52 82 53 47 54 48 55
REMARK SMILES IDX 62 57 83 58 50 59 34 60 35 61 43 62 36 63 38 64 44 65 37 66
REMARK SMILES IDX 39 67 40 68 41 69 42 70 66 71 67 72 75 73 68 74 70 75 76 76
REMARK SMILES IDX 69 77 71 78 72 79 73 80 74 81 51 82 52 83 60 84 53 85 55 86
REMARK SMILES IDX 61 87 54 88 56 89 57 90 58 91 59 92
REMARK H PARENT 15 7 22 26 81 45 49 56
REMARK Flexibility Score: inf
ROOT
ATOM      1  C   UNL A   1      37.731  32.264  32.074  1.00  0.00     0.002 C 
ENDROOT
BRANCH   1   2
ATOM      2  C   UNL A   1      37.128  31.064  32.813  1.00  0.00     0.021 C 
BRANCH   2   3
ATOM      3  C   UNL A   1      38.167  30.159  33.475  1.00  0.00     0.116 C 
BRANCH   3   4
ATOM      4  N   UNL A   1      37.900  30.034  34.897  1.00  0.00    -0.356 N 
ATOM      5  C   UNL A   1      38.006  30.960  35.886  1.00  0.00     0.220 C 
ATOM      6  O   UNL A   1      37.820  30.605  37.052  1.00  0.00    -0.275 OA
ATOM      7  H   UNL A   1      37.595  29.145  35.189  1.00  0.00     0.163 HD
BRANCH   5   8
ATOM      8  C   UNL A   1      38.364  32.395  35.569  1.00  0.00     0.110 C 
BRANCH   8   9
ATOM      9  C   UNL A   1      37.312  33.361  36.102  1.00  0.00     0.110 C 
BRANCH   9  10
ATOM     10  C   UNL A   1      36.576  34.063  35.026  1.00  0.00     0.227 A 
ATOM     11  C   UNL A   1      35.213  34.960  33.710  1.00  0.00     0.226 A 
ATOM     12  N   UNL A   1      36.405  35.362  33.243  1.00  0.00    -0.055 NA
ATOM     13  N   UNL A   1      35.283  34.146  34.816  1.00  0.00    -0.190 NA
ATOM     14  O   UNL A   1      37.315  34.766  34.120  1.00  0.00    -0.339 OA
BRANCH  11  15
ATOM     15  C   UNL A   1      33.929  35.261  33.083  1.00  0.00     0.178 A 
ATOM     16  C   UNL A   1      34.116  37.853  32.681  1.00  0.00     0.073 C 
ATOM     17  C   UNL A   1      33.491  36.515  32.622  1.00  0.00     0.113 A 
ATOM     18  N   UNL A   1      32.280  36.374  32.074  1.00  0.00    -0.054 NA
ATOM     19  O   UNL A   1      31.956  35.032  32.233  1.00  0.00    -0.244 OA
ATOM     20  N   UNL A   1      32.997  34.335  32.843  1.00  0.00    -0.046 NA
ENDBRANCH  11  15
ENDBRANCH   9  10
ENDBRANCH   8   9
ENDBRANCH   5   8
ENDBRANCH   3   4
ENDBRANCH   2   3
ENDBRANCH   1   2
BRANCH   1  21
ATOM     21  C   UNL A   1      37.270  32.430  30.621  1.00  0.00     0.002 C 
BRANCH  21  22
ATOM     22  C   UNL A   1      35.753  32.414  30.398  1.00  0.00     0.021 C 
BRANCH  22  23
ATOM     23  C   UNL A   1      35.303  32.585  28.948  1.00  0.00     0.116 C 
BRANCH  23  24
ATOM     24  N   UNL A   1      34.549  31.437  28.470  1.00  0.00    -0.352 N 
ATOM     25  C   UNL A   1      34.986  30.181  28.135  1.00  0.00     0.251 C 
ATOM     26  H   UNL A   1      33.580  31.583  28.371  1.00  0.00     0.163 HD
ATOM     27  O   UNL A   1      34.220  29.400  27.571  1.00  0.00    -0.269 OA
BRANCH  25  28
ATOM     28  C   UNL A   1      36.374  29.764  28.434  1.00  0.00     0.039 A 
ATOM     29  C   UNL A   1      37.382  30.072  27.515  1.00  0.00     0.014 A 
ATOM     30  C   UNL A   1      36.677  29.044  29.593  1.00  0.00     0.014 A 
ATOM     31  C   UNL A   1      38.703  29.703  27.783  1.00  0.00     0.010 A 
ATOM     32  C   UNL A   1      38.002  28.726  29.886  1.00  0.00     0.010 A 
ATOM     33  C   UNL A   1      39.027  29.044  28.980  1.00  0.00    -0.014 A 
BRANCH  33  34
ATOM     34  C   UNL A   1      40.430  28.687  29.308  1.00  0.00     0.031 A 
ATOM     35  C   UNL A   1      41.091  27.518  28.632  1.00  0.00     0.074 A 
ATOM     36  C   UNL A   1      41.079  29.362  30.275  1.00  0.00     0.049 A 
ATOM     37  N   UNL A   1      42.286  27.021  28.826  1.00  0.00    -0.248 NA
ATOM     38  C   UNL A   1      40.300  26.797  27.620  1.00  0.00     0.031 C 
ATOM     39  C   UNL A   1      40.518  30.467  31.055  1.00  0.00     0.029 A 
ATOM     40  N   UNL A   1      42.341  29.198  30.789  1.00  0.00    -0.354 N 
ATOM     41  C   UNL A   1      42.377  25.914  27.992  1.00  0.00     0.074 A 
ATOM     42  C   UNL A   1      41.109  25.795  27.306  1.00  0.00     0.031 C 
ATOM     43  C   UNL A   1      41.430  30.880  31.950  1.00  0.00     0.029 A 
ATOM     44  C   UNL A   1      42.631  30.058  31.822  1.00  0.00     0.049 A 
ATOM     45  H   UNL A   1      42.978  28.530  30.450  1.00  0.00     0.167 HD
ATOM     46  C   UNL A   1      43.431  25.086  27.792  1.00  0.00     0.034 A 
ATOM     47  C   UNL A   1      43.737  30.171  32.583  1.00  0.00     0.034 A 
ATOM     48  C   UNL A   1      44.709  25.237  28.436  1.00  0.00     0.049 A 
ATOM     49  C   UNL A   1      44.912  29.274  32.304  1.00  0.00     0.074 A 
ATOM     50  C   UNL A   1      45.867  24.507  28.232  1.00  0.00     0.029 A 
ATOM     51  N   UNL A   1      44.999  26.183  29.406  1.00  0.00    -0.354 N 
ATOM     52  N   UNL A   1      45.037  28.337  31.395  1.00  0.00    -0.248 NA
ATOM     53  C   UNL A   1      46.114  29.474  33.129  1.00  0.00     0.031 C 
ATOM     54  C   UNL A   1      46.856  25.009  29.085  1.00  0.00     0.029 A 
ATOM     55  C   UNL A   1      46.315  26.055  29.815  1.00  0.00     0.049 A 
ATOM     56  H   UNL A   1      44.361  26.848  29.755  1.00  0.00     0.167 HD
ATOM     57  C   UNL A   1      46.337  27.859  31.516  1.00  0.00     0.074 A 
ATOM     58  C   UNL A   1      46.967  28.624  32.572  1.00  0.00     0.031 C 
ATOM     59  C   UNL A   1      46.947  26.864  30.826  1.00  0.00     0.034 A 
BRANCH  46  60
ATOM     60  C   UNL A   1      43.268  23.983  26.781  1.00  0.00     0.023 A 
ATOM     61  C   UNL A   1      43.857  24.125  25.508  1.00  0.00     0.012 A 
ATOM     62  C   UNL A   1      42.585  22.793  27.099  1.00  0.00     0.148 A 
ATOM     63  C   UNL A   1      43.742  23.114  24.555  1.00  0.00     0.002 A 
ATOM     64  C   UNL A   1      42.506  21.774  26.155  1.00  0.00     0.091 A 
ATOM     65  F   UNL A   1      42.009  22.685  28.303  1.00  0.00    -0.205 F 
ATOM     66  C   UNL A   1      43.077  21.935  24.881  1.00  0.00     0.022 A 
BRANCH  64  67
ATOM     67  S   UNL A   1      41.726  20.195  26.510  1.00  0.00     0.127 S 
ATOM     68  O   UNL A   1      40.312  20.564  26.546  1.00  0.00    -0.237 OA
ATOM     69  O   UNL A   1      42.115  19.384  25.355  1.00  0.00    -0.237 OA
ATOM     70  O   UNL A   1      42.296  19.749  27.776  1.00  0.00    -0.744 OA
ENDBRANCH  64  67
ENDBRANCH  46  60
BRANCH  47  71
ATOM     71  C   UNL A   1      43.815  31.238  33.619  1.00  0.00     0.023 A 
ATOM     72  C   UNL A   1      44.276  32.517  33.250  1.00  0.00     0.012 A 
ATOM     73  C   UNL A   1      43.396  31.015  34.945  1.00  0.00     0.148 A 
ATOM     74  C   UNL A   1      44.340  33.549  34.186  1.00  0.00     0.002 A 
ATOM     75  C   UNL A   1      43.416  32.062  35.861  1.00  0.00     0.091 A 
ATOM     76  F   UNL A   1      42.975  29.788  35.282  1.00  0.00    -0.205 F 
ATOM     77  C   UNL A   1      43.900  33.324  35.488  1.00  0.00     0.022 A 
BRANCH  75  78
ATOM     78  S   UNL A   1      42.749  31.896  37.522  1.00  0.00     0.127 S 
ATOM     79  O   UNL A   1      41.380  31.467  37.254  1.00  0.00    -0.237 OA
ATOM     80  O   UNL A   1      43.614  30.866  38.098  1.00  0.00    -0.237 OA
ATOM     81  O   UNL A   1      42.898  33.210  38.133  1.00  0.00    -0.744 OA
ENDBRANCH  75  78
ENDBRANCH  47  71
BRANCH  59  82
ATOM     82  C   UNL A   1      48.379  26.551  31.172  1.00  0.00     0.023 A 
ATOM     83  C   UNL A   1      48.657  25.628  32.199  1.00  0.00     0.012 A 
ATOM     84  C   UNL A   1      49.440  27.103  30.430  1.00  0.00     0.148 A 
ATOM     85  C   UNL A   1      49.973  25.278  32.499  1.00  0.00     0.002 A 
ATOM     86  C   UNL A   1      50.747  26.718  30.708  1.00  0.00     0.091 A 
ATOM     87  F   UNL A   1      49.158  27.997  29.471  1.00  0.00    -0.205 F 
ATOM     88  C   UNL A   1      51.016  25.813  31.746  1.00  0.00     0.022 A 
BRANCH  86  89
ATOM     89  S   UNL A   1      52.141  27.293  29.728  1.00  0.00     0.127 S 
ATOM     90  O   UNL A   1      51.650  27.097  28.366  1.00  0.00    -0.237 OA
ATOM     91  O   UNL A   1      52.260  28.692  30.139  1.00  0.00    -0.237 OA
ATOM     92  O   UNL A   1      53.268  26.457  30.118  1.00  0.00    -0.744 OA
ENDBRANCH  86  89
ENDBRANCH  59  82
ENDBRANCH  33  34
ENDBRANCH  25  28
ENDBRANCH  23  24
ENDBRANCH  22  23
ENDBRANCH  21  22
ENDBRANCH   1  21
TORSDOF 19
ENDMDL
MODEL 3
REMARK VINA RESULT:     -10.3      1.498      7.812
REMARK SMILES Cc1nonc1-c1noc(CCC(=O)NCCCCCCNC(=O)c2ccc(-c3c4nc(c(-c5cccc(S(=O)(=O)[O-])c5F)c5ccc([nH]5)c(-c5cccc(S(=O)(=O)[O-])c5F)c5nc(c(-c6cccc(S(=O)(=O)[O-])c6F)c6ccc3[nH]6)C=C5)C=C4)cc2)n1
REMARK SMILES IDX 18 1 17 2 16 3 15 4 13 5 14 6 12 8 11 9 10 10 7 11 8 12
REMARK SMILES IDX 88 13 9 14 6 15 1 16 2 17 3 18 4 19 5 20 19 21 20 22 21 23
REMARK SMILES IDX 22 24 23 25 24 27 25 28 26 29 87 30 27 31 86 32 28 33 29 34
REMARK SMILES IDX 30 35 80 36 31 37 85 38 79 39 81 40 32 41 84 42 78 43 77 44
REMARK SMILES IDX 33 46 65 47 45 48 64 49 46 50 49 51 63 52 82 53 47 54 48 55
REMARK SMILES IDX 62 57 83 58 50 59 34 60 35 61 43 62 36 63 38 64 44 65 37 66
REMARK SMILES IDX 39 67 40 68 41 69 42 70 66 71 67 72 75 73 68 74 70 75 76 76
REMARK SMILES IDX 69 77 71 78 72 79 73 80 74 81 51 82 52 83 60 84 53 85 55 86
REMARK SMILES IDX 61 87 54 88 56 89 57 90 58 91 59 92
REMARK H PARENT 15 7 22 26 81 45 49 56
REMARK Flexibility Score: inf
ROOT
ATOM      1  C   UNL A   1      34.535  30.578  27.031  1.00  0.00     0.002 C 
ENDROOT
BRANCH   1   2
ATOM      2  C   UNL A   1      34.495  29.069  27.298  1.00  0.00     0.021 C 
BRANCH   2   3
ATOM      3  C   UNL A   1      33.705  28.277  26.256  1.00  0.00     0.116 C 
BRANCH   3   4
ATOM      4  N   UNL A   1      33.955  28.799  24.924  1.00  0.00    -0.356 N 
ATOM      5  C   UNL A   1      33.436  28.414  23.728  1.00  0.00     0.220 C 
ATOM      6  O   UNL A   1      33.869  28.938  22.700  1.00  0.00    -0.275 OA
ATOM      7  H   UNL A   1      34.597  29.544  24.881  1.00  0.00     0.163 HD
BRANCH   5   8
ATOM      8  C   UNL A   1      32.362  27.352  23.655  1.00  0.00     0.110 C 
BRANCH   8   9
ATOM      9  C   UNL A   1      31.522  27.497  22.392  1.00  0.00     0.110 C 
BRANCH   9  10
ATOM     10  C   UNL A   1      30.444  28.504  22.528  1.00  0.00     0.227 A 
ATOM     11  C   UNL A   1      29.170  30.169  22.534  1.00  0.00     0.226 A 
ATOM     12  N   UNL A   1      28.385  29.176  22.978  1.00  0.00    -0.055 NA
ATOM     13  N   UNL A   1      30.460  29.787  22.249  1.00  0.00    -0.190 NA
ATOM     14  O   UNL A   1      29.232  28.065  22.973  1.00  0.00    -0.339 OA
BRANCH  11  15
ATOM     15  C   UNL A   1      28.764  31.567  22.428  1.00  0.00     0.178 A 
ATOM     16  C   UNL A   1      27.838  31.679  19.970  1.00  0.00     0.073 C 
ATOM     17  C   UNL A   1      28.165  32.189  21.318  1.00  0.00     0.113 A 
ATOM     18  N   UNL A   1      27.906  33.463  21.624  1.00  0.00    -0.054 NA
ATOM     19  O   UNL A   1      28.383  33.637  22.918  1.00  0.00    -0.244 OA
ATOM     20  N   UNL A   1      28.898  32.446  23.425  1.00  0.00    -0.046 NA
ENDBRANCH  11  15
ENDBRANCH   9  10
ENDBRANCH   8   9
ENDBRANCH   5   8
ENDBRANCH   3   4
ENDBRANCH   2   3
ENDBRANCH   1   2
BRANCH   1  21
ATOM     21  C   UNL A   1      33.936  31.449  28.142  1.00  0.00     0.002 C 
BRANCH  21  22
ATOM     22  C   UNL A   1      32.776  32.358  27.723  1.00  0.00     0.021 C 
BRANCH  22  23
ATOM     23  C   UNL A   1      33.173  33.761  27.269  1.00  0.00     0.116 C 
BRANCH  23  24
ATOM     24  N   UNL A   1      32.742  34.784  28.210  1.00  0.00    -0.352 N 
ATOM     25  C   UNL A   1      33.158  35.021  29.495  1.00  0.00     0.251 C 
ATOM     26  H   UNL A   1      32.048  35.397  27.873  1.00  0.00     0.163 HD
ATOM     27  O   UNL A   1      32.538  35.821  30.196  1.00  0.00    -0.269 OA
BRANCH  25  28
ATOM     28  C   UNL A   1      34.334  34.315  30.047  1.00  0.00     0.039 A 
ATOM     29  C   UNL A   1      34.150  33.434  31.116  1.00  0.00     0.014 A 
ATOM     30  C   UNL A   1      35.617  34.544  29.540  1.00  0.00     0.014 A 
ATOM     31  C   UNL A   1      35.243  32.743  31.644  1.00  0.00     0.010 A 
ATOM     32  C   UNL A   1      36.697  33.812  30.030  1.00  0.00     0.010 A 
ATOM     33  C   UNL A   1      36.523  32.911  31.092  1.00  0.00    -0.014 A 
BRANCH  33  34
ATOM     34  C   UNL A   1      37.690  32.150  31.605  1.00  0.00     0.031 A 
ATOM     35  C   UNL A   1      38.229  32.427  32.981  1.00  0.00     0.074 A 
ATOM     36  C   UNL A   1      38.316  31.272  30.800  1.00  0.00     0.049 A 
ATOM     37  N   UNL A   1      39.269  31.906  33.579  1.00  0.00    -0.248 NA
ATOM     38  C   UNL A   1      37.521  33.438  33.784  1.00  0.00     0.031 C 
ATOM     39  C   UNL A   1      37.933  30.971  29.418  1.00  0.00     0.029 A 
ATOM     40  N   UNL A   1      39.424  30.492  31.015  1.00  0.00    -0.354 N 
ATOM     41  C   UNL A   1      39.362  32.546  34.808  1.00  0.00     0.074 A 
ATOM     42  C   UNL A   1      38.287  33.513  34.862  1.00  0.00     0.031 C 
ATOM     43  C   UNL A   1      38.795  30.076  28.909  1.00  0.00     0.029 A 
ATOM     44  C   UNL A   1      39.800  29.753  29.918  1.00  0.00     0.049 A 
ATOM     45  H   UNL A   1      39.905  30.463  31.873  1.00  0.00     0.167 HD
ATOM     46  C   UNL A   1      40.244  32.330  35.814  1.00  0.00     0.034 A 
ATOM     47  C   UNL A   1      40.839  28.912  29.742  1.00  0.00     0.034 A 
ATOM     48  C   UNL A   1      41.279  31.332  35.778  1.00  0.00     0.049 A 
ATOM     49  C   UNL A   1      41.772  28.650  30.893  1.00  0.00     0.074 A 
ATOM     50  C   UNL A   1      42.164  30.974  36.781  1.00  0.00     0.029 A 
ATOM     51  N   UNL A   1      41.569  30.531  34.685  1.00  0.00    -0.354 N 
ATOM     52  N   UNL A   1      41.744  29.147  32.107  1.00  0.00    -0.248 NA
ATOM     53  C   UNL A   1      42.857  27.684  30.664  1.00  0.00     0.031 C 
ATOM     54  C   UNL A   1      42.993  29.959  36.290  1.00  0.00     0.029 A 
ATOM     55  C   UNL A   1      42.619  29.681  34.985  1.00  0.00     0.049 A 
ATOM     56  H   UNL A   1      41.096  30.562  33.822  1.00  0.00     0.167 HD
ATOM     57  C   UNL A   1      42.784  28.532  32.794  1.00  0.00     0.074 A 
ATOM     58  C   UNL A   1      43.410  27.611  31.868  1.00  0.00     0.031 C 
ATOM     59  C   UNL A   1      43.194  28.727  34.072  1.00  0.00     0.034 A 
BRANCH  46  60
ATOM     60  C   UNL A   1      40.081  33.144  37.070  1.00  0.00     0.023 A 
ATOM     61  C   UNL A   1      40.837  34.324  37.227  1.00  0.00     0.012 A 
ATOM     62  C   UNL A   1      39.153  32.780  38.063  1.00  0.00     0.148 A 
ATOM     63  C   UNL A   1      40.696  35.111  38.368  1.00  0.00     0.002 A 
ATOM     64  C   UNL A   1      38.991  33.590  39.183  1.00  0.00     0.091 A 
ATOM     65  F   UNL A   1      38.461  31.642  37.911  1.00  0.00    -0.205 F 
ATOM     66  C   UNL A   1      39.766  34.751  39.340  1.00  0.00     0.022 A 
BRANCH  64  67
ATOM     67  S   UNL A   1      37.770  33.240  40.453  1.00  0.00     0.127 S 
ATOM     68  O   UNL A   1      37.778  34.482  41.223  1.00  0.00    -0.237 OA
ATOM     69  O   UNL A   1      36.554  33.018  39.668  1.00  0.00    -0.237 OA
ATOM     70  O   UNL A   1      38.256  32.058  41.154  1.00  0.00    -0.744 OA
ENDBRANCH  64  67
ENDBRANCH  46  60
BRANCH  47  71
ATOM     71  C   UNL A   1      40.991  28.186  28.451  1.00  0.00     0.023 A 
ATOM     72  C   UNL A   1      41.628  28.832  27.374  1.00  0.00     0.012 A 
ATOM     73  C   UNL A   1      40.557  26.856  28.294  1.00  0.00     0.148 A 
ATOM     74  C   UNL A   1      41.811  28.177  26.157  1.00  0.00     0.002 A 
ATOM     75  C   UNL A   1      40.786  26.191  27.094  1.00  0.00     0.091 A 
ATOM     76  F   UNL A   1      39.937  26.262  29.324  1.00  0.00    -0.205 F 
ATOM     77  C   UNL A   1      41.401  26.853  26.020  1.00  0.00     0.022 A 
BRANCH  75  78
ATOM     78  S   UNL A   1      40.405  24.448  26.874  1.00  0.00     0.127 S 
ATOM     79  O   UNL A   1      41.348  24.065  25.827  1.00  0.00    -0.237 OA
ATOM     80  O   UNL A   1      40.700  23.901  28.199  1.00  0.00    -0.237 OA
ATOM     81  O   UNL A   1      38.995  24.402  26.510  1.00  0.00    -0.744 OA
ENDBRANCH  75  78
ENDBRANCH  47  71
BRANCH  59  82
ATOM     82  C   UNL A   1      44.365  27.915  34.560  1.00  0.00     0.023 A 
ATOM     83  C   UNL A   1      45.671  28.420  34.402  1.00  0.00     0.012 A 
ATOM     84  C   UNL A   1      44.169  26.701  35.245  1.00  0.00     0.148 A 
ATOM     85  C   UNL A   1      46.766  27.715  34.898  1.00  0.00     0.002 A 
ATOM     86  C   UNL A   1      45.263  26.024  35.772  1.00  0.00     0.091 A 
ATOM     87  F   UNL A   1      42.921  26.225  35.366  1.00  0.00    -0.205 F 
ATOM     88  C   UNL A   1      46.563  26.525  35.593  1.00  0.00     0.022 A 
BRANCH  86  89
ATOM     89  S   UNL A   1      45.080  24.530  36.755  1.00  0.00     0.127 S 
ATOM     90  O   UNL A   1      46.471  24.192  37.049  1.00  0.00    -0.237 OA
ATOM     91  O   UNL A   1      44.311  25.003  37.907  1.00  0.00    -0.237 OA
ATOM     92  O   UNL A   1      44.366  23.585  35.907  1.00  0.00    -0.744 OA
ENDBRANCH  86  89
ENDBRANCH  59  82
ENDBRANCH  33  34
ENDBRANCH  25  28
ENDBRANCH  23  24
ENDBRANCH  22  23
ENDBRANCH  21  22
ENDBRANCH   1  21
TORSDOF 19
ENDMDL
