MODEL 1
REMARK VINA RESULT:     -11.9      0.000      0.000
REMARK SMILES O=C(Cn1c(=O)n(Cc2cccnc2)c(=O)c2sccc21)NCCCCCCNC(=O)c1ccc(-c2c3nc(c(-c4cccc(S(=O)(=O)[O-])c4F)c4ccc([nH]4)c(-c4cccc(S(=O)(=O)[O-])c4F)c4nc(c(-c5cccc(S(=O)(=O)[O-])c5F)c5ccc2[nH]5)C=C4)C=C3)cc1
REMARK SMILES IDX 25 1 24 2 23 3 22 4 1 5 2 6 3 8 4 9 5 10 21 11 6 12 7 13
REMARK SMILES IDX 17 14 20 15 15 16 18 17 19 18 16 19 8 20 9 21 10 22 14 23
REMARK SMILES IDX 11 24 13 25 12 26 26 27 27 28 28 29 29 30 30 31 31 33 32 34
REMARK SMILES IDX 33 35 94 36 34 37 93 38 35 39 36 40 37 41 87 42 38 43 92 44
REMARK SMILES IDX 86 45 88 46 39 47 91 48 85 49 84 50 40 52 72 53 52 54 71 55
REMARK SMILES IDX 53 56 56 57 70 58 89 59 54 60 55 61 69 63 90 64 57 65 41 66
REMARK SMILES IDX 42 67 50 68 43 69 45 70 51 71 44 72 46 73 47 74 48 75 49 76
REMARK SMILES IDX 73 77 74 78 82 79 75 80 77 81 83 82 76 83 78 84 79 85 80 86
REMARK SMILES IDX 81 87 58 88 59 89 67 90 60 91 62 92 68 93 61 94 63 95 64 96
REMARK SMILES IDX 65 97 66 98
REMARK H PARENT 22 7 29 32 88 51 56 62
REMARK Flexibility Score: inf
ROOT
ATOM      1  C   UNL A   1      37.252  21.841  25.283  1.00  0.00     0.002 C 
ENDROOT
BRANCH   1   2
ATOM      2  C   UNL A   1      36.051  22.629  25.828  1.00  0.00     0.021 C 
BRANCH   2   3
ATOM      3  C   UNL A   1      35.943  24.070  25.329  1.00  0.00     0.116 C 
BRANCH   3   4
ATOM      4  N   UNL A   1      34.767  24.251  24.505  1.00  0.00    -0.355 N 
ATOM      5  O   UNL A   1      35.566  23.246  22.591  1.00  0.00    -0.273 OA
ATOM      6  C   UNL A   1      34.690  23.869  23.183  1.00  0.00     0.240 C 
ATOM      7  H   UNL A   1      33.975  24.673  24.912  1.00  0.00     0.163 HD
BRANCH   6   8
ATOM      8  C   UNL A   1      33.364  24.239  22.521  1.00  0.00     0.227 C 
BRANCH   8   9
ATOM      9  N   UNL A   1      32.567  25.035  23.460  1.00  0.00    -0.283 N 
ATOM     10  C   UNL A   1      32.689  26.431  23.406  1.00  0.00     0.332 A 
ATOM     11  C   UNL A   1      31.780  24.434  24.442  1.00  0.00     0.070 A 
ATOM     12  O   UNL A   1      33.439  26.967  22.583  1.00  0.00    -0.247 OA
ATOM     13  N   UNL A   1      31.982  27.181  24.353  1.00  0.00    -0.254 N 
ATOM     14  C   UNL A   1      31.192  25.209  25.402  1.00  0.00     0.116 A 
ATOM     15  C   UNL A   1      31.495  23.052  24.643  1.00  0.00     0.039 A 
ATOM     16  C   UNL A   1      31.356  26.631  25.477  1.00  0.00     0.274 A 
ATOM     17  S   UNL A   1      30.263  24.320  26.508  1.00  0.00    -0.136 S 
ATOM     18  C   UNL A   1      30.656  22.851  25.722  1.00  0.00     0.068 A 
ATOM     19  O   UNL A   1      31.009  27.306  26.441  1.00  0.00    -0.268 OA
BRANCH  13  20
ATOM     20  C   UNL A   1      32.065  28.638  24.287  1.00  0.00     0.168 C 
BRANCH  20  21
ATOM     21  C   UNL A   1      30.890  29.278  23.577  1.00  0.00    -0.010 A 
ATOM     22  C   UNL A   1      30.141  30.300  24.170  1.00  0.00     0.009 A 
ATOM     23  C   UNL A   1      30.478  28.851  22.315  1.00  0.00     0.116 A 
ATOM     24  C   UNL A   1      29.044  30.838  23.498  1.00  0.00     0.020 A 
ATOM     25  N   UNL A   1      29.427  29.365  21.633  1.00  0.00    -0.264 NA
ATOM     26  C   UNL A   1      28.732  30.346  22.242  1.00  0.00     0.111 A 
ENDBRANCH  20  21
ENDBRANCH  13  20
ENDBRANCH   8   9
ENDBRANCH   6   8
ENDBRANCH   3   4
ENDBRANCH   2   3
ENDBRANCH   1   2
BRANCH   1  27
ATOM     27  C   UNL A   1      36.974  20.392  24.860  1.00  0.00     0.002 C 
BRANCH  27  28
ATOM     28  C   UNL A   1      38.156  19.418  24.953  1.00  0.00     0.021 C 
BRANCH  28  29
ATOM     29  C   UNL A   1      39.281  19.883  25.870  1.00  0.00     0.116 C 
BRANCH  29  30
ATOM     30  N   UNL A   1      40.476  19.045  25.762  1.00  0.00    -0.352 N 
ATOM     31  C   UNL A   1      41.798  19.431  25.841  1.00  0.00     0.251 C 
ATOM     32  H   UNL A   1      40.316  18.085  25.612  1.00  0.00     0.163 HD
ATOM     33  O   UNL A   1      42.686  18.722  25.379  1.00  0.00    -0.269 OA
BRANCH  31  34
ATOM     34  C   UNL A   1      42.127  20.711  26.491  1.00  0.00     0.039 A 
ATOM     35  C   UNL A   1      42.585  21.804  25.748  1.00  0.00     0.014 A 
ATOM     36  C   UNL A   1      41.949  20.812  27.869  1.00  0.00     0.014 A 
ATOM     37  C   UNL A   1      42.779  23.024  26.393  1.00  0.00     0.010 A 
ATOM     38  C   UNL A   1      42.005  22.043  28.475  1.00  0.00     0.010 A 
ATOM     39  C   UNL A   1      42.467  23.142  27.755  1.00  0.00    -0.014 A 
BRANCH  39  40
ATOM     40  C   UNL A   1      42.520  24.439  28.422  1.00  0.00     0.031 A 
ATOM     41  C   UNL A   1      41.339  25.317  28.191  1.00  0.00     0.074 A 
ATOM     42  C   UNL A   1      43.443  24.740  29.362  1.00  0.00     0.049 A 
ATOM     43  N   UNL A   1      41.301  26.445  27.560  1.00  0.00    -0.248 NA
ATOM     44  C   UNL A   1      40.017  24.822  28.605  1.00  0.00     0.031 C 
ATOM     45  C   UNL A   1      44.459  23.853  29.945  1.00  0.00     0.029 A 
ATOM     46  N   UNL A   1      43.569  25.870  30.108  1.00  0.00    -0.354 N 
ATOM     47  C   UNL A   1      39.992  26.911  27.695  1.00  0.00     0.074 A 
ATOM     48  C   UNL A   1      39.217  25.795  28.165  1.00  0.00     0.031 C 
ATOM     49  C   UNL A   1      44.903  24.379  31.107  1.00  0.00     0.029 A 
ATOM     50  C   UNL A   1      44.354  25.712  31.246  1.00  0.00     0.049 A 
ATOM     51  H   UNL A   1      43.143  26.724  29.864  1.00  0.00     0.167 HD
ATOM     52  C   UNL A   1      39.703  28.242  27.641  1.00  0.00     0.034 A 
ATOM     53  C   UNL A   1      44.511  26.609  32.248  1.00  0.00     0.034 A 
ATOM     54  C   UNL A   1      40.820  28.995  27.129  1.00  0.00     0.049 A 
ATOM     55  C   UNL A   1      44.134  27.929  31.701  1.00  0.00     0.074 A 
ATOM     56  C   UNL A   1      41.524  29.043  25.945  1.00  0.00     0.029 A 
ATOM     57  N   UNL A   1      41.598  29.623  28.070  1.00  0.00    -0.354 N 
ATOM     58  N   UNL A   1      44.804  28.545  30.769  1.00  0.00    -0.248 NA
ATOM     59  C   UNL A   1      42.790  28.424  31.943  1.00  0.00     0.031 C 
ATOM     60  C   UNL A   1      42.870  29.321  26.325  1.00  0.00     0.029 A 
ATOM     61  C   UNL A   1      42.910  29.475  27.714  1.00  0.00     0.049 A 
ATOM     62  H   UNL A   1      41.267  30.098  28.866  1.00  0.00     0.167 HD
ATOM     63  C   UNL A   1      43.830  29.181  30.014  1.00  0.00     0.074 A 
ATOM     64  C   UNL A   1      42.647  29.203  30.869  1.00  0.00     0.031 C 
ATOM     65  C   UNL A   1      43.994  29.358  28.670  1.00  0.00     0.034 A 
BRANCH  52  66
ATOM     66  C   UNL A   1      38.579  28.942  28.385  1.00  0.00     0.023 A 
ATOM     67  C   UNL A   1      37.716  29.764  27.620  1.00  0.00     0.012 A 
ATOM     68  C   UNL A   1      38.481  29.059  29.789  1.00  0.00     0.148 A 
ATOM     69  C   UNL A   1      36.850  30.688  28.216  1.00  0.00     0.002 A 
ATOM     70  C   UNL A   1      37.557  29.916  30.380  1.00  0.00     0.091 A 
ATOM     71  F   UNL A   1      39.368  28.447  30.577  1.00  0.00    -0.205 F 
ATOM     72  C   UNL A   1      36.764  30.759  29.599  1.00  0.00     0.022 A 
BRANCH  70  73
ATOM     73  S   UNL A   1      37.352  29.998  32.164  1.00  0.00     0.127 S 
ATOM     74  O   UNL A   1      38.607  30.622  32.576  1.00  0.00    -0.237 OA
ATOM     75  O   UNL A   1      36.167  30.847  32.290  1.00  0.00    -0.237 OA
ATOM     76  O   UNL A   1      37.146  28.621  32.596  1.00  0.00    -0.744 OA
ENDBRANCH  70  73
ENDBRANCH  52  66
BRANCH  53  77
ATOM     77  C   UNL A   1      44.749  26.416  33.695  1.00  0.00     0.023 A 
ATOM     78  C   UNL A   1      45.983  26.821  34.243  1.00  0.00     0.012 A 
ATOM     79  C   UNL A   1      43.678  26.155  34.576  1.00  0.00     0.148 A 
ATOM     80  C   UNL A   1      46.127  27.028  35.619  1.00  0.00     0.002 A 
ATOM     81  C   UNL A   1      43.826  26.366  35.944  1.00  0.00     0.091 A 
ATOM     82  F   UNL A   1      42.491  25.800  34.063  1.00  0.00    -0.205 F 
ATOM     83  C   UNL A   1      45.045  26.818  36.467  1.00  0.00     0.022 A 
BRANCH  81  84
ATOM     84  S   UNL A   1      42.462  26.166  37.099  1.00  0.00     0.127 S 
ATOM     85  O   UNL A   1      43.131  26.330  38.392  1.00  0.00    -0.237 OA
ATOM     86  O   UNL A   1      41.585  27.269  36.720  1.00  0.00    -0.237 OA
ATOM     87  O   UNL A   1      41.936  24.828  36.864  1.00  0.00    -0.744 OA
ENDBRANCH  81  84
ENDBRANCH  53  77
BRANCH  65  88
ATOM     88  C   UNL A   1      45.371  29.153  28.087  1.00  0.00     0.023 A 
ATOM     89  C   UNL A   1      46.388  30.126  28.183  1.00  0.00     0.012 A 
ATOM     90  C   UNL A   1      45.698  27.878  27.597  1.00  0.00     0.148 A 
ATOM     91  C   UNL A   1      47.697  29.836  27.788  1.00  0.00     0.002 A 
ATOM     92  C   UNL A   1      47.012  27.576  27.258  1.00  0.00     0.091 A 
ATOM     93  F   UNL A   1      44.720  26.964  27.507  1.00  0.00    -0.205 F 
ATOM     94  C   UNL A   1      48.013  28.555  27.342  1.00  0.00     0.022 A 
BRANCH  92  95
ATOM     95  S   UNL A   1      47.506  25.906  26.824  1.00  0.00     0.127 S 
ATOM     96  O   UNL A   1      46.871  25.729  25.520  1.00  0.00    -0.237 OA
ATOM     97  O   UNL A   1      48.966  26.010  26.785  1.00  0.00    -0.237 OA
ATOM     98  O   UNL A   1      47.001  25.049  27.890  1.00  0.00    -0.744 OA
ENDBRANCH  92  95
ENDBRANCH  65  88
ENDBRANCH  39  40
ENDBRANCH  31  34
ENDBRANCH  29  30
ENDBRANCH  28  29
ENDBRANCH  27  28
ENDBRANCH   1  27
TORSDOF 19
ENDMDL
MODEL 2
REMARK VINA RESULT:     -11.8      0.950      1.680
REMARK SMILES O=C(Cn1c(=O)n(Cc2cccnc2)c(=O)c2sccc21)NCCCCCCNC(=O)c1ccc(-c2c3nc(c(-c4cccc(S(=O)(=O)[O-])c4F)c4ccc([nH]4)c(-c4cccc(S(=O)(=O)[O-])c4F)c4nc(c(-c5cccc(S(=O)(=O)[O-])c5F)c5ccc2[nH]5)C=C4)C=C3)cc1
REMARK SMILES IDX 25 1 24 2 23 3 22 4 1 5 2 6 3 8 4 9 5 10 21 11 6 12 7 13
REMARK SMILES IDX 17 14 20 15 15 16 18 17 19 18 16 19 8 20 9 21 10 22 14 23
REMARK SMILES IDX 11 24 13 25 12 26 26 27 27 28 28 29 29 30 30 31 31 33 32 34
REMARK SMILES IDX 33 35 94 36 34 37 93 38 35 39 36 40 37 41 87 42 38 43 92 44
REMARK SMILES IDX 86 45 88 46 39 47 91 48 85 49 84 50 40 52 72 53 52 54 71 55
REMARK SMILES IDX 53 56 56 57 70 58 89 59 54 60 55 61 69 63 90 64 57 65 41 66
REMARK SMILES IDX 42 67 50 68 43 69 45 70 51 71 44 72 46 73 47 74 48 75 49 76
REMARK SMILES IDX 73 77 74 78 82 79 75 80 77 81 83 82 76 83 78 84 79 85 80 86
REMARK SMILES IDX 81 87 58 88 59 89 67 90 60 91 62 92 68 93 61 94 63 95 64 96
REMARK SMILES IDX 65 97 66 98
REMARK H PARENT 22 7 29 32 88 51 56 62
REMARK Flexibility Score: inf
ROOT
ATOM      1  C   UNL A   1      36.535  22.030  26.103  1.00  0.00     0.002 C 
ENDROOT
BRANCH   1   2
ATOM      2  C   UNL A   1      35.526  23.187  26.060  1.00  0.00     0.021 C 
BRANCH   2   3
ATOM      3  C   UNL A   1      35.759  24.209  24.948  1.00  0.00     0.116 C 
BRANCH   3   4
ATOM      4  N   UNL A   1      34.533  24.496  24.235  1.00  0.00    -0.355 N 
ATOM      5  O   UNL A   1      34.941  23.201  22.373  1.00  0.00    -0.273 OA
ATOM      6  C   UNL A   1      34.243  24.008  22.979  1.00  0.00     0.240 C 
ATOM      7  H   UNL A   1      33.866  25.074  24.673  1.00  0.00     0.163 HD
BRANCH   6   8
ATOM      8  C   UNL A   1      32.916  24.519  22.421  1.00  0.00     0.227 C 
BRANCH   8   9
ATOM      9  N   UNL A   1      32.122  25.080  23.519  1.00  0.00    -0.283 N 
ATOM     10  C   UNL A   1      32.032  26.477  23.617  1.00  0.00     0.332 A 
ATOM     11  C   UNL A   1      31.546  24.268  24.495  1.00  0.00     0.070 A 
ATOM     12  O   UNL A   1      32.598  27.204  22.795  1.00  0.00    -0.247 OA
ATOM     13  N   UNL A   1      31.334  27.007  24.708  1.00  0.00    -0.254 N 
ATOM     14  C   UNL A   1      30.962  24.839  25.591  1.00  0.00     0.116 A 
ATOM     15  C   UNL A   1      31.489  22.845  24.559  1.00  0.00     0.039 A 
ATOM     16  C   UNL A   1      30.924  26.254  25.815  1.00  0.00     0.274 A 
ATOM     17  S   UNL A   1      30.302  23.708  26.669  1.00  0.00    -0.136 S 
ATOM     18  C   UNL A   1      30.815  22.407  25.682  1.00  0.00     0.068 A 
ATOM     19  O   UNL A   1      30.593  26.766  26.880  1.00  0.00    -0.268 OA
BRANCH  13  20
ATOM     20  C   UNL A   1      31.195  28.458  24.805  1.00  0.00     0.168 C 
BRANCH  20  21
ATOM     21  C   UNL A   1      32.224  29.105  25.706  1.00  0.00    -0.010 A 
ATOM     22  C   UNL A   1      33.495  28.550  25.888  1.00  0.00     0.009 A 
ATOM     23  C   UNL A   1      31.939  30.265  26.427  1.00  0.00     0.116 A 
ATOM     24  C   UNL A   1      34.403  29.158  26.756  1.00  0.00     0.020 A 
ATOM     25  N   UNL A   1      32.805  30.885  27.263  1.00  0.00    -0.264 NA
ATOM     26  C   UNL A   1      34.017  30.315  27.410  1.00  0.00     0.111 A 
ENDBRANCH  20  21
ENDBRANCH  13  20
ENDBRANCH   8   9
ENDBRANCH   6   8
ENDBRANCH   3   4
ENDBRANCH   2   3
ENDBRANCH   1   2
BRANCH   1  27
ATOM     27  C   UNL A   1      36.168  20.783  25.286  1.00  0.00     0.002 C 
BRANCH  27  28
ATOM     28  C   UNL A   1      37.330  19.859  24.898  1.00  0.00     0.021 C 
BRANCH  28  29
ATOM     29  C   UNL A   1      38.706  20.377  25.301  1.00  0.00     0.116 C 
BRANCH  29  30
ATOM     30  N   UNL A   1      39.670  19.298  25.520  1.00  0.00    -0.352 N 
ATOM     31  C   UNL A   1      40.994  19.402  25.892  1.00  0.00     0.251 C 
ATOM     32  H   UNL A   1      39.331  18.384  25.384  1.00  0.00     0.163 HD
ATOM     33  O   UNL A   1      41.776  18.478  25.690  1.00  0.00    -0.269 OA
BRANCH  31  34
ATOM     34  C   UNL A   1      41.456  20.642  26.540  1.00  0.00     0.039 A 
ATOM     35  C   UNL A   1      42.032  21.676  25.794  1.00  0.00     0.014 A 
ATOM     36  C   UNL A   1      41.284  20.767  27.916  1.00  0.00     0.014 A 
ATOM     37  C   UNL A   1      42.353  22.871  26.435  1.00  0.00     0.010 A 
ATOM     38  C   UNL A   1      41.470  21.987  28.518  1.00  0.00     0.010 A 
ATOM     39  C   UNL A   1      42.050  23.028  27.796  1.00  0.00    -0.014 A 
BRANCH  39  40
ATOM     40  C   UNL A   1      42.239  24.315  28.458  1.00  0.00     0.031 A 
ATOM     41  C   UNL A   1      41.127  25.289  28.274  1.00  0.00     0.074 A 
ATOM     42  C   UNL A   1      43.222  24.535  29.359  1.00  0.00     0.049 A 
ATOM     43  N   UNL A   1      41.158  26.417  27.645  1.00  0.00    -0.248 NA
ATOM     44  C   UNL A   1      39.786  24.906  28.744  1.00  0.00     0.031 C 
ATOM     45  C   UNL A   1      44.183  23.565  29.901  1.00  0.00     0.029 A 
ATOM     46  N   UNL A   1      43.473  25.649  30.098  1.00  0.00    -0.354 N 
ATOM     47  C   UNL A   1      39.900  26.992  27.832  1.00  0.00     0.074 A 
ATOM     48  C   UNL A   1      39.053  25.943  28.335  1.00  0.00     0.031 C 
ATOM     49  C   UNL A   1      44.717  24.049  31.043  1.00  0.00     0.029 A 
ATOM     50  C   UNL A   1      44.288  25.423  31.203  1.00  0.00     0.049 A 
ATOM     51  H   UNL A   1      43.110  26.536  29.871  1.00  0.00     0.167 HD
ATOM     52  C   UNL A   1      39.722  28.342  27.789  1.00  0.00     0.034 A 
ATOM     53  C   UNL A   1      44.560  26.302  32.195  1.00  0.00     0.034 A 
ATOM     54  C   UNL A   1      40.876  28.999  27.230  1.00  0.00     0.049 A 
ATOM     55  C   UNL A   1      44.274  27.650  31.663  1.00  0.00     0.074 A 
ATOM     56  C   UNL A   1      41.532  28.991  26.017  1.00  0.00     0.029 A 
ATOM     57  N   UNL A   1      41.742  29.558  28.137  1.00  0.00    -0.354 N 
ATOM     58  N   UNL A   1      44.954  28.210  30.704  1.00  0.00    -0.248 NA
ATOM     59  C   UNL A   1      42.987  28.255  31.960  1.00  0.00     0.031 C 
ATOM     60  C   UNL A   1      42.911  29.154  26.342  1.00  0.00     0.029 A 
ATOM     61  C   UNL A   1      43.020  29.302  27.727  1.00  0.00     0.049 A 
ATOM     62  H   UNL A   1      41.484  30.057  28.945  1.00  0.00     0.167 HD
ATOM     63  C   UNL A   1      44.007  28.926  29.988  1.00  0.00     0.074 A 
ATOM     64  C   UNL A   1      42.866  29.046  30.891  1.00  0.00     0.031 C 
ATOM     65  C   UNL A   1      44.129  29.092  28.638  1.00  0.00     0.034 A 
BRANCH  52  66
ATOM     66  C   UNL A   1      38.692  29.132  28.577  1.00  0.00     0.023 A 
ATOM     67  C   UNL A   1      37.965  30.123  27.874  1.00  0.00     0.012 A 
ATOM     68  C   UNL A   1      38.585  29.152  29.985  1.00  0.00     0.148 A 
ATOM     69  C   UNL A   1      37.224  31.110  28.534  1.00  0.00     0.002 A 
ATOM     70  C   UNL A   1      37.778  30.082  30.635  1.00  0.00     0.091 A 
ATOM     71  F   UNL A   1      39.364  28.364  30.729  1.00  0.00    -0.205 F 
ATOM     72  C   UNL A   1      37.124  31.085  29.917  1.00  0.00     0.022 A 
BRANCH  70  73
ATOM     73  S   UNL A   1      37.554  30.053  32.419  1.00  0.00     0.127 S 
ATOM     74  O   UNL A   1      36.515  31.062  32.602  1.00  0.00    -0.237 OA
ATOM     75  O   UNL A   1      37.123  28.672  32.643  1.00  0.00    -0.237 OA
ATOM     76  O   UNL A   1      38.862  30.367  32.981  1.00  0.00    -0.744 OA
ENDBRANCH  70  73
ENDBRANCH  52  66
BRANCH  53  77
ATOM     77  C   UNL A   1      44.841  26.086  33.632  1.00  0.00     0.023 A 
ATOM     78  C   UNL A   1      46.158  26.262  34.104  1.00  0.00     0.012 A 
ATOM     79  C   UNL A   1      43.792  26.041  34.575  1.00  0.00     0.148 A 
ATOM     80  C   UNL A   1      46.416  26.456  35.465  1.00  0.00     0.002 A 
ATOM     81  C   UNL A   1      44.054  26.238  35.928  1.00  0.00     0.091 A 
ATOM     82  F   UNL A   1      42.534  25.907  34.135  1.00  0.00    -0.205 F 
ATOM     83  C   UNL A   1      45.364  26.462  36.374  1.00  0.00     0.022 A 
BRANCH  81  84
ATOM     84  S   UNL A   1      42.746  26.311  37.159  1.00  0.00     0.127 S 
ATOM     85  O   UNL A   1      42.082  25.019  36.975  1.00  0.00    -0.237 OA
ATOM     86  O   UNL A   1      43.507  26.436  38.398  1.00  0.00    -0.237 OA
ATOM     87  O   UNL A   1      41.927  27.461  36.799  1.00  0.00    -0.744 OA
ENDBRANCH  81  84
ENDBRANCH  53  77
BRANCH  65  88
ATOM     88  C   UNL A   1      45.460  28.773  27.999  1.00  0.00     0.023 A 
ATOM     89  C   UNL A   1      46.545  29.674  28.017  1.00  0.00     0.012 A 
ATOM     90  C   UNL A   1      45.673  27.464  27.536  1.00  0.00     0.148 A 
ATOM     91  C   UNL A   1      47.810  29.281  27.571  1.00  0.00     0.002 A 
ATOM     92  C   UNL A   1      46.945  27.061  27.147  1.00  0.00     0.091 A 
ATOM     93  F   UNL A   1      44.631  26.620  27.521  1.00  0.00    -0.205 F 
ATOM     94  C   UNL A   1      48.014  27.968  27.153  1.00  0.00     0.022 A 
BRANCH  92  95
ATOM     95  S   UNL A   1      47.301  25.348  26.745  1.00  0.00     0.127 S 
ATOM     96  O   UNL A   1      46.885  24.655  27.963  1.00  0.00    -0.237 OA
ATOM     97  O   UNL A   1      46.443  25.113  25.582  1.00  0.00    -0.237 OA
ATOM     98  O   UNL A   1      48.727  25.295  26.449  1.00  0.00    -0.744 OA
ENDBRANCH  92  95
ENDBRANCH  65  88
ENDBRANCH  39  40
ENDBRANCH  31  34
ENDBRANCH  29  30
ENDBRANCH  28  29
ENDBRANCH  27  28
ENDBRANCH   1  27
TORSDOF 19
ENDMDL
MODEL 3
REMARK VINA RESULT:     -11.4      3.105      7.467
REMARK SMILES O=C(Cn1c(=O)n(Cc2cccnc2)c(=O)c2sccc21)NCCCCCCNC(=O)c1ccc(-c2c3nc(c(-c4cccc(S(=O)(=O)[O-])c4F)c4ccc([nH]4)c(-c4cccc(S(=O)(=O)[O-])c4F)c4nc(c(-c5cccc(S(=O)(=O)[O-])c5F)c5ccc2[nH]5)C=C4)C=C3)cc1
REMARK SMILES IDX 25 1 24 2 23 3 22 4 1 5 2 6 3 8 4 9 5 10 21 11 6 12 7 13
REMARK SMILES IDX 17 14 20 15 15 16 18 17 19 18 16 19 8 20 9 21 10 22 14 23
REMARK SMILES IDX 11 24 13 25 12 26 26 27 27 28 28 29 29 30 30 31 31 33 32 34
REMARK SMILES IDX 33 35 94 36 34 37 93 38 35 39 36 40 37 41 87 42 38 43 92 44
REMARK SMILES IDX 86 45 88 46 39 47 91 48 85 49 84 50 40 52 72 53 52 54 71 55
REMARK SMILES IDX 53 56 56 57 70 58 89 59 54 60 55 61 69 63 90 64 57 65 41 66
REMARK SMILES IDX 42 67 50 68 43 69 45 70 51 71 44 72 46 73 47 74 48 75 49 76
REMARK SMILES IDX 73 77 74 78 82 79 75 80 77 81 83 82 76 83 78 84 79 85 80 86
REMARK SMILES IDX 81 87 58 88 59 89 67 90 60 91 62 92 68 93 61 94 63 95 64 96
REMARK SMILES IDX 65 97 66 98
REMARK H PARENT 22 7 29 32 88 51 56 62
REMARK Flexibility Score: inf
ROOT
ATOM      1  C   UNL A   1      41.107  21.486  27.483  1.00  0.00     0.002 C 
ENDROOT
BRANCH   1   2
ATOM      2  C   UNL A   1      40.006  22.488  27.108  1.00  0.00     0.021 C 
BRANCH   2   3
ATOM      3  C   UNL A   1      38.971  21.971  26.110  1.00  0.00     0.116 C 
BRANCH   3   4
ATOM      4  N   UNL A   1      37.654  22.493  26.403  1.00  0.00    -0.355 N 
ATOM      5  O   UNL A   1      37.004  22.944  24.238  1.00  0.00    -0.273 OA
ATOM      6  C   UNL A   1      36.793  22.986  25.446  1.00  0.00     0.240 C 
ATOM      7  H   UNL A   1      37.354  22.496  27.341  1.00  0.00     0.163 HD
BRANCH   6   8
ATOM      8  C   UNL A   1      35.494  23.543  26.027  1.00  0.00     0.227 C 
BRANCH   8   9
ATOM      9  N   UNL A   1      34.373  23.112  25.186  1.00  0.00    -0.283 N 
ATOM     10  C   UNL A   1      33.807  21.853  25.439  1.00  0.00     0.332 A 
ATOM     11  C   UNL A   1      33.932  23.877  24.107  1.00  0.00     0.070 A 
ATOM     12  O   UNL A   1      34.240  21.139  26.350  1.00  0.00    -0.247 OA
ATOM     13  N   UNL A   1      32.787  21.417  24.586  1.00  0.00    -0.254 N 
ATOM     14  C   UNL A   1      33.003  23.361  23.248  1.00  0.00     0.116 A 
ATOM     15  C   UNL A   1      34.341  25.182  23.706  1.00  0.00     0.039 A 
ATOM     16  C   UNL A   1      32.456  22.042  23.379  1.00  0.00     0.274 A 
ATOM     17  S   UNL A   1      32.571  24.428  22.002  1.00  0.00    -0.136 S 
ATOM     18  C   UNL A   1      33.659  25.614  22.586  1.00  0.00     0.068 A 
ATOM     19  O   UNL A   1      31.785  21.494  22.509  1.00  0.00    -0.268 OA
BRANCH  13  20
ATOM     20  C   UNL A   1      32.158  20.127  24.859  1.00  0.00     0.168 C 
BRANCH  20  21
ATOM     21  C   UNL A   1      32.880  18.957  24.226  1.00  0.00    -0.010 A 
ATOM     22  C   UNL A   1      34.040  18.416  24.790  1.00  0.00     0.009 A 
ATOM     23  C   UNL A   1      32.442  18.388  23.030  1.00  0.00     0.116 A 
ATOM     24  C   UNL A   1      34.696  17.362  24.155  1.00  0.00     0.020 A 
ATOM     25  N   UNL A   1      33.049  17.355  22.400  1.00  0.00    -0.264 NA
ATOM     26  C   UNL A   1      34.165  16.866  22.977  1.00  0.00     0.111 A 
ENDBRANCH  20  21
ENDBRANCH  13  20
ENDBRANCH   8   9
ENDBRANCH   6   8
ENDBRANCH   3   4
ENDBRANCH   2   3
ENDBRANCH   1   2
BRANCH   1  27
ATOM     27  C   UNL A   1      40.847  20.022  27.099  1.00  0.00     0.002 C 
BRANCH  27  28
ATOM     28  C   UNL A   1      41.598  19.499  25.867  1.00  0.00     0.021 C 
BRANCH  28  29
ATOM     29  C   UNL A   1      43.085  19.256  26.096  1.00  0.00     0.116 C 
BRANCH  29  30
ATOM     30  N   UNL A   1      43.898  19.622  24.936  1.00  0.00    -0.352 N 
ATOM     31  C   UNL A   1      44.167  20.885  24.448  1.00  0.00     0.251 C 
ATOM     32  H   UNL A   1      44.304  18.874  24.441  1.00  0.00     0.163 HD
ATOM     33  O   UNL A   1      44.543  21.042  23.291  1.00  0.00    -0.269 OA
BRANCH  31  34
ATOM     34  C   UNL A   1      43.996  22.044  25.342  1.00  0.00     0.039 A 
ATOM     35  C   UNL A   1      44.766  22.182  26.502  1.00  0.00     0.014 A 
ATOM     36  C   UNL A   1      43.061  23.013  24.988  1.00  0.00     0.014 A 
ATOM     37  C   UNL A   1      44.645  23.348  27.255  1.00  0.00     0.010 A 
ATOM     38  C   UNL A   1      43.044  24.216  25.650  1.00  0.00     0.010 A 
ATOM     39  C   UNL A   1      43.795  24.372  26.812  1.00  0.00    -0.014 A 
BRANCH  39  40
ATOM     40  C   UNL A   1      43.759  25.659  27.498  1.00  0.00     0.031 A 
ATOM     41  C   UNL A   1      44.890  26.576  27.183  1.00  0.00     0.074 A 
ATOM     42  C   UNL A   1      42.676  26.091  28.181  1.00  0.00     0.049 A 
ATOM     43  N   UNL A   1      45.822  26.986  27.978  1.00  0.00    -0.248 NA
ATOM     44  C   UNL A   1      45.077  26.989  25.783  1.00  0.00     0.031 C 
ATOM     45  C   UNL A   1      41.360  25.446  28.288  1.00  0.00     0.029 A 
ATOM     46  N   UNL A   1      42.476  27.284  28.804  1.00  0.00    -0.354 N 
ATOM     47  C   UNL A   1      46.584  27.890  27.236  1.00  0.00     0.074 A 
ATOM     48  C   UNL A   1      46.204  27.699  25.862  1.00  0.00     0.031 C 
ATOM     49  C   UNL A   1      40.446  26.354  28.695  1.00  0.00     0.029 A 
ATOM     50  C   UNL A   1      41.139  27.572  29.060  1.00  0.00     0.049 A 
ATOM     51  H   UNL A   1      43.212  27.889  29.053  1.00  0.00     0.167 HD
ATOM     52  C   UNL A   1      47.287  28.891  27.839  1.00  0.00     0.034 A 
ATOM     53  C   UNL A   1      40.639  28.747  29.508  1.00  0.00     0.034 A 
ATOM     54  C   UNL A   1      47.380  28.674  29.260  1.00  0.00     0.049 A 
ATOM     55  C   UNL A   1      41.759  29.472  30.144  1.00  0.00     0.074 A 
ATOM     56  C   UNL A   1      47.931  27.715  30.083  1.00  0.00     0.029 A 
ATOM     57  N   UNL A   1      46.499  29.389  30.032  1.00  0.00    -0.354 N 
ATOM     58  N   UNL A   1      42.354  29.074  31.233  1.00  0.00    -0.248 NA
ATOM     59  C   UNL A   1      42.468  30.474  29.369  1.00  0.00     0.031 C 
ATOM     60  C   UNL A   1      47.044  27.628  31.196  1.00  0.00     0.029 A 
ATOM     61  C   UNL A   1      46.027  28.570  31.019  1.00  0.00     0.049 A 
ATOM     62  H   UNL A   1      46.249  30.332  29.896  1.00  0.00     0.167 HD
ATOM     63  C   UNL A   1      43.682  29.423  31.042  1.00  0.00     0.074 A 
ATOM     64  C   UNL A   1      43.660  30.412  29.968  1.00  0.00     0.031 C 
ATOM     65  C   UNL A   1      44.687  28.661  31.567  1.00  0.00     0.034 A 
BRANCH  52  66
ATOM     66  C   UNL A   1      47.578  30.258  27.247  1.00  0.00     0.023 A 
ATOM     67  C   UNL A   1      48.909  30.731  27.344  1.00  0.00     0.012 A 
ATOM     68  C   UNL A   1      46.601  31.200  26.855  1.00  0.00     0.148 A 
ATOM     69  C   UNL A   1      49.239  32.073  27.122  1.00  0.00     0.002 A 
ATOM     70  C   UNL A   1      46.947  32.515  26.550  1.00  0.00     0.091 A 
ATOM     71  F   UNL A   1      45.306  30.883  26.899  1.00  0.00    -0.205 F 
ATOM     72  C   UNL A   1      48.257  32.965  26.716  1.00  0.00     0.022 A 
BRANCH  70  73
ATOM     73  S   UNL A   1      45.729  33.695  25.952  1.00  0.00     0.127 S 
ATOM     74  O   UNL A   1      45.081  34.103  27.195  1.00  0.00    -0.237 OA
ATOM     75  O   UNL A   1      46.580  34.713  25.333  1.00  0.00    -0.237 OA
ATOM     76  O   UNL A   1      44.902  32.956  25.007  1.00  0.00    -0.744 OA
ENDBRANCH  70  73
ENDBRANCH  52  66
BRANCH  53  77
ATOM     77  C   UNL A   1      39.340  29.408  29.258  1.00  0.00     0.023 A 
ATOM     78  C   UNL A   1      38.600  29.047  28.113  1.00  0.00     0.012 A 
ATOM     79  C   UNL A   1      38.683  30.124  30.282  1.00  0.00     0.148 A 
ATOM     80  C   UNL A   1      37.232  29.327  28.021  1.00  0.00     0.002 A 
ATOM     81  C   UNL A   1      37.321  30.398  30.186  1.00  0.00     0.091 A 
ATOM     82  F   UNL A   1      39.369  30.444  31.388  1.00  0.00    -0.205 F 
ATOM     83  C   UNL A   1      36.590  29.986  29.063  1.00  0.00     0.022 A 
BRANCH  81  84
ATOM     84  S   UNL A   1      36.408  31.200  31.511  1.00  0.00     0.127 S 
ATOM     85  O   UNL A   1      36.284  30.120  32.492  1.00  0.00    -0.237 OA
ATOM     86  O   UNL A   1      37.318  32.274  31.894  1.00  0.00    -0.237 OA
ATOM     87  O   UNL A   1      35.143  31.620  30.922  1.00  0.00    -0.744 OA
ENDBRANCH  81  84
ENDBRANCH  53  77
BRANCH  65  88
ATOM     88  C   UNL A   1      44.330  27.638  32.618  1.00  0.00     0.023 A 
ATOM     89  C   UNL A   1      44.152  26.272  32.318  1.00  0.00     0.012 A 
ATOM     90  C   UNL A   1      44.360  28.038  33.965  1.00  0.00     0.148 A 
ATOM     91  C   UNL A   1      43.994  25.329  33.336  1.00  0.00     0.002 A 
ATOM     92  C   UNL A   1      44.260  27.089  34.976  1.00  0.00     0.091 A 
ATOM     93  F   UNL A   1      44.526  29.341  34.236  1.00  0.00    -0.205 F 
ATOM     94  C   UNL A   1      44.066  25.735  34.667  1.00  0.00     0.022 A 
BRANCH  92  95
ATOM     95  S   UNL A   1      44.496  27.530  36.700  1.00  0.00     0.127 S 
ATOM     96  O   UNL A   1      44.420  26.229  37.361  1.00  0.00    -0.237 OA
ATOM     97  O   UNL A   1      45.830  28.135  36.689  1.00  0.00    -0.237 OA
ATOM     98  O   UNL A   1      43.425  28.463  37.025  1.00  0.00    -0.744 OA
ENDBRANCH  92  95
ENDBRANCH  65  88
ENDBRANCH  39  40
ENDBRANCH  31  34
ENDBRANCH  29  30
ENDBRANCH  28  29
ENDBRANCH  27  28
ENDBRANCH   1  27
TORSDOF 19
ENDMDL
