MODEL 1
REMARK VINA RESULT:     -11.7      0.000      0.000
REMARK SMILES Cc1c(Cl)ccc2c1C=C(C(=O)NCCCCCCNC(=O)c1ccc(-c3c4nc(c(-c5cccc(S(=O)(=O)[O-])c5F)c5ccc([nH]5)c(-c5cccc(S(=O)(=O)[O-])c5F)c5nc(c(-c6cccc(S(=O)(=O)[O-])c6F)c6ccc3[nH]6)C=C5)C=C4)cc1)[C@@H](C(F)(F)F)O2
REMARK SMILES IDX 17 1 16 2 15 3 14 4 13 5 11 6 12 7 10 9 1 10 2 11 3 12 8 13
REMARK SMILES IDX 4 14 5 15 7 16 9 17 6 18 91 19 86 20 87 21 88 22 89 23 90 24
REMARK SMILES IDX 18 25 19 26 20 27 21 28 22 30 23 31 24 32 85 33 25 34 84 35
REMARK SMILES IDX 26 36 27 37 28 38 78 39 29 40 83 41 77 42 79 43 30 44 82 45
REMARK SMILES IDX 76 46 75 47 31 49 63 50 43 51 62 52 44 53 47 54 61 55 80 56
REMARK SMILES IDX 45 57 46 58 60 60 81 61 48 62 32 63 33 64 41 65 34 66 36 67
REMARK SMILES IDX 42 68 35 69 37 70 38 71 39 72 40 73 64 74 65 75 73 76 66 77
REMARK SMILES IDX 68 78 74 79 67 80 69 81 70 82 71 83 72 84 49 85 50 86 58 87
REMARK SMILES IDX 51 88 53 89 59 90 52 91 54 92 55 93 56 94 57 95
REMARK H PARENT 13 8 20 29 79 48 47 59
REMARK Flexibility Score: inf
ROOT
ATOM      1  C   UNL A   1      33.179  29.025  24.500  1.00  0.00     0.002 C 
ENDROOT
BRANCH   1   2
ATOM      2  C   UNL A   1      31.656  28.897  24.363  1.00  0.00     0.002 C 
BRANCH   2   3
ATOM      3  C   UNL A   1      31.132  28.899  22.924  1.00  0.00     0.021 C 
BRANCH   3   4
ATOM      4  C   UNL A   1      30.623  27.540  22.458  1.00  0.00     0.116 C 
BRANCH   4   5
ATOM      5  N   UNL A   1      31.585  26.879  21.594  1.00  0.00    -0.352 N 
ATOM      6  C   UNL A   1      32.526  25.916  21.714  1.00  0.00     0.251 C 
ATOM      7  O   UNL A   1      33.134  25.646  20.672  1.00  0.00    -0.270 OA
ATOM      8  H   UNL A   1      31.541  27.227  20.673  1.00  0.00     0.163 HD
BRANCH   6   9
ATOM      9  C   UNL A   1      32.860  25.182  22.973  1.00  0.00     0.067 C 
ATOM     10  C   UNL A   1      36.691  23.058  23.119  1.00  0.00     0.047 C 
ATOM     11  C   UNL A   1      35.745  23.189  24.287  1.00  0.00    -0.021 A 
ATOM     12  C   UNL A   1      36.084  22.566  25.512  1.00  0.00     0.044 A 
ATOM     13  C   UNL A   1      34.533  23.914  24.215  1.00  0.00     0.022 A 
ATOM     14  Cl  UNL A   1      37.567  21.692  25.710  1.00  0.00    -0.084 Cl
ATOM     15  C   UNL A   1      35.241  22.635  26.622  1.00  0.00     0.024 A 
ATOM     16  C   UNL A   1      33.689  23.945  25.337  1.00  0.00     0.128 A 
ATOM     17  C   UNL A   1      34.111  24.689  23.045  1.00  0.00     0.026 C 
ATOM     18  C   UNL A   1      34.039  23.322  26.532  1.00  0.00     0.048 A 
ATOM     19  O   UNL A   1      32.500  24.609  25.367  1.00  0.00    -0.475 OA
ATOM     20  C   UNL A   1      31.895  24.948  24.095  1.00  0.00     0.314 C 
BRANCH  20  21
ATOM     21  C   UNL A   1      30.813  23.912  23.742  1.00  0.00     0.429 C 
ATOM     22  F   UNL A   1      30.320  23.332  24.861  1.00  0.00    -0.167 F 
ATOM     23  F   UNL A   1      29.756  24.469  23.102  1.00  0.00    -0.167 F 
ATOM     24  F   UNL A   1      31.281  22.930  22.939  1.00  0.00    -0.167 F 
ENDBRANCH  20  21
ENDBRANCH   6   9
ENDBRANCH   4   5
ENDBRANCH   3   4
ENDBRANCH   2   3
ENDBRANCH   1   2
BRANCH   1  25
ATOM     25  C   UNL A   1      33.858  27.897  25.283  1.00  0.00     0.021 C 
BRANCH  25  26
ATOM     26  C   UNL A   1      34.109  28.220  26.753  1.00  0.00     0.116 C 
BRANCH  26  27
ATOM     27  N   UNL A   1      33.864  29.625  27.033  1.00  0.00    -0.352 N 
ATOM     28  C   UNL A   1      34.595  30.476  27.821  1.00  0.00     0.251 C 
ATOM     29  H   UNL A   1      33.071  30.017  26.601  1.00  0.00     0.163 HD
ATOM     30  O   UNL A   1      34.129  31.557  28.170  1.00  0.00    -0.269 OA
BRANCH  28  31
ATOM     31  C   UNL A   1      35.949  30.075  28.242  1.00  0.00     0.039 A 
ATOM     32  C   UNL A   1      36.128  29.480  29.493  1.00  0.00     0.014 A 
ATOM     33  C   UNL A   1      37.038  30.300  27.394  1.00  0.00     0.014 A 
ATOM     34  C   UNL A   1      37.407  29.081  29.885  1.00  0.00     0.010 A 
ATOM     35  C   UNL A   1      38.302  29.858  27.766  1.00  0.00     0.010 A 
ATOM     36  C   UNL A   1      38.498  29.263  29.021  1.00  0.00    -0.014 A 
BRANCH  36  37
ATOM     37  C   UNL A   1      39.872  28.900  29.432  1.00  0.00     0.031 A 
ATOM     38  C   UNL A   1      40.539  27.712  28.798  1.00  0.00     0.074 A 
ATOM     39  C   UNL A   1      40.488  29.587  30.411  1.00  0.00     0.049 A 
ATOM     40  N   UNL A   1      41.699  27.180  29.070  1.00  0.00    -0.248 NA
ATOM     41  C   UNL A   1      39.795  27.024  27.728  1.00  0.00     0.031 C 
ATOM     42  C   UNL A   1      39.924  30.733  31.126  1.00  0.00     0.029 A 
ATOM     43  N   UNL A   1      41.717  29.402  30.991  1.00  0.00    -0.354 N 
ATOM     44  C   UNL A   1      41.816  26.082  28.227  1.00  0.00     0.074 A 
ATOM     45  C   UNL A   1      40.598  26.007  27.450  1.00  0.00     0.031 C 
ATOM     46  C   UNL A   1      40.804  31.146  32.053  1.00  0.00     0.029 A 
ATOM     47  C   UNL A   1      41.981  30.281  32.013  1.00  0.00     0.049 A 
ATOM     48  H   UNL A   1      42.350  28.706  30.702  1.00  0.00     0.167 HD
ATOM     49  C   UNL A   1      42.855  25.229  28.094  1.00  0.00     0.034 A 
ATOM     50  C   UNL A   1      43.047  30.372  32.833  1.00  0.00     0.034 A 
ATOM     51  C   UNL A   1      44.081  25.328  28.835  1.00  0.00     0.049 A 
ATOM     52  C   UNL A   1      44.190  29.410  32.664  1.00  0.00     0.074 A 
ATOM     53  C   UNL A   1      45.218  24.551  28.718  1.00  0.00     0.029 A 
ATOM     54  N   UNL A   1      44.327  26.257  29.833  1.00  0.00    -0.354 N 
ATOM     55  N   UNL A   1      44.331  28.448  31.785  1.00  0.00    -0.248 NA
ATOM     56  C   UNL A   1      45.329  29.558  33.582  1.00  0.00     0.031 C 
ATOM     57  C   UNL A   1      46.151  25.002  29.657  1.00  0.00     0.029 A 
ATOM     58  C   UNL A   1      45.597  26.067  30.348  1.00  0.00     0.049 A 
ATOM     59  H   UNL A   1      43.694  26.950  30.130  1.00  0.00     0.167 HD
ATOM     60  C   UNL A   1      45.577  27.885  32.033  1.00  0.00     0.074 A 
ATOM     61  C   UNL A   1      46.161  28.628  33.132  1.00  0.00     0.031 C 
ATOM     62  C   UNL A   1      46.176  26.837  31.417  1.00  0.00     0.034 A 
BRANCH  49  63
ATOM     63  C   UNL A   1      42.745  24.143  27.061  1.00  0.00     0.023 A 
ATOM     64  C   UNL A   1      43.285  24.360  25.779  1.00  0.00     0.012 A 
ATOM     65  C   UNL A   1      42.191  22.891  27.384  1.00  0.00     0.148 A 
ATOM     66  C   UNL A   1      43.270  23.344  24.825  1.00  0.00     0.002 A 
ATOM     67  C   UNL A   1      42.207  21.873  26.438  1.00  0.00     0.091 A 
ATOM     68  F   UNL A   1      41.667  22.719  28.606  1.00  0.00    -0.205 F 
ATOM     69  C   UNL A   1      42.742  22.099  25.158  1.00  0.00     0.022 A 
BRANCH  67  70
ATOM     70  S   UNL A   1      41.598  20.218  26.778  1.00  0.00     0.127 S 
ATOM     71  O   UNL A   1      42.495  19.789  27.851  1.00  0.00    -0.237 OA
ATOM     72  O   UNL A   1      40.223  20.482  27.201  1.00  0.00    -0.237 OA
ATOM     73  O   UNL A   1      41.727  19.475  25.533  1.00  0.00    -0.744 OA
ENDBRANCH  67  70
ENDBRANCH  49  63
BRANCH  50  74
ATOM     74  C   UNL A   1      43.098  31.456  33.850  1.00  0.00     0.023 A 
ATOM     75  C   UNL A   1      43.678  32.691  33.505  1.00  0.00     0.012 A 
ATOM     76  C   UNL A   1      42.524  31.292  35.125  1.00  0.00     0.148 A 
ATOM     77  C   UNL A   1      43.694  33.746  34.419  1.00  0.00     0.002 A 
ATOM     78  C   UNL A   1      42.512  32.357  36.017  1.00  0.00     0.091 A 
ATOM     79  F   UNL A   1      41.979  30.105  35.426  1.00  0.00    -0.205 F 
ATOM     80  C   UNL A   1      43.105  33.582  35.669  1.00  0.00     0.022 A 
BRANCH  78  81
ATOM     81  S   UNL A   1      41.696  32.277  37.615  1.00  0.00     0.127 S 
ATOM     82  O   UNL A   1      40.342  31.876  37.240  1.00  0.00    -0.237 OA
ATOM     83  O   UNL A   1      42.478  31.246  38.297  1.00  0.00    -0.237 OA
ATOM     84  O   UNL A   1      41.814  33.609  38.190  1.00  0.00    -0.744 OA
ENDBRANCH  78  81
ENDBRANCH  50  74
BRANCH  62  85
ATOM     85  C   UNL A   1      47.533  26.412  31.906  1.00  0.00     0.023 A 
ATOM     86  C   UNL A   1      48.678  27.056  31.398  1.00  0.00     0.012 A 
ATOM     87  C   UNL A   1      47.666  25.472  32.945  1.00  0.00     0.148 A 
ATOM     88  C   UNL A   1      49.940  26.761  31.911  1.00  0.00     0.002 A 
ATOM     89  C   UNL A   1      48.923  25.209  33.476  1.00  0.00     0.091 A 
ATOM     90  F   UNL A   1      46.560  24.870  33.406  1.00  0.00    -0.205 F 
ATOM     91  C   UNL A   1      50.061  25.848  32.957  1.00  0.00     0.022 A 
BRANCH  89  92
ATOM     92  S   UNL A   1      49.174  24.105  34.871  1.00  0.00     0.127 S 
ATOM     93  O   UNL A   1      48.077  24.493  35.758  1.00  0.00    -0.237 OA
ATOM     94  O   UNL A   1      49.023  22.788  34.254  1.00  0.00    -0.237 OA
ATOM     95  O   UNL A   1      50.510  24.390  35.378  1.00  0.00    -0.744 OA
ENDBRANCH  89  92
ENDBRANCH  62  85
ENDBRANCH  36  37
ENDBRANCH  28  31
ENDBRANCH  26  27
ENDBRANCH  25  26
ENDBRANCH   1  25
TORSDOF 17
ENDMDL
MODEL 2
REMARK VINA RESULT:     -11.7      1.185      7.604
REMARK SMILES Cc1c(Cl)ccc2c1C=C(C(=O)NCCCCCCNC(=O)c1ccc(-c3c4nc(c(-c5cccc(S(=O)(=O)[O-])c5F)c5ccc([nH]5)c(-c5cccc(S(=O)(=O)[O-])c5F)c5nc(c(-c6cccc(S(=O)(=O)[O-])c6F)c6ccc3[nH]6)C=C5)C=C4)cc1)[C@@H](C(F)(F)F)O2
REMARK SMILES IDX 17 1 16 2 15 3 14 4 13 5 11 6 12 7 10 9 1 10 2 11 3 12 8 13
REMARK SMILES IDX 4 14 5 15 7 16 9 17 6 18 91 19 86 20 87 21 88 22 89 23 90 24
REMARK SMILES IDX 18 25 19 26 20 27 21 28 22 30 23 31 24 32 85 33 25 34 84 35
REMARK SMILES IDX 26 36 27 37 28 38 78 39 29 40 83 41 77 42 79 43 30 44 82 45
REMARK SMILES IDX 76 46 75 47 31 49 63 50 43 51 62 52 44 53 47 54 61 55 80 56
REMARK SMILES IDX 45 57 46 58 60 60 81 61 48 62 32 63 33 64 41 65 34 66 36 67
REMARK SMILES IDX 42 68 35 69 37 70 38 71 39 72 40 73 64 74 65 75 73 76 66 77
REMARK SMILES IDX 68 78 74 79 67 80 69 81 70 82 71 83 72 84 49 85 50 86 58 87
REMARK SMILES IDX 51 88 53 89 59 90 52 91 54 92 55 93 56 94 57 95
REMARK H PARENT 13 8 20 29 79 48 47 59
REMARK Flexibility Score: inf
ROOT
ATOM      1  C   UNL A   1      31.772  28.750  25.331  1.00  0.00     0.002 C 
ENDROOT
BRANCH   1   2
ATOM      2  C   UNL A   1      32.205  28.914  23.868  1.00  0.00     0.002 C 
BRANCH   2   3
ATOM      3  C   UNL A   1      31.060  28.931  22.851  1.00  0.00     0.021 C 
BRANCH   3   4
ATOM      4  C   UNL A   1      30.592  27.540  22.436  1.00  0.00     0.116 C 
BRANCH   4   5
ATOM      5  N   UNL A   1      31.564  26.885  21.580  1.00  0.00    -0.352 N 
ATOM      6  C   UNL A   1      32.519  25.937  21.711  1.00  0.00     0.251 C 
ATOM      7  O   UNL A   1      33.132  25.664  20.672  1.00  0.00    -0.270 OA
ATOM      8  H   UNL A   1      31.516  27.222  20.655  1.00  0.00     0.163 HD
BRANCH   6   9
ATOM      9  C   UNL A   1      32.862  25.222  22.978  1.00  0.00     0.067 C 
ATOM     10  C   UNL A   1      36.665  23.046  23.106  1.00  0.00     0.047 C 
ATOM     11  C   UNL A   1      35.740  23.212  24.285  1.00  0.00    -0.021 A 
ATOM     12  C   UNL A   1      36.089  22.607  25.516  1.00  0.00     0.044 A 
ATOM     13  C   UNL A   1      34.537  23.953  24.218  1.00  0.00     0.022 A 
ATOM     14  Cl  UNL A   1      37.563  21.716  25.708  1.00  0.00    -0.084 Cl
ATOM     15  C   UNL A   1      35.264  22.708  26.637  1.00  0.00     0.024 A 
ATOM     16  C   UNL A   1      33.711  24.016  25.352  1.00  0.00     0.128 A 
ATOM     17  C   UNL A   1      34.107  24.712  23.040  1.00  0.00     0.026 C 
ATOM     18  C   UNL A   1      34.071  23.411  26.553  1.00  0.00     0.048 A 
ATOM     19  O   UNL A   1      32.531  24.697  25.388  1.00  0.00    -0.475 OA
ATOM     20  C   UNL A   1      31.912  25.021  24.119  1.00  0.00     0.314 C 
BRANCH  20  21
ATOM     21  C   UNL A   1      30.810  23.995  23.802  1.00  0.00     0.429 C 
ATOM     22  F   UNL A   1      31.272  23.037  22.965  1.00  0.00    -0.167 F 
ATOM     23  F   UNL A   1      30.367  23.354  24.911  1.00  0.00    -0.167 F 
ATOM     24  F   UNL A   1      29.728  24.563  23.222  1.00  0.00    -0.167 F 
ENDBRANCH  20  21
ENDBRANCH   6   9
ENDBRANCH   4   5
ENDBRANCH   3   4
ENDBRANCH   2   3
ENDBRANCH   1   2
BRANCH   1  25
ATOM     25  C   UNL A   1      32.784  28.038  26.234  1.00  0.00     0.021 C 
BRANCH  25  26
ATOM     26  C   UNL A   1      34.143  28.728  26.315  1.00  0.00     0.116 C 
BRANCH  26  27
ATOM     27  N   UNL A   1      34.003  30.123  26.699  1.00  0.00    -0.352 N 
ATOM     28  C   UNL A   1      34.718  30.824  27.634  1.00  0.00     0.251 C 
ATOM     29  H   UNL A   1      33.304  30.630  26.227  1.00  0.00     0.163 HD
ATOM     30  O   UNL A   1      34.322  31.916  28.033  1.00  0.00    -0.269 OA
BRANCH  28  31
ATOM     31  C   UNL A   1      35.973  30.251  28.153  1.00  0.00     0.039 A 
ATOM     32  C   UNL A   1      37.150  30.404  27.418  1.00  0.00     0.014 A 
ATOM     33  C   UNL A   1      35.972  29.554  29.366  1.00  0.00     0.014 A 
ATOM     34  C   UNL A   1      38.343  29.879  27.917  1.00  0.00     0.010 A 
ATOM     35  C   UNL A   1      37.169  29.076  29.885  1.00  0.00     0.010 A 
ATOM     36  C   UNL A   1      38.359  29.218  29.155  1.00  0.00    -0.014 A 
BRANCH  36  37
ATOM     37  C   UNL A   1      39.597  28.605  29.683  1.00  0.00     0.031 A 
ATOM     38  C   UNL A   1      40.257  29.206  30.892  1.00  0.00     0.074 A 
ATOM     39  C   UNL A   1      40.160  27.563  29.045  1.00  0.00     0.049 A 
ATOM     40  N   UNL A   1      41.383  28.874  31.464  1.00  0.00    -0.248 NA
ATOM     41  C   UNL A   1      39.567  30.339  31.533  1.00  0.00     0.031 C 
ATOM     42  C   UNL A   1      39.631  26.921  27.840  1.00  0.00     0.029 A 
ATOM     43  N   UNL A   1      41.318  26.877  29.309  1.00  0.00    -0.354 N 
ATOM     44  C   UNL A   1      41.551  29.769  32.512  1.00  0.00     0.074 A 
ATOM     45  C   UNL A   1      40.424  30.676  32.485  1.00  0.00     0.031 C 
ATOM     46  C   UNL A   1      40.466  25.938  27.467  1.00  0.00     0.029 A 
ATOM     47  C   UNL A   1      41.598  25.896  28.390  1.00  0.00     0.049 A 
ATOM     48  H   UNL A   1      41.894  27.070  30.084  1.00  0.00     0.167 HD
ATOM     49  C   UNL A   1      42.540  29.814  33.431  1.00  0.00     0.034 A 
ATOM     50  C   UNL A   1      42.655  25.064  28.296  1.00  0.00     0.034 A 
ATOM     51  C   UNL A   1      43.636  28.888  33.483  1.00  0.00     0.049 A 
ATOM     52  C   UNL A   1      43.743  25.135  29.331  1.00  0.00     0.074 A 
ATOM     53  C   UNL A   1      44.650  28.812  34.419  1.00  0.00     0.029 A 
ATOM     54  N   UNL A   1      43.864  27.881  32.558  1.00  0.00    -0.354 N 
ATOM     55  N   UNL A   1      43.828  25.915  30.381  1.00  0.00    -0.248 NA
ATOM     56  C   UNL A   1      44.868  24.201  29.182  1.00  0.00     0.031 C 
ATOM     57  C   UNL A   1      45.502  27.765  34.054  1.00  0.00     0.029 A 
ATOM     58  C   UNL A   1      45.010  27.184  32.897  1.00  0.00     0.049 A 
ATOM     59  H   UNL A   1      43.295  27.691  31.778  1.00  0.00     0.167 HD
ATOM     60  C   UNL A   1      45.005  25.557  31.026  1.00  0.00     0.074 A 
ATOM     61  C   UNL A   1      45.591  24.475  30.261  1.00  0.00     0.031 C 
ATOM     62  C   UNL A   1      45.559  26.088  32.143  1.00  0.00     0.034 A 
BRANCH  49  63
ATOM     63  C   UNL A   1      42.457  30.864  34.502  1.00  0.00     0.023 A 
ATOM     64  C   UNL A   1      41.814  30.555  35.716  1.00  0.00     0.012 A 
ATOM     65  C   UNL A   1      43.084  32.113  34.342  1.00  0.00     0.148 A 
ATOM     66  C   UNL A   1      41.790  31.479  36.758  1.00  0.00     0.002 A 
ATOM     67  C   UNL A   1      43.083  33.018  35.396  1.00  0.00     0.091 A 
ATOM     68  F   UNL A   1      43.672  32.388  33.169  1.00  0.00    -0.205 F 
ATOM     69  C   UNL A   1      42.434  32.704  36.603  1.00  0.00     0.022 A 
BRANCH  67  70
ATOM     70  S   UNL A   1      43.922  34.604  35.320  1.00  0.00     0.127 S 
ATOM     71  O   UNL A   1      45.300  34.195  35.046  1.00  0.00    -0.237 OA
ATOM     72  O   UNL A   1      43.244  35.253  34.198  1.00  0.00    -0.237 OA
ATOM     73  O   UNL A   1      43.713  35.236  36.615  1.00  0.00    -0.744 OA
ENDBRANCH  67  70
ENDBRANCH  49  63
BRANCH  50  74
ATOM     74  C   UNL A   1      42.695  24.053  27.205  1.00  0.00     0.023 A 
ATOM     75  C   UNL A   1      43.343  24.375  25.998  1.00  0.00     0.012 A 
ATOM     76  C   UNL A   1      42.154  22.765  27.380  1.00  0.00     0.148 A 
ATOM     77  C   UNL A   1      43.444  23.431  24.975  1.00  0.00     0.002 A 
ATOM     78  C   UNL A   1      42.290  21.819  26.371  1.00  0.00     0.091 A 
ATOM     79  F   UNL A   1      41.543  22.487  28.540  1.00  0.00    -0.205 F 
ATOM     80  C   UNL A   1      42.926  22.152  25.165  1.00  0.00     0.022 A 
BRANCH  78  81
ATOM     81  S   UNL A   1      41.741  20.118  26.554  1.00  0.00     0.127 S 
ATOM     82  O   UNL A   1      42.243  19.508  25.325  1.00  0.00    -0.237 OA
ATOM     83  O   UNL A   1      42.438  19.711  27.773  1.00  0.00    -0.237 OA
ATOM     84  O   UNL A   1      40.291  20.179  26.673  1.00  0.00    -0.744 OA
ENDBRANCH  78  81
ENDBRANCH  50  74
BRANCH  62  85
ATOM     85  C   UNL A   1      46.869  25.523  32.619  1.00  0.00     0.023 A 
ATOM     86  C   UNL A   1      48.067  25.991  32.045  1.00  0.00     0.012 A 
ATOM     87  C   UNL A   1      46.920  24.629  33.706  1.00  0.00     0.148 A 
ATOM     88  C   UNL A   1      49.300  25.568  32.540  1.00  0.00     0.002 A 
ATOM     89  C   UNL A   1      48.152  24.240  34.217  1.00  0.00     0.091 A 
ATOM     90  F   UNL A   1      45.765  24.196  34.230  1.00  0.00    -0.205 F 
ATOM     91  C   UNL A   1      49.342  24.703  33.632  1.00  0.00     0.022 A 
BRANCH  89  92
ATOM     92  S   UNL A   1      48.312  23.188  35.665  1.00  0.00     0.127 S 
ATOM     93  O   UNL A   1      47.728  21.935  35.188  1.00  0.00    -0.237 OA
ATOM     94  O   UNL A   1      49.761  23.150  35.861  1.00  0.00    -0.237 OA
ATOM     95  O   UNL A   1      47.571  23.851  36.730  1.00  0.00    -0.744 OA
ENDBRANCH  89  92
ENDBRANCH  62  85
ENDBRANCH  36  37
ENDBRANCH  28  31
ENDBRANCH  26  27
ENDBRANCH  25  26
ENDBRANCH   1  25
TORSDOF 17
ENDMDL
MODEL 3
REMARK VINA RESULT:     -11.6      1.250      7.573
REMARK SMILES Cc1c(Cl)ccc2c1C=C(C(=O)NCCCCCCNC(=O)c1ccc(-c3c4nc(c(-c5cccc(S(=O)(=O)[O-])c5F)c5ccc([nH]5)c(-c5cccc(S(=O)(=O)[O-])c5F)c5nc(c(-c6cccc(S(=O)(=O)[O-])c6F)c6ccc3[nH]6)C=C5)C=C4)cc1)[C@@H](C(F)(F)F)O2
REMARK SMILES IDX 17 1 16 2 15 3 14 4 13 5 11 6 12 7 10 9 1 10 2 11 3 12 8 13
REMARK SMILES IDX 4 14 5 15 7 16 9 17 6 18 91 19 86 20 87 21 88 22 89 23 90 24
REMARK SMILES IDX 18 25 19 26 20 27 21 28 22 30 23 31 24 32 85 33 25 34 84 35
REMARK SMILES IDX 26 36 27 37 28 38 78 39 29 40 83 41 77 42 79 43 30 44 82 45
REMARK SMILES IDX 76 46 75 47 31 49 63 50 43 51 62 52 44 53 47 54 61 55 80 56
REMARK SMILES IDX 45 57 46 58 60 60 81 61 48 62 32 63 33 64 41 65 34 66 36 67
REMARK SMILES IDX 42 68 35 69 37 70 38 71 39 72 40 73 64 74 65 75 73 76 66 77
REMARK SMILES IDX 68 78 74 79 67 80 69 81 70 82 71 83 72 84 49 85 50 86 58 87
REMARK SMILES IDX 51 88 53 89 59 90 52 91 54 92 55 93 56 94 57 95
REMARK H PARENT 13 8 20 29 79 48 47 59
REMARK Flexibility Score: inf
ROOT
ATOM      1  C   UNL A   1      33.131  29.003  24.468  1.00  0.00     0.002 C 
ENDROOT
BRANCH   1   2
ATOM      2  C   UNL A   1      31.615  29.110  24.253  1.00  0.00     0.002 C 
BRANCH   2   3
ATOM      3  C   UNL A   1      31.149  28.891  22.811  1.00  0.00     0.021 C 
BRANCH   3   4
ATOM      4  C   UNL A   1      30.705  27.460  22.524  1.00  0.00     0.116 C 
BRANCH   4   5
ATOM      5  N   UNL A   1      31.628  26.786  21.629  1.00  0.00    -0.352 N 
ATOM      6  C   UNL A   1      32.555  25.807  21.716  1.00  0.00     0.251 C 
ATOM      7  O   UNL A   1      33.126  25.529  20.655  1.00  0.00    -0.270 OA
ATOM      8  H   UNL A   1      31.561  27.138  20.711  1.00  0.00     0.163 HD
BRANCH   6   9
ATOM      9  C   UNL A   1      32.915  25.063  22.962  1.00  0.00     0.067 C 
ATOM     10  C   UNL A   1      36.767  22.973  23.027  1.00  0.00     0.047 C 
ATOM     11  C   UNL A   1      35.839  23.083  24.211  1.00  0.00    -0.021 A 
ATOM     12  C   UNL A   1      36.202  22.450  25.423  1.00  0.00     0.044 A 
ATOM     13  C   UNL A   1      34.619  23.797  24.165  1.00  0.00     0.022 A 
ATOM     14  Cl  UNL A   1      37.696  21.588  25.589  1.00  0.00    -0.084 Cl
ATOM     15  C   UNL A   1      35.375  22.500  26.546  1.00  0.00     0.024 A 
ATOM     16  C   UNL A   1      33.792  23.808  25.300  1.00  0.00     0.128 A 
ATOM     17  C   UNL A   1      34.171  24.580  23.009  1.00  0.00     0.026 C 
ATOM     18  C   UNL A   1      34.167  23.177  26.483  1.00  0.00     0.048 A 
ATOM     19  O   UNL A   1      32.597  24.461  25.356  1.00  0.00    -0.475 OA
ATOM     20  C   UNL A   1      31.970  24.807  24.096  1.00  0.00     0.314 C 
BRANCH  20  21
ATOM     21  C   UNL A   1      30.892  23.766  23.749  1.00  0.00     0.429 C 
ATOM     22  F   UNL A   1      31.394  22.806  22.939  1.00  0.00    -0.167 F 
ATOM     23  F   UNL A   1      30.416  23.130  24.847  1.00  0.00    -0.167 F 
ATOM     24  F   UNL A   1      29.825  24.316  23.125  1.00  0.00    -0.167 F 
ENDBRANCH  20  21
ENDBRANCH   6   9
ENDBRANCH   4   5
ENDBRANCH   3   4
ENDBRANCH   2   3
ENDBRANCH   1   2
BRANCH   1  25
ATOM     25  C   UNL A   1      33.577  27.874  25.403  1.00  0.00     0.021 C 
BRANCH  25  26
ATOM     26  C   UNL A   1      33.818  28.314  26.844  1.00  0.00     0.116 C 
BRANCH  26  27
ATOM     27  N   UNL A   1      33.717  29.757  26.978  1.00  0.00    -0.352 N 
ATOM     28  C   UNL A   1      34.533  30.606  27.679  1.00  0.00     0.251 C 
ATOM     29  H   UNL A   1      32.964  30.181  26.505  1.00  0.00     0.163 HD
ATOM     30  O   UNL A   1      34.180  31.759  27.914  1.00  0.00    -0.269 OA
BRANCH  28  31
ATOM     31  C   UNL A   1      35.843  30.117  28.145  1.00  0.00     0.039 A 
ATOM     32  C   UNL A   1      36.949  30.210  27.298  1.00  0.00     0.014 A 
ATOM     33  C   UNL A   1      35.964  29.559  29.422  1.00  0.00     0.014 A 
ATOM     34  C   UNL A   1      38.194  29.766  27.745  1.00  0.00     0.010 A 
ATOM     35  C   UNL A   1      37.214  29.163  29.883  1.00  0.00     0.010 A 
ATOM     36  C   UNL A   1      38.333  29.246  29.040  1.00  0.00    -0.014 A 
BRANCH  36  37
ATOM     37  C   UNL A   1      39.628  28.717  29.522  1.00  0.00     0.031 A 
ATOM     38  C   UNL A   1      40.369  29.458  30.600  1.00  0.00     0.074 A 
ATOM     39  C   UNL A   1      40.166  27.624  28.950  1.00  0.00     0.049 A 
ATOM     40  N   UNL A   1      41.548  29.211  31.104  1.00  0.00    -0.248 NA
ATOM     41  C   UNL A   1      39.702  30.639  31.175  1.00  0.00     0.031 C 
ATOM     42  C   UNL A   1      39.558  26.847  27.870  1.00  0.00     0.029 A 
ATOM     43  N   UNL A   1      41.362  26.994  29.184  1.00  0.00    -0.354 N 
ATOM     44  C   UNL A   1      41.777  30.217  32.034  1.00  0.00     0.074 A 
ATOM     45  C   UNL A   1      40.626  31.093  32.009  1.00  0.00     0.031 C 
ATOM     46  C   UNL A   1      40.387  25.846  27.532  1.00  0.00     0.029 A 
ATOM     47  C   UNL A   1      41.593  25.926  28.352  1.00  0.00     0.049 A 
ATOM     48  H   UNL A   1      41.994  27.281  29.882  1.00  0.00     0.167 HD
ATOM     49  C   UNL A   1      42.838  30.380  32.854  1.00  0.00     0.034 A 
ATOM     50  C   UNL A   1      42.661  25.110  28.256  1.00  0.00     0.034 A 
ATOM     51  C   UNL A   1      43.961  29.487  32.908  1.00  0.00     0.049 A 
ATOM     52  C   UNL A   1      43.830  25.314  29.180  1.00  0.00     0.074 A 
ATOM     53  C   UNL A   1      45.051  29.532  33.757  1.00  0.00     0.029 A 
ATOM     54  N   UNL A   1      44.140  28.392  32.078  1.00  0.00    -0.354 N 
ATOM     55  N   UNL A   1      43.980  26.203  30.132  1.00  0.00    -0.248 NA
ATOM     56  C   UNL A   1      44.965  24.392  29.033  1.00  0.00     0.031 C 
ATOM     57  C   UNL A   1      45.900  28.470  33.432  1.00  0.00     0.029 A 
ATOM     58  C   UNL A   1      45.330  27.758  32.388  1.00  0.00     0.049 A 
ATOM     59  H   UNL A   1      43.513  28.107  31.374  1.00  0.00     0.167 HD
ATOM     60  C   UNL A   1      45.217  25.940  30.707  1.00  0.00     0.074 A 
ATOM     61  C   UNL A   1      45.767  24.795  30.011  1.00  0.00     0.031 C 
ATOM     62  C   UNL A   1      45.846  26.599  31.710  1.00  0.00     0.034 A 
BRANCH  49  63
ATOM     63  C   UNL A   1      42.813  31.537  33.812  1.00  0.00     0.023 A 
ATOM     64  C   UNL A   1      43.234  32.805  33.367  1.00  0.00     0.012 A 
ATOM     65  C   UNL A   1      42.298  31.389  35.112  1.00  0.00     0.148 A 
ATOM     66  C   UNL A   1      43.148  33.913  34.206  1.00  0.00     0.002 A 
ATOM     67  C   UNL A   1      42.186  32.504  35.934  1.00  0.00     0.091 A 
ATOM     68  F   UNL A   1      41.922  30.167  35.516  1.00  0.00    -0.205 F 
ATOM     69  C   UNL A   1      42.614  33.765  35.484  1.00  0.00     0.022 A 
BRANCH  67  70
ATOM     70  S   UNL A   1      41.468  32.435  37.579  1.00  0.00     0.127 S 
ATOM     71  O   UNL A   1      40.088  32.053  37.282  1.00  0.00    -0.237 OA
ATOM     72  O   UNL A   1      42.267  31.388  38.214  1.00  0.00    -0.237 OA
ATOM     73  O   UNL A   1      41.630  33.764  38.148  1.00  0.00    -0.744 OA
ENDBRANCH  67  70
ENDBRANCH  49  63
BRANCH  50  74
ATOM     74  C   UNL A   1      42.640  23.990  27.278  1.00  0.00     0.023 A 
ATOM     75  C   UNL A   1      43.281  24.154  26.036  1.00  0.00     0.012 A 
ATOM     76  C   UNL A   1      42.047  22.752  27.594  1.00  0.00     0.148 A 
ATOM     77  C   UNL A   1      43.325  23.103  25.118  1.00  0.00     0.002 A 
ATOM     78  C   UNL A   1      42.125  21.700  26.690  1.00  0.00     0.091 A 
ATOM     79  F   UNL A   1      41.444  22.626  28.785  1.00  0.00    -0.205 F 
ATOM     80  C   UNL A   1      42.755  21.876  25.448  1.00  0.00     0.022 A 
BRANCH  78  81
ATOM     81  S   UNL A   1      41.506  20.055  27.058  1.00  0.00     0.127 S 
ATOM     82  O   UNL A   1      40.828  20.269  28.335  1.00  0.00    -0.237 OA
ATOM     83  O   UNL A   1      40.617  19.811  25.922  1.00  0.00    -0.237 OA
ATOM     84  O   UNL A   1      42.676  19.192  27.111  1.00  0.00    -0.744 OA
ENDBRANCH  78  81
ENDBRANCH  50  74
BRANCH  62  85
ATOM     85  C   UNL A   1      47.207  26.114  32.128  1.00  0.00     0.023 A 
ATOM     86  C   UNL A   1      47.315  25.223  33.213  1.00  0.00     0.012 A 
ATOM     87  C   UNL A   1      48.353  26.441  31.378  1.00  0.00     0.148 A 
ATOM     88  C   UNL A   1      48.549  24.672  33.554  1.00  0.00     0.002 A 
ATOM     89  C   UNL A   1      49.573  25.860  31.701  1.00  0.00     0.091 A 
ATOM     90  F   UNL A   1      48.222  27.295  30.353  1.00  0.00    -0.205 F 
ATOM     91  C   UNL A   1      49.674  24.980  32.792  1.00  0.00     0.022 A 
BRANCH  89  92
ATOM     92  S   UNL A   1      51.064  26.136  30.737  1.00  0.00     0.127 S 
ATOM     93  O   UNL A   1      50.660  25.645  29.419  1.00  0.00    -0.237 OA
ATOM     94  O   UNL A   1      51.224  27.587  30.824  1.00  0.00    -0.237 OA
ATOM     95  O   UNL A   1      52.116  25.367  31.388  1.00  0.00    -0.744 OA
ENDBRANCH  89  92
ENDBRANCH  62  85
ENDBRANCH  36  37
ENDBRANCH  28  31
ENDBRANCH  26  27
ENDBRANCH  25  26
ENDBRANCH   1  25
TORSDOF 17
ENDMDL
