MODEL 1
REMARK VINA RESULT:     -10.4      0.000      0.000
REMARK SMILES C[C@H](CCO)S[C@H]1CC[C@]([NH2+]C2CC2)(C(=O)NCCCCCCNC(=O)c2ccc(-c3c4nc(c(-c5cccc(S(=O)(=O)[O-])c5F)c5ccc([nH]5)c(-c5cccc(S(=O)(=O)[O-])c5F)c5nc(c(-c6cccc(S(=O)(=O)[O-])c6F)c6ccc3[nH]6)C=C5)C=C4)cc2)C1
REMARK SMILES IDX 19 1 18 2 17 3 15 4 16 5 10 7 7 8 8 9 90 10 9 11 6 12 2 13
REMARK SMILES IDX 1 14 3 15 4 16 5 17 11 19 12 22 13 23 14 24 20 25 21 26
REMARK SMILES IDX 22 27 23 28 24 29 25 30 26 32 27 33 28 34 89 35 29 36 88 37
REMARK SMILES IDX 30 38 31 39 32 40 82 41 33 42 87 43 81 44 83 45 34 46 86 47
REMARK SMILES IDX 80 48 79 49 35 51 67 52 47 53 66 54 48 55 51 56 65 57 84 58
REMARK SMILES IDX 49 59 50 60 64 62 85 63 52 64 36 65 37 66 45 67 38 68 40 69
REMARK SMILES IDX 46 70 39 71 41 72 42 73 43 74 44 75 68 76 69 77 77 78 70 79
REMARK SMILES IDX 72 80 78 81 71 82 73 83 74 84 75 85 76 86 53 87 54 88 62 89
REMARK SMILES IDX 55 90 57 91 63 92 56 93 58 94 59 95 60 96 61 97
REMARK H PARENT 17 6 5 18 11 20 11 21 24 31 83 50 51 61
REMARK Flexibility Score: inf
ROOT
ATOM      1  C   UNL A   1      32.822  21.755  23.450  1.00  0.00     0.021 C 
ENDROOT
BRANCH   1   2
ATOM      2  C   UNL A   1      31.913  22.937  23.131  1.00  0.00     0.116 C 
BRANCH   2   3
ATOM      3  N   UNL A   1      32.344  23.727  21.987  1.00  0.00    -0.351 N 
ATOM      4  C   UNL A   1      32.758  25.043  21.967  1.00  0.00     0.281 C 
ATOM      5  O   UNL A   1      33.234  25.472  20.912  1.00  0.00    -0.268 OA
ATOM      6  H   UNL A   1      32.341  23.266  21.118  1.00  0.00     0.163 HD
BRANCH   4   7
ATOM      7  C   UNL A   1      32.519  25.966  23.225  1.00  0.00     0.176 C 
ATOM      8  C   UNL A   1      33.111  28.347  23.710  1.00  0.00     0.054 C 
ATOM      9  C   UNL A   1      34.126  27.439  24.431  1.00  0.00     0.022 C 
ATOM     10  C   UNL A   1      32.538  27.401  22.659  1.00  0.00     0.093 C 
ATOM     11  C   UNL A   1      33.716  25.973  24.200  1.00  0.00     0.080 C 
BRANCH   8  12
ATOM     12  S   UNL A   1      31.987  29.088  24.952  1.00  0.00    -0.155 SA
BRANCH  12  13
ATOM     13  C   UNL A   1      32.721  28.706  26.617  1.00  0.00     0.046 C 
ATOM     14  C   UNL A   1      31.503  28.457  27.516  1.00  0.00     0.019 C 
BRANCH  13  15
ATOM     15  C   UNL A   1      33.714  29.748  27.174  1.00  0.00     0.042 C 
BRANCH  15  16
ATOM     16  C   UNL A   1      35.152  29.334  27.473  1.00  0.00     0.157 C 
BRANCH  16  17
ATOM     17  O   UNL A   1      35.463  29.505  28.843  1.00  0.00    -0.396 OA
ATOM     18  H   UNL A   1      36.334  29.926  28.926  1.00  0.00     0.210 HD
ENDBRANCH  16  17
ENDBRANCH  15  16
ENDBRANCH  13  15
ENDBRANCH  12  13
ENDBRANCH   8  12
BRANCH   7  19
ATOM     19  N   UNL A   1      31.314  25.425  23.892  1.00  0.00    -0.331 N 
ATOM     20  H   UNL A   1      31.289  24.428  23.681  1.00  0.00     0.347 HD
ATOM     21  H   UNL A   1      30.569  26.015  23.522  1.00  0.00     0.347 HD
BRANCH  19  22
ATOM     22  C   UNL A   1      31.135  25.550  25.332  1.00  0.00     0.183 C 
ATOM     23  C   UNL A   1      29.753  25.639  25.922  1.00  0.00     0.071 C 
ATOM     24  C   UNL A   1      30.530  24.372  26.055  1.00  0.00     0.071 C 
ENDBRANCH  19  22
ENDBRANCH   7  19
ENDBRANCH   4   7
ENDBRANCH   2   3
ENDBRANCH   1   2
BRANCH   1  25
ATOM     25  C   UNL A   1      34.236  22.105  23.913  1.00  0.00     0.002 C 
BRANCH  25  26
ATOM     26  C   UNL A   1      34.914  21.085  24.831  1.00  0.00     0.002 C 
BRANCH  26  27
ATOM     27  C   UNL A   1      35.953  21.643  25.807  1.00  0.00     0.021 C 
BRANCH  27  28
ATOM     28  C   UNL A   1      37.351  21.860  25.234  1.00  0.00     0.116 C 
BRANCH  28  29
ATOM     29  N   UNL A   1      38.313  20.880  25.714  1.00  0.00    -0.352 N 
ATOM     30  C   UNL A   1      39.524  21.075  26.331  1.00  0.00     0.251 C 
ATOM     31  H   UNL A   1      38.060  19.939  25.575  1.00  0.00     0.163 HD
ATOM     32  O   UNL A   1      40.273  20.115  26.522  1.00  0.00    -0.269 OA
BRANCH  30  33
ATOM     33  C   UNL A   1      39.943  22.431  26.746  1.00  0.00     0.039 A 
ATOM     34  C   UNL A   1      40.901  22.561  27.756  1.00  0.00     0.014 A 
ATOM     35  C   UNL A   1      39.397  23.570  26.148  1.00  0.00     0.014 A 
ATOM     36  C   UNL A   1      41.356  23.831  28.120  1.00  0.00     0.010 A 
ATOM     37  C   UNL A   1      39.904  24.830  26.462  1.00  0.00     0.010 A 
ATOM     38  C   UNL A   1      40.890  24.974  27.451  1.00  0.00    -0.014 A 
BRANCH  38  39
ATOM     39  C   UNL A   1      41.450  26.319  27.749  1.00  0.00     0.031 A 
ATOM     40  C   UNL A   1      42.847  26.680  27.325  1.00  0.00     0.074 A 
ATOM     41  C   UNL A   1      40.726  27.188  28.483  1.00  0.00     0.049 A 
ATOM     42  N   UNL A   1      43.512  27.787  27.537  1.00  0.00    -0.248 NA
ATOM     43  C   UNL A   1      43.609  25.657  26.591  1.00  0.00     0.031 C 
ATOM     44  C   UNL A   1      39.392  26.926  29.027  1.00  0.00     0.029 A 
ATOM     45  N   UNL A   1      41.021  28.455  28.923  1.00  0.00    -0.354 N 
ATOM     46  C   UNL A   1      44.776  27.582  26.998  1.00  0.00     0.074 A 
ATOM     47  C   UNL A   1      44.797  26.234  26.474  1.00  0.00     0.031 C 
ATOM     48  C   UNL A   1      38.985  27.996  29.728  1.00  0.00     0.029 A 
ATOM     49  C   UNL A   1      40.039  29.005  29.713  1.00  0.00     0.049 A 
ATOM     50  H   UNL A   1      41.856  28.925  28.695  1.00  0.00     0.167 HD
ATOM     51  C   UNL A   1      45.819  28.445  26.926  1.00  0.00     0.034 A 
ATOM     52  C   UNL A   1      39.994  30.183  30.367  1.00  0.00     0.034 A 
ATOM     53  C   UNL A   1      45.783  29.796  27.418  1.00  0.00     0.049 A 
ATOM     54  C   UNL A   1      41.149  31.137  30.239  1.00  0.00     0.074 A 
ATOM     55  C   UNL A   1      46.750  30.780  27.299  1.00  0.00     0.029 A 
ATOM     56  N   UNL A   1      44.739  30.350  28.143  1.00  0.00    -0.354 N 
ATOM     57  N   UNL A   1      42.269  30.991  29.573  1.00  0.00    -0.248 NA
ATOM     58  C   UNL A   1      41.021  32.432  30.922  1.00  0.00     0.031 C 
ATOM     59  C   UNL A   1      46.306  31.914  27.986  1.00  0.00     0.029 A 
ATOM     60  C   UNL A   1      45.047  31.653  28.498  1.00  0.00     0.049 A 
ATOM     61  H   UNL A   1      43.902  29.885  28.371  1.00  0.00     0.167 HD
ATOM     62  C   UNL A   1      42.966  32.183  29.733  1.00  0.00     0.074 A 
ATOM     63  C   UNL A   1      42.129  33.051  30.536  1.00  0.00     0.031 C 
ATOM     64  C   UNL A   1      44.193  32.523  29.267  1.00  0.00     0.034 A 
BRANCH  51  65
ATOM     65  C   UNL A   1      47.081  27.966  26.256  1.00  0.00     0.023 A 
ATOM     66  C   UNL A   1      48.110  27.387  27.028  1.00  0.00     0.012 A 
ATOM     67  C   UNL A   1      47.225  28.034  24.856  1.00  0.00     0.148 A 
ATOM     68  C   UNL A   1      49.274  26.917  26.424  1.00  0.00     0.002 A 
ATOM     69  C   UNL A   1      48.370  27.519  24.256  1.00  0.00     0.091 A 
ATOM     70  F   UNL A   1      46.248  28.605  24.139  1.00  0.00    -0.205 F 
ATOM     71  C   UNL A   1      49.400  26.974  25.039  1.00  0.00     0.022 A 
BRANCH  69  72
ATOM     72  S   UNL A   1      48.590  27.470  22.474  1.00  0.00     0.127 S 
ATOM     73  O   UNL A   1      48.828  26.045  22.247  1.00  0.00    -0.237 OA
ATOM     74  O   UNL A   1      47.297  27.957  21.991  1.00  0.00    -0.237 OA
ATOM     75  O   UNL A   1      49.717  28.346  22.183  1.00  0.00    -0.744 OA
ENDBRANCH  69  72
ENDBRANCH  51  65
BRANCH  52  76
ATOM     76  C   UNL A   1      38.789  30.538  31.170  1.00  0.00     0.023 A 
ATOM     77  C   UNL A   1      38.729  30.183  32.531  1.00  0.00     0.012 A 
ATOM     78  C   UNL A   1      37.721  31.257  30.599  1.00  0.00     0.148 A 
ATOM     79  C   UNL A   1      37.612  30.511  33.302  1.00  0.00     0.002 A 
ATOM     80  C   UNL A   1      36.640  31.632  31.386  1.00  0.00     0.091 A 
ATOM     81  F   UNL A   1      37.795  31.575  29.299  1.00  0.00    -0.205 F 
ATOM     82  C   UNL A   1      36.574  31.244  32.733  1.00  0.00     0.022 A 
BRANCH  80  83
ATOM     83  S   UNL A   1      35.327  32.693  30.774  1.00  0.00     0.127 S 
ATOM     84  O   UNL A   1      34.314  32.546  31.817  1.00  0.00    -0.237 OA
ATOM     85  O   UNL A   1      35.988  33.997  30.736  1.00  0.00    -0.237 OA
ATOM     86  O   UNL A   1      34.967  32.163  29.466  1.00  0.00    -0.744 OA
ENDBRANCH  80  83
ENDBRANCH  52  76
BRANCH  64  87
ATOM     87  C   UNL A   1      44.705  33.904  29.586  1.00  0.00     0.023 A 
ATOM     88  C   UNL A   1      45.534  34.104  30.708  1.00  0.00     0.012 A 
ATOM     89  C   UNL A   1      44.421  34.989  28.735  1.00  0.00     0.148 A 
ATOM     90  C   UNL A   1      46.042  35.370  30.997  1.00  0.00     0.002 A 
ATOM     91  C   UNL A   1      44.974  36.237  28.999  1.00  0.00     0.091 A 
ATOM     92  F   UNL A   1      43.617  34.783  27.681  1.00  0.00    -0.205 F 
ATOM     93  C   UNL A   1      45.773  36.432  30.137  1.00  0.00     0.022 A 
BRANCH  91  94
ATOM     94  S   UNL A   1      44.763  37.639  27.896  1.00  0.00     0.127 S 
ATOM     95  O   UNL A   1      45.682  37.304  26.810  1.00  0.00    -0.237 OA
ATOM     96  O   UNL A   1      43.345  37.545  27.546  1.00  0.00    -0.237 OA
ATOM     97  O   UNL A   1      45.117  38.820  28.672  1.00  0.00    -0.744 OA
ENDBRANCH  91  94
ENDBRANCH  64  87
ENDBRANCH  38  39
ENDBRANCH  30  33
ENDBRANCH  28  29
ENDBRANCH  27  28
ENDBRANCH  26  27
ENDBRANCH  25  26
ENDBRANCH   1  25
TORSDOF 23
ENDMDL
MODEL 2
REMARK VINA RESULT:     -10.1      5.731      9.027
REMARK SMILES C[C@H](CCO)S[C@H]1CC[C@]([NH2+]C2CC2)(C(=O)NCCCCCCNC(=O)c2ccc(-c3c4nc(c(-c5cccc(S(=O)(=O)[O-])c5F)c5ccc([nH]5)c(-c5cccc(S(=O)(=O)[O-])c5F)c5nc(c(-c6cccc(S(=O)(=O)[O-])c6F)c6ccc3[nH]6)C=C5)C=C4)cc2)C1
REMARK SMILES IDX 19 1 18 2 17 3 15 4 16 5 10 7 7 8 8 9 90 10 9 11 6 12 2 13
REMARK SMILES IDX 1 14 3 15 4 16 5 17 11 19 12 22 13 23 14 24 20 25 21 26
REMARK SMILES IDX 22 27 23 28 24 29 25 30 26 32 27 33 28 34 89 35 29 36 88 37
REMARK SMILES IDX 30 38 31 39 32 40 82 41 33 42 87 43 81 44 83 45 34 46 86 47
REMARK SMILES IDX 80 48 79 49 35 51 67 52 47 53 66 54 48 55 51 56 65 57 84 58
REMARK SMILES IDX 49 59 50 60 64 62 85 63 52 64 36 65 37 66 45 67 38 68 40 69
REMARK SMILES IDX 46 70 39 71 41 72 42 73 43 74 44 75 68 76 69 77 77 78 70 79
REMARK SMILES IDX 72 80 78 81 71 82 73 83 74 84 75 85 76 86 53 87 54 88 62 89
REMARK SMILES IDX 55 90 57 91 63 92 56 93 58 94 59 95 60 96 61 97
REMARK H PARENT 17 6 5 18 11 20 11 21 24 31 83 50 51 61
REMARK Flexibility Score: inf
ROOT
ATOM      1  C   UNL A   1      33.476  27.919  26.621  1.00  0.00     0.021 C 
ENDROOT
BRANCH   1   2
ATOM      2  C   UNL A   1      33.254  26.598  25.891  1.00  0.00     0.116 C 
BRANCH   2   3
ATOM      3  N   UNL A   1      32.114  25.834  26.375  1.00  0.00    -0.351 N 
ATOM      4  C   UNL A   1      32.021  24.471  26.567  1.00  0.00     0.281 C 
ATOM      5  O   UNL A   1      31.012  24.047  27.138  1.00  0.00    -0.268 OA
ATOM      6  H   UNL A   1      31.308  26.354  26.594  1.00  0.00     0.163 HD
BRANCH   4   7
ATOM      7  C   UNL A   1      33.123  23.512  25.971  1.00  0.00     0.176 C 
ATOM      8  C   UNL A   1      33.687  21.114  26.403  1.00  0.00     0.054 C 
ATOM      9  C   UNL A   1      34.702  21.993  27.158  1.00  0.00     0.022 C 
ATOM     10  C   UNL A   1      32.544  22.095  26.161  1.00  0.00     0.093 C 
ATOM     11  C   UNL A   1      34.406  23.468  26.829  1.00  0.00     0.080 C 
BRANCH   8  12
ATOM     12  S   UNL A   1      34.519  20.342  24.965  1.00  0.00    -0.155 SA
BRANCH  12  13
ATOM     13  C   UNL A   1      33.340  19.069  24.298  1.00  0.00     0.046 C 
ATOM     14  C   UNL A   1      32.380  19.875  23.413  1.00  0.00     0.019 C 
BRANCH  13  15
ATOM     15  C   UNL A   1      32.637  18.181  25.346  1.00  0.00     0.042 C 
BRANCH  15  16
ATOM     16  C   UNL A   1      33.098  16.741  25.546  1.00  0.00     0.157 C 
BRANCH  16  17
ATOM     17  O   UNL A   1      34.281  16.472  24.818  1.00  0.00    -0.396 OA
ATOM     18  H   UNL A   1      34.089  16.503  23.867  1.00  0.00     0.210 HD
ENDBRANCH  16  17
ENDBRANCH  15  16
ENDBRANCH  13  15
ENDBRANCH  12  13
ENDBRANCH   8  12
BRANCH   7  19
ATOM     19  N   UNL A   1      33.423  24.039  24.622  1.00  0.00    -0.331 N 
ATOM     20  H   UNL A   1      34.335  23.666  24.361  1.00  0.00     0.347 HD
ATOM     21  H   UNL A   1      33.333  25.047  24.749  1.00  0.00     0.347 HD
BRANCH  19  22
ATOM     22  C   UNL A   1      32.531  23.778  23.501  1.00  0.00     0.183 C 
ATOM     23  C   UNL A   1      31.803  24.912  22.827  1.00  0.00     0.071 C 
ATOM     24  C   UNL A   1      32.967  24.275  22.144  1.00  0.00     0.071 C 
ENDBRANCH  19  22
ENDBRANCH   7  19
ENDBRANCH   4   7
ENDBRANCH   2   3
ENDBRANCH   1   2
BRANCH   1  25
ATOM     25  C   UNL A   1      32.882  29.159  25.954  1.00  0.00     0.002 C 
BRANCH  25  26
ATOM     26  C   UNL A   1      31.760  29.863  26.722  1.00  0.00     0.002 C 
BRANCH  26  27
ATOM     27  C   UNL A   1      31.735  31.391  26.628  1.00  0.00     0.021 C 
BRANCH  27  28
ATOM     28  C   UNL A   1      32.932  32.112  27.241  1.00  0.00     0.116 C 
BRANCH  28  29
ATOM     29  N   UNL A   1      32.657  33.510  27.534  1.00  0.00    -0.352 N 
ATOM     30  C   UNL A   1      33.226  34.334  28.473  1.00  0.00     0.251 C 
ATOM     31  H   UNL A   1      31.961  33.927  26.977  1.00  0.00     0.163 HD
ATOM     32  O   UNL A   1      32.746  35.450  28.676  1.00  0.00    -0.269 OA
BRANCH  30  33
ATOM     33  C   UNL A   1      34.394  33.880  29.257  1.00  0.00     0.039 A 
ATOM     34  C   UNL A   1      34.180  33.090  30.391  1.00  0.00     0.014 A 
ATOM     35  C   UNL A   1      35.695  34.231  28.884  1.00  0.00     0.014 A 
ATOM     36  C   UNL A   1      35.272  32.600  31.111  1.00  0.00     0.010 A 
ATOM     37  C   UNL A   1      36.782  33.681  29.561  1.00  0.00     0.010 A 
ATOM     38  C   UNL A   1      36.584  32.860  30.681  1.00  0.00    -0.014 A 
BRANCH  38  39
ATOM     39  C   UNL A   1      37.752  32.249  31.370  1.00  0.00     0.031 A 
ATOM     40  C   UNL A   1      38.502  31.106  30.743  1.00  0.00     0.074 A 
ATOM     41  C   UNL A   1      38.084  32.671  32.607  1.00  0.00     0.049 A 
ATOM     42  N   UNL A   1      39.513  30.426  31.218  1.00  0.00    -0.248 NA
ATOM     43  C   UNL A   1      38.041  30.647  29.423  1.00  0.00     0.031 C 
ATOM     44  C   UNL A   1      37.382  33.714  33.359  1.00  0.00     0.029 A 
ATOM     45  N   UNL A   1      39.074  32.256  33.461  1.00  0.00    -0.354 N 
ATOM     46  C   UNL A   1      39.786  29.440  30.279  1.00  0.00     0.074 A 
ATOM     47  C   UNL A   1      38.815  29.591  29.217  1.00  0.00     0.031 C 
ATOM     48  C   UNL A   1      37.962  33.855  34.561  1.00  0.00     0.029 A 
ATOM     49  C   UNL A   1      39.053  32.893  34.680  1.00  0.00     0.049 A 
ATOM     50  H   UNL A   1      39.737  31.567  33.225  1.00  0.00     0.167 HD
ATOM     51  C   UNL A   1      40.769  28.507  30.286  1.00  0.00     0.034 A 
ATOM     52  C   UNL A   1      39.813  32.715  35.779  1.00  0.00     0.034 A 
ATOM     53  C   UNL A   1      41.754  28.381  31.327  1.00  0.00     0.049 A 
ATOM     54  C   UNL A   1      40.921  31.699  35.747  1.00  0.00     0.074 A 
ATOM     55  C   UNL A   1      42.850  27.538  31.375  1.00  0.00     0.029 A 
ATOM     56  N   UNL A   1      41.752  29.100  32.513  1.00  0.00    -0.354 N 
ATOM     57  N   UNL A   1      41.273  30.894  34.774  1.00  0.00    -0.248 NA
ATOM     58  C   UNL A   1      41.759  31.590  36.949  1.00  0.00     0.031 C 
ATOM     59  C   UNL A   1      43.488  27.719  32.607  1.00  0.00     0.029 A 
ATOM     60  C   UNL A   1      42.813  28.704  33.309  1.00  0.00     0.049 A 
ATOM     61  H   UNL A   1      41.093  29.791  32.753  1.00  0.00     0.167 HD
ATOM     62  C   UNL A   1      42.389  30.204  35.234  1.00  0.00     0.074 A 
ATOM     63  C   UNL A   1      42.670  30.706  36.564  1.00  0.00     0.031 C 
ATOM     64  C   UNL A   1      43.107  29.234  34.617  1.00  0.00     0.034 A 
BRANCH  51  65
ATOM     65  C   UNL A   1      40.854  27.566  29.112  1.00  0.00     0.023 A 
ATOM     66  C   UNL A   1      39.995  26.448  29.044  1.00  0.00     0.012 A 
ATOM     67  C   UNL A   1      41.739  27.820  28.045  1.00  0.00     0.148 A 
ATOM     68  C   UNL A   1      40.043  25.580  27.955  1.00  0.00     0.002 A 
ATOM     69  C   UNL A   1      41.746  26.976  26.940  1.00  0.00     0.091 A 
ATOM     70  F   UNL A   1      42.561  28.875  28.134  1.00  0.00    -0.205 F 
ATOM     71  C   UNL A   1      40.909  25.849  26.900  1.00  0.00     0.022 A 
BRANCH  69  72
ATOM     72  S   UNL A   1      42.765  27.283  25.494  1.00  0.00     0.127 S 
ATOM     73  O   UNL A   1      42.112  28.458  24.917  1.00  0.00    -0.237 OA
ATOM     74  O   UNL A   1      44.076  27.546  26.091  1.00  0.00    -0.237 OA
ATOM     75  O   UNL A   1      42.697  26.072  24.688  1.00  0.00    -0.744 OA
ENDBRANCH  69  72
ENDBRANCH  51  65
BRANCH  52  76
ATOM     76  C   UNL A   1      39.573  33.552  36.988  1.00  0.00     0.023 A 
ATOM     77  C   UNL A   1      38.517  33.228  37.862  1.00  0.00     0.012 A 
ATOM     78  C   UNL A   1      40.408  34.644  37.294  1.00  0.00     0.148 A 
ATOM     79  C   UNL A   1      38.279  33.996  39.003  1.00  0.00     0.002 A 
ATOM     80  C   UNL A   1      40.202  35.368  38.461  1.00  0.00     0.091 A 
ATOM     81  F   UNL A   1      41.400  34.940  36.443  1.00  0.00    -0.205 F 
ATOM     82  C   UNL A   1      39.128  35.057  39.308  1.00  0.00     0.022 A 
BRANCH  80  83
ATOM     83  S   UNL A   1      41.325  36.659  39.004  1.00  0.00     0.127 S 
ATOM     84  O   UNL A   1      41.716  37.268  37.735  1.00  0.00    -0.237 OA
ATOM     85  O   UNL A   1      40.454  37.484  39.841  1.00  0.00    -0.237 OA
ATOM     86  O   UNL A   1      42.388  35.980  39.731  1.00  0.00    -0.744 OA
ENDBRANCH  80  83
ENDBRANCH  52  76
BRANCH  64  87
ATOM     87  C   UNL A   1      44.290  28.662  35.355  1.00  0.00     0.023 A 
ATOM     88  C   UNL A   1      45.579  29.188  35.134  1.00  0.00     0.012 A 
ATOM     89  C   UNL A   1      44.113  27.650  36.318  1.00  0.00     0.148 A 
ATOM     90  C   UNL A   1      46.677  28.690  35.834  1.00  0.00     0.002 A 
ATOM     91  C   UNL A   1      45.205  27.196  37.050  1.00  0.00     0.091 A 
ATOM     92  F   UNL A   1      42.883  27.150  36.503  1.00  0.00    -0.205 F 
ATOM     93  C   UNL A   1      46.489  27.705  36.800  1.00  0.00     0.022 A 
BRANCH  91  94
ATOM     94  S   UNL A   1      45.043  25.999  38.381  1.00  0.00     0.127 S 
ATOM     95  O   UNL A   1      44.461  26.815  39.445  1.00  0.00    -0.237 OA
ATOM     96  O   UNL A   1      44.131  25.013  37.800  1.00  0.00    -0.237 OA
ATOM     97  O   UNL A   1      46.386  25.500  38.640  1.00  0.00    -0.744 OA
ENDBRANCH  91  94
ENDBRANCH  64  87
ENDBRANCH  38  39
ENDBRANCH  30  33
ENDBRANCH  28  29
ENDBRANCH  27  28
ENDBRANCH  26  27
ENDBRANCH  25  26
ENDBRANCH   1  25
TORSDOF 23
ENDMDL
MODEL 3
REMARK VINA RESULT:     -10.1      2.030      7.923
REMARK SMILES C[C@H](CCO)S[C@H]1CC[C@]([NH2+]C2CC2)(C(=O)NCCCCCCNC(=O)c2ccc(-c3c4nc(c(-c5cccc(S(=O)(=O)[O-])c5F)c5ccc([nH]5)c(-c5cccc(S(=O)(=O)[O-])c5F)c5nc(c(-c6cccc(S(=O)(=O)[O-])c6F)c6ccc3[nH]6)C=C5)C=C4)cc2)C1
REMARK SMILES IDX 19 1 18 2 17 3 15 4 16 5 10 7 7 8 8 9 90 10 9 11 6 12 2 13
REMARK SMILES IDX 1 14 3 15 4 16 5 17 11 19 12 22 13 23 14 24 20 25 21 26
REMARK SMILES IDX 22 27 23 28 24 29 25 30 26 32 27 33 28 34 89 35 29 36 88 37
REMARK SMILES IDX 30 38 31 39 32 40 82 41 33 42 87 43 81 44 83 45 34 46 86 47
REMARK SMILES IDX 80 48 79 49 35 51 67 52 47 53 66 54 48 55 51 56 65 57 84 58
REMARK SMILES IDX 49 59 50 60 64 62 85 63 52 64 36 65 37 66 45 67 38 68 40 69
REMARK SMILES IDX 46 70 39 71 41 72 42 73 43 74 44 75 68 76 69 77 77 78 70 79
REMARK SMILES IDX 72 80 78 81 71 82 73 83 74 84 75 85 76 86 53 87 54 88 62 89
REMARK SMILES IDX 55 90 57 91 63 92 56 93 58 94 59 95 60 96 61 97
REMARK H PARENT 17 6 5 18 11 20 11 21 24 31 83 50 51 61
REMARK Flexibility Score: inf
ROOT
ATOM      1  C   UNL A   1      33.101  23.147  22.883  1.00  0.00     0.021 C 
ENDROOT
BRANCH   1   2
ATOM      2  C   UNL A   1      32.568  24.488  23.376  1.00  0.00     0.116 C 
BRANCH   2   3
ATOM      3  N   UNL A   1      32.098  24.472  24.753  1.00  0.00    -0.351 N 
ATOM      4  C   UNL A   1      31.413  25.460  25.431  1.00  0.00     0.281 C 
ATOM      5  O   UNL A   1      30.969  25.177  26.547  1.00  0.00    -0.268 OA
ATOM      6  H   UNL A   1      32.292  23.656  25.266  1.00  0.00     0.163 HD
BRANCH   4   7
ATOM      7  C   UNL A   1      31.313  26.913  24.823  1.00  0.00     0.176 C 
ATOM      8  C   UNL A   1      29.867  27.902  23.039  1.00  0.00     0.054 C 
ATOM      9  C   UNL A   1      31.258  27.625  22.437  1.00  0.00     0.022 C 
ATOM     10  C   UNL A   1      29.876  27.001  24.270  1.00  0.00     0.093 C 
ATOM     11  C   UNL A   1      32.174  27.092  23.554  1.00  0.00     0.080 C 
BRANCH   8  12
ATOM     12  S   UNL A   1      29.659  29.709  23.256  1.00  0.00    -0.155 SA
BRANCH  12  13
ATOM     13  C   UNL A   1      27.962  30.121  22.618  1.00  0.00     0.046 C 
ATOM     14  C   UNL A   1      27.133  28.865  22.915  1.00  0.00     0.019 C 
BRANCH  13  15
ATOM     15  C   UNL A   1      27.887  30.594  21.150  1.00  0.00     0.042 C 
BRANCH  15  16
ATOM     16  C   UNL A   1      28.343  32.005  20.788  1.00  0.00     0.157 C 
BRANCH  16  17
ATOM     17  O   UNL A   1      27.277  32.773  20.264  1.00  0.00    -0.396 OA
ATOM     18  H   UNL A   1      26.449  32.520  20.705  1.00  0.00     0.210 HD
ENDBRANCH  16  17
ENDBRANCH  15  16
ENDBRANCH  13  15
ENDBRANCH  12  13
ENDBRANCH   8  12
BRANCH   7  19
ATOM     19  N   UNL A   1      31.777  27.824  25.893  1.00  0.00    -0.331 N 
ATOM     20  H   UNL A   1      31.961  27.242  26.710  1.00  0.00     0.347 HD
ATOM     21  H   UNL A   1      31.021  28.507  25.949  1.00  0.00     0.347 HD
BRANCH  19  22
ATOM     22  C   UNL A   1      32.952  28.663  25.705  1.00  0.00     0.183 C 
ATOM     23  C   UNL A   1      33.579  29.369  26.879  1.00  0.00     0.071 C 
ATOM     24  C   UNL A   1      34.251  28.171  26.296  1.00  0.00     0.071 C 
ENDBRANCH  19  22
ENDBRANCH   7  19
ENDBRANCH   4   7
ENDBRANCH   2   3
ENDBRANCH   1   2
BRANCH   1  25
ATOM     25  C   UNL A   1      34.348  22.621  23.594  1.00  0.00     0.002 C 
BRANCH  25  26
ATOM     26  C   UNL A   1      34.149  21.383  24.472  1.00  0.00     0.002 C 
BRANCH  26  27
ATOM     27  C   UNL A   1      35.178  21.174  25.586  1.00  0.00     0.021 C 
BRANCH  27  28
ATOM     28  C   UNL A   1      36.600  21.632  25.269  1.00  0.00     0.116 C 
BRANCH  28  29
ATOM     29  N   UNL A   1      37.577  20.563  25.399  1.00  0.00    -0.352 N 
ATOM     30  C   UNL A   1      38.891  20.625  25.791  1.00  0.00     0.251 C 
ATOM     31  H   UNL A   1      37.249  19.663  25.173  1.00  0.00     0.163 HD
ATOM     32  O   UNL A   1      39.607  19.627  25.686  1.00  0.00    -0.269 OA
BRANCH  30  33
ATOM     33  C   UNL A   1      39.458  21.886  26.314  1.00  0.00     0.039 A 
ATOM     34  C   UNL A   1      40.540  21.824  27.198  1.00  0.00     0.014 A 
ATOM     35  C   UNL A   1      38.928  23.125  25.942  1.00  0.00     0.014 A 
ATOM     36  C   UNL A   1      41.129  23.005  27.656  1.00  0.00     0.010 A 
ATOM     37  C   UNL A   1      39.563  24.299  26.343  1.00  0.00     0.010 A 
ATOM     38  C   UNL A   1      40.670  24.253  27.204  1.00  0.00    -0.014 A 
BRANCH  38  39
ATOM     39  C   UNL A   1      41.361  25.511  27.592  1.00  0.00     0.031 A 
ATOM     40  C   UNL A   1      40.635  26.581  28.360  1.00  0.00     0.074 A 
ATOM     41  C   UNL A   1      42.625  25.727  27.173  1.00  0.00     0.049 A 
ATOM     42  N   UNL A   1      41.066  27.755  28.745  1.00  0.00    -0.248 NA
ATOM     43  C   UNL A   1      39.234  26.310  28.723  1.00  0.00     0.031 C 
ATOM     44  C   UNL A   1      43.409  24.804  26.349  1.00  0.00     0.029 A 
ATOM     45  N   UNL A   1      43.460  26.800  27.357  1.00  0.00    -0.354 N 
ATOM     46  C   UNL A   1      39.985  28.376  29.358  1.00  0.00     0.074 A 
ATOM     47  C   UNL A   1      38.868  27.461  29.270  1.00  0.00     0.031 C 
ATOM     48  C   UNL A   1      44.609  25.351  26.098  1.00  0.00     0.029 A 
ATOM     49  C   UNL A   1      44.668  26.674  26.711  1.00  0.00     0.049 A 
ATOM     50  H   UNL A   1      43.218  27.586  27.899  1.00  0.00     0.167 HD
ATOM     51  C   UNL A   1      39.932  29.589  29.960  1.00  0.00     0.034 A 
ATOM     52  C   UNL A   1      45.703  27.531  26.607  1.00  0.00     0.034 A 
ATOM     53  C   UNL A   1      41.053  30.483  30.075  1.00  0.00     0.049 A 
ATOM     54  C   UNL A   1      45.633  28.855  27.316  1.00  0.00     0.074 A 
ATOM     55  C   UNL A   1      41.127  31.686  30.755  1.00  0.00     0.029 A 
ATOM     56  N   UNL A   1      42.289  30.287  29.478  1.00  0.00    -0.354 N 
ATOM     57  N   UNL A   1      44.660  29.350  28.042  1.00  0.00    -0.248 NA
ATOM     58  C   UNL A   1      46.814  29.724  27.222  1.00  0.00     0.031 C 
ATOM     59  C   UNL A   1      42.395  32.235  30.537  1.00  0.00     0.029 A 
ATOM     60  C   UNL A   1      43.124  31.356  29.754  1.00  0.00     0.049 A 
ATOM     61  H   UNL A   1      42.536  29.502  28.937  1.00  0.00     0.167 HD
ATOM     62  C   UNL A   1      45.121  30.574  28.515  1.00  0.00     0.074 A 
ATOM     63  C   UNL A   1      46.471  30.732  28.014  1.00  0.00     0.031 C 
ATOM     64  C   UNL A   1      44.480  31.489  29.282  1.00  0.00     0.034 A 
BRANCH  51  65
ATOM     65  C   UNL A   1      38.622  30.010  30.576  1.00  0.00     0.023 A 
ATOM     66  C   UNL A   1      38.251  29.515  31.843  1.00  0.00     0.012 A 
ATOM     67  C   UNL A   1      37.788  30.944  29.929  1.00  0.00     0.148 A 
ATOM     68  C   UNL A   1      37.055  29.911  32.440  1.00  0.00     0.002 A 
ATOM     69  C   UNL A   1      36.620  31.371  30.552  1.00  0.00     0.091 A 
ATOM     70  F   UNL A   1      38.145  31.390  28.717  1.00  0.00    -0.205 F 
ATOM     71  C   UNL A   1      36.246  30.845  31.800  1.00  0.00     0.022 A 
BRANCH  69  72
ATOM     72  S   UNL A   1      35.553  32.632  29.849  1.00  0.00     0.127 S 
ATOM     73  O   UNL A   1      34.847  31.878  28.814  1.00  0.00    -0.237 OA
ATOM     74  O   UNL A   1      34.728  33.012  30.997  1.00  0.00    -0.237 OA
ATOM     75  O   UNL A   1      36.437  33.682  29.363  1.00  0.00    -0.744 OA
ENDBRANCH  69  72
ENDBRANCH  51  65
BRANCH  52  76
ATOM     76  C   UNL A   1      46.914  27.139  25.831  1.00  0.00     0.023 A 
ATOM     77  C   UNL A   1      47.858  26.267  26.405  1.00  0.00     0.012 A 
ATOM     78  C   UNL A   1      47.113  27.598  24.514  1.00  0.00     0.148 A 
ATOM     79  C   UNL A   1      48.996  25.882  25.693  1.00  0.00     0.002 A 
ATOM     80  C   UNL A   1      48.216  27.165  23.790  1.00  0.00     0.091 A 
ATOM     81  F   UNL A   1      46.207  28.435  23.992  1.00  0.00    -0.205 F 
ATOM     82  C   UNL A   1      49.169  26.322  24.383  1.00  0.00     0.022 A 
BRANCH  80  83
ATOM     83  S   UNL A   1      48.447  27.568  22.055  1.00  0.00     0.127 S 
ATOM     84  O   UNL A   1      49.569  28.502  22.112  1.00  0.00    -0.237 OA
ATOM     85  O   UNL A   1      48.764  26.259  21.482  1.00  0.00    -0.237 OA
ATOM     86  O   UNL A   1      47.180  28.128  21.607  1.00  0.00    -0.744 OA
ENDBRANCH  80  83
ENDBRANCH  52  76
BRANCH  64  87
ATOM     87  C   UNL A   1      45.233  32.739  29.659  1.00  0.00     0.023 A 
ATOM     88  C   UNL A   1      46.047  32.749  30.810  1.00  0.00     0.012 A 
ATOM     89  C   UNL A   1      45.189  33.879  28.834  1.00  0.00     0.148 A 
ATOM     90  C   UNL A   1      46.776  33.888  31.152  1.00  0.00     0.002 A 
ATOM     91  C   UNL A   1      45.960  34.991  29.152  1.00  0.00     0.091 A 
ATOM     92  F   UNL A   1      44.397  33.856  27.752  1.00  0.00    -0.205 F 
ATOM     93  C   UNL A   1      46.742  35.003  30.318  1.00  0.00     0.022 A 
BRANCH  91  94
ATOM     94  S   UNL A   1      46.055  36.435  28.088  1.00  0.00     0.127 S 
ATOM     95  O   UNL A   1      46.537  35.852  26.837  1.00  0.00    -0.237 OA
ATOM     96  O   UNL A   1      44.663  36.887  28.054  1.00  0.00    -0.237 OA
ATOM     97  O   UNL A   1      46.974  37.358  28.740  1.00  0.00    -0.744 OA
ENDBRANCH  91  94
ENDBRANCH  64  87
ENDBRANCH  38  39
ENDBRANCH  30  33
ENDBRANCH  28  29
ENDBRANCH  27  28
ENDBRANCH  26  27
ENDBRANCH  25  26
ENDBRANCH   1  25
TORSDOF 23
ENDMDL
