MODEL 1
REMARK VINA RESULT:     -10.8      0.000      0.000
REMARK SMILES O=C(CSCc1ccc(C(=O)NCCCCCCNC(=O)c2ccc(-c3c4nc(c(-c5cccc(S(=O)(=O)[O-])c5F)c5ccc([nH]5)c(-c5cccc(S(=O)(=O)[O-])c5F)c5nc(c(-c6cccc(S(=O)(=O)[O-])c6F)c6ccc3[nH]6)C=C5)C=C4)cc2)cc1)Nc1ccc(Cl)cc1
REMARK SMILES IDX 14 1 13 2 12 3 10 4 11 5 9 7 6 8 7 9 86 10 8 11 85 12 5 13
REMARK SMILES IDX 4 14 3 15 2 16 1 17 87 18 88 20 89 21 94 22 90 23 93 24
REMARK SMILES IDX 91 25 92 26 15 27 16 28 17 29 18 30 19 31 20 32 21 34 22 35
REMARK SMILES IDX 23 36 84 37 24 38 83 39 25 40 26 41 27 42 77 43 28 44 82 45
REMARK SMILES IDX 76 46 78 47 29 48 81 49 75 50 74 51 30 53 62 54 42 55 61 56
REMARK SMILES IDX 43 57 46 58 60 59 79 60 44 61 45 62 59 64 80 65 47 66 31 67
REMARK SMILES IDX 32 68 40 69 33 70 35 71 41 72 34 73 36 74 37 75 38 76 39 77
REMARK SMILES IDX 63 78 64 79 72 80 65 81 67 82 73 83 66 84 68 85 69 86 70 87
REMARK SMILES IDX 71 88 48 89 49 90 57 91 50 92 52 93 58 94 51 95 53 96 54 97
REMARK SMILES IDX 55 98 56 99
REMARK H PARENT 12 6 87 19 19 33 78 52 46 63
REMARK Flexibility Score: inf
ROOT
ATOM      1  C   UNL A   1      40.274  22.824  27.488  1.00  0.00     0.021 C 
ENDROOT
BRANCH   1   2
ATOM      2  C   UNL A   1      39.379  23.085  26.274  1.00  0.00     0.116 C 
BRANCH   2   3
ATOM      3  N   UNL A   1      38.929  21.823  25.710  1.00  0.00    -0.352 N 
ATOM      4  C   UNL A   1      37.741  21.456  25.133  1.00  0.00     0.251 C 
ATOM      5  O   UNL A   1      37.626  20.306  24.709  1.00  0.00    -0.269 OA
ATOM      6  H   UNL A   1      39.599  21.103  25.748  1.00  0.00     0.163 HD
BRANCH   4   7
ATOM      7  C   UNL A   1      36.620  22.414  24.941  1.00  0.00     0.039 A 
ATOM      8  C   UNL A   1      34.594  24.307  24.416  1.00  0.00    -0.038 A 
ATOM      9  C   UNL A   1      35.240  23.647  23.362  1.00  0.00     0.005 A 
ATOM     10  C   UNL A   1      34.932  23.962  25.730  1.00  0.00     0.005 A 
ATOM     11  C   UNL A   1      36.242  22.706  23.624  1.00  0.00     0.014 A 
ATOM     12  C   UNL A   1      35.918  23.007  25.991  1.00  0.00     0.014 A 
BRANCH   8  13
ATOM     13  C   UNL A   1      33.531  25.341  24.155  1.00  0.00     0.105 C 
BRANCH  13  14
ATOM     14  S   UNL A   1      32.021  24.710  23.354  1.00  0.00    -0.147 SA
BRANCH  14  15
ATOM     15  C   UNL A   1      31.143  23.947  24.765  1.00  0.00     0.170 C 
BRANCH  15  16
ATOM     16  C   UNL A   1      31.455  22.472  24.963  1.00  0.00     0.234 C 
ATOM     17  O   UNL A   1      30.891  21.833  25.849  1.00  0.00    -0.274 OA
ATOM     18  N   UNL A   1      32.382  21.962  24.070  1.00  0.00    -0.325 N 
ATOM     19  H   UNL A   1      32.846  22.610  23.493  1.00  0.00     0.169 HD
BRANCH  18  20
ATOM     20  C   UNL A   1      32.725  20.605  23.908  1.00  0.00     0.041 A 
ATOM     21  C   UNL A   1      33.778  20.100  24.680  1.00  0.00     0.027 A 
ATOM     22  C   UNL A   1      32.083  19.756  23.000  1.00  0.00     0.027 A 
ATOM     23  C   UNL A   1      34.155  18.757  24.575  1.00  0.00     0.022 A 
ATOM     24  C   UNL A   1      32.474  18.418  22.878  1.00  0.00     0.022 A 
ATOM     25  C   UNL A   1      33.500  17.921  23.673  1.00  0.00     0.041 A 
ATOM     26  Cl  UNL A   1      33.969  16.270  23.546  1.00  0.00    -0.084 Cl
ENDBRANCH  18  20
ENDBRANCH  15  16
ENDBRANCH  14  15
ENDBRANCH  13  14
ENDBRANCH   8  13
ENDBRANCH   4   7
ENDBRANCH   2   3
ENDBRANCH   1   2
BRANCH   1  27
ATOM     27  C   UNL A   1      40.658  21.346  27.648  1.00  0.00     0.002 C 
BRANCH  27  28
ATOM     28  C   UNL A   1      42.043  20.982  27.097  1.00  0.00     0.002 C 
BRANCH  28  29
ATOM     29  C   UNL A   1      42.068  19.754  26.182  1.00  0.00     0.021 C 
BRANCH  29  30
ATOM     30  C   UNL A   1      43.357  18.942  26.263  1.00  0.00     0.116 C 
BRANCH  30  31
ATOM     31  N   UNL A   1      44.012  18.848  24.966  1.00  0.00    -0.352 N 
ATOM     32  C   UNL A   1      44.487  19.855  24.162  1.00  0.00     0.251 C 
ATOM     33  H   UNL A   1      44.132  17.936  24.617  1.00  0.00     0.163 HD
ATOM     34  O   UNL A   1      44.793  19.619  22.998  1.00  0.00    -0.269 OA
BRANCH  32  35
ATOM     35  C   UNL A   1      44.620  21.223  24.705  1.00  0.00     0.039 A 
ATOM     36  C   UNL A   1      45.423  21.434  25.828  1.00  0.00     0.014 A 
ATOM     37  C   UNL A   1      43.943  22.292  24.112  1.00  0.00     0.014 A 
ATOM     38  C   UNL A   1      45.586  22.728  26.326  1.00  0.00     0.010 A 
ATOM     39  C   UNL A   1      44.169  23.589  24.561  1.00  0.00     0.010 A 
ATOM     40  C   UNL A   1      44.981  23.820  25.681  1.00  0.00    -0.014 A 
BRANCH  40  41
ATOM     41  C   UNL A   1      45.192  25.209  26.162  1.00  0.00     0.031 A 
ATOM     42  C   UNL A   1      46.576  25.797  26.200  1.00  0.00     0.074 A 
ATOM     43  C   UNL A   1      44.146  25.913  26.636  1.00  0.00     0.049 A 
ATOM     44  N   UNL A   1      46.960  26.975  26.621  1.00  0.00    -0.248 NA
ATOM     45  C   UNL A   1      47.680  24.943  25.729  1.00  0.00     0.031 C 
ATOM     46  C   UNL A   1      42.768  25.424  26.729  1.00  0.00     0.029 A 
ATOM     47  N   UNL A   1      44.080  27.183  27.155  1.00  0.00    -0.354 N 
ATOM     48  C   UNL A   1      48.345  26.989  26.501  1.00  0.00     0.074 A 
ATOM     49  C   UNL A   1      48.740  25.690  26.002  1.00  0.00     0.031 C 
ATOM     50  C   UNL A   1      41.995  26.382  27.262  1.00  0.00     0.029 A 
ATOM     51  C   UNL A   1      42.822  27.541  27.580  1.00  0.00     0.049 A 
ATOM     52  H   UNL A   1      44.861  27.779  27.217  1.00  0.00     0.167 HD
ATOM     53  C   UNL A   1      49.209  28.001  26.753  1.00  0.00     0.034 A 
ATOM     54  C   UNL A   1      42.386  28.673  28.166  1.00  0.00     0.034 A 
ATOM     55  C   UNL A   1      48.807  29.304  27.213  1.00  0.00     0.049 A 
ATOM     56  C   UNL A   1      43.360  29.796  28.402  1.00  0.00     0.074 A 
ATOM     57  C   UNL A   1      49.593  30.425  27.412  1.00  0.00     0.029 A 
ATOM     58  N   UNL A   1      47.512  29.658  27.556  1.00  0.00    -0.354 N 
ATOM     59  N   UNL A   1      44.641  29.847  28.128  1.00  0.00    -0.248 NA
ATOM     60  C   UNL A   1      42.821  31.030  28.991  1.00  0.00     0.031 C 
ATOM     61  C   UNL A   1      48.777  31.448  27.906  1.00  0.00     0.029 A 
ATOM     62  C   UNL A   1      47.477  30.975  27.978  1.00  0.00     0.049 A 
ATOM     63  H   UNL A   1      46.731  29.060  27.505  1.00  0.00     0.167 HD
ATOM     64  C   UNL A   1      45.054  31.129  28.476  1.00  0.00     0.074 A 
ATOM     65  C   UNL A   1      43.880  31.827  28.960  1.00  0.00     0.031 C 
ATOM     66  C   UNL A   1      46.293  31.674  28.411  1.00  0.00     0.034 A 
BRANCH  53  67
ATOM     67  C   UNL A   1      50.673  27.756  26.493  1.00  0.00     0.023 A 
ATOM     68  C   UNL A   1      51.522  27.404  27.563  1.00  0.00     0.012 A 
ATOM     69  C   UNL A   1      51.198  27.818  25.188  1.00  0.00     0.148 A 
ATOM     70  C   UNL A   1      52.877  27.155  27.345  1.00  0.00     0.002 A 
ATOM     71  C   UNL A   1      52.539  27.521  24.971  1.00  0.00     0.091 A 
ATOM     72  F   UNL A   1      50.382  28.174  24.186  1.00  0.00    -0.205 F 
ATOM     73  C   UNL A   1      53.382  27.204  26.048  1.00  0.00     0.022 A 
BRANCH  71  74
ATOM     74  S   UNL A   1      53.269  27.474  23.330  1.00  0.00     0.127 S 
ATOM     75  O   UNL A   1      54.105  28.673  23.344  1.00  0.00    -0.237 OA
ATOM     76  O   UNL A   1      54.012  26.214  23.362  1.00  0.00    -0.237 OA
ATOM     77  O   UNL A   1      52.155  27.499  22.393  1.00  0.00    -0.744 OA
ENDBRANCH  71  74
ENDBRANCH  53  67
BRANCH  54  78
ATOM     78  C   UNL A   1      40.944  28.823  28.514  1.00  0.00     0.023 A 
ATOM     79  C   UNL A   1      40.007  29.067  27.491  1.00  0.00     0.012 A 
ATOM     80  C   UNL A   1      40.495  28.702  29.844  1.00  0.00     0.148 A 
ATOM     81  C   UNL A   1      38.652  29.222  27.789  1.00  0.00     0.002 A 
ATOM     82  C   UNL A   1      39.137  28.801  30.127  1.00  0.00     0.091 A 
ATOM     83  F   UNL A   1      41.404  28.479  30.803  1.00  0.00    -0.205 F 
ATOM     84  C   UNL A   1      38.217  29.080  29.104  1.00  0.00     0.022 A 
BRANCH  82  85
ATOM     85  S   UNL A   1      38.471  28.504  31.768  1.00  0.00     0.127 S 
ATOM     86  O   UNL A   1      37.092  28.960  31.619  1.00  0.00    -0.237 OA
ATOM     87  O   UNL A   1      38.629  27.055  31.899  1.00  0.00    -0.237 OA
ATOM     88  O   UNL A   1      39.300  29.282  32.677  1.00  0.00    -0.744 OA
ENDBRANCH  82  85
ENDBRANCH  54  78
BRANCH  66  89
ATOM     89  C   UNL A   1      46.449  33.111  28.835  1.00  0.00     0.023 A 
ATOM     90  C   UNL A   1      46.876  33.419  30.142  1.00  0.00     0.012 A 
ATOM     91  C   UNL A   1      46.243  34.156  27.912  1.00  0.00     0.148 A 
ATOM     92  C   UNL A   1      47.062  34.743  30.534  1.00  0.00     0.002 A 
ATOM     93  C   UNL A   1      46.481  35.470  28.293  1.00  0.00     0.091 A 
ATOM     94  F   UNL A   1      45.819  33.844  26.678  1.00  0.00    -0.205 F 
ATOM     95  C   UNL A   1      46.877  35.767  29.607  1.00  0.00     0.022 A 
BRANCH  93  96
ATOM     96  S   UNL A   1      46.366  36.843  27.141  1.00  0.00     0.127 S 
ATOM     97  O   UNL A   1      46.852  37.956  27.955  1.00  0.00    -0.237 OA
ATOM     98  O   UNL A   1      47.275  36.428  26.072  1.00  0.00    -0.237 OA
ATOM     99  O   UNL A   1      44.966  36.923  26.747  1.00  0.00    -0.744 OA
ENDBRANCH  93  96
ENDBRANCH  66  89
ENDBRANCH  40  41
ENDBRANCH  32  35
ENDBRANCH  30  31
ENDBRANCH  29  30
ENDBRANCH  28  29
ENDBRANCH  27  28
ENDBRANCH   1  27
TORSDOF 21
ENDMDL
MODEL 2
REMARK VINA RESULT:     -10.5      2.680      3.877
REMARK SMILES O=C(CSCc1ccc(C(=O)NCCCCCCNC(=O)c2ccc(-c3c4nc(c(-c5cccc(S(=O)(=O)[O-])c5F)c5ccc([nH]5)c(-c5cccc(S(=O)(=O)[O-])c5F)c5nc(c(-c6cccc(S(=O)(=O)[O-])c6F)c6ccc3[nH]6)C=C5)C=C4)cc2)cc1)Nc1ccc(Cl)cc1
REMARK SMILES IDX 14 1 13 2 12 3 10 4 11 5 9 7 6 8 7 9 86 10 8 11 85 12 5 13
REMARK SMILES IDX 4 14 3 15 2 16 1 17 87 18 88 20 89 21 94 22 90 23 93 24
REMARK SMILES IDX 91 25 92 26 15 27 16 28 17 29 18 30 19 31 20 32 21 34 22 35
REMARK SMILES IDX 23 36 84 37 24 38 83 39 25 40 26 41 27 42 77 43 28 44 82 45
REMARK SMILES IDX 76 46 78 47 29 48 81 49 75 50 74 51 30 53 62 54 42 55 61 56
REMARK SMILES IDX 43 57 46 58 60 59 79 60 44 61 45 62 59 64 80 65 47 66 31 67
REMARK SMILES IDX 32 68 40 69 33 70 35 71 41 72 34 73 36 74 37 75 38 76 39 77
REMARK SMILES IDX 63 78 64 79 72 80 65 81 67 82 73 83 66 84 68 85 69 86 70 87
REMARK SMILES IDX 71 88 48 89 49 90 57 91 50 92 52 93 58 94 51 95 53 96 54 97
REMARK SMILES IDX 55 98 56 99
REMARK H PARENT 12 6 87 19 19 33 78 52 46 63
REMARK Flexibility Score: inf
ROOT
ATOM      1  C   UNL A   1      39.534  23.747  26.818  1.00  0.00     0.021 C 
ENDROOT
BRANCH   1   2
ATOM      2  C   UNL A   1      38.123  23.813  26.228  1.00  0.00     0.116 C 
BRANCH   2   3
ATOM      3  N   UNL A   1      37.615  22.469  26.009  1.00  0.00    -0.352 N 
ATOM      4  C   UNL A   1      36.422  22.018  25.508  1.00  0.00     0.251 C 
ATOM      5  O   UNL A   1      36.251  20.803  25.407  1.00  0.00    -0.269 OA
ATOM      6  H   UNL A   1      38.240  21.755  26.268  1.00  0.00     0.163 HD
BRANCH   4   7
ATOM      7  C   UNL A   1      35.364  22.941  25.019  1.00  0.00     0.039 A 
ATOM      8  C   UNL A   1      33.458  24.707  23.916  1.00  0.00    -0.038 A 
ATOM      9  C   UNL A   1      34.040  23.706  23.127  1.00  0.00     0.005 A 
ATOM     10  C   UNL A   1      33.797  24.771  25.273  1.00  0.00     0.005 A 
ATOM     11  C   UNL A   1      34.982  22.829  23.676  1.00  0.00     0.014 A 
ATOM     12  C   UNL A   1      34.722  23.882  25.825  1.00  0.00     0.014 A 
BRANCH   8  13
ATOM     13  C   UNL A   1      32.462  25.676  23.339  1.00  0.00     0.105 C 
BRANCH  13  14
ATOM     14  S   UNL A   1      30.714  25.267  23.654  1.00  0.00    -0.147 SA
BRANCH  14  15
ATOM     15  C   UNL A   1      30.051  26.877  24.209  1.00  0.00     0.170 C 
BRANCH  15  16
ATOM     16  C   UNL A   1      31.120  27.919  24.502  1.00  0.00     0.234 C 
ATOM     17  O   UNL A   1      31.302  28.853  23.725  1.00  0.00    -0.274 OA
ATOM     18  N   UNL A   1      31.809  27.710  25.683  1.00  0.00    -0.325 N 
ATOM     19  H   UNL A   1      31.648  26.857  26.148  1.00  0.00     0.169 HD
BRANCH  18  20
ATOM     20  C   UNL A   1      32.720  28.600  26.286  1.00  0.00     0.041 A 
ATOM     21  C   UNL A   1      32.267  29.888  26.596  1.00  0.00     0.027 A 
ATOM     22  C   UNL A   1      34.051  28.266  26.561  1.00  0.00     0.027 A 
ATOM     23  C   UNL A   1      33.120  30.813  27.209  1.00  0.00     0.022 A 
ATOM     24  C   UNL A   1      34.911  29.197  27.153  1.00  0.00     0.022 A 
ATOM     25  C   UNL A   1      34.439  30.462  27.486  1.00  0.00     0.041 A 
ATOM     26  Cl  UNL A   1      35.485  31.603  28.238  1.00  0.00    -0.084 Cl
ENDBRANCH  18  20
ENDBRANCH  15  16
ENDBRANCH  14  15
ENDBRANCH  13  14
ENDBRANCH   8  13
ENDBRANCH   4   7
ENDBRANCH   2   3
ENDBRANCH   1   2
BRANCH   1  27
ATOM     27  C   UNL A   1      39.982  22.318  27.153  1.00  0.00     0.002 C 
BRANCH  27  28
ATOM     28  C   UNL A   1      41.284  21.880  26.471  1.00  0.00     0.002 C 
BRANCH  28  29
ATOM     29  C   UNL A   1      41.341  20.399  26.084  1.00  0.00     0.021 C 
BRANCH  29  30
ATOM     30  C   UNL A   1      42.600  19.678  26.554  1.00  0.00     0.116 C 
BRANCH  30  31
ATOM     31  N   UNL A   1      43.462  19.324  25.437  1.00  0.00    -0.352 N 
ATOM     32  C   UNL A   1      44.240  20.139  24.652  1.00  0.00     0.251 C 
ATOM     33  H   UNL A   1      43.493  18.366  25.212  1.00  0.00     0.163 HD
ATOM     34  O   UNL A   1      44.716  19.712  23.605  1.00  0.00    -0.269 OA
BRANCH  32  35
ATOM     35  C   UNL A   1      44.494  21.533  25.072  1.00  0.00     0.039 A 
ATOM     36  C   UNL A   1      44.030  22.580  24.272  1.00  0.00     0.014 A 
ATOM     37  C   UNL A   1      45.199  21.803  26.248  1.00  0.00     0.014 A 
ATOM     38  C   UNL A   1      44.232  23.900  24.679  1.00  0.00     0.010 A 
ATOM     39  C   UNL A   1      45.330  23.116  26.691  1.00  0.00     0.010 A 
ATOM     40  C   UNL A   1      44.860  24.179  25.905  1.00  0.00    -0.014 A 
BRANCH  40  41
ATOM     41  C   UNL A   1      45.030  25.574  26.381  1.00  0.00     0.031 A 
ATOM     42  C   UNL A   1      46.389  26.222  26.363  1.00  0.00     0.074 A 
ATOM     43  C   UNL A   1      43.976  26.231  26.903  1.00  0.00     0.049 A 
ATOM     44  N   UNL A   1      46.739  27.415  26.772  1.00  0.00    -0.248 NA
ATOM     45  C   UNL A   1      47.507  25.417  25.843  1.00  0.00     0.031 C 
ATOM     46  C   UNL A   1      42.626  25.682  27.052  1.00  0.00     0.029 A 
ATOM     47  N   UNL A   1      43.878  27.496  27.429  1.00  0.00    -0.354 N 
ATOM     48  C   UNL A   1      48.115  27.489  26.594  1.00  0.00     0.074 A 
ATOM     49  C   UNL A   1      48.544  26.210  26.073  1.00  0.00     0.031 C 
ATOM     50  C   UNL A   1      41.836  26.605  27.621  1.00  0.00     0.029 A 
ATOM     51  C   UNL A   1      42.625  27.798  27.908  1.00  0.00     0.049 A 
ATOM     52  H   UNL A   1      44.634  28.126  27.460  1.00  0.00     0.167 HD
ATOM     53  C   UNL A   1      48.944  28.537  26.813  1.00  0.00     0.034 A 
ATOM     54  C   UNL A   1      42.165  28.909  28.517  1.00  0.00     0.034 A 
ATOM     55  C   UNL A   1      48.506  29.820  27.294  1.00  0.00     0.049 A 
ATOM     56  C   UNL A   1      43.098  30.073  28.715  1.00  0.00     0.074 A 
ATOM     57  C   UNL A   1      49.251  30.974  27.464  1.00  0.00     0.029 A 
ATOM     58  N   UNL A   1      47.212  30.117  27.693  1.00  0.00    -0.354 N 
ATOM     59  N   UNL A   1      44.363  30.180  28.387  1.00  0.00    -0.248 NA
ATOM     60  C   UNL A   1      42.532  31.281  29.331  1.00  0.00     0.031 C 
ATOM     61  C   UNL A   1      48.413  31.960  27.996  1.00  0.00     0.029 A 
ATOM     62  C   UNL A   1      47.138  31.431  28.121  1.00  0.00     0.049 A 
ATOM     63  H   UNL A   1      46.457  29.486  27.673  1.00  0.00     0.167 HD
ATOM     64  C   UNL A   1      44.734  31.478  28.722  1.00  0.00     0.074 A 
ATOM     65  C   UNL A   1      43.553  32.124  29.259  1.00  0.00     0.031 C 
ATOM     66  C   UNL A   1      45.945  32.076  28.607  1.00  0.00     0.034 A 
BRANCH  53  67
ATOM     67  C   UNL A   1      50.405  28.357  26.490  1.00  0.00     0.023 A 
ATOM     68  C   UNL A   1      50.860  28.576  25.173  1.00  0.00     0.012 A 
ATOM     69  C   UNL A   1      51.335  28.027  27.494  1.00  0.00     0.148 A 
ATOM     70  C   UNL A   1      52.210  28.432  24.853  1.00  0.00     0.002 A 
ATOM     71  C   UNL A   1      52.686  27.934  27.179  1.00  0.00     0.091 A 
ATOM     72  F   UNL A   1      50.883  27.804  28.737  1.00  0.00    -0.205 F 
ATOM     73  C   UNL A   1      53.123  28.122  25.858  1.00  0.00     0.022 A 
BRANCH  71  74
ATOM     74  S   UNL A   1      53.952  27.621  28.414  1.00  0.00     0.127 S 
ATOM     75  O   UNL A   1      53.584  26.286  28.882  1.00  0.00    -0.237 OA
ATOM     76  O   UNL A   1      55.177  27.670  27.616  1.00  0.00    -0.237 OA
ATOM     77  O   UNL A   1      53.826  28.686  29.399  1.00  0.00    -0.744 OA
ENDBRANCH  71  74
ENDBRANCH  53  67
BRANCH  54  78
ATOM     78  C   UNL A   1      40.734  28.996  28.926  1.00  0.00     0.023 A 
ATOM     79  C   UNL A   1      39.740  29.150  27.940  1.00  0.00     0.012 A 
ATOM     80  C   UNL A   1      40.352  28.902  30.278  1.00  0.00     0.148 A 
ATOM     81  C   UNL A   1      38.394  29.244  28.295  1.00  0.00     0.002 A 
ATOM     82  C   UNL A   1      39.005  28.940  30.621  1.00  0.00     0.091 A 
ATOM     83  F   UNL A   1      41.313  28.764  31.201  1.00  0.00    -0.205 F 
ATOM     84  C   UNL A   1      38.026  29.130  29.633  1.00  0.00     0.022 A 
BRANCH  82  85
ATOM     85  S   UNL A   1      38.430  28.670  32.301  1.00  0.00     0.127 S 
ATOM     86  O   UNL A   1      38.864  27.299  32.551  1.00  0.00    -0.237 OA
ATOM     87  O   UNL A   1      39.169  29.695  33.039  1.00  0.00    -0.237 OA
ATOM     88  O   UNL A   1      36.989  28.881  32.263  1.00  0.00    -0.744 OA
ENDBRANCH  82  85
ENDBRANCH  54  78
BRANCH  66  89
ATOM     89  C   UNL A   1      46.056  33.519  29.029  1.00  0.00     0.023 A 
ATOM     90  C   UNL A   1      46.460  33.840  30.341  1.00  0.00     0.012 A 
ATOM     91  C   UNL A   1      45.832  34.555  28.101  1.00  0.00     0.148 A 
ATOM     92  C   UNL A   1      46.604  35.170  30.731  1.00  0.00     0.002 A 
ATOM     93  C   UNL A   1      46.030  35.876  28.482  1.00  0.00     0.091 A 
ATOM     94  F   UNL A   1      45.431  34.230  26.864  1.00  0.00    -0.205 F 
ATOM     95  C   UNL A   1      46.402  36.186  29.800  1.00  0.00     0.022 A 
BRANCH  93  96
ATOM     96  S   UNL A   1      45.890  37.244  27.326  1.00  0.00     0.127 S 
ATOM     97  O   UNL A   1      44.451  37.264  27.063  1.00  0.00    -0.237 OA
ATOM     98  O   UNL A   1      46.381  38.371  28.119  1.00  0.00    -0.237 OA
ATOM     99  O   UNL A   1      46.728  36.895  26.187  1.00  0.00    -0.744 OA
ENDBRANCH  93  96
ENDBRANCH  66  89
ENDBRANCH  40  41
ENDBRANCH  32  35
ENDBRANCH  30  31
ENDBRANCH  29  30
ENDBRANCH  28  29
ENDBRANCH  27  28
ENDBRANCH   1  27
TORSDOF 21
ENDMDL
MODEL 3
REMARK VINA RESULT:     -10.5      6.235     10.848
REMARK SMILES O=C(CSCc1ccc(C(=O)NCCCCCCNC(=O)c2ccc(-c3c4nc(c(-c5cccc(S(=O)(=O)[O-])c5F)c5ccc([nH]5)c(-c5cccc(S(=O)(=O)[O-])c5F)c5nc(c(-c6cccc(S(=O)(=O)[O-])c6F)c6ccc3[nH]6)C=C5)C=C4)cc2)cc1)Nc1ccc(Cl)cc1
REMARK SMILES IDX 14 1 13 2 12 3 10 4 11 5 9 7 6 8 7 9 86 10 8 11 85 12 5 13
REMARK SMILES IDX 4 14 3 15 2 16 1 17 87 18 88 20 89 21 94 22 90 23 93 24
REMARK SMILES IDX 91 25 92 26 15 27 16 28 17 29 18 30 19 31 20 32 21 34 22 35
REMARK SMILES IDX 23 36 84 37 24 38 83 39 25 40 26 41 27 42 77 43 28 44 82 45
REMARK SMILES IDX 76 46 78 47 29 48 81 49 75 50 74 51 30 53 62 54 42 55 61 56
REMARK SMILES IDX 43 57 46 58 60 59 79 60 44 61 45 62 59 64 80 65 47 66 31 67
REMARK SMILES IDX 32 68 40 69 33 70 35 71 41 72 34 73 36 74 37 75 38 76 39 77
REMARK SMILES IDX 63 78 64 79 72 80 65 81 67 82 73 83 66 84 68 85 69 86 70 87
REMARK SMILES IDX 71 88 48 89 49 90 57 91 50 92 52 93 58 94 51 95 53 96 54 97
REMARK SMILES IDX 55 98 56 99
REMARK H PARENT 12 6 87 19 19 33 78 52 46 63
REMARK Flexibility Score: inf
ROOT
ATOM      1  C   UNL A   1      31.413  27.299  26.702  1.00  0.00     0.021 C 
ENDROOT
BRANCH   1   2
ATOM      2  C   UNL A   1      30.973  26.177  25.759  1.00  0.00     0.116 C 
BRANCH   2   3
ATOM      3  N   UNL A   1      30.146  25.222  26.478  1.00  0.00    -0.352 N 
ATOM      4  C   UNL A   1      30.321  23.890  26.748  1.00  0.00     0.251 C 
ATOM      5  O   UNL A   1      29.461  23.308  27.408  1.00  0.00    -0.269 OA
ATOM      6  H   UNL A   1      29.311  25.600  26.834  1.00  0.00     0.163 HD
BRANCH   4   7
ATOM      7  C   UNL A   1      31.540  23.147  26.334  1.00  0.00     0.039 A 
ATOM      8  C   UNL A   1      33.965  21.897  25.607  1.00  0.00    -0.038 A 
ATOM      9  C   UNL A   1      33.882  22.660  26.780  1.00  0.00     0.005 A 
ATOM     10  C   UNL A   1      32.807  21.719  24.841  1.00  0.00     0.005 A 
ATOM     11  C   UNL A   1      32.679  23.276  27.141  1.00  0.00     0.014 A 
ATOM     12  C   UNL A   1      31.600  22.317  25.213  1.00  0.00     0.014 A 
BRANCH   8  13
ATOM     13  C   UNL A   1      35.256  21.247  25.189  1.00  0.00     0.105 C 
BRANCH  13  14
ATOM     14  S   UNL A   1      36.641  22.395  24.899  1.00  0.00    -0.147 SA
BRANCH  14  15
ATOM     15  C   UNL A   1      38.061  21.429  25.527  1.00  0.00     0.170 C 
BRANCH  15  16
ATOM     16  C   UNL A   1      39.214  22.283  26.032  1.00  0.00     0.234 C 
ATOM     17  O   UNL A   1      39.039  23.473  26.283  1.00  0.00    -0.274 OA
ATOM     18  N   UNL A   1      40.406  21.597  26.182  1.00  0.00    -0.325 N 
ATOM     19  H   UNL A   1      40.439  20.679  25.829  1.00  0.00     0.169 HD
BRANCH  18  20
ATOM     20  C   UNL A   1      41.579  22.086  26.792  1.00  0.00     0.041 A 
ATOM     21  C   UNL A   1      42.623  22.506  25.959  1.00  0.00     0.027 A 
ATOM     22  C   UNL A   1      41.754  22.144  28.179  1.00  0.00     0.027 A 
ATOM     23  C   UNL A   1      43.806  23.015  26.506  1.00  0.00     0.022 A 
ATOM     24  C   UNL A   1      42.945  22.632  28.727  1.00  0.00     0.022 A 
ATOM     25  C   UNL A   1      43.962  23.076  27.888  1.00  0.00     0.041 A 
ATOM     26  Cl  UNL A   1      45.419  23.701  28.556  1.00  0.00    -0.084 Cl
ENDBRANCH  18  20
ENDBRANCH  15  16
ENDBRANCH  14  15
ENDBRANCH  13  14
ENDBRANCH   8  13
ENDBRANCH   4   7
ENDBRANCH   2   3
ENDBRANCH   1   2
BRANCH   1  27
ATOM     27  C   UNL A   1      31.517  28.665  26.010  1.00  0.00     0.002 C 
BRANCH  27  28
ATOM     28  C   UNL A   1      32.721  29.511  26.440  1.00  0.00     0.002 C 
BRANCH  28  29
ATOM     29  C   UNL A   1      32.366  30.852  27.088  1.00  0.00     0.021 C 
BRANCH  29  30
ATOM     30  C   UNL A   1      33.456  31.913  26.967  1.00  0.00     0.116 C 
BRANCH  30  31
ATOM     31  N   UNL A   1      32.988  33.214  27.422  1.00  0.00    -0.352 N 
ATOM     32  C   UNL A   1      33.339  33.914  28.550  1.00  0.00     0.251 C 
ATOM     33  H   UNL A   1      32.329  33.655  26.838  1.00  0.00     0.163 HD
ATOM     34  O   UNL A   1      32.675  34.882  28.904  1.00  0.00    -0.269 OA
BRANCH  32  35
ATOM     35  C   UNL A   1      34.515  33.489  29.337  1.00  0.00     0.039 A 
ATOM     36  C   UNL A   1      34.348  32.550  30.358  1.00  0.00     0.014 A 
ATOM     37  C   UNL A   1      35.778  34.025  29.074  1.00  0.00     0.014 A 
ATOM     38  C   UNL A   1      35.458  32.113  31.083  1.00  0.00     0.010 A 
ATOM     39  C   UNL A   1      36.894  33.532  29.744  1.00  0.00     0.010 A 
ATOM     40  C   UNL A   1      36.745  32.581  30.764  1.00  0.00    -0.014 A 
BRANCH  40  41
ATOM     41  C   UNL A   1      37.943  32.084  31.485  1.00  0.00     0.031 A 
ATOM     42  C   UNL A   1      38.815  31.025  30.866  1.00  0.00     0.074 A 
ATOM     43  C   UNL A   1      38.203  32.529  32.729  1.00  0.00     0.049 A 
ATOM     44  N   UNL A   1      39.878  30.441  31.358  1.00  0.00    -0.248 NA
ATOM     45  C   UNL A   1      38.429  30.535  29.531  1.00  0.00     0.031 C 
ATOM     46  C   UNL A   1      37.386  33.493  33.470  1.00  0.00     0.029 A 
ATOM     47  N   UNL A   1      39.213  32.212  33.604  1.00  0.00    -0.354 N 
ATOM     48  C   UNL A   1      40.265  29.497  30.414  1.00  0.00     0.074 A 
ATOM     49  C   UNL A   1      39.302  29.558  29.336  1.00  0.00     0.031 C 
ATOM     50  C   UNL A   1      37.931  33.695  34.680  1.00  0.00     0.029 A 
ATOM     51  C   UNL A   1      39.114  32.852  34.816  1.00  0.00     0.049 A 
ATOM     52  H   UNL A   1      39.938  31.584  33.382  1.00  0.00     0.167 HD
ATOM     53  C   UNL A   1      41.340  28.673  30.427  1.00  0.00     0.034 A 
ATOM     54  C   UNL A   1      39.887  32.766  35.917  1.00  0.00     0.034 A 
ATOM     55  C   UNL A   1      42.315  28.645  31.484  1.00  0.00     0.049 A 
ATOM     56  C   UNL A   1      41.097  31.872  35.892  1.00  0.00     0.074 A 
ATOM     57  C   UNL A   1      43.488  27.913  31.552  1.00  0.00     0.029 A 
ATOM     58  N   UNL A   1      42.228  29.368  32.663  1.00  0.00    -0.354 N 
ATOM     59  N   UNL A   1      41.537  31.107  34.922  1.00  0.00    -0.248 NA
ATOM     60  C   UNL A   1      41.938  31.858  37.097  1.00  0.00     0.031 C 
ATOM     61  C   UNL A   1      44.094  28.171  32.786  1.00  0.00     0.029 A 
ATOM     62  C   UNL A   1      43.317  29.092  33.470  1.00  0.00     0.049 A 
ATOM     63  H   UNL A   1      41.498  29.988  32.892  1.00  0.00     0.167 HD
ATOM     64  C   UNL A   1      42.724  30.549  35.385  1.00  0.00     0.074 A 
ATOM     65  C   UNL A   1      42.944  31.083  36.714  1.00  0.00     0.031 C 
ATOM     66  C   UNL A   1      43.550  29.668  34.770  1.00  0.00     0.034 A 
BRANCH  53  67
ATOM     67  C   UNL A   1      41.546  27.768  29.241  1.00  0.00     0.023 A 
ATOM     68  C   UNL A   1      40.851  26.542  29.169  1.00  0.00     0.012 A 
ATOM     69  C   UNL A   1      42.380  28.150  28.172  1.00  0.00     0.148 A 
ATOM     70  C   UNL A   1      41.012  25.695  28.073  1.00  0.00     0.002 A 
ATOM     71  C   UNL A   1      42.497  27.323  27.061  1.00  0.00     0.091 A 
ATOM     72  F   UNL A   1      43.048  29.309  28.265  1.00  0.00    -0.205 F 
ATOM     73  C   UNL A   1      41.826  26.091  27.016  1.00  0.00     0.022 A 
BRANCH  71  74
ATOM     74  S   UNL A   1      43.454  27.778  25.610  1.00  0.00     0.127 S 
ATOM     75  O   UNL A   1      42.400  28.039  24.631  1.00  0.00    -0.237 OA
ATOM     76  O   UNL A   1      44.164  28.971  26.073  1.00  0.00    -0.237 OA
ATOM     77  O   UNL A   1      44.310  26.637  25.318  1.00  0.00    -0.744 OA
ENDBRANCH  71  74
ENDBRANCH  53  67
BRANCH  54  78
ATOM     78  C   UNL A   1      39.573  33.598  37.114  1.00  0.00     0.023 A 
ATOM     79  C   UNL A   1      39.988  34.944  37.150  1.00  0.00     0.012 A 
ATOM     80  C   UNL A   1      38.849  33.073  38.201  1.00  0.00     0.148 A 
ATOM     81  C   UNL A   1      39.717  35.743  38.261  1.00  0.00     0.002 A 
ATOM     82  C   UNL A   1      38.533  33.890  39.281  1.00  0.00     0.091 A 
ATOM     83  F   UNL A   1      38.471  31.788  38.152  1.00  0.00    -0.205 F 
ATOM     84  C   UNL A   1      38.983  35.219  39.322  1.00  0.00     0.022 A 
BRANCH  82  85
ATOM     85  S   UNL A   1      37.481  33.341  40.630  1.00  0.00     0.127 S 
ATOM     86  O   UNL A   1      38.277  32.263  41.211  1.00  0.00    -0.237 OA
ATOM     87  O   UNL A   1      37.389  34.549  41.450  1.00  0.00    -0.237 OA
ATOM     88  O   UNL A   1      36.226  32.938  40.013  1.00  0.00    -0.744 OA
ENDBRANCH  82  85
ENDBRANCH  54  78
BRANCH  66  89
ATOM     89  C   UNL A   1      44.797  29.248  35.505  1.00  0.00     0.023 A 
ATOM     90  C   UNL A   1      46.015  29.913  35.263  1.00  0.00     0.012 A 
ATOM     91  C   UNL A   1      44.742  28.243  36.490  1.00  0.00     0.148 A 
ATOM     92  C   UNL A   1      47.167  29.561  35.965  1.00  0.00     0.002 A 
ATOM     93  C   UNL A   1      45.881  27.932  37.223  1.00  0.00     0.091 A 
ATOM     94  F   UNL A   1      43.579  27.609  36.693  1.00  0.00    -0.205 F 
ATOM     95  C   UNL A   1      47.097  28.580  36.952  1.00  0.00     0.022 A 
BRANCH  93  96
ATOM     96  S   UNL A   1      45.863  26.756  38.580  1.00  0.00     0.127 S 
ATOM     97  O   UNL A   1      47.176  26.980  39.185  1.00  0.00    -0.237 OA
ATOM     98  O   UNL A   1      44.734  27.227  39.382  1.00  0.00    -0.237 OA
ATOM     99  O   UNL A   1      45.670  25.446  37.975  1.00  0.00    -0.744 OA
ENDBRANCH  93  96
ENDBRANCH  66  89
ENDBRANCH  40  41
ENDBRANCH  32  35
ENDBRANCH  30  31
ENDBRANCH  29  30
ENDBRANCH  28  29
ENDBRANCH  27  28
ENDBRANCH   1  27
TORSDOF 21
ENDMDL
