MODEL 1
REMARK VINA RESULT:     -10.3      0.000      0.000
REMARK SMILES Cc1cc(F)c([C@@H](C)[N@H+](CCC(=O)NCCCCCCNC(=O)c2ccc(-c3c4nc(c(-c5cccc(S(=O)(=O)[O-])c5F)c5ccc([nH]5)c(-c5cccc(S(=O)(=O)[O-])c5F)c5nc(c(-c6cccc(S(=O)(=O)[O-])c6F)c6ccc3[nH]6)C=C5)C=C4)cc2)C(C)(C)C)cc1F
REMARK SMILES IDX 17 1 16 2 15 3 14 4 12 5 13 6 11 8 10 9 9 10 7 12 8 13 6 14
REMARK SMILES IDX 1 15 2 16 3 17 92 18 4 19 91 20 93 21 5 22 87 23 88 24 89 25
REMARK SMILES IDX 90 26 18 27 19 28 20 29 21 30 22 31 23 33 24 34 25 35 86 36
REMARK SMILES IDX 26 37 85 38 27 39 28 40 29 41 79 42 30 43 84 44 78 45 80 46
REMARK SMILES IDX 31 47 83 48 77 49 76 50 32 52 64 53 44 54 63 55 45 56 48 57
REMARK SMILES IDX 62 58 81 59 46 60 47 61 61 63 82 64 49 65 33 66 34 67 42 68
REMARK SMILES IDX 35 69 37 70 43 71 36 72 38 73 39 74 40 75 41 76 65 77 66 78
REMARK SMILES IDX 74 79 67 80 69 81 75 82 68 83 70 84 71 85 72 86 73 87 50 88
REMARK SMILES IDX 51 89 59 90 52 91 54 92 60 93 53 94 55 95 56 96 57 97 58 98
REMARK H PARENT 14 7 9 11 21 32 80 51 48 62
REMARK Flexibility Score: inf
ROOT
ATOM      1  C   UNL A   1      36.629  21.690  24.573  1.00  0.00     0.002 C 
ENDROOT
BRANCH   1   2
ATOM      2  C   UNL A   1      36.339  22.533  25.816  1.00  0.00     0.021 C 
BRANCH   2   3
ATOM      3  C   UNL A   1      35.442  23.783  25.736  1.00  0.00     0.116 C 
BRANCH   3   4
ATOM      4  N   UNL A   1      34.860  24.099  24.443  1.00  0.00    -0.356 N 
ATOM      5  C   UNL A   1      34.231  25.221  23.990  1.00  0.00     0.225 C 
ATOM      6  O   UNL A   1      33.926  25.263  22.793  1.00  0.00    -0.275 OA
ATOM      7  H   UNL A   1      34.933  23.376  23.779  1.00  0.00     0.163 HD
BRANCH   5   8
ATOM      8  C   UNL A   1      33.898  26.392  24.897  1.00  0.00     0.161 C 
BRANCH   8   9
ATOM      9  C   UNL A   1      32.458  26.359  25.434  1.00  0.00     0.273 C 
BRANCH   9  10
ATOM     10  N   UNL A   1      31.441  25.847  24.476  1.00  0.00    -0.324 N 
ATOM     11  H   UNL A   1      31.874  25.381  23.679  1.00  0.00     0.349 HD
BRANCH  10  12
ATOM     12  C   UNL A   1      30.685  24.642  25.000  1.00  0.00     0.215 C 
ATOM     13  C   UNL A   1      30.418  24.712  26.536  1.00  0.00     0.081 C 
BRANCH  12  14
ATOM     14  C   UNL A   1      31.346  23.261  24.860  1.00  0.00     0.048 A 
ATOM     15  C   UNL A   1      33.439  19.491  24.263  1.00  0.00     0.047 C 
ATOM     16  C   UNL A   1      32.726  20.783  24.502  1.00  0.00    -0.012 A 
ATOM     17  C   UNL A   1      32.190  21.463  23.417  1.00  0.00     0.046 A 
ATOM     18  C   UNL A   1      32.646  21.396  25.754  1.00  0.00     0.126 A 
ATOM     19  C   UNL A   1      31.610  22.713  23.604  1.00  0.00     0.132 A 
ATOM     20  C   UNL A   1      31.942  22.599  25.945  1.00  0.00     0.052 A 
ATOM     21  F   UNL A   1      33.296  20.861  26.797  1.00  0.00    -0.207 F 
ATOM     22  F   UNL A   1      31.473  23.482  22.525  1.00  0.00    -0.206 F 
ENDBRANCH  12  14
ENDBRANCH  10  12
BRANCH  10  23
ATOM     23  C   UNL A   1      30.753  26.970  23.737  1.00  0.00     0.090 C 
ATOM     24  C   UNL A   1      29.221  26.691  23.763  1.00  0.00     0.078 C 
ATOM     25  C   UNL A   1      30.945  28.364  24.368  1.00  0.00     0.078 C 
ATOM     26  C   UNL A   1      31.085  27.134  22.227  1.00  0.00     0.078 C 
ENDBRANCH  10  23
ENDBRANCH   9  10
ENDBRANCH   8   9
ENDBRANCH   5   8
ENDBRANCH   3   4
ENDBRANCH   2   3
ENDBRANCH   1   2
BRANCH   1  27
ATOM     27  C   UNL A   1      36.958  20.215  24.877  1.00  0.00     0.002 C 
BRANCH  27  28
ATOM     28  C   UNL A   1      38.440  19.785  24.858  1.00  0.00     0.021 C 
BRANCH  28  29
ATOM     29  C   UNL A   1      39.193  19.887  26.188  1.00  0.00     0.116 C 
BRANCH  29  30
ATOM     30  N   UNL A   1      40.459  19.168  26.131  1.00  0.00    -0.352 N 
ATOM     31  C   UNL A   1      41.742  19.659  26.039  1.00  0.00     0.251 C 
ATOM     32  H   UNL A   1      40.385  18.187  26.163  1.00  0.00     0.163 HD
ATOM     33  O   UNL A   1      42.645  18.912  25.669  1.00  0.00    -0.269 OA
BRANCH  31  34
ATOM     34  C   UNL A   1      42.049  21.071  26.376  1.00  0.00     0.039 A 
ATOM     35  C   UNL A   1      42.122  22.049  25.381  1.00  0.00     0.014 A 
ATOM     36  C   UNL A   1      42.174  21.445  27.719  1.00  0.00     0.014 A 
ATOM     37  C   UNL A   1      42.418  23.374  25.721  1.00  0.00     0.010 A 
ATOM     38  C   UNL A   1      42.431  22.781  28.059  1.00  0.00     0.010 A 
ATOM     39  C   UNL A   1      42.590  23.757  27.063  1.00  0.00    -0.014 A 
BRANCH  39  40
ATOM     40  C   UNL A   1      42.920  25.170  27.416  1.00  0.00     0.031 A 
ATOM     41  C   UNL A   1      44.322  25.709  27.249  1.00  0.00     0.074 A 
ATOM     42  C   UNL A   1      41.959  25.986  27.895  1.00  0.00     0.049 A 
ATOM     43  N   UNL A   1      44.776  26.912  27.498  1.00  0.00    -0.248 NA
ATOM     44  C   UNL A   1      45.343  24.787  26.727  1.00  0.00     0.031 C 
ATOM     45  C   UNL A   1      40.566  25.603  28.129  1.00  0.00     0.029 A 
ATOM     46  N   UNL A   1      42.009  27.305  28.283  1.00  0.00    -0.354 N 
ATOM     47  C   UNL A   1      46.130  26.887  27.183  1.00  0.00     0.074 A 
ATOM     48  C   UNL A   1      46.431  25.548  26.727  1.00  0.00     0.031 C 
ATOM     49  C   UNL A   1      39.893  26.660  28.608  1.00  0.00     0.029 A 
ATOM     50  C   UNL A   1      40.811  27.785  28.760  1.00  0.00     0.049 A 
ATOM     51  H   UNL A   1      42.824  27.853  28.224  1.00  0.00     0.167 HD
ATOM     52  C   UNL A   1      47.039  27.888  27.252  1.00  0.00     0.034 A 
ATOM     53  C   UNL A   1      40.482  28.984  29.280  1.00  0.00     0.034 A 
ATOM     54  C   UNL A   1      46.755  29.225  27.697  1.00  0.00     0.049 A 
ATOM     55  C   UNL A   1      41.518  30.066  29.384  1.00  0.00     0.074 A 
ATOM     56  C   UNL A   1      47.620  30.305  27.765  1.00  0.00     0.029 A 
ATOM     57  N   UNL A   1      45.529  29.665  28.161  1.00  0.00    -0.354 N 
ATOM     58  N   UNL A   1      42.770  30.043  28.996  1.00  0.00    -0.248 NA
ATOM     59  C   UNL A   1      41.098  31.344  29.979  1.00  0.00     0.031 C 
ATOM     60  C   UNL A   1      46.921  31.393  28.293  1.00  0.00     0.029 A 
ATOM     61  C   UNL A   1      45.615  30.997  28.528  1.00  0.00     0.049 A 
ATOM     62  H   UNL A   1      44.715  29.113  28.221  1.00  0.00     0.167 HD
ATOM     63  C   UNL A   1      43.278  31.306  29.273  1.00  0.00     0.074 A 
ATOM     64  C   UNL A   1      42.199  32.075  29.857  1.00  0.00     0.031 C 
ATOM     65  C   UNL A   1      44.531  31.776  29.066  1.00  0.00     0.034 A 
BRANCH  52  66
ATOM     66  C   UNL A   1      48.445  27.604  26.795  1.00  0.00     0.023 A 
ATOM     67  C   UNL A   1      49.368  27.062  27.711  1.00  0.00     0.012 A 
ATOM     68  C   UNL A   1      48.811  27.751  25.443  1.00  0.00     0.148 A 
ATOM     69  C   UNL A   1      50.638  26.671  27.288  1.00  0.00     0.002 A 
ATOM     70  C   UNL A   1      50.070  27.335  25.024  1.00  0.00     0.091 A 
ATOM     71  F   UNL A   1      47.916  28.275  24.594  1.00  0.00    -0.205 F 
ATOM     72  C   UNL A   1      50.984  26.798  25.946  1.00  0.00     0.022 A 
BRANCH  70  73
ATOM     73  S   UNL A   1      50.594  27.408  23.307  1.00  0.00     0.127 S 
ATOM     74  O   UNL A   1      49.483  26.723  22.636  1.00  0.00    -0.237 OA
ATOM     75  O   UNL A   1      50.646  28.853  23.066  1.00  0.00    -0.237 OA
ATOM     76  O   UNL A   1      51.868  26.725  23.240  1.00  0.00    -0.744 OA
ENDBRANCH  70  73
ENDBRANCH  52  66
BRANCH  53  77
ATOM     77  C   UNL A   1      39.078  29.228  29.710  1.00  0.00     0.023 A 
ATOM     78  C   UNL A   1      38.700  28.936  31.033  1.00  0.00     0.012 A 
ATOM     79  C   UNL A   1      38.141  29.814  28.835  1.00  0.00     0.148 A 
ATOM     80  C   UNL A   1      37.410  29.221  31.480  1.00  0.00     0.002 A 
ATOM     81  C   UNL A   1      36.872  30.134  29.299  1.00  0.00     0.091 A 
ATOM     82  F   UNL A   1      38.528  30.077  27.579  1.00  0.00    -0.205 F 
ATOM     83  C   UNL A   1      36.500  29.830  30.618  1.00  0.00     0.022 A 
BRANCH  81  84
ATOM     84  S   UNL A   1      35.665  31.008  28.298  1.00  0.00     0.127 S 
ATOM     85  O   UNL A   1      36.425  32.179  27.867  1.00  0.00    -0.237 OA
ATOM     86  O   UNL A   1      35.389  30.030  27.244  1.00  0.00    -0.237 OA
ATOM     87  O   UNL A   1      34.540  31.285  29.181  1.00  0.00    -0.744 OA
ENDBRANCH  81  84
ENDBRANCH  53  77
BRANCH  65  88
ATOM     88  C   UNL A   1      44.832  33.202  29.438  1.00  0.00     0.023 A 
ATOM     89  C   UNL A   1      45.418  33.486  30.686  1.00  0.00     0.012 A 
ATOM     90  C   UNL A   1      44.665  34.235  28.494  1.00  0.00     0.148 A 
ATOM     91  C   UNL A   1      45.829  34.783  30.992  1.00  0.00     0.002 A 
ATOM     92  C   UNL A   1      45.109  35.517  28.793  1.00  0.00     0.091 A 
ATOM     93  F   UNL A   1      44.099  33.937  27.317  1.00  0.00    -0.205 F 
ATOM     94  C   UNL A   1      45.689  35.794  30.043  1.00  0.00     0.022 A 
BRANCH  92  95
ATOM     95  S   UNL A   1      45.039  36.868  27.610  1.00  0.00     0.127 S 
ATOM     96  O   UNL A   1      45.608  37.971  28.385  1.00  0.00    -0.237 OA
ATOM     97  O   UNL A   1      45.895  36.377  26.531  1.00  0.00    -0.237 OA
ATOM     98  O   UNL A   1      43.636  37.022  27.254  1.00  0.00    -0.744 OA
ENDBRANCH  92  95
ENDBRANCH  65  88
ENDBRANCH  39  40
ENDBRANCH  31  34
ENDBRANCH  29  30
ENDBRANCH  28  29
ENDBRANCH  27  28
ENDBRANCH   1  27
TORSDOF 21
ENDMDL
MODEL 2
REMARK VINA RESULT:     -10.1      4.869      9.563
REMARK SMILES Cc1cc(F)c([C@@H](C)[N@H+](CCC(=O)NCCCCCCNC(=O)c2ccc(-c3c4nc(c(-c5cccc(S(=O)(=O)[O-])c5F)c5ccc([nH]5)c(-c5cccc(S(=O)(=O)[O-])c5F)c5nc(c(-c6cccc(S(=O)(=O)[O-])c6F)c6ccc3[nH]6)C=C5)C=C4)cc2)C(C)(C)C)cc1F
REMARK SMILES IDX 17 1 16 2 15 3 14 4 12 5 13 6 11 8 10 9 9 10 7 12 8 13 6 14
REMARK SMILES IDX 1 15 2 16 3 17 92 18 4 19 91 20 93 21 5 22 87 23 88 24 89 25
REMARK SMILES IDX 90 26 18 27 19 28 20 29 21 30 22 31 23 33 24 34 25 35 86 36
REMARK SMILES IDX 26 37 85 38 27 39 28 40 29 41 79 42 30 43 84 44 78 45 80 46
REMARK SMILES IDX 31 47 83 48 77 49 76 50 32 52 64 53 44 54 63 55 45 56 48 57
REMARK SMILES IDX 62 58 81 59 46 60 47 61 61 63 82 64 49 65 33 66 34 67 42 68
REMARK SMILES IDX 35 69 37 70 43 71 36 72 38 73 39 74 40 75 41 76 65 77 66 78
REMARK SMILES IDX 74 79 67 80 69 81 75 82 68 83 70 84 71 85 72 86 73 87 50 88
REMARK SMILES IDX 51 89 59 90 52 91 54 92 60 93 53 94 55 95 56 96 57 97 58 98
REMARK H PARENT 14 7 9 11 21 32 80 51 48 62
REMARK Flexibility Score: inf
ROOT
ATOM      1  C   UNL A   1      30.999  28.283  25.665  1.00  0.00     0.002 C 
ENDROOT
BRANCH   1   2
ATOM      2  C   UNL A   1      31.005  26.871  25.080  1.00  0.00     0.021 C 
BRANCH   2   3
ATOM      3  C   UNL A   1      29.707  26.045  24.982  1.00  0.00     0.116 C 
BRANCH   3   4
ATOM      4  N   UNL A   1      29.402  25.160  26.092  1.00  0.00    -0.356 N 
ATOM      5  C   UNL A   1      29.951  23.969  26.469  1.00  0.00     0.225 C 
ATOM      6  O   UNL A   1      29.568  23.473  27.535  1.00  0.00    -0.275 OA
ATOM      7  H   UNL A   1      28.672  25.474  26.672  1.00  0.00     0.163 HD
BRANCH   5   8
ATOM      8  C   UNL A   1      30.994  23.250  25.632  1.00  0.00     0.161 C 
BRANCH   8   9
ATOM      9  C   UNL A   1      32.395  23.253  26.266  1.00  0.00     0.273 C 
BRANCH   9  10
ATOM     10  N   UNL A   1      33.459  22.621  25.441  1.00  0.00    -0.324 N 
ATOM     11  H   UNL A   1      33.080  22.201  24.592  1.00  0.00     0.349 HD
BRANCH  10  12
ATOM     12  C   UNL A   1      34.359  23.631  24.756  1.00  0.00     0.215 C 
ATOM     13  C   UNL A   1      34.528  24.948  25.575  1.00  0.00     0.081 C 
BRANCH  12  14
ATOM     14  C   UNL A   1      33.921  24.169  23.384  1.00  0.00     0.048 A 
ATOM     15  C   UNL A   1      32.397  25.537  19.541  1.00  0.00     0.047 C 
ATOM     16  C   UNL A   1      32.925  25.100  20.871  1.00  0.00    -0.012 A 
ATOM     17  C   UNL A   1      33.039  23.742  21.133  1.00  0.00     0.046 A 
ATOM     18  C   UNL A   1      33.227  25.987  21.906  1.00  0.00     0.126 A 
ATOM     19  C   UNL A   1      33.433  23.313  22.396  1.00  0.00     0.132 A 
ATOM     20  C   UNL A   1      33.747  25.540  23.134  1.00  0.00     0.052 A 
ATOM     21  F   UNL A   1      32.969  27.294  21.755  1.00  0.00    -0.207 F 
ATOM     22  F   UNL A   1      33.155  22.052  22.719  1.00  0.00    -0.206 F 
ENDBRANCH  12  14
ENDBRANCH  10  12
BRANCH  10  23
ATOM     23  C   UNL A   1      34.002  21.370  26.090  1.00  0.00     0.090 C 
ATOM     24  C   UNL A   1      35.462  21.166  25.586  1.00  0.00     0.078 C 
ATOM     25  C   UNL A   1      34.087  21.433  27.629  1.00  0.00     0.078 C 
ATOM     26  C   UNL A   1      33.292  20.030  25.754  1.00  0.00     0.078 C 
ENDBRANCH  10  23
ENDBRANCH   9  10
ENDBRANCH   8   9
ENDBRANCH   5   8
ENDBRANCH   3   4
ENDBRANCH   2   3
ENDBRANCH   1   2
BRANCH   1  27
ATOM     27  C   UNL A   1      31.734  28.408  27.014  1.00  0.00     0.002 C 
BRANCH  27  28
ATOM     28  C   UNL A   1      33.261  28.185  27.031  1.00  0.00     0.021 C 
BRANCH  28  29
ATOM     29  C   UNL A   1      34.106  29.218  26.279  1.00  0.00     0.116 C 
BRANCH  29  30
ATOM     30  N   UNL A   1      33.976  30.539  26.879  1.00  0.00    -0.352 N 
ATOM     31  C   UNL A   1      34.642  31.082  27.955  1.00  0.00     0.251 C 
ATOM     32  H   UNL A   1      33.313  31.129  26.453  1.00  0.00     0.163 HD
ATOM     33  O   UNL A   1      34.171  32.068  28.517  1.00  0.00    -0.269 OA
BRANCH  31  34
ATOM     34  C   UNL A   1      35.915  30.497  28.444  1.00  0.00     0.039 A 
ATOM     35  C   UNL A   1      35.934  29.629  29.538  1.00  0.00     0.014 A 
ATOM     36  C   UNL A   1      37.100  30.744  27.741  1.00  0.00     0.014 A 
ATOM     37  C   UNL A   1      37.147  29.092  29.986  1.00  0.00     0.010 A 
ATOM     38  C   UNL A   1      38.307  30.172  28.168  1.00  0.00     0.010 A 
ATOM     39  C   UNL A   1      38.352  29.366  29.317  1.00  0.00    -0.014 A 
BRANCH  39  40
ATOM     40  C   UNL A   1      39.643  28.800  29.810  1.00  0.00     0.031 A 
ATOM     41  C   UNL A   1      40.345  29.391  31.011  1.00  0.00     0.074 A 
ATOM     42  C   UNL A   1      40.203  27.749  29.178  1.00  0.00     0.049 A 
ATOM     43  N   UNL A   1      41.465  29.016  31.576  1.00  0.00    -0.248 NA
ATOM     44  C   UNL A   1      39.705  30.540  31.671  1.00  0.00     0.031 C 
ATOM     45  C   UNL A   1      39.653  27.086  27.995  1.00  0.00     0.029 A 
ATOM     46  N   UNL A   1      41.363  27.057  29.435  1.00  0.00    -0.354 N 
ATOM     47  C   UNL A   1      41.674  29.887  32.639  1.00  0.00     0.074 A 
ATOM     48  C   UNL A   1      40.566  30.817  32.642  1.00  0.00     0.031 C 
ATOM     49  C   UNL A   1      40.466  26.082  27.634  1.00  0.00     0.029 A 
ATOM     50  C   UNL A   1      41.619  26.053  28.530  1.00  0.00     0.049 A 
ATOM     51  H   UNL A   1      41.955  27.262  30.195  1.00  0.00     0.167 HD
ATOM     52  C   UNL A   1      42.685  29.907  33.539  1.00  0.00     0.034 A 
ATOM     53  C   UNL A   1      42.666  25.213  28.413  1.00  0.00     0.034 A 
ATOM     54  C   UNL A   1      43.789  28.987  33.553  1.00  0.00     0.049 A 
ATOM     55  C   UNL A   1      43.796  25.280  29.400  1.00  0.00     0.074 A 
ATOM     56  C   UNL A   1      44.839  28.924  34.455  1.00  0.00     0.029 A 
ATOM     57  N   UNL A   1      44.000  27.984  32.623  1.00  0.00    -0.354 N 
ATOM     58  N   UNL A   1      43.924  26.057  30.448  1.00  0.00    -0.248 NA
ATOM     59  C   UNL A   1      44.917  24.348  29.203  1.00  0.00     0.031 C 
ATOM     60  C   UNL A   1      45.697  27.896  34.056  1.00  0.00     0.029 A 
ATOM     61  C   UNL A   1      45.168  27.304  32.922  1.00  0.00     0.049 A 
ATOM     62  H   UNL A   1      43.408  27.783  31.862  1.00  0.00     0.167 HD
ATOM     63  C   UNL A   1      45.121  25.690  31.050  1.00  0.00     0.074 A 
ATOM     64  C   UNL A   1      45.681  24.617  30.255  1.00  0.00     0.031 C 
ATOM     65  C   UNL A   1      45.702  26.206  32.159  1.00  0.00     0.034 A 
BRANCH  52  66
ATOM     66  C   UNL A   1      42.642  30.938  34.635  1.00  0.00     0.023 A 
ATOM     67  C   UNL A   1      41.971  30.635  35.836  1.00  0.00     0.012 A 
ATOM     68  C   UNL A   1      43.368  32.140  34.527  1.00  0.00     0.148 A 
ATOM     69  C   UNL A   1      42.020  31.517  36.915  1.00  0.00     0.002 A 
ATOM     70  C   UNL A   1      43.433  33.002  35.615  1.00  0.00     0.091 A 
ATOM     71  F   UNL A   1      43.991  32.406  33.370  1.00  0.00    -0.205 F 
ATOM     72  C   UNL A   1      42.758  32.693  36.808  1.00  0.00     0.022 A 
BRANCH  70  73
ATOM     73  S   UNL A   1      44.400  34.516  35.598  1.00  0.00     0.127 S 
ATOM     74  O   UNL A   1      43.972  35.148  36.851  1.00  0.00    -0.237 OA
ATOM     75  O   UNL A   1      45.773  34.001  35.621  1.00  0.00    -0.237 OA
ATOM     76  O   UNL A   1      44.027  35.225  34.392  1.00  0.00    -0.744 OA
ENDBRANCH  70  73
ENDBRANCH  52  66
BRANCH  53  77
ATOM     77  C   UNL A   1      42.665  24.200  27.322  1.00  0.00     0.023 A 
ATOM     78  C   UNL A   1      43.365  24.468  26.130  1.00  0.00     0.012 A 
ATOM     79  C   UNL A   1      42.038  22.950  27.491  1.00  0.00     0.148 A 
ATOM     80  C   UNL A   1      43.438  23.508  25.121  1.00  0.00     0.002 A 
ATOM     81  C   UNL A   1      42.151  21.983  26.500  1.00  0.00     0.091 A 
ATOM     82  F   UNL A   1      41.377  22.724  28.634  1.00  0.00    -0.205 F 
ATOM     83  C   UNL A   1      42.842  22.263  25.310  1.00  0.00     0.022 A 
BRANCH  81  84
ATOM     84  S   UNL A   1      41.505  20.319  26.690  1.00  0.00     0.127 S 
ATOM     85  O   UNL A   1      41.799  19.732  25.384  1.00  0.00    -0.237 OA
ATOM     86  O   UNL A   1      42.320  19.808  27.793  1.00  0.00    -0.237 OA
ATOM     87  O   UNL A   1      40.090  20.473  26.999  1.00  0.00    -0.744 OA
ENDBRANCH  81  84
ENDBRANCH  53  77
BRANCH  65  88
ATOM     88  C   UNL A   1      47.005  25.618  32.626  1.00  0.00     0.023 A 
ATOM     89  C   UNL A   1      48.219  26.160  32.161  1.00  0.00     0.012 A 
ATOM     90  C   UNL A   1      47.022  24.630  33.630  1.00  0.00     0.148 A 
ATOM     91  C   UNL A   1      49.433  25.719  32.686  1.00  0.00     0.002 A 
ATOM     92  C   UNL A   1      48.234  24.222  34.172  1.00  0.00     0.091 A 
ATOM     93  F   UNL A   1      45.852  24.128  34.049  1.00  0.00    -0.205 F 
ATOM     94  C   UNL A   1      49.442  24.763  33.700  1.00  0.00     0.022 A 
BRANCH  92  95
ATOM     95  S   UNL A   1      48.344  23.051  35.531  1.00  0.00     0.127 S 
ATOM     96  O   UNL A   1      49.791  22.951  35.722  1.00  0.00    -0.237 OA
ATOM     97  O   UNL A   1      47.634  23.753  36.600  1.00  0.00    -0.237 OA
ATOM     98  O   UNL A   1      47.696  21.831  35.068  1.00  0.00    -0.744 OA
ENDBRANCH  92  95
ENDBRANCH  65  88
ENDBRANCH  39  40
ENDBRANCH  31  34
ENDBRANCH  29  30
ENDBRANCH  28  29
ENDBRANCH  27  28
ENDBRANCH   1  27
TORSDOF 21
ENDMDL
MODEL 3
REMARK VINA RESULT:     -10.1      4.849      9.505
REMARK SMILES Cc1cc(F)c([C@@H](C)[N@H+](CCC(=O)NCCCCCCNC(=O)c2ccc(-c3c4nc(c(-c5cccc(S(=O)(=O)[O-])c5F)c5ccc([nH]5)c(-c5cccc(S(=O)(=O)[O-])c5F)c5nc(c(-c6cccc(S(=O)(=O)[O-])c6F)c6ccc3[nH]6)C=C5)C=C4)cc2)C(C)(C)C)cc1F
REMARK SMILES IDX 17 1 16 2 15 3 14 4 12 5 13 6 11 8 10 9 9 10 7 12 8 13 6 14
REMARK SMILES IDX 1 15 2 16 3 17 92 18 4 19 91 20 93 21 5 22 87 23 88 24 89 25
REMARK SMILES IDX 90 26 18 27 19 28 20 29 21 30 22 31 23 33 24 34 25 35 86 36
REMARK SMILES IDX 26 37 85 38 27 39 28 40 29 41 79 42 30 43 84 44 78 45 80 46
REMARK SMILES IDX 31 47 83 48 77 49 76 50 32 52 64 53 44 54 63 55 45 56 48 57
REMARK SMILES IDX 62 58 81 59 46 60 47 61 61 63 82 64 49 65 33 66 34 67 42 68
REMARK SMILES IDX 35 69 37 70 43 71 36 72 38 73 39 74 40 75 41 76 65 77 66 78
REMARK SMILES IDX 74 79 67 80 69 81 75 82 68 83 70 84 71 85 72 86 73 87 50 88
REMARK SMILES IDX 51 89 59 90 52 91 54 92 60 93 53 94 55 95 56 96 57 97 58 98
REMARK H PARENT 14 7 9 11 21 32 80 51 48 62
REMARK Flexibility Score: inf
ROOT
ATOM      1  C   UNL A   1      31.063  28.194  25.725  1.00  0.00     0.002 C 
ENDROOT
BRANCH   1   2
ATOM      2  C   UNL A   1      30.979  26.755  25.214  1.00  0.00     0.021 C 
BRANCH   2   3
ATOM      3  C   UNL A   1      29.744  25.880  25.504  1.00  0.00     0.116 C 
BRANCH   3   4
ATOM      4  N   UNL A   1      29.866  24.894  26.564  1.00  0.00    -0.356 N 
ATOM      5  C   UNL A   1      30.322  23.609  26.547  1.00  0.00     0.225 C 
ATOM      6  O   UNL A   1      30.421  23.022  27.631  1.00  0.00    -0.275 OA
ATOM      7  H   UNL A   1      29.568  25.210  27.447  1.00  0.00     0.163 HD
BRANCH   5   8
ATOM      8  C   UNL A   1      30.698  22.893  25.262  1.00  0.00     0.161 C 
BRANCH   8   9
ATOM      9  C   UNL A   1      32.081  23.294  24.722  1.00  0.00     0.273 C 
BRANCH   9  10
ATOM     10  N   UNL A   1      33.212  22.459  25.209  1.00  0.00    -0.324 N 
ATOM     11  H   UNL A   1      32.890  21.693  25.800  1.00  0.00     0.349 HD
BRANCH  10  12
ATOM     12  C   UNL A   1      33.829  21.602  24.122  1.00  0.00     0.215 C 
ATOM     13  C   UNL A   1      33.093  21.734  22.752  1.00  0.00     0.081 C 
BRANCH  12  14
ATOM     14  C   UNL A   1      33.840  20.078  24.327  1.00  0.00     0.048 A 
ATOM     15  C   UNL A   1      34.037  15.815  25.185  1.00  0.00     0.047 C 
ATOM     16  C   UNL A   1      33.935  17.277  24.890  1.00  0.00    -0.012 A 
ATOM     17  C   UNL A   1      35.102  18.013  24.738  1.00  0.00     0.046 A 
ATOM     18  C   UNL A   1      32.723  17.969  24.848  1.00  0.00     0.126 A 
ATOM     19  C   UNL A   1      35.031  19.391  24.563  1.00  0.00     0.132 A 
ATOM     20  C   UNL A   1      32.664  19.340  24.540  1.00  0.00     0.052 A 
ATOM     21  F   UNL A   1      31.585  17.331  25.157  1.00  0.00    -0.207 F 
ATOM     22  F   UNL A   1      36.136  20.089  24.814  1.00  0.00    -0.206 F 
ENDBRANCH  12  14
ENDBRANCH  10  12
BRANCH  10  23
ATOM     23  C   UNL A   1      34.051  23.194  26.228  1.00  0.00     0.090 C 
ATOM     24  C   UNL A   1      35.546  23.032  25.821  1.00  0.00     0.078 C 
ATOM     25  C   UNL A   1      33.789  24.712  26.299  1.00  0.00     0.078 C 
ATOM     26  C   UNL A   1      33.997  22.681  27.694  1.00  0.00     0.078 C 
ENDBRANCH  10  23
ENDBRANCH   9  10
ENDBRANCH   8   9
ENDBRANCH   5   8
ENDBRANCH   3   4
ENDBRANCH   2   3
ENDBRANCH   1   2
BRANCH   1  27
ATOM     27  C   UNL A   1      31.710  28.330  27.118  1.00  0.00     0.002 C 
BRANCH  27  28
ATOM     28  C   UNL A   1      33.250  28.304  27.207  1.00  0.00     0.021 C 
BRANCH  28  29
ATOM     29  C   UNL A   1      33.996  29.341  26.363  1.00  0.00     0.116 C 
BRANCH  29  30
ATOM     30  N   UNL A   1      33.877  30.673  26.941  1.00  0.00    -0.352 N 
ATOM     31  C   UNL A   1      34.558  31.233  27.998  1.00  0.00     0.251 C 
ATOM     32  H   UNL A   1      33.211  31.257  26.513  1.00  0.00     0.163 HD
ATOM     33  O   UNL A   1      34.097  32.230  28.550  1.00  0.00    -0.269 OA
BRANCH  31  34
ATOM     34  C   UNL A   1      35.836  30.653  28.482  1.00  0.00     0.039 A 
ATOM     35  C   UNL A   1      35.854  29.717  29.519  1.00  0.00     0.014 A 
ATOM     36  C   UNL A   1      37.029  30.977  27.827  1.00  0.00     0.014 A 
ATOM     37  C   UNL A   1      37.071  29.187  29.963  1.00  0.00     0.010 A 
ATOM     38  C   UNL A   1      38.242  30.413  28.248  1.00  0.00     0.010 A 
ATOM     39  C   UNL A   1      38.284  29.537  29.344  1.00  0.00    -0.014 A 
BRANCH  39  40
ATOM     40  C   UNL A   1      39.578  28.976  29.833  1.00  0.00     0.031 A 
ATOM     41  C   UNL A   1      40.261  29.544  31.055  1.00  0.00     0.074 A 
ATOM     42  C   UNL A   1      40.158  27.950  29.178  1.00  0.00     0.049 A 
ATOM     43  N   UNL A   1      41.382  29.170  31.620  1.00  0.00    -0.248 NA
ATOM     44  C   UNL A   1      39.600  30.666  31.740  1.00  0.00     0.031 C 
ATOM     45  C   UNL A   1      39.628  27.311  27.972  1.00  0.00     0.029 A 
ATOM     46  N   UNL A   1      41.327  27.269  29.426  1.00  0.00    -0.354 N 
ATOM     47  C   UNL A   1      41.570  30.016  32.707  1.00  0.00     0.074 A 
ATOM     48  C   UNL A   1      40.448  30.929  32.726  1.00  0.00     0.031 C 
ATOM     49  C   UNL A   1      40.459  26.329  27.592  1.00  0.00     0.029 A 
ATOM     50  C   UNL A   1      41.605  26.293  28.497  1.00  0.00     0.049 A 
ATOM     51  H   UNL A   1      41.909  27.461  30.197  1.00  0.00     0.167 HD
ATOM     52  C   UNL A   1      42.572  30.025  33.617  1.00  0.00     0.034 A 
ATOM     53  C   UNL A   1      42.665  25.471  28.367  1.00  0.00     0.034 A 
ATOM     54  C   UNL A   1      43.690  29.121  33.615  1.00  0.00     0.049 A 
ATOM     55  C   UNL A   1      43.785  25.528  29.365  1.00  0.00     0.074 A 
ATOM     56  C   UNL A   1      44.732  29.049  34.524  1.00  0.00     0.029 A 
ATOM     57  N   UNL A   1      43.923  28.147  32.661  1.00  0.00    -0.354 N 
ATOM     58  N   UNL A   1      43.893  26.278  30.434  1.00  0.00    -0.248 NA
ATOM     59  C   UNL A   1      44.921  24.618  29.153  1.00  0.00     0.031 C 
ATOM     60  C   UNL A   1      45.609  28.045  34.106  1.00  0.00     0.029 A 
ATOM     61  C   UNL A   1      45.098  27.476  32.952  1.00  0.00     0.049 A 
ATOM     62  H   UNL A   1      43.340  27.958  31.890  1.00  0.00     0.167 HD
ATOM     63  C   UNL A   1      45.091  25.912  31.037  1.00  0.00     0.074 A 
ATOM     64  C   UNL A   1      45.673  24.869  30.218  1.00  0.00     0.031 C 
ATOM     65  C   UNL A   1      45.654  26.407  32.164  1.00  0.00     0.034 A 
BRANCH  52  66
ATOM     66  C   UNL A   1      42.505  31.026  34.739  1.00  0.00     0.023 A 
ATOM     67  C   UNL A   1      41.988  30.624  35.986  1.00  0.00     0.012 A 
ATOM     68  C   UNL A   1      43.067  32.310  34.599  1.00  0.00     0.148 A 
ATOM     69  C   UNL A   1      42.028  31.489  37.080  1.00  0.00     0.002 A 
ATOM     70  C   UNL A   1      43.127  33.156  35.701  1.00  0.00     0.091 A 
ATOM     71  F   UNL A   1      43.546  32.668  33.400  1.00  0.00    -0.205 F 
ATOM     72  C   UNL A   1      42.607  32.748  36.939  1.00  0.00     0.022 A 
BRANCH  70  73
ATOM     73  S   UNL A   1      43.898  34.778  35.638  1.00  0.00     0.127 S 
ATOM     74  O   UNL A   1      43.617  35.284  36.986  1.00  0.00    -0.237 OA
ATOM     75  O   UNL A   1      45.305  34.437  35.404  1.00  0.00    -0.237 OA
ATOM     76  O   UNL A   1      43.251  35.496  34.562  1.00  0.00    -0.744 OA
ENDBRANCH  70  73
ENDBRANCH  52  66
BRANCH  53  77
ATOM     77  C   UNL A   1      42.688  24.489  27.249  1.00  0.00     0.023 A 
ATOM     78  C   UNL A   1      43.357  24.816  26.055  1.00  0.00     0.012 A 
ATOM     79  C   UNL A   1      42.114  23.209  27.393  1.00  0.00     0.148 A 
ATOM     80  C   UNL A   1      43.453  23.886  25.020  1.00  0.00     0.002 A 
ATOM     81  C   UNL A   1      42.250  22.275  26.375  1.00  0.00     0.091 A 
ATOM     82  F   UNL A   1      41.480  22.927  28.539  1.00  0.00    -0.205 F 
ATOM     83  C   UNL A   1      42.911  22.613  25.184  1.00  0.00     0.022 A 
BRANCH  81  84
ATOM     84  S   UNL A   1      41.675  20.581  26.530  1.00  0.00     0.127 S 
ATOM     85  O   UNL A   1      40.229  20.743  26.394  1.00  0.00    -0.237 OA
ATOM     86  O   UNL A   1      42.333  19.938  25.392  1.00  0.00    -0.237 OA
ATOM     87  O   UNL A   1      42.131  20.123  27.835  1.00  0.00    -0.744 OA
ENDBRANCH  81  84
ENDBRANCH  53  77
BRANCH  65  88
ATOM     88  C   UNL A   1      46.962  25.825  32.627  1.00  0.00     0.023 A 
ATOM     89  C   UNL A   1      48.171  26.418  32.215  1.00  0.00     0.012 A 
ATOM     90  C   UNL A   1      46.983  24.786  33.578  1.00  0.00     0.148 A 
ATOM     91  C   UNL A   1      49.386  25.978  32.741  1.00  0.00     0.002 A 
ATOM     92  C   UNL A   1      48.194  24.379  34.123  1.00  0.00     0.091 A 
ATOM     93  F   UNL A   1      45.818  24.237  33.948  1.00  0.00    -0.205 F 
ATOM     94  C   UNL A   1      49.397  24.971  33.704  1.00  0.00     0.022 A 
BRANCH  92  95
ATOM     95  S   UNL A   1      48.305  23.141  35.422  1.00  0.00     0.127 S 
ATOM     96  O   UNL A   1      49.749  23.078  35.650  1.00  0.00    -0.237 OA
ATOM     97  O   UNL A   1      47.543  23.762  36.505  1.00  0.00    -0.237 OA
ATOM     98  O   UNL A   1      47.713  21.928  34.877  1.00  0.00    -0.744 OA
ENDBRANCH  92  95
ENDBRANCH  65  88
ENDBRANCH  39  40
ENDBRANCH  31  34
ENDBRANCH  29  30
ENDBRANCH  28  29
ENDBRANCH  27  28
ENDBRANCH   1  27
TORSDOF 21
ENDMDL
