MODEL 1
REMARK VINA RESULT:     -11.3      0.000      0.000
REMARK SMILES CC[C@@H]1CCC[C@@](C[C@@H]2CSc3ccccc32)(C(=O)NCCCCCCNC(=O)c2ccc(-c3c4nc(c(-c5cccc(S(=O)(=O)[O-])c5F)c5ccc([nH]5)c(-c5cccc(S(=O)(=O)[O-])c5F)c5nc(c(-c6cccc(S(=O)(=O)[O-])c6F)c6ccc3[nH]6)C=C5)C=C4)cc2)C1
REMARK SMILES IDX 24 1 23 2 22 3 21 4 20 5 18 6 19 7 7 9 3 10 4 11 93 12 5 13
REMARK SMILES IDX 6 14 2 15 1 16 8 17 9 18 10 19 17 20 11 21 12 22 16 23 13 24
REMARK SMILES IDX 15 25 14 26 25 27 26 28 27 29 28 30 29 32 30 33 31 34 92 35
REMARK SMILES IDX 32 36 91 37 33 38 34 39 35 40 85 41 36 42 90 43 84 44 86 45
REMARK SMILES IDX 37 46 89 47 83 48 82 49 38 51 70 52 50 53 69 54 51 55 54 56
REMARK SMILES IDX 68 57 87 58 52 59 53 60 67 62 88 63 55 64 39 65 40 66 48 67
REMARK SMILES IDX 41 68 43 69 49 70 42 71 44 72 45 73 46 74 47 75 71 76 72 77
REMARK SMILES IDX 80 78 73 79 75 80 81 81 74 82 76 83 77 84 78 85 79 86 56 87
REMARK SMILES IDX 57 88 65 89 58 90 60 91 66 92 59 93 61 94 62 95 63 96 64 97
REMARK H PARENT 20 8 27 31 86 50 54 61
REMARK Flexibility Score: inf
ROOT
ATOM      1  C   UNL A   1      36.781  19.517  24.990  1.00  0.00     0.002 C 
ENDROOT
BRANCH   1   2
ATOM      2  C   UNL A   1      35.796  20.692  25.078  1.00  0.00     0.002 C 
BRANCH   2   3
ATOM      3  C   UNL A   1      36.257  22.017  24.457  1.00  0.00     0.021 C 
BRANCH   3   4
ATOM      4  C   UNL A   1      36.388  23.168  25.446  1.00  0.00     0.116 C 
BRANCH   4   5
ATOM      5  N   UNL A   1      35.616  23.046  26.656  1.00  0.00    -0.356 N 
ATOM      6  C   UNL A   1      34.295  23.311  26.861  1.00  0.00     0.226 C 
ATOM      7  O   UNL A   1      33.763  22.668  27.773  1.00  0.00    -0.274 OA
ATOM      8  H   UNL A   1      36.112  22.728  27.445  1.00  0.00     0.163 HD
BRANCH   6   9
ATOM      9  C   UNL A   1      33.476  24.351  26.028  1.00  0.00     0.050 C 
ATOM     10  C   UNL A   1      32.445  22.458  24.480  1.00  0.00    -0.010 C 
ATOM     11  C   UNL A   1      31.075  22.661  25.136  1.00  0.00     0.003 C 
ATOM     12  C   UNL A   1      33.323  23.724  24.576  1.00  0.00     0.020 C 
ATOM     13  C   UNL A   1      31.209  23.231  26.538  1.00  0.00     0.001 C 
ATOM     14  C   UNL A   1      32.019  24.527  26.513  1.00  0.00     0.017 C 
BRANCH  10  15
ATOM     15  C   UNL A   1      32.302  21.963  23.024  1.00  0.00     0.000 C 
ATOM     16  C   UNL A   1      32.880  22.881  21.951  1.00  0.00     0.004 C 
ENDBRANCH  10  15
BRANCH   9  17
ATOM     17  C   UNL A   1      34.317  25.678  25.762  1.00  0.00     0.026 C 
BRANCH  17  18
ATOM     18  C   UNL A   1      33.773  27.123  25.551  1.00  0.00     0.032 C 
ATOM     19  C   UNL A   1      33.262  27.797  26.838  1.00  0.00     0.083 C 
ATOM     20  C   UNL A   1      32.748  27.287  24.467  1.00  0.00    -0.030 A 
ATOM     21  S   UNL A   1      31.667  28.593  26.478  1.00  0.00    -0.125 SA
ATOM     22  C   UNL A   1      31.548  27.861  24.878  1.00  0.00     0.011 A 
ATOM     23  C   UNL A   1      32.900  26.871  23.148  1.00  0.00     0.005 A 
ATOM     24  C   UNL A   1      30.420  27.803  24.074  1.00  0.00     0.015 A 
ATOM     25  C   UNL A   1      31.781  26.838  22.315  1.00  0.00     0.000 A 
ATOM     26  C   UNL A   1      30.534  27.253  22.795  1.00  0.00     0.001 A 
ENDBRANCH  17  18
ENDBRANCH   9  17
ENDBRANCH   6   9
ENDBRANCH   4   5
ENDBRANCH   3   4
ENDBRANCH   2   3
ENDBRANCH   1   2
BRANCH   1  27
ATOM     27  C   UNL A   1      38.239  19.883  24.721  1.00  0.00     0.021 C 
BRANCH  27  28
ATOM     28  C   UNL A   1      39.114  20.057  25.952  1.00  0.00     0.116 C 
BRANCH  28  29
ATOM     29  N   UNL A   1      40.273  19.179  25.944  1.00  0.00    -0.352 N 
ATOM     30  C   UNL A   1      41.609  19.466  26.068  1.00  0.00     0.251 C 
ATOM     31  H   UNL A   1      40.064  18.223  25.833  1.00  0.00     0.163 HD
ATOM     32  O   UNL A   1      42.435  18.578  25.849  1.00  0.00    -0.269 OA
BRANCH  30  33
ATOM     33  C   UNL A   1      42.065  20.829  26.431  1.00  0.00     0.039 A 
ATOM     34  C   UNL A   1      42.326  21.172  27.757  1.00  0.00     0.014 A 
ATOM     35  C   UNL A   1      42.258  21.779  25.422  1.00  0.00     0.014 A 
ATOM     36  C   UNL A   1      42.594  22.495  28.091  1.00  0.00     0.010 A 
ATOM     37  C   UNL A   1      42.644  23.084  25.752  1.00  0.00     0.010 A 
ATOM     38  C   UNL A   1      42.775  23.467  27.093  1.00  0.00    -0.014 A 
BRANCH  38  39
ATOM     39  C   UNL A   1      43.149  24.851  27.492  1.00  0.00     0.031 A 
ATOM     40  C   UNL A   1      44.543  25.380  27.283  1.00  0.00     0.074 A 
ATOM     41  C   UNL A   1      42.199  25.655  28.014  1.00  0.00     0.049 A 
ATOM     42  N   UNL A   1      45.005  26.580  27.525  1.00  0.00    -0.248 NA
ATOM     43  C   UNL A   1      45.552  24.454  26.741  1.00  0.00     0.031 C 
ATOM     44  C   UNL A   1      40.820  25.249  28.303  1.00  0.00     0.029 A 
ATOM     45  N   UNL A   1      42.234  26.978  28.378  1.00  0.00    -0.354 N 
ATOM     46  C   UNL A   1      46.357  26.545  27.204  1.00  0.00     0.074 A 
ATOM     47  C   UNL A   1      46.649  25.202  26.756  1.00  0.00     0.031 C 
ATOM     48  C   UNL A   1      40.129  26.310  28.741  1.00  0.00     0.029 A 
ATOM     49  C   UNL A   1      41.025  27.457  28.829  1.00  0.00     0.049 A 
ATOM     50  H   UNL A   1      43.046  27.531  28.323  1.00  0.00     0.167 HD
ATOM     51  C   UNL A   1      47.265  27.546  27.258  1.00  0.00     0.034 A 
ATOM     52  C   UNL A   1      40.669  28.677  29.274  1.00  0.00     0.034 A 
ATOM     53  C   UNL A   1      46.961  28.895  27.653  1.00  0.00     0.049 A 
ATOM     54  C   UNL A   1      41.692  29.772  29.311  1.00  0.00     0.074 A 
ATOM     55  C   UNL A   1      47.809  29.988  27.677  1.00  0.00     0.029 A 
ATOM     56  N   UNL A   1      45.724  29.333  28.094  1.00  0.00    -0.354 N 
ATOM     57  N   UNL A   1      42.941  29.735  28.917  1.00  0.00    -0.248 NA
ATOM     58  C   UNL A   1      41.264  31.077  29.836  1.00  0.00     0.031 C 
ATOM     59  C   UNL A   1      47.090  31.086  28.150  1.00  0.00     0.029 A 
ATOM     60  C   UNL A   1      45.788  30.681  28.399  1.00  0.00     0.049 A 
ATOM     61  H   UNL A   1      44.921  28.772  28.177  1.00  0.00     0.167 HD
ATOM     62  C   UNL A   1      43.443  31.011  29.128  1.00  0.00     0.074 A 
ATOM     63  C   UNL A   1      42.363  31.804  29.676  1.00  0.00     0.031 C 
ATOM     64  C   UNL A   1      44.694  31.473  28.895  1.00  0.00     0.034 A 
BRANCH  51  65
ATOM     65  C   UNL A   1      48.679  27.258  26.831  1.00  0.00     0.023 A 
ATOM     66  C   UNL A   1      49.533  26.560  27.708  1.00  0.00     0.012 A 
ATOM     67  C   UNL A   1      49.111  27.549  25.523  1.00  0.00     0.148 A 
ATOM     68  C   UNL A   1      50.801  26.160  27.289  1.00  0.00     0.002 A 
ATOM     69  C   UNL A   1      50.366  27.122  25.103  1.00  0.00     0.091 A 
ATOM     70  F   UNL A   1      48.280  28.218  24.711  1.00  0.00    -0.205 F 
ATOM     71  C   UNL A   1      51.212  26.430  25.985  1.00  0.00     0.022 A 
BRANCH  69  72
ATOM     72  S   UNL A   1      50.970  27.368  23.430  1.00  0.00     0.127 S 
ATOM     73  O   UNL A   1      49.927  26.712  22.641  1.00  0.00    -0.237 OA
ATOM     74  O   UNL A   1      50.990  28.827  23.322  1.00  0.00    -0.237 OA
ATOM     75  O   UNL A   1      52.279  26.730  23.372  1.00  0.00    -0.744 OA
ENDBRANCH  69  72
ENDBRANCH  51  65
BRANCH  52  76
ATOM     76  C   UNL A   1      39.256  28.916  29.676  1.00  0.00     0.023 A 
ATOM     77  C   UNL A   1      38.849  28.601  30.986  1.00  0.00     0.012 A 
ATOM     78  C   UNL A   1      38.350  29.544  28.799  1.00  0.00     0.148 A 
ATOM     79  C   UNL A   1      37.557  28.909  31.416  1.00  0.00     0.002 A 
ATOM     80  C   UNL A   1      37.080  29.884  29.248  1.00  0.00     0.091 A 
ATOM     81  F   UNL A   1      38.768  29.834  27.559  1.00  0.00    -0.205 F 
ATOM     82  C   UNL A   1      36.679  29.560  30.553  1.00  0.00     0.022 A 
BRANCH  80  83
ATOM     83  S   UNL A   1      35.917  30.818  28.247  1.00  0.00     0.127 S 
ATOM     84  O   UNL A   1      34.755  30.886  29.129  1.00  0.00    -0.237 OA
ATOM     85  O   UNL A   1      36.630  32.083  28.067  1.00  0.00    -0.237 OA
ATOM     86  O   UNL A   1      35.732  30.046  27.026  1.00  0.00    -0.744 OA
ENDBRANCH  80  83
ENDBRANCH  52  76
BRANCH  64  87
ATOM     87  C   UNL A   1      44.996  32.913  29.197  1.00  0.00     0.023 A 
ATOM     88  C   UNL A   1      45.646  33.243  30.401  1.00  0.00     0.012 A 
ATOM     89  C   UNL A   1      44.811  33.898  28.208  1.00  0.00     0.148 A 
ATOM     90  C   UNL A   1      46.119  34.538  30.611  1.00  0.00     0.002 A 
ATOM     91  C   UNL A   1      45.314  35.176  28.410  1.00  0.00     0.091 A 
ATOM     92  F   UNL A   1      44.188  33.549  27.072  1.00  0.00    -0.205 F 
ATOM     93  C   UNL A   1      45.967  35.497  29.611  1.00  0.00     0.022 A 
BRANCH  91  94
ATOM     94  S   UNL A   1      45.240  36.458  27.154  1.00  0.00     0.127 S 
ATOM     95  O   UNL A   1      45.883  37.580  27.835  1.00  0.00    -0.237 OA
ATOM     96  O   UNL A   1      46.025  35.870  26.069  1.00  0.00    -0.237 OA
ATOM     97  O   UNL A   1      43.827  36.652  26.854  1.00  0.00    -0.744 OA
ENDBRANCH  91  94
ENDBRANCH  64  87
ENDBRANCH  38  39
ENDBRANCH  30  33
ENDBRANCH  28  29
ENDBRANCH  27  28
ENDBRANCH   1  27
TORSDOF 19
ENDMDL
MODEL 2
REMARK VINA RESULT:     -11.2      1.702      2.669
REMARK SMILES CC[C@@H]1CCC[C@@](C[C@@H]2CSc3ccccc32)(C(=O)NCCCCCCNC(=O)c2ccc(-c3c4nc(c(-c5cccc(S(=O)(=O)[O-])c5F)c5ccc([nH]5)c(-c5cccc(S(=O)(=O)[O-])c5F)c5nc(c(-c6cccc(S(=O)(=O)[O-])c6F)c6ccc3[nH]6)C=C5)C=C4)cc2)C1
REMARK SMILES IDX 24 1 23 2 22 3 21 4 20 5 18 6 19 7 7 9 3 10 4 11 93 12 5 13
REMARK SMILES IDX 6 14 2 15 1 16 8 17 9 18 10 19 17 20 11 21 12 22 16 23 13 24
REMARK SMILES IDX 15 25 14 26 25 27 26 28 27 29 28 30 29 32 30 33 31 34 92 35
REMARK SMILES IDX 32 36 91 37 33 38 34 39 35 40 85 41 36 42 90 43 84 44 86 45
REMARK SMILES IDX 37 46 89 47 83 48 82 49 38 51 70 52 50 53 69 54 51 55 54 56
REMARK SMILES IDX 68 57 87 58 52 59 53 60 67 62 88 63 55 64 39 65 40 66 48 67
REMARK SMILES IDX 41 68 43 69 49 70 42 71 44 72 45 73 46 74 47 75 71 76 72 77
REMARK SMILES IDX 80 78 73 79 75 80 81 81 74 82 76 83 77 84 78 85 79 86 56 87
REMARK SMILES IDX 57 88 65 89 58 90 60 91 66 92 59 93 61 94 62 95 63 96 64 97
REMARK H PARENT 20 8 27 31 86 50 54 61
REMARK Flexibility Score: inf
ROOT
ATOM      1  C   UNL A   1      34.835  20.059  24.742  1.00  0.00     0.002 C 
ENDROOT
BRANCH   1   2
ATOM      2  C   UNL A   1      33.325  19.975  25.012  1.00  0.00     0.002 C 
BRANCH   2   3
ATOM      3  C   UNL A   1      32.405  20.090  23.789  1.00  0.00     0.021 C 
BRANCH   3   4
ATOM      4  C   UNL A   1      32.021  21.516  23.418  1.00  0.00     0.116 C 
BRANCH   4   5
ATOM      5  N   UNL A   1      32.982  22.240  22.626  1.00  0.00    -0.356 N 
ATOM      6  C   UNL A   1      33.526  23.470  22.849  1.00  0.00     0.226 C 
ATOM      7  O   UNL A   1      34.650  23.646  22.363  1.00  0.00    -0.274 OA
ATOM      8  H   UNL A   1      33.289  21.783  21.809  1.00  0.00     0.163 HD
BRANCH   6   9
ATOM      9  C   UNL A   1      32.812  24.605  23.653  1.00  0.00     0.050 C 
ATOM     10  C   UNL A   1      33.372  23.456  25.979  1.00  0.00    -0.010 C 
ATOM     11  C   UNL A   1      34.383  24.566  26.289  1.00  0.00     0.003 C 
ATOM     12  C   UNL A   1      32.284  23.927  24.990  1.00  0.00     0.020 C 
ATOM     13  C   UNL A   1      34.919  25.201  25.017  1.00  0.00     0.001 C 
ATOM     14  C   UNL A   1      33.769  25.712  24.150  1.00  0.00     0.017 C 
BRANCH  10  15
ATOM     15  C   UNL A   1      32.764  22.875  27.274  1.00  0.00     0.000 C 
ATOM     16  C   UNL A   1      31.260  22.618  27.243  1.00  0.00     0.004 C 
ENDBRANCH  10  15
BRANCH   9  17
ATOM     17  C   UNL A   1      31.471  25.075  22.933  1.00  0.00     0.026 C 
BRANCH  17  18
ATOM     18  C   UNL A   1      30.675  26.393  23.170  1.00  0.00     0.032 C 
ATOM     19  C   UNL A   1      30.906  27.471  22.095  1.00  0.00     0.083 C 
ATOM     20  C   UNL A   1      30.821  27.012  24.530  1.00  0.00    -0.030 A 
ATOM     21  S   UNL A   1      31.169  29.067  22.925  1.00  0.00    -0.125 SA
ATOM     22  C   UNL A   1      31.258  28.335  24.527  1.00  0.00     0.011 A 
ATOM     23  C   UNL A   1      30.606  26.356  25.738  1.00  0.00     0.005 A 
ATOM     24  C   UNL A   1      31.717  28.933  25.690  1.00  0.00     0.015 A 
ATOM     25  C   UNL A   1      31.034  26.961  26.921  1.00  0.00     0.000 A 
ATOM     26  C   UNL A   1      31.637  28.223  26.889  1.00  0.00     0.001 A 
ENDBRANCH  17  18
ENDBRANCH   9  17
ENDBRANCH   6   9
ENDBRANCH   4   5
ENDBRANCH   3   4
ENDBRANCH   2   3
ENDBRANCH   1   2
BRANCH   1  27
ATOM     27  C   UNL A   1      35.536  21.321  25.241  1.00  0.00     0.021 C 
BRANCH  27  28
ATOM     28  C   UNL A   1      36.960  21.524  24.748  1.00  0.00     0.116 C 
BRANCH  28  29
ATOM     29  N   UNL A   1      37.844  20.434  25.126  1.00  0.00    -0.352 N 
ATOM     30  C   UNL A   1      39.100  20.456  25.680  1.00  0.00     0.251 C 
ATOM     31  H   UNL A   1      37.483  19.533  24.956  1.00  0.00     0.163 HD
ATOM     32  O   UNL A   1      39.742  19.405  25.749  1.00  0.00    -0.269 OA
BRANCH  30  33
ATOM     33  C   UNL A   1      39.696  21.722  26.166  1.00  0.00     0.039 A 
ATOM     34  C   UNL A   1      38.987  22.922  26.108  1.00  0.00     0.014 A 
ATOM     35  C   UNL A   1      40.984  21.708  26.714  1.00  0.00     0.014 A 
ATOM     36  C   UNL A   1      39.623  24.119  26.416  1.00  0.00     0.010 A 
ATOM     37  C   UNL A   1      41.579  22.903  27.136  1.00  0.00     0.010 A 
ATOM     38  C   UNL A   1      40.921  24.127  26.952  1.00  0.00    -0.014 A 
BRANCH  38  39
ATOM     39  C   UNL A   1      41.530  25.425  27.353  1.00  0.00     0.031 A 
ATOM     40  C   UNL A   1      42.903  25.827  26.882  1.00  0.00     0.074 A 
ATOM     41  C   UNL A   1      40.811  26.268  28.122  1.00  0.00     0.049 A 
ATOM     42  N   UNL A   1      43.544  26.948  27.100  1.00  0.00    -0.248 NA
ATOM     43  C   UNL A   1      43.661  24.857  26.073  1.00  0.00     0.031 C 
ATOM     44  C   UNL A   1      39.485  25.979  28.675  1.00  0.00     0.029 A 
ATOM     45  N   UNL A   1      41.077  27.542  28.559  1.00  0.00    -0.354 N 
ATOM     46  C   UNL A   1      44.785  26.806  26.492  1.00  0.00     0.074 A 
ATOM     47  C   UNL A   1      44.817  25.487  25.900  1.00  0.00     0.031 C 
ATOM     48  C   UNL A   1      39.030  27.059  29.324  1.00  0.00     0.029 A 
ATOM     49  C   UNL A   1      40.054  28.097  29.293  1.00  0.00     0.049 A 
ATOM     50  H   UNL A   1      41.919  28.013  28.367  1.00  0.00     0.167 HD
ATOM     51  C   UNL A   1      45.796  27.702  26.415  1.00  0.00     0.034 A 
ATOM     52  C   UNL A   1      39.944  29.301  29.886  1.00  0.00     0.034 A 
ATOM     53  C   UNL A   1      45.742  29.032  26.957  1.00  0.00     0.049 A 
ATOM     54  C   UNL A   1      41.074  30.279  29.774  1.00  0.00     0.074 A 
ATOM     55  C   UNL A   1      46.699  30.028  26.870  1.00  0.00     0.029 A 
ATOM     56  N   UNL A   1      44.684  29.551  27.685  1.00  0.00    -0.354 N 
ATOM     57  N   UNL A   1      42.201  30.153  29.117  1.00  0.00    -0.248 NA
ATOM     58  C   UNL A   1      40.921  31.567  30.467  1.00  0.00     0.031 C 
ATOM     59  C   UNL A   1      46.229  31.145  27.562  1.00  0.00     0.029 A 
ATOM     60  C   UNL A   1      44.969  30.852  28.059  1.00  0.00     0.049 A 
ATOM     61  H   UNL A   1      43.855  29.067  27.902  1.00  0.00     0.167 HD
ATOM     62  C   UNL A   1      42.882  31.348  29.300  1.00  0.00     0.074 A 
ATOM     63  C   UNL A   1      42.041  32.192  30.123  1.00  0.00     0.031 C 
ATOM     64  C   UNL A   1      44.103  31.701  28.834  1.00  0.00     0.034 A 
BRANCH  51  65
ATOM     65  C   UNL A   1      47.046  27.313  25.673  1.00  0.00     0.023 A 
ATOM     66  C   UNL A   1      47.973  26.452  26.292  1.00  0.00     0.012 A 
ATOM     67  C   UNL A   1      47.230  27.682  24.326  1.00  0.00     0.148 A 
ATOM     68  C   UNL A   1      49.070  25.966  25.581  1.00  0.00     0.002 A 
ATOM     69  C   UNL A   1      48.310  27.171  23.615  1.00  0.00     0.091 A 
ATOM     70  F   UNL A   1      46.335  28.506  23.763  1.00  0.00    -0.205 F 
ATOM     71  C   UNL A   1      49.232  26.316  24.242  1.00  0.00     0.022 A 
BRANCH  69  72
ATOM     72  S   UNL A   1      48.580  27.512  21.873  1.00  0.00     0.127 S 
ATOM     73  O   UNL A   1      49.669  28.487  21.930  1.00  0.00    -0.237 OA
ATOM     74  O   UNL A   1      48.964  26.198  21.359  1.00  0.00    -0.237 OA
ATOM     75  O   UNL A   1      47.318  28.028  21.360  1.00  0.00    -0.744 OA
ENDBRANCH  69  72
ENDBRANCH  51  65
BRANCH  52  76
ATOM     76  C   UNL A   1      38.684  29.643  30.600  1.00  0.00     0.023 A 
ATOM     77  C   UNL A   1      38.479  29.163  31.907  1.00  0.00     0.012 A 
ATOM     78  C   UNL A   1      37.742  30.520  30.028  1.00  0.00     0.148 A 
ATOM     79  C   UNL A   1      37.353  29.552  32.633  1.00  0.00     0.002 A 
ATOM     80  C   UNL A   1      36.646  30.935  30.773  1.00  0.00     0.091 A 
ATOM     81  F   UNL A   1      37.966  30.964  28.783  1.00  0.00    -0.205 F 
ATOM     82  C   UNL A   1      36.445  30.446  32.072  1.00  0.00     0.022 A 
BRANCH  80  83
ATOM     83  S   UNL A   1      35.480  32.165  30.176  1.00  0.00     0.127 S 
ATOM     84  O   UNL A   1      36.356  33.307  29.925  1.00  0.00    -0.237 OA
ATOM     85  O   UNL A   1      34.951  31.517  28.977  1.00  0.00    -0.237 OA
ATOM     86  O   UNL A   1      34.509  32.346  31.247  1.00  0.00    -0.744 OA
ENDBRANCH  80  83
ENDBRANCH  52  76
BRANCH  64  87
ATOM     87  C   UNL A   1      44.629  33.069  29.160  1.00  0.00     0.023 A 
ATOM     88  C   UNL A   1      45.458  33.240  30.284  1.00  0.00     0.012 A 
ATOM     89  C   UNL A   1      44.457  34.130  28.249  1.00  0.00     0.148 A 
ATOM     90  C   UNL A   1      46.121  34.448  30.490  1.00  0.00     0.002 A 
ATOM     91  C   UNL A   1      45.147  35.318  28.443  1.00  0.00     0.091 A 
ATOM     92  F   UNL A   1      43.661  33.934  27.188  1.00  0.00    -0.205 F 
ATOM     93  C   UNL A   1      45.979  35.480  29.563  1.00  0.00     0.022 A 
BRANCH  91  94
ATOM     94  S   UNL A   1      45.093  36.675  27.266  1.00  0.00     0.127 S 
ATOM     95  O   UNL A   1      45.558  37.795  28.082  1.00  0.00    -0.237 OA
ATOM     96  O   UNL A   1      46.037  36.230  26.241  1.00  0.00    -0.237 OA
ATOM     97  O   UNL A   1      43.708  36.773  26.824  1.00  0.00    -0.744 OA
ENDBRANCH  91  94
ENDBRANCH  64  87
ENDBRANCH  38  39
ENDBRANCH  30  33
ENDBRANCH  28  29
ENDBRANCH  27  28
ENDBRANCH   1  27
TORSDOF 19
ENDMDL
MODEL 3
REMARK VINA RESULT:     -11.1      5.400     10.053
REMARK SMILES CC[C@@H]1CCC[C@@](C[C@@H]2CSc3ccccc32)(C(=O)NCCCCCCNC(=O)c2ccc(-c3c4nc(c(-c5cccc(S(=O)(=O)[O-])c5F)c5ccc([nH]5)c(-c5cccc(S(=O)(=O)[O-])c5F)c5nc(c(-c6cccc(S(=O)(=O)[O-])c6F)c6ccc3[nH]6)C=C5)C=C4)cc2)C1
REMARK SMILES IDX 24 1 23 2 22 3 21 4 20 5 18 6 19 7 7 9 3 10 4 11 93 12 5 13
REMARK SMILES IDX 6 14 2 15 1 16 8 17 9 18 10 19 17 20 11 21 12 22 16 23 13 24
REMARK SMILES IDX 15 25 14 26 25 27 26 28 27 29 28 30 29 32 30 33 31 34 92 35
REMARK SMILES IDX 32 36 91 37 33 38 34 39 35 40 85 41 36 42 90 43 84 44 86 45
REMARK SMILES IDX 37 46 89 47 83 48 82 49 38 51 70 52 50 53 69 54 51 55 54 56
REMARK SMILES IDX 68 57 87 58 52 59 53 60 67 62 88 63 55 64 39 65 40 66 48 67
REMARK SMILES IDX 41 68 43 69 49 70 42 71 44 72 45 73 46 74 47 75 71 76 72 77
REMARK SMILES IDX 80 78 73 79 75 80 81 81 74 82 76 83 77 84 78 85 79 86 56 87
REMARK SMILES IDX 57 88 65 89 58 90 60 91 66 92 59 93 61 94 62 95 63 96 64 97
REMARK H PARENT 20 8 27 31 86 50 54 61
REMARK Flexibility Score: inf
ROOT
ATOM      1  C   UNL A   1      31.781  27.271  26.820  1.00  0.00     0.002 C 
ENDROOT
BRANCH   1   2
ATOM      2  C   UNL A   1      31.736  25.753  26.590  1.00  0.00     0.002 C 
BRANCH   2   3
ATOM      3  C   UNL A   1      30.399  25.058  26.877  1.00  0.00     0.021 C 
BRANCH   3   4
ATOM      4  C   UNL A   1      30.357  23.584  26.498  1.00  0.00     0.116 C 
BRANCH   4   5
ATOM      5  N   UNL A   1      31.413  22.766  27.039  1.00  0.00    -0.356 N 
ATOM      6  C   UNL A   1      32.620  22.450  26.491  1.00  0.00     0.226 C 
ATOM      7  O   UNL A   1      33.518  22.200  27.304  1.00  0.00    -0.274 OA
ATOM      8  H   UNL A   1      31.238  22.382  27.929  1.00  0.00     0.163 HD
BRANCH   6   9
ATOM      9  C   UNL A   1      32.890  22.392  24.952  1.00  0.00     0.050 C 
ATOM     10  C   UNL A   1      34.877  20.660  25.258  1.00  0.00    -0.010 C 
ATOM     11  C   UNL A   1      34.016  19.555  24.638  1.00  0.00     0.003 C 
ATOM     12  C   UNL A   1      34.437  22.064  24.792  1.00  0.00     0.020 C 
ATOM     13  C   UNL A   1      32.534  19.841  24.813  1.00  0.00     0.001 C 
ATOM     14  C   UNL A   1      32.184  21.214  24.242  1.00  0.00     0.017 C 
BRANCH  10  15
ATOM     15  C   UNL A   1      36.379  20.411  25.001  1.00  0.00     0.000 C 
ATOM     16  C   UNL A   1      37.140  21.561  24.346  1.00  0.00     0.004 C 
ENDBRANCH  10  15
BRANCH   9  17
ATOM     17  C   UNL A   1      32.754  23.831  24.281  1.00  0.00     0.026 C 
BRANCH  17  18
ATOM     18  C   UNL A   1      32.159  24.176  22.883  1.00  0.00     0.032 C 
ATOM     19  C   UNL A   1      33.218  24.465  21.802  1.00  0.00     0.083 C 
ATOM     20  C   UNL A   1      31.122  25.260  22.860  1.00  0.00    -0.030 A 
ATOM     21  S   UNL A   1      32.716  25.953  20.887  1.00  0.00    -0.125 SA
ATOM     22  C   UNL A   1      31.404  26.322  22.005  1.00  0.00     0.011 A 
ATOM     23  C   UNL A   1      29.973  25.290  23.646  1.00  0.00     0.005 A 
ATOM     24  C   UNL A   1      30.702  27.514  22.097  1.00  0.00     0.015 A 
ATOM     25  C   UNL A   1      29.238  26.473  23.724  1.00  0.00     0.000 A 
ATOM     26  C   UNL A   1      29.633  27.598  22.993  1.00  0.00     0.001 A 
ENDBRANCH  17  18
ENDBRANCH   9  17
ENDBRANCH   6   9
ENDBRANCH   4   5
ENDBRANCH   3   4
ENDBRANCH   2   3
ENDBRANCH   1   2
BRANCH   1  27
ATOM     27  C   UNL A   1      31.881  28.136  25.565  1.00  0.00     0.021 C 
BRANCH  27  28
ATOM     28  C   UNL A   1      33.025  29.139  25.544  1.00  0.00     0.116 C 
BRANCH  28  29
ATOM     29  N   UNL A   1      32.628  30.450  26.029  1.00  0.00    -0.352 N 
ATOM     30  C   UNL A   1      33.182  31.245  27.001  1.00  0.00     0.251 C 
ATOM     31  H   UNL A   1      31.834  30.830  25.588  1.00  0.00     0.163 HD
ATOM     32  O   UNL A   1      32.569  32.247  27.376  1.00  0.00    -0.269 OA
BRANCH  30  33
ATOM     33  C   UNL A   1      34.485  30.900  27.617  1.00  0.00     0.039 A 
ATOM     34  C   UNL A   1      34.763  29.598  28.033  1.00  0.00     0.014 A 
ATOM     35  C   UNL A   1      35.459  31.894  27.763  1.00  0.00     0.014 A 
ATOM     36  C   UNL A   1      35.922  29.333  28.753  1.00  0.00     0.010 A 
ATOM     37  C   UNL A   1      36.678  31.594  28.384  1.00  0.00     0.010 A 
ATOM     38  C   UNL A   1      36.905  30.321  28.924  1.00  0.00    -0.014 A 
BRANCH  38  39
ATOM     39  C   UNL A   1      38.171  29.969  29.624  1.00  0.00     0.031 A 
ATOM     40  C   UNL A   1      38.475  30.485  31.005  1.00  0.00     0.074 A 
ATOM     41  C   UNL A   1      39.039  29.136  29.014  1.00  0.00     0.049 A 
ATOM     42  N   UNL A   1      39.507  30.221  31.766  1.00  0.00    -0.248 NA
ATOM     43  C   UNL A   1      37.512  31.419  31.615  1.00  0.00     0.031 C 
ATOM     44  C   UNL A   1      38.878  28.597  27.660  1.00  0.00     0.029 A 
ATOM     45  N   UNL A   1      40.215  28.578  29.450  1.00  0.00    -0.354 N 
ATOM     46  C   UNL A   1      39.339  30.978  32.919  1.00  0.00     0.074 A 
ATOM     47  C   UNL A   1      38.110  31.722  32.761  1.00  0.00     0.031 C 
ATOM     48  C   UNL A   1      39.879  27.747  27.399  1.00  0.00     0.029 A 
ATOM     49  C   UNL A   1      40.792  27.725  28.537  1.00  0.00     0.049 A 
ATOM     50  H   UNL A   1      40.610  28.771  30.331  1.00  0.00     0.167 HD
ATOM     51  C   UNL A   1      40.127  31.030  34.018  1.00  0.00     0.034 A 
ATOM     52  C   UNL A   1      41.930  27.007  28.594  1.00  0.00     0.034 A 
ATOM     53  C   UNL A   1      41.321  30.250  34.197  1.00  0.00     0.049 A 
ATOM     54  C   UNL A   1      42.777  27.074  29.829  1.00  0.00     0.074 A 
ATOM     55  C   UNL A   1      42.146  30.196  35.306  1.00  0.00     0.029 A 
ATOM     56  N   UNL A   1      41.860  29.396  33.249  1.00  0.00    -0.354 N 
ATOM     57  N   UNL A   1      42.549  27.729  30.941  1.00  0.00    -0.248 NA
ATOM     58  C   UNL A   1      44.026  26.299  29.831  1.00  0.00     0.031 C 
ATOM     59  C   UNL A   1      43.198  29.322  35.024  1.00  0.00     0.029 A 
ATOM     60  C   UNL A   1      43.013  28.815  33.748  1.00  0.00     0.049 A 
ATOM     61  H   UNL A   1      41.481  29.228  32.358  1.00  0.00     0.167 HD
ATOM     62  C   UNL A   1      43.613  27.432  31.781  1.00  0.00     0.074 A 
ATOM     63  C   UNL A   1      44.485  26.531  31.056  1.00  0.00     0.031 C 
ATOM     64  C   UNL A   1      43.845  27.880  33.037  1.00  0.00     0.034 A 
BRANCH  51  65
ATOM     65  C   UNL A   1      39.713  31.922  35.158  1.00  0.00     0.023 A 
ATOM     66  C   UNL A   1      39.979  33.303  35.082  1.00  0.00     0.012 A 
ATOM     67  C   UNL A   1      38.943  31.419  36.224  1.00  0.00     0.148 A 
ATOM     68  C   UNL A   1      39.488  34.172  36.055  1.00  0.00     0.002 A 
ATOM     69  C   UNL A   1      38.433  32.295  37.176  1.00  0.00     0.091 A 
ATOM     70  F   UNL A   1      38.709  30.100  36.274  1.00  0.00    -0.205 F 
ATOM     71  C   UNL A   1      38.707  33.670  37.094  1.00  0.00     0.022 A 
BRANCH  69  72
ATOM     72  S   UNL A   1      37.369  31.761  38.521  1.00  0.00     0.127 S 
ATOM     73  O   UNL A   1      38.237  31.965  39.681  1.00  0.00    -0.237 OA
ATOM     74  O   UNL A   1      36.254  32.703  38.422  1.00  0.00    -0.237 OA
ATOM     75  O   UNL A   1      37.028  30.373  38.243  1.00  0.00    -0.744 OA
ENDBRANCH  69  72
ENDBRANCH  51  65
BRANCH  52  76
ATOM     76  C   UNL A   1      42.292  26.133  27.446  1.00  0.00     0.023 A 
ATOM     77  C   UNL A   1      43.141  26.631  26.441  1.00  0.00     0.012 A 
ATOM     78  C   UNL A   1      41.881  24.786  27.404  1.00  0.00     0.148 A 
ATOM     79  C   UNL A   1      43.575  25.799  25.407  1.00  0.00     0.002 A 
ATOM     80  C   UNL A   1      42.350  23.955  26.395  1.00  0.00     0.091 A 
ATOM     81  F   UNL A   1      41.075  24.340  28.377  1.00  0.00    -0.205 F 
ATOM     82  C   UNL A   1      43.190  24.461  25.392  1.00  0.00     0.022 A 
BRANCH  80  83
ATOM     83  S   UNL A   1      41.998  22.193  26.350  1.00  0.00     0.127 S 
ATOM     84  O   UNL A   1      40.557  22.185  26.111  1.00  0.00    -0.237 OA
ATOM     85  O   UNL A   1      42.815  21.756  25.218  1.00  0.00    -0.237 OA
ATOM     86  O   UNL A   1      42.420  21.669  27.642  1.00  0.00    -0.744 OA
ENDBRANCH  80  83
ENDBRANCH  52  76
BRANCH  64  87
ATOM     87  C   UNL A   1      45.074  27.403  33.755  1.00  0.00     0.023 A 
ATOM     88  C   UNL A   1      46.231  28.204  33.750  1.00  0.00     0.012 A 
ATOM     89  C   UNL A   1      45.013  26.265  34.584  1.00  0.00     0.148 A 
ATOM     90  C   UNL A   1      47.310  27.884  34.574  1.00  0.00     0.002 A 
ATOM     91  C   UNL A   1      46.077  25.973  35.426  1.00  0.00     0.091 A 
ATOM     92  F   UNL A   1      43.896  25.524  34.565  1.00  0.00    -0.205 F 
ATOM     93  C   UNL A   1      47.226  26.780  35.421  1.00  0.00     0.022 A 
BRANCH  91  94
ATOM     94  S   UNL A   1      46.035  24.622  36.610  1.00  0.00     0.127 S 
ATOM     95  O   UNL A   1      45.097  25.131  37.609  1.00  0.00    -0.237 OA
ATOM     96  O   UNL A   1      45.524  23.518  35.798  1.00  0.00    -0.237 OA
ATOM     97  O   UNL A   1      47.403  24.455  37.083  1.00  0.00    -0.744 OA
ENDBRANCH  91  94
ENDBRANCH  64  87
ENDBRANCH  38  39
ENDBRANCH  30  33
ENDBRANCH  28  29
ENDBRANCH  27  28
ENDBRANCH   1  27
TORSDOF 19
ENDMDL
