MODEL 1
REMARK VINA RESULT:     -11.8      0.000      0.000
REMARK SMILES Cc1nccn1CCC[NH+]1CCC2(CC1)[C@@H](C(=O)NCCCCCCNC(=O)c1ccc(-c3c4nc(c(-c5cccc(S(=O)(=O)[O-])c5F)c5ccc([nH]5)c(-c5cccc(S(=O)(=O)[O-])c5F)c5nc(c(-c6cccc(S(=O)(=O)[O-])c6F)c6ccc3[nH]6)C=C5)C=C4)cc1)CC(=O)N2C
REMARK SMILES IDX 22 1 21 2 20 3 19 4 17 5 18 6 16 8 10 9 11 10 15 11 12 13
REMARK SMILES IDX 14 14 13 15 95 16 92 17 93 18 96 19 94 20 9 21 8 22 7 23
REMARK SMILES IDX 6 24 1 25 2 26 3 27 4 28 5 29 23 30 24 31 25 32 26 33 27 34
REMARK SMILES IDX 28 36 29 37 30 38 91 39 31 40 90 41 32 42 33 43 34 44 84 45
REMARK SMILES IDX 35 46 89 47 83 48 85 49 36 50 88 51 82 52 81 53 37 55 69 56
REMARK SMILES IDX 49 57 68 58 50 59 53 60 67 61 86 62 51 63 52 64 66 66 87 67
REMARK SMILES IDX 54 68 38 69 39 70 47 71 40 72 42 73 48 74 41 75 43 76 44 77
REMARK SMILES IDX 45 78 46 79 70 80 71 81 79 82 72 83 74 84 80 85 73 86 75 87
REMARK SMILES IDX 76 88 77 89 78 90 55 91 56 92 64 93 57 94 59 95 65 96 58 97
REMARK SMILES IDX 60 98 61 99 62 100 63 101
REMARK H PARENT 19 7 10 12 26 35 85 54 53 65
REMARK Flexibility Score: inf
ROOT
ATOM      1  C   UNL A   1      33.664  29.813  26.820  1.00  0.00     0.002 C 
ENDROOT
BRANCH   1   2
ATOM      2  C   UNL A   1      32.778  28.757  27.491  1.00  0.00     0.021 C 
BRANCH   2   3
ATOM      3  C   UNL A   1      31.662  28.199  26.614  1.00  0.00     0.116 C 
BRANCH   3   4
ATOM      4  N   UNL A   1      31.309  26.839  26.983  1.00  0.00    -0.356 N 
ATOM      5  C   UNL A   1      31.866  25.646  26.637  1.00  0.00     0.226 C 
ATOM      6  O   UNL A   1      31.403  24.626  27.152  1.00  0.00    -0.275 OA
ATOM      7  H   UNL A   1      30.535  26.768  27.588  1.00  0.00     0.163 HD
BRANCH   5   8
ATOM      8  C   UNL A   1      33.051  25.606  25.690  1.00  0.00     0.114 C 
ATOM      9  N   UNL A   1      31.719  27.612  22.021  1.00  0.00    -0.335 N 
ATOM     10  C   UNL A   1      33.148  27.393  22.248  1.00  0.00     0.264 C 
ATOM     11  C   UNL A   1      30.894  26.484  22.458  1.00  0.00     0.264 C 
ATOM     12  H   UNL A   1      31.637  27.662  21.006  1.00  0.00     0.348 HD
ATOM     13  C   UNL A   1      33.492  26.981  23.667  1.00  0.00     0.091 C 
ATOM     14  C   UNL A   1      31.220  25.933  23.853  1.00  0.00     0.091 C 
ATOM     15  C   UNL A   1      32.724  25.735  24.161  1.00  0.00     0.065 C 
ATOM     16  N   UNL A   1      33.283  24.478  23.617  1.00  0.00    -0.339 N 
ATOM     17  C   UNL A   1      33.791  24.286  25.900  1.00  0.00     0.116 C 
ATOM     18  C   UNL A   1      33.979  23.716  24.538  1.00  0.00     0.223 C 
ATOM     19  C   UNL A   1      33.311  24.071  22.228  1.00  0.00     0.147 C 
ATOM     20  O   UNL A   1      34.641  22.716  24.296  1.00  0.00    -0.275 OA
BRANCH   9  21
ATOM     21  C   UNL A   1      31.203  28.909  22.484  1.00  0.00     0.264 C 
BRANCH  21  22
ATOM     22  C   UNL A   1      29.742  28.914  22.965  1.00  0.00     0.083 C 
BRANCH  22  23
ATOM     23  C   UNL A   1      28.755  29.728  22.115  1.00  0.00     0.129 C 
BRANCH  23  24
ATOM     24  N   UNL A   1      28.753  31.157  22.352  1.00  0.00    -0.335 N 
ATOM     25  C   UNL A   1      27.768  31.858  20.136  1.00  0.00     0.087 C 
ATOM     26  C   UNL A   1      28.320  32.139  21.487  1.00  0.00     0.105 A 
ATOM     27  N   UNL A   1      28.414  33.331  22.052  1.00  0.00    -0.242 NA
ATOM     28  C   UNL A   1      28.845  33.101  23.328  1.00  0.00     0.131 A 
ATOM     29  C   UNL A   1      29.025  31.761  23.551  1.00  0.00     0.107 A 
ENDBRANCH  23  24
ENDBRANCH  22  23
ENDBRANCH  21  22
ENDBRANCH   9  21
ENDBRANCH   5   8
ENDBRANCH   3   4
ENDBRANCH   2   3
ENDBRANCH   1   2
BRANCH   1  30
ATOM     30  C   UNL A   1      33.835  31.138  27.577  1.00  0.00     0.002 C 
BRANCH  30  31
ATOM     31  C   UNL A   1      32.629  32.087  27.597  1.00  0.00     0.021 C 
BRANCH  31  32
ATOM     32  C   UNL A   1      32.941  33.518  27.183  1.00  0.00     0.116 C 
BRANCH  32  33
ATOM     33  N   UNL A   1      32.554  34.492  28.197  1.00  0.00    -0.352 N 
ATOM     34  C   UNL A   1      33.119  34.681  29.440  1.00  0.00     0.251 C 
ATOM     35  H   UNL A   1      31.802  35.084  27.969  1.00  0.00     0.163 HD
ATOM     36  O   UNL A   1      32.478  35.238  30.333  1.00  0.00    -0.269 OA
BRANCH  34  37
ATOM     37  C   UNL A   1      34.488  34.198  29.693  1.00  0.00     0.039 A 
ATOM     38  C   UNL A   1      34.726  33.216  30.655  1.00  0.00     0.014 A 
ATOM     39  C   UNL A   1      35.543  34.716  28.939  1.00  0.00     0.014 A 
ATOM     40  C   UNL A   1      36.011  32.700  30.782  1.00  0.00     0.010 A 
ATOM     41  C   UNL A   1      36.781  34.110  28.970  1.00  0.00     0.010 A 
ATOM     42  C   UNL A   1      37.035  33.118  29.908  1.00  0.00    -0.014 A 
BRANCH  42  43
ATOM     43  C   UNL A   1      38.309  32.398  29.894  1.00  0.00     0.031 A 
ATOM     44  C   UNL A   1      38.212  31.034  29.309  1.00  0.00     0.074 A 
ATOM     45  C   UNL A   1      39.513  32.900  30.250  1.00  0.00     0.049 A 
ATOM     46  N   UNL A   1      38.189  29.922  29.967  1.00  0.00    -0.248 NA
ATOM     47  C   UNL A   1      37.919  30.886  27.876  1.00  0.00     0.031 C 
ATOM     48  C   UNL A   1      39.853  34.288  30.583  1.00  0.00     0.029 A 
ATOM     49  N   UNL A   1      40.730  32.280  30.282  1.00  0.00    -0.354 N 
ATOM     50  C   UNL A   1      38.171  28.922  29.002  1.00  0.00     0.074 A 
ATOM     51  C   UNL A   1      37.776  29.561  27.775  1.00  0.00     0.031 C 
ATOM     52  C   UNL A   1      41.194  34.450  30.532  1.00  0.00     0.029 A 
ATOM     53  C   UNL A   1      41.813  33.152  30.349  1.00  0.00     0.049 A 
ATOM     54  H   UNL A   1      40.832  31.300  30.261  1.00  0.00     0.167 HD
ATOM     55  C   UNL A   1      38.777  27.726  29.243  1.00  0.00     0.034 A 
ATOM     56  C   UNL A   1      43.127  32.838  30.235  1.00  0.00     0.034 A 
ATOM     57  C   UNL A   1      39.052  27.554  30.652  1.00  0.00     0.049 A 
ATOM     58  C   UNL A   1      43.281  31.411  30.571  1.00  0.00     0.074 A 
ATOM     59  C   UNL A   1      38.310  27.612  31.817  1.00  0.00     0.029 A 
ATOM     60  N   UNL A   1      40.365  27.674  31.042  1.00  0.00    -0.354 N 
ATOM     61  N   UNL A   1      43.115  30.944  31.774  1.00  0.00    -0.248 NA
ATOM     62  C   UNL A   1      43.226  30.434  29.500  1.00  0.00     0.031 C 
ATOM     63  C   UNL A   1      39.167  28.238  32.771  1.00  0.00     0.029 A 
ATOM     64  C   UNL A   1      40.405  28.451  32.165  1.00  0.00     0.049 A 
ATOM     65  H   UNL A   1      41.140  27.269  30.590  1.00  0.00     0.167 HD
ATOM     66  C   UNL A   1      42.435  29.755  31.573  1.00  0.00     0.074 A 
ATOM     67  C   UNL A   1      42.659  29.425  30.166  1.00  0.00     0.031 C 
ATOM     68  C   UNL A   1      41.513  29.321  32.483  1.00  0.00     0.034 A 
BRANCH  55  69
ATOM     69  C   UNL A   1      39.526  26.916  28.203  1.00  0.00     0.023 A 
ATOM     70  C   UNL A   1      39.360  25.512  28.244  1.00  0.00     0.012 A 
ATOM     71  C   UNL A   1      40.594  27.407  27.416  1.00  0.00     0.148 A 
ATOM     72  C   UNL A   1      40.260  24.645  27.616  1.00  0.00     0.002 A 
ATOM     73  C   UNL A   1      41.435  26.544  26.724  1.00  0.00     0.091 A 
ATOM     74  F   UNL A   1      40.900  28.705  27.430  1.00  0.00    -0.205 F 
ATOM     75  C   UNL A   1      41.298  25.161  26.853  1.00  0.00     0.022 A 
BRANCH  73  76
ATOM     76  S   UNL A   1      42.763  27.160  25.681  1.00  0.00     0.127 S 
ATOM     77  O   UNL A   1      43.119  25.962  24.929  1.00  0.00    -0.237 OA
ATOM     78  O   UNL A   1      42.076  28.198  24.913  1.00  0.00    -0.237 OA
ATOM     79  O   UNL A   1      43.777  27.670  26.597  1.00  0.00    -0.744 OA
ENDBRANCH  73  76
ENDBRANCH  55  69
BRANCH  56  80
ATOM     80  C   UNL A   1      44.225  33.583  29.589  1.00  0.00     0.023 A 
ATOM     81  C   UNL A   1      45.370  33.944  30.329  1.00  0.00     0.012 A 
ATOM     82  C   UNL A   1      44.302  33.614  28.186  1.00  0.00     0.148 A 
ATOM     83  C   UNL A   1      46.567  34.284  29.683  1.00  0.00     0.002 A 
ATOM     84  C   UNL A   1      45.500  33.926  27.552  1.00  0.00     0.091 A 
ATOM     85  F   UNL A   1      43.241  33.225  27.465  1.00  0.00    -0.205 F 
ATOM     86  C   UNL A   1      46.637  34.264  28.291  1.00  0.00     0.022 A 
BRANCH  84  87
ATOM     87  S   UNL A   1      45.596  33.798  25.769  1.00  0.00     0.127 S 
ATOM     88  O   UNL A   1      44.504  34.658  25.315  1.00  0.00    -0.237 OA
ATOM     89  O   UNL A   1      46.931  34.300  25.481  1.00  0.00    -0.237 OA
ATOM     90  O   UNL A   1      45.373  32.379  25.509  1.00  0.00    -0.744 OA
ENDBRANCH  84  87
ENDBRANCH  56  80
BRANCH  68  91
ATOM     91  C   UNL A   1      41.511  29.966  33.847  1.00  0.00     0.023 A 
ATOM     92  C   UNL A   1      42.345  29.543  34.904  1.00  0.00     0.012 A 
ATOM     93  C   UNL A   1      40.709  31.104  34.032  1.00  0.00     0.148 A 
ATOM     94  C   UNL A   1      42.341  30.213  36.132  1.00  0.00     0.002 A 
ATOM     95  C   UNL A   1      40.744  31.796  35.236  1.00  0.00     0.091 A 
ATOM     96  F   UNL A   1      39.920  31.496  33.021  1.00  0.00    -0.205 F 
ATOM     97  C   UNL A   1      41.548  31.346  36.294  1.00  0.00     0.022 A 
BRANCH  95  98
ATOM     98  S   UNL A   1      39.827  33.321  35.454  1.00  0.00     0.127 S 
ATOM     99  O   UNL A   1      38.451  32.839  35.545  1.00  0.00    -0.237 OA
ATOM    100  O   UNL A   1      40.376  33.846  36.706  1.00  0.00    -0.237 OA
ATOM    101  O   UNL A   1      40.135  34.138  34.286  1.00  0.00    -0.744 OA
ENDBRANCH  95  98
ENDBRANCH  68  91
ENDBRANCH  42  43
ENDBRANCH  34  37
ENDBRANCH  32  33
ENDBRANCH  31  32
ENDBRANCH  30  31
ENDBRANCH   1  30
TORSDOF 20
ENDMDL
MODEL 2
REMARK VINA RESULT:     -11.5      2.891      6.685
REMARK SMILES Cc1nccn1CCC[NH+]1CCC2(CC1)[C@@H](C(=O)NCCCCCCNC(=O)c1ccc(-c3c4nc(c(-c5cccc(S(=O)(=O)[O-])c5F)c5ccc([nH]5)c(-c5cccc(S(=O)(=O)[O-])c5F)c5nc(c(-c6cccc(S(=O)(=O)[O-])c6F)c6ccc3[nH]6)C=C5)C=C4)cc1)CC(=O)N2C
REMARK SMILES IDX 22 1 21 2 20 3 19 4 17 5 18 6 16 8 10 9 11 10 15 11 12 13
REMARK SMILES IDX 14 14 13 15 95 16 92 17 93 18 96 19 94 20 9 21 8 22 7 23
REMARK SMILES IDX 6 24 1 25 2 26 3 27 4 28 5 29 23 30 24 31 25 32 26 33 27 34
REMARK SMILES IDX 28 36 29 37 30 38 91 39 31 40 90 41 32 42 33 43 34 44 84 45
REMARK SMILES IDX 35 46 89 47 83 48 85 49 36 50 88 51 82 52 81 53 37 55 69 56
REMARK SMILES IDX 49 57 68 58 50 59 53 60 67 61 86 62 51 63 52 64 66 66 87 67
REMARK SMILES IDX 54 68 38 69 39 70 47 71 40 72 42 73 48 74 41 75 43 76 44 77
REMARK SMILES IDX 45 78 46 79 70 80 71 81 79 82 72 83 74 84 80 85 73 86 75 87
REMARK SMILES IDX 76 88 77 89 78 90 55 91 56 92 64 93 57 94 59 95 65 96 58 97
REMARK SMILES IDX 60 98 61 99 62 100 63 101
REMARK H PARENT 19 7 10 12 26 35 85 54 53 65
REMARK Flexibility Score: inf
ROOT
ATOM      1  C   UNL A   1      33.777  29.070  26.737  1.00  0.00     0.002 C 
ENDROOT
BRANCH   1   2
ATOM      2  C   UNL A   1      32.615  28.423  27.498  1.00  0.00     0.021 C 
BRANCH   2   3
ATOM      3  C   UNL A   1      31.475  27.911  26.622  1.00  0.00     0.116 C 
BRANCH   3   4
ATOM      4  N   UNL A   1      31.101  26.548  26.960  1.00  0.00    -0.356 N 
ATOM      5  C   UNL A   1      31.677  25.357  26.638  1.00  0.00     0.226 C 
ATOM      6  O   UNL A   1      31.185  24.333  27.117  1.00  0.00    -0.275 OA
ATOM      7  H   UNL A   1      30.293  26.473  27.518  1.00  0.00     0.163 HD
BRANCH   5   8
ATOM      8  C   UNL A   1      32.916  25.323  25.762  1.00  0.00     0.114 C 
ATOM      9  N   UNL A   1      31.888  27.597  22.151  1.00  0.00    -0.335 N 
ATOM     10  C   UNL A   1      33.291  27.305  22.448  1.00  0.00     0.264 C 
ATOM     11  C   UNL A   1      30.996  26.480  22.469  1.00  0.00     0.264 C 
ATOM     12  H   UNL A   1      31.870  27.710  21.138  1.00  0.00     0.348 HD
ATOM     13  C   UNL A   1      33.532  26.795  23.856  1.00  0.00     0.091 C 
ATOM     14  C   UNL A   1      31.214  25.835  23.844  1.00  0.00     0.091 C 
ATOM     15  C   UNL A   1      32.688  25.556  24.227  1.00  0.00     0.065 C 
ATOM     16  N   UNL A   1      33.231  24.311  23.641  1.00  0.00    -0.339 N 
ATOM     17  C   UNL A   1      33.590  23.964  25.934  1.00  0.00     0.116 C 
ATOM     18  C   UNL A   1      33.839  23.468  24.552  1.00  0.00     0.223 C 
ATOM     19  C   UNL A   1      33.328  23.986  22.233  1.00  0.00     0.147 C 
ATOM     20  O   UNL A   1      34.475  22.457  24.289  1.00  0.00    -0.275 OA
BRANCH   9  21
ATOM     21  C   UNL A   1      31.395  28.884  22.662  1.00  0.00     0.264 C 
BRANCH  21  22
ATOM     22  C   UNL A   1      29.867  29.017  22.780  1.00  0.00     0.083 C 
BRANCH  22  23
ATOM     23  C   UNL A   1      29.187  29.922  21.742  1.00  0.00     0.129 C 
BRANCH  23  24
ATOM     24  N   UNL A   1      28.959  31.292  22.158  1.00  0.00    -0.335 N 
ATOM     25  C   UNL A   1      27.773  32.077  20.073  1.00  0.00     0.087 C 
ATOM     26  C   UNL A   1      28.331  32.282  21.435  1.00  0.00     0.105 A 
ATOM     27  N   UNL A   1      28.252  33.396  22.145  1.00  0.00    -0.242 NA
ATOM     28  C   UNL A   1      28.772  33.090  23.370  1.00  0.00     0.131 A 
ATOM     29  C   UNL A   1      29.181  31.783  23.417  1.00  0.00     0.107 A 
ENDBRANCH  23  24
ENDBRANCH  22  23
ENDBRANCH  21  22
ENDBRANCH   9  21
ENDBRANCH   5   8
ENDBRANCH   3   4
ENDBRANCH   2   3
ENDBRANCH   1   2
BRANCH   1  30
ATOM     30  C   UNL A   1      34.481  30.241  27.437  1.00  0.00     0.002 C 
BRANCH  30  31
ATOM     31  C   UNL A   1      33.615  31.454  27.801  1.00  0.00     0.021 C 
BRANCH  31  32
ATOM     32  C   UNL A   1      34.398  32.704  28.176  1.00  0.00     0.116 C 
BRANCH  32  33
ATOM     33  N   UNL A   1      34.418  32.944  29.615  1.00  0.00    -0.352 N 
ATOM     34  C   UNL A   1      35.184  32.302  30.563  1.00  0.00     0.251 C 
ATOM     35  H   UNL A   1      33.813  33.645  29.948  1.00  0.00     0.163 HD
ATOM     36  O   UNL A   1      34.838  32.308  31.746  1.00  0.00    -0.269 OA
BRANCH  34  37
ATOM     37  C   UNL A   1      36.410  31.597  30.148  1.00  0.00     0.039 A 
ATOM     38  C   UNL A   1      37.568  32.311  29.843  1.00  0.00     0.014 A 
ATOM     39  C   UNL A   1      36.406  30.202  30.090  1.00  0.00     0.014 A 
ATOM     40  C   UNL A   1      38.737  31.608  29.572  1.00  0.00     0.010 A 
ATOM     41  C   UNL A   1      37.591  29.509  29.957  1.00  0.00     0.010 A 
ATOM     42  C   UNL A   1      38.760  30.202  29.670  1.00  0.00    -0.014 A 
BRANCH  42  43
ATOM     43  C   UNL A   1      40.042  29.497  29.620  1.00  0.00     0.031 A 
ATOM     44  C   UNL A   1      40.639  29.258  30.961  1.00  0.00     0.074 A 
ATOM     45  C   UNL A   1      40.625  28.981  28.515  1.00  0.00     0.049 A 
ATOM     46  N   UNL A   1      41.617  29.917  31.488  1.00  0.00    -0.248 NA
ATOM     47  C   UNL A   1      39.973  28.333  31.889  1.00  0.00     0.031 C 
ATOM     48  C   UNL A   1      40.067  28.871  27.163  1.00  0.00     0.029 A 
ATOM     49  N   UNL A   1      41.823  28.335  28.395  1.00  0.00    -0.354 N 
ATOM     50  C   UNL A   1      41.873  29.290  32.702  1.00  0.00     0.074 A 
ATOM     51  C   UNL A   1      40.709  28.496  32.993  1.00  0.00     0.031 C 
ATOM     52  C   UNL A   1      40.798  27.993  26.441  1.00  0.00     0.029 A 
ATOM     53  C   UNL A   1      41.972  27.623  27.209  1.00  0.00     0.049 A 
ATOM     54  H   UNL A   1      42.522  28.371  29.089  1.00  0.00     0.167 HD
ATOM     55  C   UNL A   1      43.142  29.249  33.197  1.00  0.00     0.034 A 
ATOM     56  C   UNL A   1      42.973  26.768  26.884  1.00  0.00     0.034 A 
ATOM     57  C   UNL A   1      43.996  30.204  32.527  1.00  0.00     0.049 A 
ATOM     58  C   UNL A   1      44.141  27.104  27.718  1.00  0.00     0.074 A 
ATOM     59  C   UNL A   1      43.950  31.562  32.276  1.00  0.00     0.029 A 
ATOM     60  N   UNL A   1      44.913  29.693  31.641  1.00  0.00    -0.354 N 
ATOM     61  N   UNL A   1      44.824  28.201  27.571  1.00  0.00    -0.248 NA
ATOM     62  C   UNL A   1      44.316  26.413  28.981  1.00  0.00     0.031 C 
ATOM     63  C   UNL A   1      44.472  31.712  30.956  1.00  0.00     0.029 A 
ATOM     64  C   UNL A   1      44.881  30.456  30.508  1.00  0.00     0.049 A 
ATOM     65  H   UNL A   1      45.493  28.913  31.797  1.00  0.00     0.167 HD
ATOM     66  C   UNL A   1      45.087  28.599  28.871  1.00  0.00     0.074 A 
ATOM     67  C   UNL A   1      44.882  27.400  29.682  1.00  0.00     0.031 C 
ATOM     68  C   UNL A   1      45.147  29.926  29.192  1.00  0.00     0.034 A 
BRANCH  55  69
ATOM     69  C   UNL A   1      43.734  28.072  33.948  1.00  0.00     0.023 A 
ATOM     70  C   UNL A   1      44.454  28.364  35.129  1.00  0.00     0.012 A 
ATOM     71  C   UNL A   1      43.892  26.773  33.411  1.00  0.00     0.148 A 
ATOM     72  C   UNL A   1      45.350  27.448  35.690  1.00  0.00     0.002 A 
ATOM     73  C   UNL A   1      44.719  25.837  34.021  1.00  0.00     0.091 A 
ATOM     74  F   UNL A   1      43.355  26.461  32.231  1.00  0.00    -0.205 F 
ATOM     75  C   UNL A   1      45.482  26.182  35.138  1.00  0.00     0.022 A 
BRANCH  73  76
ATOM     76  S   UNL A   1      44.886  24.168  33.376  1.00  0.00     0.127 S 
ATOM     77  O   UNL A   1      43.557  23.623  33.635  1.00  0.00    -0.237 OA
ATOM     78  O   UNL A   1      45.191  24.425  31.969  1.00  0.00    -0.237 OA
ATOM     79  O   UNL A   1      45.985  23.567  34.124  1.00  0.00    -0.744 OA
ENDBRANCH  73  76
ENDBRANCH  55  69
BRANCH  56  80
ATOM     80  C   UNL A   1      42.928  25.504  26.123  1.00  0.00     0.023 A 
ATOM     81  C   UNL A   1      43.924  25.213  25.169  1.00  0.00     0.012 A 
ATOM     82  C   UNL A   1      42.126  24.448  26.593  1.00  0.00     0.148 A 
ATOM     83  C   UNL A   1      44.139  23.899  24.731  1.00  0.00     0.002 A 
ATOM     84  C   UNL A   1      42.362  23.143  26.174  1.00  0.00     0.091 A 
ATOM     85  F   UNL A   1      41.208  24.695  27.538  1.00  0.00    -0.205 F 
ATOM     86  C   UNL A   1      43.365  22.859  25.242  1.00  0.00     0.022 A 
BRANCH  84  87
ATOM     87  S   UNL A   1      41.426  21.811  26.916  1.00  0.00     0.127 S 
ATOM     88  O   UNL A   1      41.481  22.122  28.344  1.00  0.00    -0.237 OA
ATOM     89  O   UNL A   1      40.112  21.963  26.307  1.00  0.00    -0.237 OA
ATOM     90  O   UNL A   1      42.171  20.612  26.547  1.00  0.00    -0.744 OA
ENDBRANCH  84  87
ENDBRANCH  56  80
BRANCH  68  91
ATOM     91  C   UNL A   1      45.271  30.920  28.062  1.00  0.00     0.023 A 
ATOM     92  C   UNL A   1      44.172  31.357  27.293  1.00  0.00     0.012 A 
ATOM     93  C   UNL A   1      46.528  31.505  27.841  1.00  0.00     0.148 A 
ATOM     94  C   UNL A   1      44.336  32.322  26.293  1.00  0.00     0.002 A 
ATOM     95  C   UNL A   1      46.678  32.497  26.882  1.00  0.00     0.091 A 
ATOM     96  F   UNL A   1      47.566  31.080  28.578  1.00  0.00    -0.205 F 
ATOM     97  C   UNL A   1      45.588  32.900  26.095  1.00  0.00     0.022 A 
BRANCH  95  98
ATOM     98  S   UNL A   1      48.241  33.348  26.666  1.00  0.00     0.127 S 
ATOM     99  O   UNL A   1      49.134  32.255  26.285  1.00  0.00    -0.237 OA
ATOM    100  O   UNL A   1      47.942  34.296  25.591  1.00  0.00    -0.237 OA
ATOM    101  O   UNL A   1      48.528  33.980  27.948  1.00  0.00    -0.744 OA
ENDBRANCH  95  98
ENDBRANCH  68  91
ENDBRANCH  42  43
ENDBRANCH  34  37
ENDBRANCH  32  33
ENDBRANCH  31  32
ENDBRANCH  30  31
ENDBRANCH   1  30
TORSDOF 20
ENDMDL
MODEL 3
REMARK VINA RESULT:     -11.2      3.065      7.008
REMARK SMILES Cc1nccn1CCC[NH+]1CCC2(CC1)[C@@H](C(=O)NCCCCCCNC(=O)c1ccc(-c3c4nc(c(-c5cccc(S(=O)(=O)[O-])c5F)c5ccc([nH]5)c(-c5cccc(S(=O)(=O)[O-])c5F)c5nc(c(-c6cccc(S(=O)(=O)[O-])c6F)c6ccc3[nH]6)C=C5)C=C4)cc1)CC(=O)N2C
REMARK SMILES IDX 22 1 21 2 20 3 19 4 17 5 18 6 16 8 10 9 11 10 15 11 12 13
REMARK SMILES IDX 14 14 13 15 95 16 92 17 93 18 96 19 94 20 9 21 8 22 7 23
REMARK SMILES IDX 6 24 1 25 2 26 3 27 4 28 5 29 23 30 24 31 25 32 26 33 27 34
REMARK SMILES IDX 28 36 29 37 30 38 91 39 31 40 90 41 32 42 33 43 34 44 84 45
REMARK SMILES IDX 35 46 89 47 83 48 85 49 36 50 88 51 82 52 81 53 37 55 69 56
REMARK SMILES IDX 49 57 68 58 50 59 53 60 67 61 86 62 51 63 52 64 66 66 87 67
REMARK SMILES IDX 54 68 38 69 39 70 47 71 40 72 42 73 48 74 41 75 43 76 44 77
REMARK SMILES IDX 45 78 46 79 70 80 71 81 79 82 72 83 74 84 80 85 73 86 75 87
REMARK SMILES IDX 76 88 77 89 78 90 55 91 56 92 64 93 57 94 59 95 65 96 58 97
REMARK SMILES IDX 60 98 61 99 62 100 63 101
REMARK H PARENT 19 7 10 12 26 35 85 54 53 65
REMARK Flexibility Score: inf
ROOT
ATOM      1  C   UNL A   1      33.464  28.561  27.460  1.00  0.00     0.002 C 
ENDROOT
BRANCH   1   2
ATOM      2  C   UNL A   1      32.000  28.155  27.258  1.00  0.00     0.021 C 
BRANCH   2   3
ATOM      3  C   UNL A   1      31.764  27.117  26.164  1.00  0.00     0.116 C 
BRANCH   3   4
ATOM      4  N   UNL A   1      30.882  26.051  26.609  1.00  0.00    -0.356 N 
ATOM      5  C   UNL A   1      31.105  24.718  26.776  1.00  0.00     0.226 C 
ATOM      6  O   UNL A   1      30.187  24.036  27.236  1.00  0.00    -0.275 OA
ATOM      7  H   UNL A   1      29.968  26.342  26.828  1.00  0.00     0.163 HD
BRANCH   5   8
ATOM      8  C   UNL A   1      32.465  24.128  26.452  1.00  0.00     0.114 C 
ATOM      9  N   UNL A   1      33.141  24.948  22.194  1.00  0.00    -0.335 N 
ATOM     10  C   UNL A   1      34.266  24.556  23.043  1.00  0.00     0.264 C 
ATOM     11  C   UNL A   1      31.910  24.220  22.509  1.00  0.00     0.264 C 
ATOM     12  H   UNL A   1      33.425  24.658  21.259  1.00  0.00     0.348 HD
ATOM     13  C   UNL A   1      33.966  24.605  24.529  1.00  0.00     0.091 C 
ATOM     14  C   UNL A   1      31.558  24.137  24.000  1.00  0.00     0.091 C 
ATOM     15  C   UNL A   1      32.730  23.778  24.946  1.00  0.00     0.065 C 
ATOM     16  N   UNL A   1      33.019  22.329  25.011  1.00  0.00    -0.339 N 
ATOM     17  C   UNL A   1      32.642  22.849  27.268  1.00  0.00     0.116 C 
ATOM     18  C   UNL A   1      33.091  21.817  26.294  1.00  0.00     0.223 C 
ATOM     19  C   UNL A   1      33.385  21.467  23.907  1.00  0.00     0.147 C 
ATOM     20  O   UNL A   1      33.450  20.689  26.604  1.00  0.00    -0.275 OA
BRANCH   9  21
ATOM     21  C   UNL A   1      32.929  26.398  22.067  1.00  0.00     0.264 C 
BRANCH  21  22
ATOM     22  C   UNL A   1      31.462  26.857  21.997  1.00  0.00     0.083 C 
BRANCH  22  23
ATOM     23  C   UNL A   1      31.138  28.188  22.691  1.00  0.00     0.129 C 
BRANCH  23  24
ATOM     24  N   UNL A   1      29.778  28.663  22.532  1.00  0.00    -0.335 N 
ATOM     25  C   UNL A   1      28.638  26.862  23.886  1.00  0.00     0.087 C 
ATOM     26  C   UNL A   1      28.636  28.093  23.052  1.00  0.00     0.105 A 
ATOM     27  N   UNL A   1      27.575  28.823  22.753  1.00  0.00    -0.242 NA
ATOM     28  C   UNL A   1      28.055  29.919  22.093  1.00  0.00     0.131 A 
ATOM     29  C   UNL A   1      29.419  29.863  21.978  1.00  0.00     0.107 A 
ENDBRANCH  23  24
ENDBRANCH  22  23
ENDBRANCH  21  22
ENDBRANCH   9  21
ENDBRANCH   5   8
ENDBRANCH   3   4
ENDBRANCH   2   3
ENDBRANCH   1   2
BRANCH   1  30
ATOM     30  C   UNL A   1      33.886  29.908  26.856  1.00  0.00     0.002 C 
BRANCH  30  31
ATOM     31  C   UNL A   1      33.195  31.163  27.407  1.00  0.00     0.021 C 
BRANCH  31  32
ATOM     32  C   UNL A   1      34.132  32.326  27.701  1.00  0.00     0.116 C 
BRANCH  32  33
ATOM     33  N   UNL A   1      34.145  32.693  29.113  1.00  0.00    -0.352 N 
ATOM     34  C   UNL A   1      34.941  32.172  30.109  1.00  0.00     0.251 C 
ATOM     35  H   UNL A   1      33.512  33.395  29.386  1.00  0.00     0.163 HD
ATOM     36  O   UNL A   1      34.598  32.268  31.289  1.00  0.00    -0.269 OA
BRANCH  34  37
ATOM     37  C   UNL A   1      36.195  31.486  29.750  1.00  0.00     0.039 A 
ATOM     38  C   UNL A   1      37.376  32.209  29.589  1.00  0.00     0.014 A 
ATOM     39  C   UNL A   1      36.192  30.098  29.599  1.00  0.00     0.014 A 
ATOM     40  C   UNL A   1      38.562  31.515  29.369  1.00  0.00     0.010 A 
ATOM     41  C   UNL A   1      37.382  29.406  29.518  1.00  0.00     0.010 A 
ATOM     42  C   UNL A   1      38.572  30.106  29.374  1.00  0.00    -0.014 A 
BRANCH  42  43
ATOM     43  C   UNL A   1      39.852  29.395  29.383  1.00  0.00     0.031 A 
ATOM     44  C   UNL A   1      40.368  29.122  30.751  1.00  0.00     0.074 A 
ATOM     45  C   UNL A   1      40.498  28.902  28.303  1.00  0.00     0.049 A 
ATOM     46  N   UNL A   1      41.317  29.763  31.350  1.00  0.00    -0.248 NA
ATOM     47  C   UNL A   1      39.645  28.178  31.616  1.00  0.00     0.031 C 
ATOM     48  C   UNL A   1      40.019  28.827  26.917  1.00  0.00     0.029 A 
ATOM     49  N   UNL A   1      41.698  28.253  28.238  1.00  0.00    -0.354 N 
ATOM     50  C   UNL A   1      41.499  29.106  32.562  1.00  0.00     0.074 A 
ATOM     51  C   UNL A   1      40.316  28.312  32.765  1.00  0.00     0.031 C 
ATOM     52  C   UNL A   1      40.788  27.962  26.219  1.00  0.00     0.029 A 
ATOM     53  C   UNL A   1      41.913  27.568  27.045  1.00  0.00     0.049 A 
ATOM     54  H   UNL A   1      42.355  28.268  28.972  1.00  0.00     0.167 HD
ATOM     55  C   UNL A   1      42.736  29.046  33.129  1.00  0.00     0.034 A 
ATOM     56  C   UNL A   1      42.927  26.714  26.760  1.00  0.00     0.034 A 
ATOM     57  C   UNL A   1      43.632  30.012  32.533  1.00  0.00     0.049 A 
ATOM     58  C   UNL A   1      44.046  27.024  27.668  1.00  0.00     0.074 A 
ATOM     59  C   UNL A   1      43.607  31.376  32.312  1.00  0.00     0.029 A 
ATOM     60  N   UNL A   1      44.597  29.516  31.690  1.00  0.00    -0.354 N 
ATOM     61  N   UNL A   1      44.741  28.121  27.588  1.00  0.00    -0.248 NA
ATOM     62  C   UNL A   1      44.144  26.303  28.923  1.00  0.00     0.031 C 
ATOM     63  C   UNL A   1      44.205  31.553  31.028  1.00  0.00     0.029 A 
ATOM     64  C   UNL A   1      44.635  30.306  30.576  1.00  0.00     0.049 A 
ATOM     65  H   UNL A   1      45.164  28.730  31.861  1.00  0.00     0.167 HD
ATOM     66  C   UNL A   1      44.929  28.487  28.910  1.00  0.00     0.074 A 
ATOM     67  C   UNL A   1      44.672  27.270  29.679  1.00  0.00     0.031 C 
ATOM     68  C   UNL A   1      44.975  29.805  29.265  1.00  0.00     0.034 A 
BRANCH  55  69
ATOM     69  C   UNL A   1      43.278  27.848  33.885  1.00  0.00     0.023 A 
ATOM     70  C   UNL A   1      44.140  26.981  33.176  1.00  0.00     0.012 A 
ATOM     71  C   UNL A   1      42.758  27.367  35.109  1.00  0.00     0.148 A 
ATOM     72  C   UNL A   1      44.395  25.677  33.612  1.00  0.00     0.002 A 
ATOM     73  C   UNL A   1      43.082  26.101  35.581  1.00  0.00     0.091 A 
ATOM     74  F   UNL A   1      41.835  28.066  35.771  1.00  0.00    -0.205 F 
ATOM     75  C   UNL A   1      43.867  25.236  34.818  1.00  0.00     0.022 A 
BRANCH  73  76
ATOM     76  S   UNL A   1      42.467  25.500  37.159  1.00  0.00     0.127 S 
ATOM     77  O   UNL A   1      41.666  24.354  36.740  1.00  0.00    -0.237 OA
ATOM     78  O   UNL A   1      43.711  25.170  37.854  1.00  0.00    -0.237 OA
ATOM     79  O   UNL A   1      41.735  26.616  37.746  1.00  0.00    -0.744 OA
ENDBRANCH  73  76
ENDBRANCH  55  69
BRANCH  56  80
ATOM     80  C   UNL A   1      42.922  25.469  25.968  1.00  0.00     0.023 A 
ATOM     81  C   UNL A   1      43.968  25.197  25.063  1.00  0.00     0.012 A 
ATOM     82  C   UNL A   1      42.094  24.405  26.368  1.00  0.00     0.148 A 
ATOM     83  C   UNL A   1      44.205  23.893  24.606  1.00  0.00     0.002 A 
ATOM     84  C   UNL A   1      42.350  23.110  25.931  1.00  0.00     0.091 A 
ATOM     85  F   UNL A   1      41.126  24.632  27.267  1.00  0.00    -0.205 F 
ATOM     86  C   UNL A   1      43.402  22.844  25.049  1.00  0.00     0.022 A 
BRANCH  84  87
ATOM     87  S   UNL A   1      41.371  21.764  26.590  1.00  0.00     0.127 S 
ATOM     88  O   UNL A   1      41.759  20.630  25.751  1.00  0.00    -0.237 OA
ATOM     89  O   UNL A   1      41.820  21.685  27.972  1.00  0.00    -0.237 OA
ATOM     90  O   UNL A   1      39.994  22.201  26.385  1.00  0.00    -0.744 OA
ENDBRANCH  84  87
ENDBRANCH  56  80
BRANCH  68  91
ATOM     91  C   UNL A   1      45.170  30.825  28.169  1.00  0.00     0.023 A 
ATOM     92  C   UNL A   1      44.102  31.388  27.439  1.00  0.00     0.012 A 
ATOM     93  C   UNL A   1      46.471  31.300  27.941  1.00  0.00     0.148 A 
ATOM     94  C   UNL A   1      44.336  32.371  26.470  1.00  0.00     0.002 A 
ATOM     95  C   UNL A   1      46.694  32.310  27.014  1.00  0.00     0.091 A 
ATOM     96  F   UNL A   1      47.479  30.756  28.640  1.00  0.00    -0.205 F 
ATOM     97  C   UNL A   1      45.632  32.839  26.266  1.00  0.00     0.022 A 
BRANCH  95  98
ATOM     98  S   UNL A   1      48.325  33.022  26.795  1.00  0.00     0.127 S 
ATOM     99  O   UNL A   1      48.095  33.990  25.725  1.00  0.00    -0.237 OA
ATOM    100  O   UNL A   1      48.593  33.613  28.107  1.00  0.00    -0.237 OA
ATOM    101  O   UNL A   1      49.202  31.906  26.460  1.00  0.00    -0.744 OA
ENDBRANCH  95  98
ENDBRANCH  68  91
ENDBRANCH  42  43
ENDBRANCH  34  37
ENDBRANCH  32  33
ENDBRANCH  31  32
ENDBRANCH  30  31
ENDBRANCH   1  30
TORSDOF 20
ENDMDL
