MODEL 1
REMARK VINA RESULT:     -11.5      0.000      0.000
REMARK SMILES Cc1ccc(S(=O)(=O)N2C[C@@H](CC(=O)NCCCCCCNC(=O)c3ccc(-c4c5nc(c(-c6cccc(S(=O)(=O)[O-])c6F)c6ccc([nH]6)c(-c6cccc(S(=O)(=O)[O-])c6F)c6nc(c(-c7cccc(S(=O)(=O)[O-])c7F)c7ccc4[nH]7)C=C6)C=C5)cc3)c3ccccc32)c(C)c1
REMARK SMILES IDX 18 1 17 2 16 3 15 4 13 5 14 6 12 8 11 9 9 10 10 11 93 12
REMARK SMILES IDX 88 13 92 14 89 15 91 16 90 17 6 18 7 19 8 20 5 21 1 22 2 23
REMARK SMILES IDX 3 24 96 25 4 26 94 27 95 28 19 29 20 30 21 31 22 32 23 33
REMARK SMILES IDX 24 35 25 36 26 37 87 38 27 39 86 40 28 41 29 42 30 43 80 44
REMARK SMILES IDX 31 45 85 46 79 47 81 48 32 49 84 50 78 51 77 52 33 54 65 55
REMARK SMILES IDX 45 56 64 57 46 58 49 59 63 60 82 61 47 62 48 63 62 65 83 66
REMARK SMILES IDX 50 67 34 68 35 69 43 70 36 71 38 72 44 73 37 74 39 75 40 76
REMARK SMILES IDX 41 77 42 78 66 79 67 80 75 81 68 82 70 83 76 84 69 85 71 86
REMARK SMILES IDX 72 87 73 88 74 89 51 90 52 91 60 92 53 93 55 94 61 95 54 96
REMARK SMILES IDX 56 97 57 98 58 99 59 100
REMARK H PARENT 15 7 22 34 81 53 49 64
REMARK Flexibility Score: inf
ROOT
ATOM      1  C   UNL A   1      35.307  32.110  27.745  1.00  0.00     0.002 C 
ENDROOT
BRANCH   1   2
ATOM      2  C   UNL A   1      34.851  30.660  27.619  1.00  0.00     0.021 C 
BRANCH   2   3
ATOM      3  C   UNL A   1      33.548  30.442  26.857  1.00  0.00     0.116 C 
BRANCH   3   4
ATOM      4  N   UNL A   1      32.641  29.638  27.662  1.00  0.00    -0.356 N 
ATOM      5  C   UNL A   1      31.980  28.495  27.325  1.00  0.00     0.220 C 
ATOM      6  O   UNL A   1      31.030  28.134  28.024  1.00  0.00    -0.275 OA
ATOM      7  H   UNL A   1      32.483  29.965  28.576  1.00  0.00     0.163 HD
BRANCH   5   8
ATOM      8  C   UNL A   1      32.451  27.649  26.162  1.00  0.00     0.110 C 
BRANCH   8   9
ATOM      9  C   UNL A   1      31.420  26.616  25.683  1.00  0.00     0.051 C 
ATOM     10  N   UNL A   1      32.523  24.446  25.764  1.00  0.00    -0.265 N 
ATOM     11  C   UNL A   1      31.561  25.327  26.522  1.00  0.00     0.144 C 
ATOM     12  C   UNL A   1      32.416  24.862  24.391  1.00  0.00     0.055 A 
ATOM     13  C   UNL A   1      31.702  26.061  24.314  1.00  0.00    -0.018 A 
ATOM     14  C   UNL A   1      32.938  24.270  23.253  1.00  0.00     0.027 A 
ATOM     15  C   UNL A   1      31.332  26.580  23.086  1.00  0.00     0.006 A 
ATOM     16  C   UNL A   1      32.633  24.831  22.011  1.00  0.00     0.002 A 
ATOM     17  C   UNL A   1      31.803  25.957  21.927  1.00  0.00     0.000 A 
BRANCH  10  18
ATOM     18  S   UNL A   1      32.291  22.777  26.098  1.00  0.00     0.264 S 
ATOM     19  O   UNL A   1      31.261  22.299  25.201  1.00  0.00    -0.201 OA
ATOM     20  O   UNL A   1      32.144  22.647  27.538  1.00  0.00    -0.201 OA
BRANCH  18  21
ATOM     21  C   UNL A   1      33.835  21.979  25.695  1.00  0.00     0.090 A 
ATOM     22  C   UNL A   1      37.640  20.140  24.838  1.00  0.00     0.044 C 
ATOM     23  C   UNL A   1      36.319  20.796  25.123  1.00  0.00    -0.051 A 
ATOM     24  C   UNL A   1      36.262  22.093  25.631  1.00  0.00     0.005 A 
ATOM     25  C   UNL A   1      35.126  20.088  24.924  1.00  0.00     0.008 A 
ATOM     26  C   UNL A   1      35.031  22.678  25.926  1.00  0.00     0.023 A 
ATOM     27  C   UNL A   1      33.868  20.662  25.199  1.00  0.00    -0.030 A 
ATOM     28  C   UNL A   1      32.667  19.777  25.013  1.00  0.00     0.046 C 
ENDBRANCH  18  21
ENDBRANCH  10  18
ENDBRANCH   8   9
ENDBRANCH   5   8
ENDBRANCH   3   4
ENDBRANCH   2   3
ENDBRANCH   1   2
BRANCH   1  29
ATOM     29  C   UNL A   1      34.660  32.893  28.887  1.00  0.00     0.002 C 
BRANCH  29  30
ATOM     30  C   UNL A   1      33.538  33.856  28.482  1.00  0.00     0.021 C 
BRANCH  30  31
ATOM     31  C   UNL A   1      33.743  35.313  28.892  1.00  0.00     0.116 C 
BRANCH  31  32
ATOM     32  N   UNL A   1      32.996  35.652  30.091  1.00  0.00    -0.352 N 
ATOM     33  C   UNL A   1      33.155  35.203  31.378  1.00  0.00     0.251 C 
ATOM     34  H   UNL A   1      32.267  36.301  29.961  1.00  0.00     0.163 HD
ATOM     35  O   UNL A   1      32.277  35.418  32.209  1.00  0.00    -0.269 OA
BRANCH  33  36
ATOM     36  C   UNL A   1      34.373  34.459  31.766  1.00  0.00     0.039 A 
ATOM     37  C   UNL A   1      34.236  33.218  32.395  1.00  0.00     0.014 A 
ATOM     38  C   UNL A   1      35.645  34.999  31.555  1.00  0.00     0.014 A 
ATOM     39  C   UNL A   1      35.374  32.502  32.774  1.00  0.00     0.010 A 
ATOM     40  C   UNL A   1      36.779  34.250  31.865  1.00  0.00     0.010 A 
ATOM     41  C   UNL A   1      36.657  33.002  32.495  1.00  0.00    -0.014 A 
BRANCH  41  42
ATOM     42  C   UNL A   1      37.878  32.244  32.877  1.00  0.00     0.031 A 
ATOM     43  C   UNL A   1      38.622  32.589  34.140  1.00  0.00     0.074 A 
ATOM     44  C   UNL A   1      38.358  31.290  32.055  1.00  0.00     0.049 A 
ATOM     45  N   UNL A   1      39.725  32.071  34.616  1.00  0.00    -0.248 NA
ATOM     46  C   UNL A   1      38.068  33.676  34.966  1.00  0.00     0.031 C 
ATOM     47  C   UNL A   1      37.772  30.907  30.769  1.00  0.00     0.029 A 
ATOM     48  N   UNL A   1      39.464  30.483  32.168  1.00  0.00    -0.354 N 
ATOM     49  C   UNL A   1      40.017  32.788  35.771  1.00  0.00     0.074 A 
ATOM     50  C   UNL A   1      38.993  33.802  35.905  1.00  0.00     0.031 C 
ATOM     51  C   UNL A   1      38.519  29.939  30.215  1.00  0.00     0.029 A 
ATOM     52  C   UNL A   1      39.654  29.652  31.088  1.00  0.00     0.049 A 
ATOM     53  H   UNL A   1      40.064  30.498  32.949  1.00  0.00     0.167 HD
ATOM     54  C   UNL A   1      41.026  32.605  36.657  1.00  0.00     0.034 A 
ATOM     55  C   UNL A   1      40.635  28.768  30.825  1.00  0.00     0.034 A 
ATOM     56  C   UNL A   1      42.021  31.573  36.540  1.00  0.00     0.049 A 
ATOM     57  C   UNL A   1      41.725  28.558  31.841  1.00  0.00     0.074 A 
ATOM     58  C   UNL A   1      43.037  31.255  37.424  1.00  0.00     0.029 A 
ATOM     59  N   UNL A   1      42.132  30.697  35.472  1.00  0.00    -0.354 N 
ATOM     60  N   UNL A   1      41.900  29.148  32.998  1.00  0.00    -0.248 NA
ATOM     61  C   UNL A   1      42.731  27.530  31.534  1.00  0.00     0.031 C 
ATOM     62  C   UNL A   1      43.782  30.206  36.875  1.00  0.00     0.029 A 
ATOM     63  C   UNL A   1      43.203  29.842  35.670  1.00  0.00     0.049 A 
ATOM     64  H   UNL A   1      41.536  30.683  34.689  1.00  0.00     0.167 HD
ATOM     65  C   UNL A   1      43.005  28.533  33.577  1.00  0.00     0.074 A 
ATOM     66  C   UNL A   1      43.449  27.514  32.649  1.00  0.00     0.031 C 
ATOM     67  C   UNL A   1      43.603  28.795  34.766  1.00  0.00     0.034 A 
BRANCH  54  68
ATOM     68  C   UNL A   1      41.081  33.518  37.855  1.00  0.00     0.023 A 
ATOM     69  C   UNL A   1      41.948  34.630  37.849  1.00  0.00     0.012 A 
ATOM     70  C   UNL A   1      40.236  33.308  38.964  1.00  0.00     0.148 A 
ATOM     71  C   UNL A   1      42.003  35.496  38.940  1.00  0.00     0.002 A 
ATOM     72  C   UNL A   1      40.261  34.204  40.027  1.00  0.00     0.091 A 
ATOM     73  F   UNL A   1      39.433  32.236  38.962  1.00  0.00    -0.205 F 
ATOM     74  C   UNL A   1      41.154  35.289  40.023  1.00  0.00     0.022 A 
BRANCH  72  75
ATOM     75  S   UNL A   1      39.147  34.075  41.430  1.00  0.00     0.127 S 
ATOM     76  O   UNL A   1      39.359  32.689  41.847  1.00  0.00    -0.237 OA
ATOM     77  O   UNL A   1      39.692  35.077  42.346  1.00  0.00    -0.237 OA
ATOM     78  O   UNL A   1      37.819  34.377  40.918  1.00  0.00    -0.744 OA
ENDBRANCH  72  75
ENDBRANCH  54  68
BRANCH  55  79
ATOM     79  C   UNL A   1      40.600  27.965  29.568  1.00  0.00     0.023 A 
ATOM     80  C   UNL A   1      39.672  26.914  29.440  1.00  0.00     0.012 A 
ATOM     81  C   UNL A   1      41.468  28.251  28.497  1.00  0.00     0.148 A 
ATOM     82  C   UNL A   1      39.635  26.135  28.284  1.00  0.00     0.002 A 
ATOM     83  C   UNL A   1      41.386  27.509  27.324  1.00  0.00     0.091 A 
ATOM     84  F   UNL A   1      42.348  29.251  28.641  1.00  0.00    -0.205 F 
ATOM     85  C   UNL A   1      40.484  26.437  27.223  1.00  0.00     0.022 A 
BRANCH  83  86
ATOM     86  S   UNL A   1      42.348  27.909  25.861  1.00  0.00     0.127 S 
ATOM     87  O   UNL A   1      42.015  26.799  24.972  1.00  0.00    -0.237 OA
ATOM     88  O   UNL A   1      41.785  29.202  25.475  1.00  0.00    -0.237 OA
ATOM     89  O   UNL A   1      43.735  27.966  26.304  1.00  0.00    -0.744 OA
ENDBRANCH  83  86
ENDBRANCH  55  79
BRANCH  67  90
ATOM     90  C   UNL A   1      44.768  27.929  35.170  1.00  0.00     0.023 A 
ATOM     91  C   UNL A   1      46.089  28.362  34.939  1.00  0.00     0.012 A 
ATOM     92  C   UNL A   1      44.549  26.710  35.842  1.00  0.00     0.148 A 
ATOM     93  C   UNL A   1      47.171  27.575  35.333  1.00  0.00     0.002 A 
ATOM     94  C   UNL A   1      45.631  25.958  36.280  1.00  0.00     0.091 A 
ATOM     95  F   UNL A   1      43.285  26.305  36.036  1.00  0.00    -0.205 F 
ATOM     96  C   UNL A   1      46.943  26.381  36.013  1.00  0.00     0.022 A 
BRANCH  94  97
ATOM     97  S   UNL A   1      45.431  24.461  37.253  1.00  0.00     0.127 S 
ATOM     98  O   UNL A   1      44.727  23.589  36.314  1.00  0.00    -0.237 OA
ATOM     99  O   UNL A   1      46.818  24.076  37.519  1.00  0.00    -0.237 OA
ATOM    100  O   UNL A   1      44.674  24.849  38.435  1.00  0.00    -0.744 OA
ENDBRANCH  94  97
ENDBRANCH  67  90
ENDBRANCH  41  42
ENDBRANCH  33  36
ENDBRANCH  31  32
ENDBRANCH  30  31
ENDBRANCH  29  30
ENDBRANCH   1  29
TORSDOF 19
ENDMDL
MODEL 2
REMARK VINA RESULT:     -10.9      1.768      2.590
REMARK SMILES Cc1ccc(S(=O)(=O)N2C[C@@H](CC(=O)NCCCCCCNC(=O)c3ccc(-c4c5nc(c(-c6cccc(S(=O)(=O)[O-])c6F)c6ccc([nH]6)c(-c6cccc(S(=O)(=O)[O-])c6F)c6nc(c(-c7cccc(S(=O)(=O)[O-])c7F)c7ccc4[nH]7)C=C6)C=C5)cc3)c3ccccc32)c(C)c1
REMARK SMILES IDX 18 1 17 2 16 3 15 4 13 5 14 6 12 8 11 9 9 10 10 11 93 12
REMARK SMILES IDX 88 13 92 14 89 15 91 16 90 17 6 18 7 19 8 20 5 21 1 22 2 23
REMARK SMILES IDX 3 24 96 25 4 26 94 27 95 28 19 29 20 30 21 31 22 32 23 33
REMARK SMILES IDX 24 35 25 36 26 37 87 38 27 39 86 40 28 41 29 42 30 43 80 44
REMARK SMILES IDX 31 45 85 46 79 47 81 48 32 49 84 50 78 51 77 52 33 54 65 55
REMARK SMILES IDX 45 56 64 57 46 58 49 59 63 60 82 61 47 62 48 63 62 65 83 66
REMARK SMILES IDX 50 67 34 68 35 69 43 70 36 71 38 72 44 73 37 74 39 75 40 76
REMARK SMILES IDX 41 77 42 78 66 79 67 80 75 81 68 82 70 83 76 84 69 85 71 86
REMARK SMILES IDX 72 87 73 88 74 89 51 90 52 91 60 92 53 93 55 94 61 95 54 96
REMARK SMILES IDX 56 97 57 98 58 99 59 100
REMARK H PARENT 15 7 22 34 81 53 49 64
REMARK Flexibility Score: inf
ROOT
ATOM      1  C   UNL A   1      35.123  32.847  27.999  1.00  0.00     0.002 C 
ENDROOT
BRANCH   1   2
ATOM      2  C   UNL A   1      34.300  31.600  28.308  1.00  0.00     0.021 C 
BRANCH   2   3
ATOM      3  C   UNL A   1      34.700  30.341  27.545  1.00  0.00     0.116 C 
BRANCH   3   4
ATOM      4  N   UNL A   1      33.806  29.250  27.903  1.00  0.00    -0.356 N 
ATOM      5  C   UNL A   1      32.613  28.900  27.343  1.00  0.00     0.220 C 
ATOM      6  O   UNL A   1      31.864  28.150  27.971  1.00  0.00    -0.275 OA
ATOM      7  H   UNL A   1      34.102  28.689  28.654  1.00  0.00     0.163 HD
BRANCH   5   8
ATOM      8  C   UNL A   1      32.255  29.363  25.947  1.00  0.00     0.110 C 
BRANCH   8   9
ATOM      9  C   UNL A   1      31.215  28.478  25.244  1.00  0.00     0.051 C 
ATOM     10  N   UNL A   1      32.240  27.715  23.171  1.00  0.00    -0.265 N 
ATOM     11  C   UNL A   1      31.928  27.279  24.580  1.00  0.00     0.144 C 
ATOM     12  C   UNL A   1      31.264  28.726  22.862  1.00  0.00     0.055 A 
ATOM     13  C   UNL A   1      30.597  29.111  24.028  1.00  0.00    -0.018 A 
ATOM     14  C   UNL A   1      30.980  29.327  21.647  1.00  0.00     0.027 A 
ATOM     15  C   UNL A   1      29.503  29.957  23.964  1.00  0.00     0.006 A 
ATOM     16  C   UNL A   1      29.925  30.242  21.588  1.00  0.00     0.002 A 
ATOM     17  C   UNL A   1      29.168  30.526  22.732  1.00  0.00     0.000 A 
BRANCH  10  18
ATOM     18  S   UNL A   1      32.367  26.391  22.083  1.00  0.00     0.264 S 
ATOM     19  O   UNL A   1      33.681  26.456  21.480  1.00  0.00    -0.201 OA
ATOM     20  O   UNL A   1      31.169  26.400  21.261  1.00  0.00    -0.201 OA
BRANCH  18  21
ATOM     21  C   UNL A   1      32.256  24.921  23.087  1.00  0.00     0.090 A 
ATOM     22  C   UNL A   1      31.869  21.310  25.412  1.00  0.00     0.044 C 
ATOM     23  C   UNL A   1      31.989  22.576  24.613  1.00  0.00    -0.051 A 
ATOM     24  C   UNL A   1      30.903  23.069  23.892  1.00  0.00     0.005 A 
ATOM     25  C   UNL A   1      33.214  23.253  24.549  1.00  0.00     0.008 A 
ATOM     26  C   UNL A   1      31.036  24.226  23.125  1.00  0.00     0.023 A 
ATOM     27  C   UNL A   1      33.371  24.433  23.794  1.00  0.00    -0.030 A 
ATOM     28  C   UNL A   1      34.752  25.026  23.746  1.00  0.00     0.046 C 
ENDBRANCH  18  21
ENDBRANCH  10  18
ENDBRANCH   8   9
ENDBRANCH   5   8
ENDBRANCH   3   4
ENDBRANCH   2   3
ENDBRANCH   1   2
BRANCH   1  29
ATOM     29  C   UNL A   1      34.917  34.011  28.969  1.00  0.00     0.002 C 
BRANCH  29  30
ATOM     30  C   UNL A   1      33.485  34.547  29.069  1.00  0.00     0.021 C 
BRANCH  30  31
ATOM     31  C   UNL A   1      33.361  36.025  29.439  1.00  0.00     0.116 C 
BRANCH  31  32
ATOM     32  N   UNL A   1      32.531  36.224  30.615  1.00  0.00    -0.352 N 
ATOM     33  C   UNL A   1      32.622  35.653  31.860  1.00  0.00     0.251 C 
ATOM     34  H   UNL A   1      31.791  36.865  30.502  1.00  0.00     0.163 HD
ATOM     35  O   UNL A   1      31.688  35.763  32.649  1.00  0.00    -0.269 OA
BRANCH  33  36
ATOM     36  C   UNL A   1      33.836  34.903  32.252  1.00  0.00     0.039 A 
ATOM     37  C   UNL A   1      35.072  35.554  32.220  1.00  0.00     0.014 A 
ATOM     38  C   UNL A   1      33.766  33.552  32.605  1.00  0.00     0.014 A 
ATOM     39  C   UNL A   1      36.231  34.862  32.581  1.00  0.00     0.010 A 
ATOM     40  C   UNL A   1      34.911  32.886  33.037  1.00  0.00     0.010 A 
ATOM     41  C   UNL A   1      36.159  33.527  33.012  1.00  0.00    -0.014 A 
BRANCH  41  42
ATOM     42  C   UNL A   1      37.381  32.782  33.416  1.00  0.00     0.031 A 
ATOM     43  C   UNL A   1      38.159  33.206  34.634  1.00  0.00     0.074 A 
ATOM     44  C   UNL A   1      37.830  31.766  32.653  1.00  0.00     0.049 A 
ATOM     45  N   UNL A   1      39.269  32.709  35.118  1.00  0.00    -0.248 NA
ATOM     46  C   UNL A   1      37.638  34.354  35.394  1.00  0.00     0.031 C 
ATOM     47  C   UNL A   1      37.208  31.302  31.411  1.00  0.00     0.029 A 
ATOM     48  N   UNL A   1      38.929  30.956  32.795  1.00  0.00    -0.354 N 
ATOM     49  C   UNL A   1      39.597  33.501  36.213  1.00  0.00     0.074 A 
ATOM     50  C   UNL A   1      38.588  34.535  36.299  1.00  0.00     0.031 C 
ATOM     51  C   UNL A   1      37.931  30.288  30.910  1.00  0.00     0.029 A 
ATOM     52  C   UNL A   1      39.084  30.049  31.772  1.00  0.00     0.049 A 
ATOM     53  H   UNL A   1      39.549  31.019  33.558  1.00  0.00     0.167 HD
ATOM     54  C   UNL A   1      40.626  33.369  37.084  1.00  0.00     0.034 A 
ATOM     55  C   UNL A   1      40.048  29.136  31.549  1.00  0.00     0.034 A 
ATOM     56  C   UNL A   1      41.606  32.319  37.017  1.00  0.00     0.049 A 
ATOM     57  C   UNL A   1      41.161  28.985  32.551  1.00  0.00     0.074 A 
ATOM     58  C   UNL A   1      42.641  32.051  37.896  1.00  0.00     0.029 A 
ATOM     59  N   UNL A   1      41.682  31.368  36.011  1.00  0.00    -0.354 N 
ATOM     60  N   UNL A   1      41.371  29.652  33.658  1.00  0.00    -0.248 NA
ATOM     61  C   UNL A   1      42.148  27.925  32.293  1.00  0.00     0.031 C 
ATOM     62  C   UNL A   1      43.361  30.957  37.405  1.00  0.00     0.029 A 
ATOM     63  C   UNL A   1      42.748  30.517  36.243  1.00  0.00     0.049 A 
ATOM     64  H   UNL A   1      41.066  31.306  35.246  1.00  0.00     0.167 HD
ATOM     65  C   UNL A   1      42.484  29.066  34.253  1.00  0.00     0.074 A 
ATOM     66  C   UNL A   1      42.893  27.978  33.389  1.00  0.00     0.031 C 
ATOM     67  C   UNL A   1      43.114  29.403  35.405  1.00  0.00     0.034 A 
BRANCH  54  68
ATOM     68  C   UNL A   1      40.721  34.363  38.214  1.00  0.00     0.023 A 
ATOM     69  C   UNL A   1      41.523  35.513  38.068  1.00  0.00     0.012 A 
ATOM     70  C   UNL A   1      39.973  34.188  39.396  1.00  0.00     0.148 A 
ATOM     71  C   UNL A   1      41.612  36.453  39.094  1.00  0.00     0.002 A 
ATOM     72  C   UNL A   1      40.029  35.154  40.394  1.00  0.00     0.091 A 
ATOM     73  F   UNL A   1      39.231  33.080  39.525  1.00  0.00    -0.205 F 
ATOM     74  C   UNL A   1      40.859  36.279  40.251  1.00  0.00     0.022 A 
BRANCH  72  75
ATOM     75  S   UNL A   1      39.031  35.067  41.884  1.00  0.00     0.127 S 
ATOM     76  O   UNL A   1      39.094  36.447  42.362  1.00  0.00    -0.237 OA
ATOM     77  O   UNL A   1      37.727  34.662  41.358  1.00  0.00    -0.237 OA
ATOM     78  O   UNL A   1      39.673  34.080  42.741  1.00  0.00    -0.744 OA
ENDBRANCH  72  75
ENDBRANCH  54  68
BRANCH  55  79
ATOM     79  C   UNL A   1      39.974  28.248  30.353  1.00  0.00     0.023 A 
ATOM     80  C   UNL A   1      39.121  27.127  30.372  1.00  0.00     0.012 A 
ATOM     81  C   UNL A   1      40.728  28.518  29.196  1.00  0.00     0.148 A 
ATOM     82  C   UNL A   1      39.051  26.269  29.275  1.00  0.00     0.002 A 
ATOM     83  C   UNL A   1      40.609  27.693  28.084  1.00  0.00     0.091 A 
ATOM     84  F   UNL A   1      41.538  29.586  29.200  1.00  0.00    -0.205 F 
ATOM     85  C   UNL A   1      39.786  26.556  28.128  1.00  0.00     0.022 A 
BRANCH  83  86
ATOM     86  S   UNL A   1      41.417  28.057  26.521  1.00  0.00     0.127 S 
ATOM     87  O   UNL A   1      41.147  26.843  25.755  1.00  0.00    -0.237 OA
ATOM     88  O   UNL A   1      40.688  29.244  26.075  1.00  0.00    -0.237 OA
ATOM     89  O   UNL A   1      42.816  28.299  26.848  1.00  0.00    -0.744 OA
ENDBRANCH  83  86
ENDBRANCH  55  79
BRANCH  67  90
ATOM     90  C   UNL A   1      44.279  28.553  35.842  1.00  0.00     0.023 A 
ATOM     91  C   UNL A   1      45.577  28.828  35.364  1.00  0.00     0.012 A 
ATOM     92  C   UNL A   1      44.094  27.520  36.781  1.00  0.00     0.148 A 
ATOM     93  C   UNL A   1      46.663  28.060  35.783  1.00  0.00     0.002 A 
ATOM     94  C   UNL A   1      45.188  26.794  37.235  1.00  0.00     0.091 A 
ATOM     95  F   UNL A   1      42.849  27.261  37.209  1.00  0.00    -0.205 F 
ATOM     96  C   UNL A   1      46.471  27.052  36.727  1.00  0.00     0.022 A 
BRANCH  94  97
ATOM     97  S   UNL A   1      45.048  25.550  38.523  1.00  0.00     0.127 S 
ATOM     98  O   UNL A   1      44.333  26.283  39.567  1.00  0.00    -0.237 OA
ATOM     99  O   UNL A   1      44.262  24.507  37.864  1.00  0.00    -0.237 OA
ATOM    100  O   UNL A   1      46.412  25.161  38.854  1.00  0.00    -0.744 OA
ENDBRANCH  94  97
ENDBRANCH  67  90
ENDBRANCH  41  42
ENDBRANCH  33  36
ENDBRANCH  31  32
ENDBRANCH  30  31
ENDBRANCH  29  30
ENDBRANCH   1  29
TORSDOF 19
ENDMDL
MODEL 3
REMARK VINA RESULT:     -10.5      7.152      8.904
REMARK SMILES Cc1ccc(S(=O)(=O)N2C[C@@H](CC(=O)NCCCCCCNC(=O)c3ccc(-c4c5nc(c(-c6cccc(S(=O)(=O)[O-])c6F)c6ccc([nH]6)c(-c6cccc(S(=O)(=O)[O-])c6F)c6nc(c(-c7cccc(S(=O)(=O)[O-])c7F)c7ccc4[nH]7)C=C6)C=C5)cc3)c3ccccc32)c(C)c1
REMARK SMILES IDX 18 1 17 2 16 3 15 4 13 5 14 6 12 8 11 9 9 10 10 11 93 12
REMARK SMILES IDX 88 13 92 14 89 15 91 16 90 17 6 18 7 19 8 20 5 21 1 22 2 23
REMARK SMILES IDX 3 24 96 25 4 26 94 27 95 28 19 29 20 30 21 31 22 32 23 33
REMARK SMILES IDX 24 35 25 36 26 37 87 38 27 39 86 40 28 41 29 42 30 43 80 44
REMARK SMILES IDX 31 45 85 46 79 47 81 48 32 49 84 50 78 51 77 52 33 54 65 55
REMARK SMILES IDX 45 56 64 57 46 58 49 59 63 60 82 61 47 62 48 63 62 65 83 66
REMARK SMILES IDX 50 67 34 68 35 69 43 70 36 71 38 72 44 73 37 74 39 75 40 76
REMARK SMILES IDX 41 77 42 78 66 79 67 80 75 81 68 82 70 83 76 84 69 85 71 86
REMARK SMILES IDX 72 87 73 88 74 89 51 90 52 91 60 92 53 93 55 94 61 95 54 96
REMARK SMILES IDX 56 97 57 98 58 99 59 100
REMARK H PARENT 15 7 22 34 81 53 49 64
REMARK Flexibility Score: inf
ROOT
ATOM      1  C   UNL A   1      36.389  30.360  28.471  1.00  0.00     0.002 C 
ENDROOT
BRANCH   1   2
ATOM      2  C   UNL A   1      35.507  29.411  27.666  1.00  0.00     0.021 C 
BRANCH   2   3
ATOM      3  C   UNL A   1      34.179  29.991  27.189  1.00  0.00     0.116 C 
BRANCH   3   4
ATOM      4  N   UNL A   1      33.081  29.303  27.852  1.00  0.00    -0.356 N 
ATOM      5  C   UNL A   1      32.271  28.319  27.370  1.00  0.00     0.220 C 
ATOM      6  O   UNL A   1      31.215  28.081  27.961  1.00  0.00    -0.275 OA
ATOM      7  H   UNL A   1      32.898  29.588  28.775  1.00  0.00     0.163 HD
BRANCH   5   8
ATOM      8  C   UNL A   1      32.697  27.486  26.179  1.00  0.00     0.110 C 
BRANCH   8   9
ATOM      9  C   UNL A   1      31.578  26.612  25.596  1.00  0.00     0.051 C 
ATOM     10  N   UNL A   1      32.551  24.418  25.188  1.00  0.00    -0.265 N 
ATOM     11  C   UNL A   1      31.695  25.182  26.167  1.00  0.00     0.144 C 
ATOM     12  C   UNL A   1      32.380  25.091  23.928  1.00  0.00     0.055 A 
ATOM     13  C   UNL A   1      31.736  26.315  24.130  1.00  0.00    -0.018 A 
ATOM     14  C   UNL A   1      32.790  24.703  22.664  1.00  0.00     0.027 A 
ATOM     15  C   UNL A   1      31.317  27.074  23.051  1.00  0.00     0.006 A 
ATOM     16  C   UNL A   1      32.439  25.503  21.575  1.00  0.00     0.002 A 
ATOM     17  C   UNL A   1      31.674  26.662  21.764  1.00  0.00     0.000 A 
BRANCH  10  18
ATOM     18  S   UNL A   1      32.244  22.728  25.221  1.00  0.00     0.264 S 
ATOM     19  O   UNL A   1      31.458  22.411  24.048  1.00  0.00    -0.201 OA
ATOM     20  O   UNL A   1      31.753  22.411  26.552  1.00  0.00    -0.201 OA
BRANCH  18  21
ATOM     21  C   UNL A   1      33.837  21.937  25.090  1.00  0.00     0.090 A 
ATOM     22  C   UNL A   1      37.755  20.149  24.861  1.00  0.00     0.044 C 
ATOM     23  C   UNL A   1      36.394  20.783  24.924  1.00  0.00    -0.051 A 
ATOM     24  C   UNL A   1      36.257  22.166  25.038  1.00  0.00     0.005 A 
ATOM     25  C   UNL A   1      35.244  19.981  24.915  1.00  0.00     0.008 A 
ATOM     26  C   UNL A   1      34.989  22.740  25.131  1.00  0.00     0.023 A 
ATOM     27  C   UNL A   1      33.952  20.538  24.993  1.00  0.00    -0.030 A 
ATOM     28  C   UNL A   1      32.802  19.570  25.047  1.00  0.00     0.046 C 
ENDBRANCH  18  21
ENDBRANCH  10  18
ENDBRANCH   8   9
ENDBRANCH   5   8
ENDBRANCH   3   4
ENDBRANCH   2   3
ENDBRANCH   1   2
BRANCH   1  29
ATOM     29  C   UNL A   1      36.299  30.193  29.988  1.00  0.00     0.002 C 
BRANCH  29  30
ATOM     30  C   UNL A   1      35.959  31.463  30.777  1.00  0.00     0.021 C 
BRANCH  30  31
ATOM     31  C   UNL A   1      36.882  31.771  31.955  1.00  0.00     0.116 C 
BRANCH  31  32
ATOM     32  N   UNL A   1      37.277  30.568  32.667  1.00  0.00    -0.352 N 
ATOM     33  C   UNL A   1      38.448  29.855  32.601  1.00  0.00     0.251 C 
ATOM     34  H   UNL A   1      36.605  30.210  33.292  1.00  0.00     0.163 HD
ATOM     35  O   UNL A   1      38.505  28.733  33.096  1.00  0.00    -0.269 OA
BRANCH  33  36
ATOM     36  C   UNL A   1      39.637  30.429  31.933  1.00  0.00     0.039 A 
ATOM     37  C   UNL A   1      39.790  30.251  30.555  1.00  0.00     0.014 A 
ATOM     38  C   UNL A   1      40.621  31.100  32.665  1.00  0.00     0.014 A 
ATOM     39  C   UNL A   1      40.909  30.780  29.906  1.00  0.00     0.010 A 
ATOM     40  C   UNL A   1      41.697  31.691  32.005  1.00  0.00     0.010 A 
ATOM     41  C   UNL A   1      41.863  31.523  30.622  1.00  0.00    -0.014 A 
BRANCH  41  42
ATOM     42  C   UNL A   1      43.050  32.108  29.943  1.00  0.00     0.031 A 
ATOM     43  C   UNL A   1      43.040  33.550  29.509  1.00  0.00     0.074 A 
ATOM     44  C   UNL A   1      44.110  31.327  29.656  1.00  0.00     0.049 A 
ATOM     45  N   UNL A   1      43.960  34.225  28.868  1.00  0.00    -0.248 NA
ATOM     46  C   UNL A   1      41.830  34.332  29.811  1.00  0.00     0.031 C 
ATOM     47  C   UNL A   1      44.216  29.899  29.960  1.00  0.00     0.029 A 
ATOM     48  N   UNL A   1      45.292  31.619  29.022  1.00  0.00    -0.354 N 
ATOM     49  C   UNL A   1      43.429  35.493  28.659  1.00  0.00     0.074 A 
ATOM     50  C   UNL A   1      42.091  35.483  29.210  1.00  0.00     0.031 C 
ATOM     51  C   UNL A   1      45.398  29.441  29.517  1.00  0.00     0.029 A 
ATOM     52  C   UNL A   1      46.122  30.532  28.871  1.00  0.00     0.049 A 
ATOM     53  H   UNL A   1      45.525  32.523  28.705  1.00  0.00     0.167 HD
ATOM     54  C   UNL A   1      44.007  36.576  28.087  1.00  0.00     0.034 A 
ATOM     55  C   UNL A   1      47.323  30.422  28.271  1.00  0.00     0.034 A 
ATOM     56  C   UNL A   1      45.350  36.594  27.573  1.00  0.00     0.049 A 
ATOM     57  C   UNL A   1      47.959  31.649  27.675  1.00  0.00     0.074 A 
ATOM     58  C   UNL A   1      46.056  37.661  27.046  1.00  0.00     0.029 A 
ATOM     59  N   UNL A   1      46.190  35.492  27.512  1.00  0.00    -0.354 N 
ATOM     60  N   UNL A   1      47.497  32.874  27.618  1.00  0.00    -0.248 NA
ATOM     61  C   UNL A   1      49.301  31.487  27.097  1.00  0.00     0.031 C 
ATOM     62  C   UNL A   1      47.311  37.199  26.638  1.00  0.00     0.029 A 
ATOM     63  C   UNL A   1      47.403  35.852  26.951  1.00  0.00     0.049 A 
ATOM     64  H   UNL A   1      45.958  34.588  27.824  1.00  0.00     0.167 HD
ATOM     65  C   UNL A   1      48.508  33.637  27.042  1.00  0.00     0.074 A 
ATOM     66  C   UNL A   1      49.612  32.737  26.781  1.00  0.00     0.031 C 
ATOM     67  C   UNL A   1      48.516  34.961  26.746  1.00  0.00     0.034 A 
BRANCH  54  68
ATOM     68  C   UNL A   1      43.202  37.849  28.024  1.00  0.00     0.023 A 
ATOM     69  C   UNL A   1      42.356  38.089  26.921  1.00  0.00     0.012 A 
ATOM     70  C   UNL A   1      43.239  38.782  29.080  1.00  0.00     0.148 A 
ATOM     71  C   UNL A   1      41.592  39.252  26.851  1.00  0.00     0.002 A 
ATOM     72  C   UNL A   1      42.436  39.915  29.026  1.00  0.00     0.091 A 
ATOM     73  F   UNL A   1      44.063  38.547  30.111  1.00  0.00    -0.205 F 
ATOM     74  C   UNL A   1      41.624  40.158  27.906  1.00  0.00     0.022 A 
BRANCH  72  75
ATOM     75  S   UNL A   1      42.339  41.100  30.371  1.00  0.00     0.127 S 
ATOM     76  O   UNL A   1      43.430  42.015  30.036  1.00  0.00    -0.237 OA
ATOM     77  O   UNL A   1      40.999  41.659  30.192  1.00  0.00    -0.237 OA
ATOM     78  O   UNL A   1      42.520  40.335  31.596  1.00  0.00    -0.744 OA
ENDBRANCH  72  75
ENDBRANCH  54  68
BRANCH  55  79
ATOM     79  C   UNL A   1      48.034  29.112  28.258  1.00  0.00     0.023 A 
ATOM     80  C   UNL A   1      49.003  28.837  29.243  1.00  0.00     0.012 A 
ATOM     81  C   UNL A   1      47.744  28.134  27.288  1.00  0.00     0.148 A 
ATOM     82  C   UNL A   1      49.698  27.627  29.238  1.00  0.00     0.002 A 
ATOM     83  C   UNL A   1      48.397  26.908  27.324  1.00  0.00     0.091 A 
ATOM     84  F   UNL A   1      46.824  28.418  26.355  1.00  0.00    -0.205 F 
ATOM     85  C   UNL A   1      49.390  26.660  28.286  1.00  0.00     0.022 A 
BRANCH  83  86
ATOM     86  S   UNL A   1      47.973  25.557  26.219  1.00  0.00     0.127 S 
ATOM     87  O   UNL A   1      48.810  25.846  25.058  1.00  0.00    -0.237 OA
ATOM     88  O   UNL A   1      48.383  24.390  27.000  1.00  0.00    -0.237 OA
ATOM     89  O   UNL A   1      46.536  25.660  26.003  1.00  0.00    -0.744 OA
ENDBRANCH  83  86
ENDBRANCH  55  79
BRANCH  67  90
ATOM     90  C   UNL A   1      49.779  35.541  26.164  1.00  0.00     0.023 A 
ATOM     91  C   UNL A   1      49.943  35.628  24.767  1.00  0.00     0.012 A 
ATOM     92  C   UNL A   1      50.779  36.061  27.010  1.00  0.00     0.148 A 
ATOM     93  C   UNL A   1      51.099  36.186  24.223  1.00  0.00     0.002 A 
ATOM     94  C   UNL A   1      51.903  36.665  26.461  1.00  0.00     0.091 A 
ATOM     95  F   UNL A   1      50.614  35.952  28.337  1.00  0.00    -0.205 F 
ATOM     96  C   UNL A   1      52.073  36.715  25.068  1.00  0.00     0.022 A 
BRANCH  94  97
ATOM     97  S   UNL A   1      53.155  37.463  27.472  1.00  0.00     0.127 S 
ATOM     98  O   UNL A   1      52.408  38.584  28.041  1.00  0.00    -0.237 OA
ATOM     99  O   UNL A   1      53.499  36.411  28.429  1.00  0.00    -0.237 OA
ATOM    100  O   UNL A   1      54.233  37.827  26.562  1.00  0.00    -0.744 OA
ENDBRANCH  94  97
ENDBRANCH  67  90
ENDBRANCH  41  42
ENDBRANCH  33  36
ENDBRANCH  31  32
ENDBRANCH  30  31
ENDBRANCH  29  30
ENDBRANCH   1  29
TORSDOF 19
ENDMDL
