MODEL 1
REMARK VINA RESULT:     -10.6      0.000      0.000
REMARK SMILES COc1cccc(NC(=O)COc2csc(C(=O)NCCCCCCNC(=O)c3ccc(-c4c5nc(c(-c6cccc(S(=O)(=O)[O-])c6F)c6ccc([nH]6)c(-c6cccc(S(=O)(=O)[O-])c6F)c6nc(c(-c7cccc(S(=O)(=O)[O-])c7F)c7ccc4[nH]7)C=C6)C=C5)cc3)c2)c1
REMARK SMILES IDX 21 1 20 2 19 3 17 4 18 5 16 7 13 8 14 9 92 10 15 11 12 12
REMARK SMILES IDX 11 13 9 14 8 15 10 17 7 18 3 19 4 20 93 21 5 22 6 23 2 24
REMARK SMILES IDX 1 25 22 26 23 27 24 28 25 29 26 30 27 31 28 33 29 34 30 35
REMARK SMILES IDX 91 36 31 37 90 38 32 39 33 40 34 41 84 42 35 43 89 44 83 45
REMARK SMILES IDX 85 46 36 47 88 48 82 49 81 50 37 52 69 53 49 54 68 55 50 56
REMARK SMILES IDX 53 57 67 58 86 59 51 60 52 61 66 63 87 64 54 65 38 66 39 67
REMARK SMILES IDX 47 68 40 69 42 70 48 71 41 72 43 73 44 74 45 75 46 76 70 77
REMARK SMILES IDX 71 78 79 79 72 80 74 81 80 82 73 83 75 84 76 85 77 86 78 87
REMARK SMILES IDX 55 88 56 89 64 90 57 91 59 92 65 93 58 94 60 95 61 96 62 97
REMARK SMILES IDX 63 98
REMARK H PARENT 19 6 8 16 26 32 85 51 53 62
REMARK Flexibility Score: inf
ROOT
ATOM      1  C   UNL A   1      33.406  29.024  22.848  1.00  0.00     0.021 C 
ENDROOT
BRANCH   1   2
ATOM      2  C   UNL A   1      33.941  27.612  22.603  1.00  0.00     0.116 C 
BRANCH   2   3
ATOM      3  N   UNL A   1      33.222  26.978  21.515  1.00  0.00    -0.351 N 
ATOM      4  C   UNL A   1      31.976  26.402  21.443  1.00  0.00     0.261 C 
ATOM      5  O   UNL A   1      31.665  25.977  20.327  1.00  0.00    -0.268 OA
ATOM      6  H   UNL A   1      33.721  26.955  20.667  1.00  0.00     0.163 HD
BRANCH   4   7
ATOM      7  C   UNL A   1      31.093  26.338  22.600  1.00  0.00     0.096 A 
ATOM      8  C   UNL A   1      30.043  25.829  24.632  1.00  0.00     0.131 A 
ATOM      9  C   UNL A   1      29.399  26.995  24.302  1.00  0.00     0.112 A 
ATOM     10  C   UNL A   1      30.966  25.424  23.629  1.00  0.00     0.072 A 
ATOM     11  S   UNL A   1      29.931  27.602  22.793  1.00  0.00    -0.135 S 
BRANCH   8  12
ATOM     12  O   UNL A   1      29.951  25.160  25.805  1.00  0.00    -0.483 OA
BRANCH  12  13
ATOM     13  C   UNL A   1      30.227  23.777  25.756  1.00  0.00     0.329 C 
BRANCH  13  14
ATOM     14  C   UNL A   1      30.715  23.067  27.015  1.00  0.00     0.262 C 
ATOM     15  N   UNL A   1      32.023  22.794  27.272  1.00  0.00    -0.323 N 
ATOM     16  H   UNL A   1      32.157  22.395  28.162  1.00  0.00     0.170 HD
ATOM     17  O   UNL A   1      29.896  22.724  27.880  1.00  0.00    -0.271 OA
BRANCH  15  18
ATOM     18  C   UNL A   1      33.227  22.947  26.563  1.00  0.00     0.044 A 
ATOM     19  C   UNL A   1      35.059  21.781  25.457  1.00  0.00     0.120 A 
ATOM     20  C   UNL A   1      35.676  22.991  25.174  1.00  0.00     0.046 A 
ATOM     21  C   UNL A   1      33.853  21.757  26.162  1.00  0.00     0.072 A 
ATOM     22  C   UNL A   1      35.049  24.180  25.539  1.00  0.00     0.006 A 
ATOM     23  C   UNL A   1      33.823  24.159  26.216  1.00  0.00     0.026 A 
BRANCH  19  24
ATOM     24  O   UNL A   1      35.707  20.637  25.076  1.00  0.00    -0.497 OA
ATOM     25  C   UNL A   1      37.109  20.846  24.918  1.00  0.00     0.278 C 
ENDBRANCH  19  24
ENDBRANCH  15  18
ENDBRANCH  13  14
ENDBRANCH  12  13
ENDBRANCH   8  12
ENDBRANCH   4   7
ENDBRANCH   2   3
ENDBRANCH   1   2
BRANCH   1  26
ATOM     26  C   UNL A   1      32.907  29.241  24.284  1.00  0.00     0.002 C 
BRANCH  26  27
ATOM     27  C   UNL A   1      33.004  28.010  25.194  1.00  0.00     0.002 C 
BRANCH  27  28
ATOM     28  C   UNL A   1      34.006  28.134  26.346  1.00  0.00     0.021 C 
BRANCH  28  29
ATOM     29  C   UNL A   1      33.435  28.775  27.608  1.00  0.00     0.116 C 
BRANCH  29  30
ATOM     30  N   UNL A   1      33.610  30.221  27.601  1.00  0.00    -0.352 N 
ATOM     31  C   UNL A   1      34.653  30.974  28.082  1.00  0.00     0.251 C 
ATOM     32  H   UNL A   1      32.874  30.733  27.192  1.00  0.00     0.163 HD
ATOM     33  O   UNL A   1      34.525  32.187  28.211  1.00  0.00    -0.269 OA
BRANCH  31  34
ATOM     34  C   UNL A   1      35.923  30.316  28.452  1.00  0.00     0.039 A 
ATOM     35  C   UNL A   1      37.002  30.378  27.567  1.00  0.00     0.014 A 
ATOM     36  C   UNL A   1      36.046  29.635  29.666  1.00  0.00     0.014 A 
ATOM     37  C   UNL A   1      38.228  29.816  27.932  1.00  0.00     0.010 A 
ATOM     38  C   UNL A   1      37.286  29.135  30.057  1.00  0.00     0.010 A 
ATOM     39  C   UNL A   1      38.390  29.224  29.197  1.00  0.00    -0.014 A 
BRANCH  39  40
ATOM     40  C   UNL A   1      39.717  28.735  29.651  1.00  0.00     0.031 A 
ATOM     41  C   UNL A   1      40.478  29.471  30.719  1.00  0.00     0.074 A 
ATOM     42  C   UNL A   1      40.274  27.674  29.033  1.00  0.00     0.049 A 
ATOM     43  N   UNL A   1      41.674  29.230  31.191  1.00  0.00    -0.248 NA
ATOM     44  C   UNL A   1      39.823  30.644  31.322  1.00  0.00     0.031 C 
ATOM     45  C   UNL A   1      39.669  26.925  27.929  1.00  0.00     0.029 A 
ATOM     46  N   UNL A   1      41.487  27.060  29.222  1.00  0.00    -0.354 N 
ATOM     47  C   UNL A   1      41.925  30.228  32.126  1.00  0.00     0.074 A 
ATOM     48  C   UNL A   1      40.771  31.099  32.131  1.00  0.00     0.031 C 
ATOM     49  C   UNL A   1      40.513  25.959  27.536  1.00  0.00     0.029 A 
ATOM     50  C   UNL A   1      41.732  26.039  28.334  1.00  0.00     0.049 A 
ATOM     51  H   UNL A   1      42.122  27.327  29.926  1.00  0.00     0.167 HD
ATOM     52  C   UNL A   1      43.004  30.386  32.928  1.00  0.00     0.034 A 
ATOM     53  C   UNL A   1      42.823  25.265  28.166  1.00  0.00     0.034 A 
ATOM     54  C   UNL A   1      44.137  29.500  32.941  1.00  0.00     0.049 A 
ATOM     55  C   UNL A   1      44.001  25.455  29.083  1.00  0.00     0.074 A 
ATOM     56  C   UNL A   1      45.246  29.535  33.770  1.00  0.00     0.029 A 
ATOM     57  N   UNL A   1      44.315  28.426  32.084  1.00  0.00    -0.354 N 
ATOM     58  N   UNL A   1      44.150  26.307  30.068  1.00  0.00    -0.248 NA
ATOM     59  C   UNL A   1      45.146  24.555  28.888  1.00  0.00     0.031 C 
ATOM     60  C   UNL A   1      46.106  28.498  33.394  1.00  0.00     0.029 A 
ATOM     61  C   UNL A   1      45.520  27.798  32.353  1.00  0.00     0.049 A 
ATOM     62  H   UNL A   1      43.678  28.150  31.385  1.00  0.00     0.167 HD
ATOM     63  C   UNL A   1      45.391  26.027  30.628  1.00  0.00     0.074 A 
ATOM     64  C   UNL A   1      45.938  24.905  29.893  1.00  0.00     0.031 C 
ATOM     65  C   UNL A   1      46.030  26.653  31.647  1.00  0.00     0.034 A 
BRANCH  52  66
ATOM     66  C   UNL A   1      42.992  31.529  33.909  1.00  0.00     0.023 A 
ATOM     67  C   UNL A   1      43.511  32.781  33.518  1.00  0.00     0.012 A 
ATOM     68  C   UNL A   1      42.392  31.396  35.177  1.00  0.00     0.148 A 
ATOM     69  C   UNL A   1      43.457  33.874  34.381  1.00  0.00     0.002 A 
ATOM     70  C   UNL A   1      42.302  32.501  36.015  1.00  0.00     0.091 A 
ATOM     71  F   UNL A   1      41.919  30.194  35.535  1.00  0.00    -0.205 F 
ATOM     72  C   UNL A   1      42.841  33.737  35.623  1.00  0.00     0.022 A 
BRANCH  70  73
ATOM     73  S   UNL A   1      41.462  32.454  37.602  1.00  0.00     0.127 S 
ATOM     74  O   UNL A   1      40.114  32.040  37.209  1.00  0.00    -0.237 OA
ATOM     75  O   UNL A   1      42.226  31.435  38.322  1.00  0.00    -0.237 OA
ATOM     76  O   UNL A   1      41.562  33.797  38.152  1.00  0.00    -0.744 OA
ENDBRANCH  70  73
ENDBRANCH  52  66
BRANCH  53  77
ATOM     77  C   UNL A   1      42.843  24.217  27.107  1.00  0.00     0.023 A 
ATOM     78  C   UNL A   1      43.522  24.461  25.897  1.00  0.00     0.012 A 
ATOM     79  C   UNL A   1      42.194  22.981  27.291  1.00  0.00     0.148 A 
ATOM     80  C   UNL A   1      43.519  23.511  24.874  1.00  0.00     0.002 A 
ATOM     81  C   UNL A   1      42.245  22.015  26.292  1.00  0.00     0.091 A 
ATOM     82  F   UNL A   1      41.540  22.770  28.442  1.00  0.00    -0.205 F 
ATOM     83  C   UNL A   1      42.889  22.286  25.076  1.00  0.00     0.022 A 
BRANCH  81  84
ATOM     84  S   UNL A   1      41.577  20.363  26.524  1.00  0.00     0.127 S 
ATOM     85  O   UNL A   1      42.094  19.664  25.352  1.00  0.00    -0.237 OA
ATOM     86  O   UNL A   1      42.181  19.967  27.796  1.00  0.00    -0.237 OA
ATOM     87  O   UNL A   1      40.130  20.532  26.579  1.00  0.00    -0.744 OA
ENDBRANCH  81  84
ENDBRANCH  53  77
BRANCH  65  88
ATOM     88  C   UNL A   1      47.383  26.126  32.050  1.00  0.00     0.023 A 
ATOM     89  C   UNL A   1      48.537  26.581  31.384  1.00  0.00     0.012 A 
ATOM     90  C   UNL A   1      47.514  25.233  33.133  1.00  0.00     0.148 A 
ATOM     91  C   UNL A   1      49.800  26.128  31.765  1.00  0.00     0.002 A 
ATOM     92  C   UNL A   1      48.779  24.827  33.540  1.00  0.00     0.091 A 
ATOM     93  F   UNL A   1      46.401  24.800  33.743  1.00  0.00    -0.205 F 
ATOM     94  C   UNL A   1      49.921  25.263  32.849  1.00  0.00     0.022 A 
BRANCH  92  95
ATOM     95  S   UNL A   1      49.042  23.788  34.982  1.00  0.00     0.127 S 
ATOM     96  O   UNL A   1      48.445  22.525  34.550  1.00  0.00    -0.237 OA
ATOM     97  O   UNL A   1      50.501  23.771  35.087  1.00  0.00    -0.237 OA
ATOM     98  O   UNL A   1      48.362  24.452  36.086  1.00  0.00    -0.744 OA
ENDBRANCH  92  95
ENDBRANCH  65  88
ENDBRANCH  39  40
ENDBRANCH  31  34
ENDBRANCH  29  30
ENDBRANCH  28  29
ENDBRANCH  27  28
ENDBRANCH  26  27
ENDBRANCH   1  26
TORSDOF 21
ENDMDL
MODEL 2
REMARK VINA RESULT:     -10.2      2.419      7.802
REMARK SMILES COc1cccc(NC(=O)COc2csc(C(=O)NCCCCCCNC(=O)c3ccc(-c4c5nc(c(-c6cccc(S(=O)(=O)[O-])c6F)c6ccc([nH]6)c(-c6cccc(S(=O)(=O)[O-])c6F)c6nc(c(-c7cccc(S(=O)(=O)[O-])c7F)c7ccc4[nH]7)C=C6)C=C5)cc3)c2)c1
REMARK SMILES IDX 21 1 20 2 19 3 17 4 18 5 16 7 13 8 14 9 92 10 15 11 12 12
REMARK SMILES IDX 11 13 9 14 8 15 10 17 7 18 3 19 4 20 93 21 5 22 6 23 2 24
REMARK SMILES IDX 1 25 22 26 23 27 24 28 25 29 26 30 27 31 28 33 29 34 30 35
REMARK SMILES IDX 91 36 31 37 90 38 32 39 33 40 34 41 84 42 35 43 89 44 83 45
REMARK SMILES IDX 85 46 36 47 88 48 82 49 81 50 37 52 69 53 49 54 68 55 50 56
REMARK SMILES IDX 53 57 67 58 86 59 51 60 52 61 66 63 87 64 54 65 38 66 39 67
REMARK SMILES IDX 47 68 40 69 42 70 48 71 41 72 43 73 44 74 45 75 46 76 70 77
REMARK SMILES IDX 71 78 79 79 72 80 74 81 80 82 73 83 75 84 76 85 77 86 78 87
REMARK SMILES IDX 55 88 56 89 64 90 57 91 59 92 65 93 58 94 60 95 61 96 62 97
REMARK SMILES IDX 63 98
REMARK H PARENT 19 6 8 16 26 32 85 51 53 62
REMARK Flexibility Score: inf
ROOT
ATOM      1  C   UNL A   1      32.080  28.899  22.612  1.00  0.00     0.021 C 
ENDROOT
BRANCH   1   2
ATOM      2  C   UNL A   1      33.128  27.793  22.741  1.00  0.00     0.116 C 
BRANCH   2   3
ATOM      3  N   UNL A   1      33.186  27.005  21.525  1.00  0.00    -0.351 N 
ATOM      4  C   UNL A   1      32.806  25.716  21.241  1.00  0.00     0.261 C 
ATOM      5  O   UNL A   1      32.976  25.370  20.068  1.00  0.00    -0.268 OA
ATOM      6  H   UNL A   1      33.572  27.485  20.758  1.00  0.00     0.163 HD
BRANCH   4   7
ATOM      7  C   UNL A   1      32.219  24.848  22.254  1.00  0.00     0.096 A 
ATOM      8  C   UNL A   1      31.786  23.189  23.851  1.00  0.00     0.131 A 
ATOM      9  C   UNL A   1      30.735  24.042  24.084  1.00  0.00     0.112 A 
ATOM     10  C   UNL A   1      32.596  23.621  22.765  1.00  0.00     0.072 A 
ATOM     11  S   UNL A   1      30.751  25.368  23.001  1.00  0.00    -0.135 S 
BRANCH   8  12
ATOM     12  O   UNL A   1      32.138  22.119  24.601  1.00  0.00    -0.483 OA
BRANCH  12  13
ATOM     13  C   UNL A   1      32.553  20.972  23.891  1.00  0.00     0.329 C 
BRANCH  13  14
ATOM     14  C   UNL A   1      32.990  19.733  24.666  1.00  0.00     0.262 C 
ATOM     15  N   UNL A   1      34.231  19.574  25.204  1.00  0.00    -0.323 N 
ATOM     16  H   UNL A   1      34.311  18.744  25.727  1.00  0.00     0.170 HD
ATOM     17  O   UNL A   1      32.185  18.808  24.847  1.00  0.00    -0.271 OA
BRANCH  15  18
ATOM     18  C   UNL A   1      35.423  20.317  25.186  1.00  0.00     0.044 A 
ATOM     19  C   UNL A   1      36.416  22.512  25.555  1.00  0.00     0.120 A 
ATOM     20  C   UNL A   1      37.660  22.027  25.176  1.00  0.00     0.046 A 
ATOM     21  C   UNL A   1      35.302  21.670  25.542  1.00  0.00     0.072 A 
ATOM     22  C   UNL A   1      37.799  20.680  24.851  1.00  0.00     0.006 A 
ATOM     23  C   UNL A   1      36.689  19.826  24.871  1.00  0.00     0.026 A 
BRANCH  19  24
ATOM     24  O   UNL A   1      36.326  23.841  25.871  1.00  0.00    -0.497 OA
ATOM     25  C   UNL A   1      35.131  24.431  25.362  1.00  0.00     0.278 C 
ENDBRANCH  19  24
ENDBRANCH  15  18
ENDBRANCH  13  14
ENDBRANCH  12  13
ENDBRANCH   8  12
ENDBRANCH   4   7
ENDBRANCH   2   3
ENDBRANCH   1   2
BRANCH   1  26
ATOM     26  C   UNL A   1      31.202  29.050  23.863  1.00  0.00     0.002 C 
BRANCH  26  27
ATOM     27  C   UNL A   1      31.893  28.689  25.184  1.00  0.00     0.002 C 
BRANCH  27  28
ATOM     28  C   UNL A   1      32.857  29.751  25.722  1.00  0.00     0.021 C 
BRANCH  28  29
ATOM     29  C   UNL A   1      32.434  30.365  27.053  1.00  0.00     0.116 C 
BRANCH  29  30
ATOM     30  N   UNL A   1      32.458  31.821  27.004  1.00  0.00    -0.352 N 
ATOM     31  C   UNL A   1      33.360  32.696  27.556  1.00  0.00     0.251 C 
ATOM     32  H   UNL A   1      31.719  32.237  26.503  1.00  0.00     0.163 HD
ATOM     33  O   UNL A   1      33.094  33.891  27.621  1.00  0.00    -0.269 OA
BRANCH  31  34
ATOM     34  C   UNL A   1      34.647  32.190  28.078  1.00  0.00     0.039 A 
ATOM     35  C   UNL A   1      35.763  33.030  28.061  1.00  0.00     0.014 A 
ATOM     36  C   UNL A   1      34.752  30.889  28.579  1.00  0.00     0.014 A 
ATOM     37  C   UNL A   1      36.968  32.587  28.611  1.00  0.00     0.010 A 
ATOM     38  C   UNL A   1      35.933  30.475  29.187  1.00  0.00     0.010 A 
ATOM     39  C   UNL A   1      37.052  31.320  29.214  1.00  0.00    -0.014 A 
BRANCH  39  40
ATOM     40  C   UNL A   1      38.286  30.883  29.915  1.00  0.00     0.031 A 
ATOM     41  C   UNL A   1      39.212  29.882  29.282  1.00  0.00     0.074 A 
ATOM     42  C   UNL A   1      38.524  31.327  31.166  1.00  0.00     0.049 A 
ATOM     43  N   UNL A   1      40.295  29.337  29.774  1.00  0.00    -0.248 NA
ATOM     44  C   UNL A   1      38.868  29.413  27.929  1.00  0.00     0.031 C 
ATOM     45  C   UNL A   1      37.659  32.239  31.918  1.00  0.00     0.029 A 
ATOM     46  N   UNL A   1      39.546  31.047  32.039  1.00  0.00    -0.354 N 
ATOM     47  C   UNL A   1      40.749  28.447  28.806  1.00  0.00     0.074 A 
ATOM     48  C   UNL A   1      39.805  28.499  27.711  1.00  0.00     0.031 C 
ATOM     49  C   UNL A   1      38.182  32.438  33.138  1.00  0.00     0.029 A 
ATOM     50  C   UNL A   1      39.399  31.645  33.269  1.00  0.00     0.049 A 
ATOM     51  H   UNL A   1      40.311  30.473  31.806  1.00  0.00     0.167 HD
ATOM     52  C   UNL A   1      41.865  27.681  28.816  1.00  0.00     0.034 A 
ATOM     53  C   UNL A   1      40.148  31.550  34.386  1.00  0.00     0.034 A 
ATOM     54  C   UNL A   1      42.817  27.655  29.894  1.00  0.00     0.049 A 
ATOM     55  C   UNL A   1      41.391  30.702  34.361  1.00  0.00     0.074 A 
ATOM     56  C   UNL A   1      44.016  26.967  29.965  1.00  0.00     0.029 A 
ATOM     57  N   UNL A   1      42.678  28.337  31.093  1.00  0.00    -0.354 N 
ATOM     58  N   UNL A   1      41.885  29.992  33.376  1.00  0.00    -0.248 NA
ATOM     59  C   UNL A   1      42.197  30.669  35.589  1.00  0.00     0.031 C 
ATOM     60  C   UNL A   1      44.588  27.212  31.217  1.00  0.00     0.029 A 
ATOM     61  C   UNL A   1      43.761  28.077  31.915  1.00  0.00     0.049 A 
ATOM     62  H   UNL A   1      41.919  28.920  31.326  1.00  0.00     0.167 HD
ATOM     63  C   UNL A   1      43.073  29.453  33.855  1.00  0.00     0.074 A 
ATOM     64  C   UNL A   1      43.240  29.944  35.207  1.00  0.00     0.031 C 
ATOM     65  C   UNL A   1      43.940  28.611  33.239  1.00  0.00     0.034 A 
BRANCH  52  66
ATOM     66  C   UNL A   1      42.158  26.847  27.597  1.00  0.00     0.023 A 
ATOM     67  C   UNL A   1      42.765  27.451  26.476  1.00  0.00     0.012 A 
ATOM     68  C   UNL A   1      41.918  25.459  27.587  1.00  0.00     0.148 A 
ATOM     69  C   UNL A   1      43.106  26.693  25.357  1.00  0.00     0.002 A 
ATOM     70  C   UNL A   1      42.301  24.702  26.486  1.00  0.00     0.091 A 
ATOM     71  F   UNL A   1      41.326  24.907  28.655  1.00  0.00    -0.205 F 
ATOM     72  C   UNL A   1      42.886  25.318  25.367  1.00  0.00     0.022 A 
BRANCH  70  73
ATOM     73  S   UNL A   1      42.133  22.914  26.427  1.00  0.00     0.127 S 
ATOM     74  O   UNL A   1      40.750  22.734  26.870  1.00  0.00    -0.237 OA
ATOM     75  O   UNL A   1      42.361  22.632  25.010  1.00  0.00    -0.237 OA
ATOM     76  O   UNL A   1      43.146  22.384  27.328  1.00  0.00    -0.744 OA
ENDBRANCH  70  73
ENDBRANCH  52  66
BRANCH  53  77
ATOM     77  C   UNL A   1      39.763  32.302  35.613  1.00  0.00     0.023 A 
ATOM     78  C   UNL A   1      40.343  33.560  35.870  1.00  0.00     0.012 A 
ATOM     79  C   UNL A   1      38.827  31.780  36.525  1.00  0.00     0.148 A 
ATOM     80  C   UNL A   1      40.030  34.264  37.034  1.00  0.00     0.002 A 
ATOM     81  C   UNL A   1      38.473  32.512  37.653  1.00  0.00     0.091 A 
ATOM     82  F   UNL A   1      38.295  30.575  36.273  1.00  0.00    -0.205 F 
ATOM     83  C   UNL A   1      39.089  33.745  37.920  1.00  0.00     0.022 A 
BRANCH  81  84
ATOM     84  S   UNL A   1      37.173  31.979  38.772  1.00  0.00     0.127 S 
ATOM     85  O   UNL A   1      37.130  30.542  38.518  1.00  0.00    -0.237 OA
ATOM     86  O   UNL A   1      37.717  32.360  40.075  1.00  0.00    -0.237 OA
ATOM     87  O   UNL A   1      35.988  32.731  38.379  1.00  0.00    -0.744 OA
ENDBRANCH  81  84
ENDBRANCH  53  77
BRANCH  65  88
ATOM     88  C   UNL A   1      45.164  28.185  34.008  1.00  0.00     0.023 A 
ATOM     89  C   UNL A   1      46.301  29.015  34.028  1.00  0.00     0.012 A 
ATOM     90  C   UNL A   1      45.160  26.996  34.764  1.00  0.00     0.148 A 
ATOM     91  C   UNL A   1      47.430  28.652  34.761  1.00  0.00     0.002 A 
ATOM     92  C   UNL A   1      46.270  26.666  35.533  1.00  0.00     0.091 A 
ATOM     93  F   UNL A   1      44.073  26.212  34.718  1.00  0.00    -0.205 F 
ATOM     94  C   UNL A   1      47.410  27.486  35.522  1.00  0.00     0.022 A 
BRANCH  92  95
ATOM     95  S   UNL A   1      46.302  25.235  36.617  1.00  0.00     0.127 S 
ATOM     96  O   UNL A   1      47.724  25.145  36.948  1.00  0.00    -0.237 OA
ATOM     97  O   UNL A   1      45.445  25.666  37.722  1.00  0.00    -0.237 OA
ATOM     98  O   UNL A   1      45.773  24.125  35.837  1.00  0.00    -0.744 OA
ENDBRANCH  92  95
ENDBRANCH  65  88
ENDBRANCH  39  40
ENDBRANCH  31  34
ENDBRANCH  29  30
ENDBRANCH  28  29
ENDBRANCH  27  28
ENDBRANCH  26  27
ENDBRANCH   1  26
TORSDOF 21
ENDMDL
MODEL 3
REMARK VINA RESULT:     -10.1      1.610      2.142
REMARK SMILES COc1cccc(NC(=O)COc2csc(C(=O)NCCCCCCNC(=O)c3ccc(-c4c5nc(c(-c6cccc(S(=O)(=O)[O-])c6F)c6ccc([nH]6)c(-c6cccc(S(=O)(=O)[O-])c6F)c6nc(c(-c7cccc(S(=O)(=O)[O-])c7F)c7ccc4[nH]7)C=C6)C=C5)cc3)c2)c1
REMARK SMILES IDX 21 1 20 2 19 3 17 4 18 5 16 7 13 8 14 9 92 10 15 11 12 12
REMARK SMILES IDX 11 13 9 14 8 15 10 17 7 18 3 19 4 20 93 21 5 22 6 23 2 24
REMARK SMILES IDX 1 25 22 26 23 27 24 28 25 29 26 30 27 31 28 33 29 34 30 35
REMARK SMILES IDX 91 36 31 37 90 38 32 39 33 40 34 41 84 42 35 43 89 44 83 45
REMARK SMILES IDX 85 46 36 47 88 48 82 49 81 50 37 52 69 53 49 54 68 55 50 56
REMARK SMILES IDX 53 57 67 58 86 59 51 60 52 61 66 63 87 64 54 65 38 66 39 67
REMARK SMILES IDX 47 68 40 69 42 70 48 71 41 72 43 73 44 74 45 75 46 76 70 77
REMARK SMILES IDX 71 78 79 79 72 80 74 81 80 82 73 83 75 84 76 85 77 86 78 87
REMARK SMILES IDX 55 88 56 89 64 90 57 91 59 92 65 93 58 94 60 95 61 96 62 97
REMARK SMILES IDX 63 98
REMARK H PARENT 19 6 8 16 26 32 85 51 53 62
REMARK Flexibility Score: inf
ROOT
ATOM      1  C   UNL A   1      32.220  28.640  22.809  1.00  0.00     0.021 C 
ENDROOT
BRANCH   1   2
ATOM      2  C   UNL A   1      33.346  27.604  22.825  1.00  0.00     0.116 C 
BRANCH   2   3
ATOM      3  N   UNL A   1      33.330  26.819  21.606  1.00  0.00    -0.351 N 
ATOM      4  C   UNL A   1      32.860  25.559  21.326  1.00  0.00     0.261 C 
ATOM      5  O   UNL A   1      32.986  25.207  20.149  1.00  0.00    -0.268 OA
ATOM      6  H   UNL A   1      33.733  27.275  20.833  1.00  0.00     0.163 HD
BRANCH   4   7
ATOM      7  C   UNL A   1      32.234  24.728  22.347  1.00  0.00     0.096 A 
ATOM      8  C   UNL A   1      31.740  23.125  23.983  1.00  0.00     0.131 A 
ATOM      9  C   UNL A   1      30.687  23.990  24.152  1.00  0.00     0.112 A 
ATOM     10  C   UNL A   1      32.587  23.516  22.911  1.00  0.00     0.072 A 
ATOM     11  S   UNL A   1      30.746  25.280  23.028  1.00  0.00    -0.135 S 
BRANCH   8  12
ATOM     12  O   UNL A   1      32.060  22.079  24.778  1.00  0.00    -0.483 OA
BRANCH  12  13
ATOM     13  C   UNL A   1      32.269  20.844  24.128  1.00  0.00     0.329 C 
BRANCH  13  14
ATOM     14  C   UNL A   1      32.874  19.682  24.910  1.00  0.00     0.262 C 
ATOM     15  N   UNL A   1      34.149  19.670  25.385  1.00  0.00    -0.323 N 
ATOM     16  H   UNL A   1      34.343  18.869  25.924  1.00  0.00     0.170 HD
ATOM     17  O   UNL A   1      32.181  18.684  25.157  1.00  0.00    -0.271 OA
BRANCH  15  18
ATOM     18  C   UNL A   1      35.254  20.533  25.285  1.00  0.00     0.044 A 
ATOM     19  C   UNL A   1      36.060  22.801  25.669  1.00  0.00     0.120 A 
ATOM     20  C   UNL A   1      37.298  22.464  25.139  1.00  0.00     0.046 A 
ATOM     21  C   UNL A   1      35.039  21.849  25.725  1.00  0.00     0.072 A 
ATOM     22  C   UNL A   1      37.533  21.155  24.729  1.00  0.00     0.006 A 
ATOM     23  C   UNL A   1      36.521  20.189  24.817  1.00  0.00     0.026 A 
BRANCH  19  24
ATOM     24  O   UNL A   1      35.873  24.098  26.064  1.00  0.00    -0.497 OA
ATOM     25  C   UNL A   1      35.052  24.822  25.150  1.00  0.00     0.278 C 
ENDBRANCH  19  24
ENDBRANCH  15  18
ENDBRANCH  13  14
ENDBRANCH  12  13
ENDBRANCH   8  12
ENDBRANCH   4   7
ENDBRANCH   2   3
ENDBRANCH   1   2
BRANCH   1  26
ATOM     26  C   UNL A   1      31.647  28.932  24.204  1.00  0.00     0.002 C 
BRANCH  26  27
ATOM     27  C   UNL A   1      32.325  28.173  25.352  1.00  0.00     0.002 C 
BRANCH  27  28
ATOM     28  C   UNL A   1      33.556  28.864  25.947  1.00  0.00     0.021 C 
BRANCH  28  29
ATOM     29  C   UNL A   1      33.418  29.229  27.422  1.00  0.00     0.116 C 
BRANCH  29  30
ATOM     30  N   UNL A   1      33.564  30.662  27.636  1.00  0.00    -0.352 N 
ATOM     31  C   UNL A   1      34.548  31.347  28.306  1.00  0.00     0.251 C 
ATOM     32  H   UNL A   1      32.854  31.221  27.243  1.00  0.00     0.163 HD
ATOM     33  O   UNL A   1      34.385  32.528  28.594  1.00  0.00    -0.269 OA
BRANCH  31  34
ATOM     34  C   UNL A   1      35.796  30.653  28.684  1.00  0.00     0.039 A 
ATOM     35  C   UNL A   1      36.997  31.040  28.083  1.00  0.00     0.014 A 
ATOM     36  C   UNL A   1      35.781  29.621  29.627  1.00  0.00     0.014 A 
ATOM     37  C   UNL A   1      38.193  30.437  28.479  1.00  0.00     0.010 A 
ATOM     38  C   UNL A   1      36.981  29.069  30.069  1.00  0.00     0.010 A 
ATOM     39  C   UNL A   1      38.199  29.474  29.503  1.00  0.00    -0.014 A 
BRANCH  39  40
ATOM     40  C   UNL A   1      39.472  28.916  30.024  1.00  0.00     0.031 A 
ATOM     41  C   UNL A   1      40.152  29.539  31.212  1.00  0.00     0.074 A 
ATOM     42  C   UNL A   1      40.062  27.897  29.367  1.00  0.00     0.049 A 
ATOM     43  N   UNL A   1      41.298  29.229  31.761  1.00  0.00    -0.248 NA
ATOM     44  C   UNL A   1      39.468  30.673  31.857  1.00  0.00     0.031 C 
ATOM     45  C   UNL A   1      39.541  27.259  28.155  1.00  0.00     0.029 A 
ATOM     46  N   UNL A   1      41.243  27.239  29.604  1.00  0.00    -0.354 N 
ATOM     47  C   UNL A   1      41.485  30.138  32.796  1.00  0.00     0.074 A 
ATOM     48  C   UNL A   1      40.350  31.034  32.779  1.00  0.00     0.031 C 
ATOM     49  C   UNL A   1      40.399  26.309  27.753  1.00  0.00     0.029 A 
ATOM     50  C   UNL A   1      41.546  26.290  28.655  1.00  0.00     0.049 A 
ATOM     51  H   UNL A   1      41.819  27.429  30.380  1.00  0.00     0.167 HD
ATOM     52  C   UNL A   1      42.493  30.200  33.697  1.00  0.00     0.034 A 
ATOM     53  C   UNL A   1      42.633  25.506  28.513  1.00  0.00     0.034 A 
ATOM     54  C   UNL A   1      43.605  29.288  33.730  1.00  0.00     0.049 A 
ATOM     55  C   UNL A   1      43.730  25.588  29.539  1.00  0.00     0.074 A 
ATOM     56  C   UNL A   1      44.638  29.225  34.650  1.00  0.00     0.029 A 
ATOM     57  N   UNL A   1      43.837  28.286  32.801  1.00  0.00    -0.354 N 
ATOM     58  N   UNL A   1      43.809  26.350  30.603  1.00  0.00    -0.248 NA
ATOM     59  C   UNL A   1      44.872  24.679  29.365  1.00  0.00     0.031 C 
ATOM     60  C   UNL A   1      45.509  28.203  34.260  1.00  0.00     0.029 A 
ATOM     61  C   UNL A   1      45.003  27.608  33.117  1.00  0.00     0.049 A 
ATOM     62  H   UNL A   1      43.258  28.086  32.030  1.00  0.00     0.167 HD
ATOM     63  C   UNL A   1      44.992  25.992  31.240  1.00  0.00     0.074 A 
ATOM     64  C   UNL A   1      45.580  24.923  30.460  1.00  0.00     0.031 C 
ATOM     65  C   UNL A   1      45.551  26.514  32.360  1.00  0.00     0.034 A 
BRANCH  52  66
ATOM     66  C   UNL A   1      42.417  31.256  34.769  1.00  0.00     0.023 A 
ATOM     67  C   UNL A   1      41.853  30.933  36.020  1.00  0.00     0.012 A 
ATOM     68  C   UNL A   1      42.977  32.535  34.574  1.00  0.00     0.148 A 
ATOM     69  C   UNL A   1      41.825  31.869  37.052  1.00  0.00     0.002 A 
ATOM     70  C   UNL A   1      42.984  33.449  35.621  1.00  0.00     0.091 A 
ATOM     71  F   UNL A   1      43.493  32.829  33.373  1.00  0.00    -0.205 F 
ATOM     72  C   UNL A   1      42.401  33.121  36.856  1.00  0.00     0.022 A 
BRANCH  70  73
ATOM     73  S   UNL A   1      43.769  35.061  35.501  1.00  0.00     0.127 S 
ATOM     74  O   UNL A   1      42.930  35.723  34.502  1.00  0.00    -0.237 OA
ATOM     75  O   UNL A   1      43.619  35.576  36.862  1.00  0.00    -0.237 OA
ATOM     76  O   UNL A   1      45.142  34.811  35.090  1.00  0.00    -0.744 OA
ENDBRANCH  70  73
ENDBRANCH  52  66
BRANCH  53  77
ATOM     77  C   UNL A   1      42.725  24.551  27.373  1.00  0.00     0.023 A 
ATOM     78  C   UNL A   1      43.341  24.956  26.173  1.00  0.00     0.012 A 
ATOM     79  C   UNL A   1      42.209  23.245  27.471  1.00  0.00     0.148 A 
ATOM     80  C   UNL A   1      43.402  24.093  25.077  1.00  0.00     0.002 A 
ATOM     81  C   UNL A   1      42.326  22.370  26.397  1.00  0.00     0.091 A 
ATOM     82  F   UNL A   1      41.613  22.880  28.616  1.00  0.00    -0.205 F 
ATOM     83  C   UNL A   1      42.904  22.798  25.193  1.00  0.00     0.022 A 
BRANCH  81  84
ATOM     84  S   UNL A   1      41.832  20.646  26.510  1.00  0.00     0.127 S 
ATOM     85  O   UNL A   1      42.507  20.066  25.353  1.00  0.00    -0.237 OA
ATOM     86  O   UNL A   1      42.386  20.255  27.807  1.00  0.00    -0.237 OA
ATOM     87  O   UNL A   1      40.376  20.653  26.462  1.00  0.00    -0.744 OA
ENDBRANCH  81  84
ENDBRANCH  53  77
BRANCH  65  88
ATOM     88  C   UNL A   1      46.855  25.921  32.829  1.00  0.00     0.023 A 
ATOM     89  C   UNL A   1      48.072  26.519  32.450  1.00  0.00     0.012 A 
ATOM     90  C   UNL A   1      46.869  24.813  33.700  1.00  0.00     0.148 A 
ATOM     91  C   UNL A   1      49.286  26.003  32.901  1.00  0.00     0.002 A 
ATOM     92  C   UNL A   1      48.080  24.335  34.186  1.00  0.00     0.091 A 
ATOM     93  F   UNL A   1      45.699  24.248  34.035  1.00  0.00    -0.205 F 
ATOM     94  C   UNL A   1      49.290  24.921  33.778  1.00  0.00     0.022 A 
BRANCH  92  95
ATOM     95  S   UNL A   1      48.180  23.007  35.391  1.00  0.00     0.127 S 
ATOM     96  O   UNL A   1      49.581  23.086  35.804  1.00  0.00    -0.237 OA
ATOM     97  O   UNL A   1      47.219  23.439  36.406  1.00  0.00    -0.237 OA
ATOM     98  O   UNL A   1      47.808  21.791  34.682  1.00  0.00    -0.744 OA
ENDBRANCH  92  95
ENDBRANCH  65  88
ENDBRANCH  39  40
ENDBRANCH  31  34
ENDBRANCH  29  30
ENDBRANCH  28  29
ENDBRANCH  27  28
ENDBRANCH  26  27
ENDBRANCH   1  26
TORSDOF 21
ENDMDL
