MODEL 1
REMARK VINA RESULT:     -10.8      0.000      0.000
REMARK SMILES CN(CC(=O)NCC(=O)NCCCCCCNC(=O)c1ccc(-c2c3nc(c(-c4cccc(S(=O)(=O)[O-])c4F)c4ccc([nH]4)c(-c4cccc(S(=O)(=O)[O-])c4F)c4nc(c(-c5cccc(S(=O)(=O)[O-])c5F)c5ccc2[nH]5)C=C4)C=C3)cc1)c1ncccn1
REMARK SMILES IDX 13 1 12 2 11 3 10 4 8 5 9 6 7 8 6 9 4 10 5 11 3 13 2 14 1 15
REMARK SMILES IDX 83 16 84 17 88 18 85 19 87 20 86 21 14 22 15 23 16 24 17 25
REMARK SMILES IDX 18 26 19 28 20 29 21 30 82 31 22 32 81 33 23 34 24 35 25 36
REMARK SMILES IDX 75 37 26 38 80 39 74 40 76 41 27 42 79 43 73 44 72 45 28 47
REMARK SMILES IDX 60 48 40 49 59 50 41 51 44 52 58 53 77 54 42 55 43 56 57 58
REMARK SMILES IDX 78 59 45 60 29 61 30 62 38 63 31 64 33 65 39 66 32 67 34 68
REMARK SMILES IDX 35 69 36 70 37 71 61 72 62 73 70 74 63 75 65 76 71 77 64 78
REMARK SMILES IDX 66 79 67 80 68 81 69 82 46 83 47 84 55 85 48 86 50 87 56 88
REMARK SMILES IDX 49 89 51 90 52 91 53 92 54 93
REMARK H PARENT 10 7 6 12 17 27 76 46 44 57
REMARK Flexibility Score: inf
ROOT
ATOM      1  C   UNL A   1      33.520  20.269  25.471  1.00  0.00     0.002 C 
ENDROOT
BRANCH   1   2
ATOM      2  C   UNL A   1      32.429  20.658  24.469  1.00  0.00     0.021 C 
BRANCH   2   3
ATOM      3  C   UNL A   1      31.812  22.033  24.701  1.00  0.00     0.116 C 
BRANCH   3   4
ATOM      4  N   UNL A   1      31.077  22.117  25.947  1.00  0.00    -0.355 N 
ATOM      5  C   UNL A   1      30.834  23.216  26.719  1.00  0.00     0.239 C 
ATOM      6  O   UNL A   1      30.013  23.108  27.636  1.00  0.00    -0.273 OA
ATOM      7  H   UNL A   1      30.704  21.269  26.280  1.00  0.00     0.163 HD
BRANCH   5   8
ATOM      8  C   UNL A   1      31.430  24.587  26.363  1.00  0.00     0.216 C 
BRANCH   8   9
ATOM      9  N   UNL A   1      32.852  24.587  26.067  1.00  0.00    -0.345 N 
ATOM     10  C   UNL A   1      33.638  25.602  25.591  1.00  0.00     0.240 C 
ATOM     11  O   UNL A   1      34.854  25.397  25.551  1.00  0.00    -0.273 OA
ATOM     12  H   UNL A   1      33.317  23.735  26.233  1.00  0.00     0.164 HD
BRANCH  10  13
ATOM     13  C   UNL A   1      33.020  26.966  25.228  1.00  0.00     0.219 C 
BRANCH  13  14
ATOM     14  N   UNL A   1      32.739  27.138  23.800  1.00  0.00    -0.335 N 
ATOM     15  C   UNL A   1      33.434  26.351  22.805  1.00  0.00     0.147 C 
BRANCH  14  16
ATOM     16  C   UNL A   1      31.528  27.694  23.429  1.00  0.00     0.225 A 
ATOM     17  N   UNL A   1      30.393  27.136  23.871  1.00  0.00    -0.221 NA
ATOM     18  N   UNL A   1      31.530  28.795  22.657  1.00  0.00    -0.221 NA
ATOM     19  C   UNL A   1      29.225  27.671  23.468  1.00  0.00     0.117 A 
ATOM     20  C   UNL A   1      30.340  29.282  22.249  1.00  0.00     0.117 A 
ATOM     21  C   UNL A   1      29.136  28.754  22.633  1.00  0.00     0.040 A 
ENDBRANCH  14  16
ENDBRANCH  13  14
ENDBRANCH  10  13
ENDBRANCH   8   9
ENDBRANCH   5   8
ENDBRANCH   3   4
ENDBRANCH   2   3
ENDBRANCH   1   2
BRANCH   1  22
ATOM     22  C   UNL A   1      34.930  20.786  25.163  1.00  0.00     0.002 C 
BRANCH  22  23
ATOM     23  C   UNL A   1      35.436  21.942  26.034  1.00  0.00     0.021 C 
BRANCH  23  24
ATOM     24  C   UNL A   1      36.835  22.467  25.714  1.00  0.00     0.116 C 
BRANCH  24  25
ATOM     25  N   UNL A   1      37.855  21.450  25.886  1.00  0.00    -0.352 N 
ATOM     26  C   UNL A   1      39.170  21.545  26.265  1.00  0.00     0.251 C 
ATOM     27  H   UNL A   1      37.552  20.533  25.697  1.00  0.00     0.163 HD
ATOM     28  O   UNL A   1      39.877  20.542  26.167  1.00  0.00    -0.269 OA
BRANCH  26  29
ATOM     29  C   UNL A   1      39.769  22.808  26.774  1.00  0.00     0.039 A 
ATOM     30  C   UNL A   1      39.361  24.007  26.178  1.00  0.00     0.014 A 
ATOM     31  C   UNL A   1      40.778  22.841  27.742  1.00  0.00     0.014 A 
ATOM     32  C   UNL A   1      39.935  25.224  26.563  1.00  0.00     0.010 A 
ATOM     33  C   UNL A   1      41.313  24.065  28.168  1.00  0.00     0.010 A 
ATOM     34  C   UNL A   1      40.908  25.270  27.574  1.00  0.00    -0.014 A 
BRANCH  34  35
ATOM     35  C   UNL A   1      41.470  26.582  28.006  1.00  0.00     0.031 A 
ATOM     36  C   UNL A   1      42.906  26.953  27.735  1.00  0.00     0.074 A 
ATOM     37  C   UNL A   1      40.682  27.454  28.668  1.00  0.00     0.049 A 
ATOM     38  N   UNL A   1      43.521  28.086  27.969  1.00  0.00    -0.248 NA
ATOM     39  C   UNL A   1      43.767  25.919  27.141  1.00  0.00     0.031 C 
ATOM     40  C   UNL A   1      39.299  27.200  29.072  1.00  0.00     0.029 A 
ATOM     41  N   UNL A   1      40.932  28.725  29.125  1.00  0.00    -0.354 N 
ATOM     42  C   UNL A   1      44.840  27.899  27.571  1.00  0.00     0.074 A 
ATOM     43  C   UNL A   1      44.944  26.529  27.111  1.00  0.00     0.031 C 
ATOM     44  C   UNL A   1      38.817  28.284  29.699  1.00  0.00     0.029 A 
ATOM     45  C   UNL A   1      39.858  29.308  29.755  1.00  0.00     0.049 A 
ATOM     46  H   UNL A   1      41.800  29.177  29.010  1.00  0.00     0.167 HD
ATOM     47  C   UNL A   1      45.864  28.789  27.556  1.00  0.00     0.034 A 
ATOM     48  C   UNL A   1      39.714  30.530  30.304  1.00  0.00     0.034 A 
ATOM     49  C   UNL A   1      45.757  30.162  27.973  1.00  0.00     0.049 A 
ATOM     50  C   UNL A   1      40.848  31.517  30.225  1.00  0.00     0.074 A 
ATOM     51  C   UNL A   1      46.717  31.159  27.906  1.00  0.00     0.029 A 
ATOM     52  N   UNL A   1      44.631  30.736  28.540  1.00  0.00    -0.354 N 
ATOM     53  N   UNL A   1      42.029  31.375  29.674  1.00  0.00    -0.248 NA
ATOM     54  C   UNL A   1      40.612  32.847  30.806  1.00  0.00     0.031 C 
ATOM     55  C   UNL A   1      46.175  32.330  28.448  1.00  0.00     0.029 A 
ATOM     56  C   UNL A   1      44.873  32.068  28.838  1.00  0.00     0.049 A 
ATOM     57  H   UNL A   1      43.781  30.267  28.707  1.00  0.00     0.167 HD
ATOM     58  C   UNL A   1      42.665  32.602  29.818  1.00  0.00     0.074 A 
ATOM     59  C   UNL A   1      41.727  33.486  30.477  1.00  0.00     0.031 C 
ATOM     60  C   UNL A   1      43.923  32.958  29.453  1.00  0.00     0.034 A 
BRANCH  47  61
ATOM     61  C   UNL A   1      47.187  28.323  27.003  1.00  0.00     0.023 A 
ATOM     62  C   UNL A   1      48.253  28.070  27.892  1.00  0.00     0.012 A 
ATOM     63  C   UNL A   1      47.358  28.064  25.629  1.00  0.00     0.148 A 
ATOM     64  C   UNL A   1      49.475  27.594  27.420  1.00  0.00     0.002 A 
ATOM     65  C   UNL A   1      48.567  27.552  25.171  1.00  0.00     0.091 A 
ATOM     66  F   UNL A   1      46.341  28.329  24.796  1.00  0.00    -0.205 F 
ATOM     67  C   UNL A   1      49.630  27.325  26.063  1.00  0.00     0.022 A 
BRANCH  65  68
ATOM     68  S   UNL A   1      48.841  27.102  23.453  1.00  0.00     0.127 S 
ATOM     69  O   UNL A   1      50.252  26.730  23.465  1.00  0.00    -0.237 OA
ATOM     70  O   UNL A   1      47.914  25.985  23.272  1.00  0.00    -0.237 OA
ATOM     71  O   UNL A   1      48.511  28.292  22.675  1.00  0.00    -0.744 OA
ENDBRANCH  65  68
ENDBRANCH  47  61
BRANCH  48  72
ATOM     72  C   UNL A   1      38.408  30.922  30.904  1.00  0.00     0.023 A 
ATOM     73  C   UNL A   1      38.166  30.657  32.266  1.00  0.00     0.012 A 
ATOM     74  C   UNL A   1      37.423  31.584  30.147  1.00  0.00     0.148 A 
ATOM     75  C   UNL A   1      36.954  31.017  32.856  1.00  0.00     0.002 A 
ATOM     76  C   UNL A   1      36.243  31.992  30.755  1.00  0.00     0.091 A 
ATOM     77  F   UNL A   1      37.666  31.811  28.848  1.00  0.00    -0.205 F 
ATOM     78  C   UNL A   1      35.997  31.695  32.104  1.00  0.00     0.022 A 
BRANCH  76  79
ATOM     79  S   UNL A   1      35.023  32.993  29.897  1.00  0.00     0.127 S 
ATOM     80  O   UNL A   1      34.463  32.040  28.947  1.00  0.00    -0.237 OA
ATOM     81  O   UNL A   1      34.127  33.383  30.985  1.00  0.00    -0.237 OA
ATOM     82  O   UNL A   1      35.774  34.105  29.319  1.00  0.00    -0.744 OA
ENDBRANCH  76  79
ENDBRANCH  48  72
BRANCH  60  83
ATOM     83  C   UNL A   1      44.360  34.370  29.754  1.00  0.00     0.023 A 
ATOM     84  C   UNL A   1      45.005  34.653  30.975  1.00  0.00     0.012 A 
ATOM     85  C   UNL A   1      44.174  35.406  28.817  1.00  0.00     0.148 A 
ATOM     86  C   UNL A   1      45.421  35.950  31.276  1.00  0.00     0.002 A 
ATOM     87  C   UNL A   1      44.633  36.688  29.105  1.00  0.00     0.091 A 
ATOM     88  F   UNL A   1      43.539  35.127  27.669  1.00  0.00    -0.205 F 
ATOM     89  C   UNL A   1      45.246  36.964  30.337  1.00  0.00     0.022 A 
BRANCH  87  90
ATOM     90  S   UNL A   1      44.523  38.031  27.916  1.00  0.00     0.127 S 
ATOM     91  O   UNL A   1      45.077  39.149  28.674  1.00  0.00    -0.237 OA
ATOM     92  O   UNL A   1      45.370  37.555  26.821  1.00  0.00    -0.237 OA
ATOM     93  O   UNL A   1      43.108  38.136  27.575  1.00  0.00    -0.744 OA
ENDBRANCH  87  90
ENDBRANCH  60  83
ENDBRANCH  34  35
ENDBRANCH  26  29
ENDBRANCH  24  25
ENDBRANCH  23  24
ENDBRANCH  22  23
ENDBRANCH   1  22
TORSDOF 20
ENDMDL
MODEL 2
REMARK VINA RESULT:     -10.7      5.896      9.063
REMARK SMILES CN(CC(=O)NCC(=O)NCCCCCCNC(=O)c1ccc(-c2c3nc(c(-c4cccc(S(=O)(=O)[O-])c4F)c4ccc([nH]4)c(-c4cccc(S(=O)(=O)[O-])c4F)c4nc(c(-c5cccc(S(=O)(=O)[O-])c5F)c5ccc2[nH]5)C=C4)C=C3)cc1)c1ncccn1
REMARK SMILES IDX 13 1 12 2 11 3 10 4 8 5 9 6 7 8 6 9 4 10 5 11 3 13 2 14 1 15
REMARK SMILES IDX 83 16 84 17 88 18 85 19 87 20 86 21 14 22 15 23 16 24 17 25
REMARK SMILES IDX 18 26 19 28 20 29 21 30 82 31 22 32 81 33 23 34 24 35 25 36
REMARK SMILES IDX 75 37 26 38 80 39 74 40 76 41 27 42 79 43 73 44 72 45 28 47
REMARK SMILES IDX 60 48 40 49 59 50 41 51 44 52 58 53 77 54 42 55 43 56 57 58
REMARK SMILES IDX 78 59 45 60 29 61 30 62 38 63 31 64 33 65 39 66 32 67 34 68
REMARK SMILES IDX 35 69 36 70 37 71 61 72 62 73 70 74 63 75 65 76 71 77 64 78
REMARK SMILES IDX 66 79 67 80 68 81 69 82 46 83 47 84 55 85 48 86 50 87 56 88
REMARK SMILES IDX 49 89 51 90 52 91 53 92 54 93
REMARK H PARENT 10 7 6 12 17 27 76 46 44 57
REMARK Flexibility Score: inf
ROOT
ATOM      1  C   UNL A   1      32.311  29.931  26.378  1.00  0.00     0.002 C 
ENDROOT
BRANCH   1   2
ATOM      2  C   UNL A   1      31.758  28.726  27.145  1.00  0.00     0.021 C 
BRANCH   2   3
ATOM      3  C   UNL A   1      32.350  27.383  26.733  1.00  0.00     0.116 C 
BRANCH   3   4
ATOM      4  N   UNL A   1      31.405  26.291  26.856  1.00  0.00    -0.355 N 
ATOM      5  C   UNL A   1      31.491  25.029  26.343  1.00  0.00     0.239 C 
ATOM      6  O   UNL A   1      30.675  24.188  26.736  1.00  0.00    -0.273 OA
ATOM      7  H   UNL A   1      30.593  26.485  27.378  1.00  0.00     0.163 HD
BRANCH   5   8
ATOM      8  C   UNL A   1      32.661  24.616  25.436  1.00  0.00     0.216 C 
BRANCH   8   9
ATOM      9  N   UNL A   1      32.316  23.719  24.348  1.00  0.00    -0.345 N 
ATOM     10  C   UNL A   1      32.430  22.355  24.279  1.00  0.00     0.240 C 
ATOM     11  O   UNL A   1      31.937  21.801  23.293  1.00  0.00    -0.273 OA
ATOM     12  H   UNL A   1      31.946  24.152  23.545  1.00  0.00     0.164 HD
BRANCH  10  13
ATOM     13  C   UNL A   1      33.055  21.562  25.443  1.00  0.00     0.219 C 
BRANCH  13  14
ATOM     14  N   UNL A   1      34.100  20.620  25.036  1.00  0.00    -0.335 N 
ATOM     15  C   UNL A   1      35.501  20.954  25.183  1.00  0.00     0.147 C 
BRANCH  14  16
ATOM     16  C   UNL A   1      33.779  19.277  24.944  1.00  0.00     0.225 A 
ATOM     17  N   UNL A   1      32.583  18.864  25.384  1.00  0.00    -0.221 NA
ATOM     18  N   UNL A   1      34.669  18.435  24.391  1.00  0.00    -0.221 NA
ATOM     19  C   UNL A   1      32.305  17.548  25.319  1.00  0.00     0.117 A 
ATOM     20  C   UNL A   1      34.366  17.120  24.374  1.00  0.00     0.117 A 
ATOM     21  C   UNL A   1      33.178  16.613  24.827  1.00  0.00     0.040 A 
ENDBRANCH  14  16
ENDBRANCH  13  14
ENDBRANCH  10  13
ENDBRANCH   8   9
ENDBRANCH   5   8
ENDBRANCH   3   4
ENDBRANCH   2   3
ENDBRANCH   1   2
BRANCH   1  22
ATOM     22  C   UNL A   1      31.271  30.931  25.858  1.00  0.00     0.002 C 
BRANCH  22  23
ATOM     23  C   UNL A   1      31.277  32.318  26.510  1.00  0.00     0.021 C 
BRANCH  23  24
ATOM     24  C   UNL A   1      32.588  32.750  27.166  1.00  0.00     0.116 C 
BRANCH  24  25
ATOM     25  N   UNL A   1      32.536  34.116  27.651  1.00  0.00    -0.352 N 
ATOM     26  C   UNL A   1      33.166  34.726  28.706  1.00  0.00     0.251 C 
ATOM     27  H   UNL A   1      31.945  34.709  27.132  1.00  0.00     0.163 HD
ATOM     28  O   UNL A   1      32.817  35.866  29.012  1.00  0.00    -0.269 OA
BRANCH  26  29
ATOM     29  C   UNL A   1      34.238  34.059  29.493  1.00  0.00     0.039 A 
ATOM     30  C   UNL A   1      35.566  34.320  29.133  1.00  0.00     0.014 A 
ATOM     31  C   UNL A   1      33.979  33.122  30.498  1.00  0.00     0.014 A 
ATOM     32  C   UNL A   1      36.619  33.673  29.787  1.00  0.00     0.010 A 
ATOM     33  C   UNL A   1      35.036  32.515  31.192  1.00  0.00     0.010 A 
ATOM     34  C   UNL A   1      36.369  32.773  30.836  1.00  0.00    -0.014 A 
BRANCH  34  35
ATOM     35  C   UNL A   1      37.508  32.133  31.556  1.00  0.00     0.031 A 
ATOM     36  C   UNL A   1      38.307  31.018  30.931  1.00  0.00     0.074 A 
ATOM     37  C   UNL A   1      37.823  32.549  32.799  1.00  0.00     0.049 A 
ATOM     38  N   UNL A   1      39.377  30.417  31.390  1.00  0.00    -0.248 NA
ATOM     39  C   UNL A   1      37.841  30.497  29.638  1.00  0.00     0.031 C 
ATOM     40  C   UNL A   1      37.089  33.561  33.559  1.00  0.00     0.029 A 
ATOM     41  N   UNL A   1      38.837  32.169  33.645  1.00  0.00    -0.354 N 
ATOM     42  C   UNL A   1      39.702  29.439  30.457  1.00  0.00     0.074 A 
ATOM     43  C   UNL A   1      38.693  29.504  29.420  1.00  0.00     0.031 C 
ATOM     44  C   UNL A   1      37.684  33.734  34.750  1.00  0.00     0.029 A 
ATOM     45  C   UNL A   1      38.835  32.840  34.846  1.00  0.00     0.049 A 
ATOM     46  H   UNL A   1      39.502  31.482  33.412  1.00  0.00     0.167 HD
ATOM     47  C   UNL A   1      40.757  28.587  30.441  1.00  0.00     0.034 A 
ATOM     48  C   UNL A   1      39.669  32.760  35.901  1.00  0.00     0.034 A 
ATOM     49  C   UNL A   1      41.786  28.544  31.448  1.00  0.00     0.049 A 
ATOM     50  C   UNL A   1      40.863  31.845  35.836  1.00  0.00     0.074 A 
ATOM     51  C   UNL A   1      42.940  27.778  31.467  1.00  0.00     0.029 A 
ATOM     52  N   UNL A   1      41.788  29.289  32.615  1.00  0.00    -0.354 N 
ATOM     53  N   UNL A   1      41.251  31.064  34.857  1.00  0.00    -0.248 NA
ATOM     54  C   UNL A   1      41.757  31.836  37.003  1.00  0.00     0.031 C 
ATOM     55  C   UNL A   1      43.630  28.049  32.654  1.00  0.00     0.029 A 
ATOM     56  C   UNL A   1      42.915  28.995  33.368  1.00  0.00     0.049 A 
ATOM     57  H   UNL A   1      41.091  29.935  32.874  1.00  0.00     0.167 HD
ATOM     58  C   UNL A   1      42.446  30.492  35.280  1.00  0.00     0.074 A 
ATOM     59  C   UNL A   1      42.735  31.042  36.588  1.00  0.00     0.031 C 
ATOM     60  C   UNL A   1      43.223  29.576  34.648  1.00  0.00     0.034 A 
BRANCH  47  61
ATOM     61  C   UNL A   1      40.896  27.666  29.255  1.00  0.00     0.023 A 
ATOM     62  C   UNL A   1      40.165  26.461  29.231  1.00  0.00     0.012 A 
ATOM     63  C   UNL A   1      41.681  28.020  28.140  1.00  0.00     0.148 A 
ATOM     64  C   UNL A   1      40.233  25.609  28.129  1.00  0.00     0.002 A 
ATOM     65  C   UNL A   1      41.714  27.185  27.029  1.00  0.00     0.091 A 
ATOM     66  F   UNL A   1      42.386  29.160  28.189  1.00  0.00    -0.205 F 
ATOM     67  C   UNL A   1      40.999  25.974  27.026  1.00  0.00     0.022 A 
BRANCH  65  68
ATOM     68  S   UNL A   1      42.610  27.601  25.528  1.00  0.00     0.127 S 
ATOM     69  O   UNL A   1      43.980  27.700  26.019  1.00  0.00    -0.237 OA
ATOM     70  O   UNL A   1      42.346  26.442  24.677  1.00  0.00    -0.237 OA
ATOM     71  O   UNL A   1      42.021  28.848  25.049  1.00  0.00    -0.744 OA
ENDBRANCH  65  68
ENDBRANCH  47  61
BRANCH  48  72
ATOM     72  C   UNL A   1      39.451  33.639  37.084  1.00  0.00     0.023 A 
ATOM     73  C   UNL A   1      39.882  34.979  37.039  1.00  0.00     0.012 A 
ATOM     74  C   UNL A   1      38.788  33.168  38.234  1.00  0.00     0.148 A 
ATOM     75  C   UNL A   1      39.686  35.826  38.129  1.00  0.00     0.002 A 
ATOM     76  C   UNL A   1      38.545  34.033  39.293  1.00  0.00     0.091 A 
ATOM     77  F   UNL A   1      38.401  31.885  38.264  1.00  0.00    -0.205 F 
ATOM     78  C   UNL A   1      39.007  35.357  39.252  1.00  0.00     0.022 A 
BRANCH  76  79
ATOM     79  S   UNL A   1      37.555  33.551  40.712  1.00  0.00     0.127 S 
ATOM     80  O   UNL A   1      38.437  32.611  41.392  1.00  0.00    -0.237 OA
ATOM     81  O   UNL A   1      37.361  34.828  41.399  1.00  0.00    -0.237 OA
ATOM     82  O   UNL A   1      36.328  32.986  40.152  1.00  0.00    -0.744 OA
ENDBRANCH  76  79
ENDBRANCH  48  72
BRANCH  60  83
ATOM     83  C   UNL A   1      44.469  29.114  35.360  1.00  0.00     0.023 A 
ATOM     84  C   UNL A   1      45.702  29.738  35.081  1.00  0.00     0.012 A 
ATOM     85  C   UNL A   1      44.417  28.097  36.334  1.00  0.00     0.148 A 
ATOM     86  C   UNL A   1      46.868  29.330  35.729  1.00  0.00     0.002 A 
ATOM     87  C   UNL A   1      45.577  27.727  37.009  1.00  0.00     0.091 A 
ATOM     88  F   UNL A   1      43.242  27.497  36.574  1.00  0.00    -0.205 F 
ATOM     89  C   UNL A   1      46.804  28.334  36.699  1.00  0.00     0.022 A 
BRANCH  87  90
ATOM     90  S   UNL A   1      45.565  26.513  38.333  1.00  0.00     0.127 S 
ATOM     91  O   UNL A   1      46.704  26.938  39.141  1.00  0.00    -0.237 OA
ATOM     92  O   UNL A   1      44.258  26.734  38.955  1.00  0.00    -0.237 OA
ATOM     93  O   UNL A   1      45.703  25.217  37.677  1.00  0.00    -0.744 OA
ENDBRANCH  87  90
ENDBRANCH  60  83
ENDBRANCH  34  35
ENDBRANCH  26  29
ENDBRANCH  24  25
ENDBRANCH  23  24
ENDBRANCH  22  23
ENDBRANCH   1  22
TORSDOF 20
ENDMDL
MODEL 3
REMARK VINA RESULT:     -10.7      1.807      2.317
REMARK SMILES CN(CC(=O)NCC(=O)NCCCCCCNC(=O)c1ccc(-c2c3nc(c(-c4cccc(S(=O)(=O)[O-])c4F)c4ccc([nH]4)c(-c4cccc(S(=O)(=O)[O-])c4F)c4nc(c(-c5cccc(S(=O)(=O)[O-])c5F)c5ccc2[nH]5)C=C4)C=C3)cc1)c1ncccn1
REMARK SMILES IDX 13 1 12 2 11 3 10 4 8 5 9 6 7 8 6 9 4 10 5 11 3 13 2 14 1 15
REMARK SMILES IDX 83 16 84 17 88 18 85 19 87 20 86 21 14 22 15 23 16 24 17 25
REMARK SMILES IDX 18 26 19 28 20 29 21 30 82 31 22 32 81 33 23 34 24 35 25 36
REMARK SMILES IDX 75 37 26 38 80 39 74 40 76 41 27 42 79 43 73 44 72 45 28 47
REMARK SMILES IDX 60 48 40 49 59 50 41 51 44 52 58 53 77 54 42 55 43 56 57 58
REMARK SMILES IDX 78 59 45 60 29 61 30 62 38 63 31 64 33 65 39 66 32 67 34 68
REMARK SMILES IDX 35 69 36 70 37 71 61 72 62 73 70 74 63 75 65 76 71 77 64 78
REMARK SMILES IDX 66 79 67 80 68 81 69 82 46 83 47 84 55 85 48 86 50 87 56 88
REMARK SMILES IDX 49 89 51 90 52 91 53 92 54 93
REMARK H PARENT 10 7 6 12 17 27 76 46 44 57
REMARK Flexibility Score: inf
ROOT
ATOM      1  C   UNL A   1      33.276  20.717  24.525  1.00  0.00     0.002 C 
ENDROOT
BRANCH   1   2
ATOM      2  C   UNL A   1      33.015  21.775  23.449  1.00  0.00     0.021 C 
BRANCH   2   3
ATOM      3  C   UNL A   1      31.991  22.837  23.835  1.00  0.00     0.116 C 
BRANCH   3   4
ATOM      4  N   UNL A   1      31.677  23.736  22.743  1.00  0.00    -0.355 N 
ATOM      5  C   UNL A   1      31.601  25.099  22.758  1.00  0.00     0.239 C 
ATOM      6  O   UNL A   1      31.520  25.686  21.674  1.00  0.00    -0.273 OA
ATOM      7  H   UNL A   1      31.493  23.308  21.876  1.00  0.00     0.163 HD
BRANCH   5   8
ATOM      8  C   UNL A   1      31.778  25.892  24.063  1.00  0.00     0.216 C 
BRANCH   8   9
ATOM      9  N   UNL A   1      33.000  26.672  24.153  1.00  0.00    -0.345 N 
ATOM     10  C   UNL A   1      33.223  27.976  23.800  1.00  0.00     0.240 C 
ATOM     11  O   UNL A   1      34.318  28.458  24.103  1.00  0.00    -0.273 OA
ATOM     12  H   UNL A   1      33.779  26.195  24.521  1.00  0.00     0.164 HD
BRANCH  10  13
ATOM     13  C   UNL A   1      32.105  28.814  23.151  1.00  0.00     0.219 C 
BRANCH  13  14
ATOM     14  N   UNL A   1      31.146  29.378  24.104  1.00  0.00    -0.335 N 
ATOM     15  C   UNL A   1      31.583  29.884  25.388  1.00  0.00     0.147 C 
BRANCH  14  16
ATOM     16  C   UNL A   1      29.934  29.842  23.625  1.00  0.00     0.225 A 
ATOM     17  N   UNL A   1      29.500  31.049  24.013  1.00  0.00    -0.221 NA
ATOM     18  N   UNL A   1      29.243  29.077  22.761  1.00  0.00    -0.221 NA
ATOM     19  C   UNL A   1      28.301  31.466  23.564  1.00  0.00     0.117 A 
ATOM     20  C   UNL A   1      28.032  29.516  22.360  1.00  0.00     0.117 A 
ATOM     21  C   UNL A   1      27.504  30.724  22.731  1.00  0.00     0.040 A 
ENDBRANCH  14  16
ENDBRANCH  13  14
ENDBRANCH  10  13
ENDBRANCH   8   9
ENDBRANCH   5   8
ENDBRANCH   3   4
ENDBRANCH   2   3
ENDBRANCH   1   2
BRANCH   1  22
ATOM     22  C   UNL A   1      34.654  20.768  25.197  1.00  0.00     0.002 C 
BRANCH  22  23
ATOM     23  C   UNL A   1      35.471  22.046  24.975  1.00  0.00     0.021 C 
BRANCH  23  24
ATOM     24  C   UNL A   1      36.856  21.862  24.356  1.00  0.00     0.116 C 
BRANCH  24  25
ATOM     25  N   UNL A   1      37.632  20.845  25.039  1.00  0.00    -0.352 N 
ATOM     26  C   UNL A   1      38.787  20.932  25.775  1.00  0.00     0.251 C 
ATOM     27  H   UNL A   1      37.268  19.934  24.960  1.00  0.00     0.163 HD
ATOM     28  O   UNL A   1      39.344  19.887  26.109  1.00  0.00    -0.269 OA
BRANCH  26  29
ATOM     29  C   UNL A   1      39.389  22.233  26.170  1.00  0.00     0.039 A 
ATOM     30  C   UNL A   1      40.637  22.206  26.806  1.00  0.00     0.014 A 
ATOM     31  C   UNL A   1      38.729  23.458  26.025  1.00  0.00     0.014 A 
ATOM     32  C   UNL A   1      41.227  23.388  27.265  1.00  0.00     0.010 A 
ATOM     33  C   UNL A   1      39.346  24.649  26.434  1.00  0.00     0.010 A 
ATOM     34  C   UNL A   1      40.596  24.628  27.071  1.00  0.00    -0.014 A 
BRANCH  34  35
ATOM     35  C   UNL A   1      41.266  25.882  27.521  1.00  0.00     0.031 A 
ATOM     36  C   UNL A   1      42.697  26.185  27.158  1.00  0.00     0.074 A 
ATOM     37  C   UNL A   1      40.583  26.760  28.283  1.00  0.00     0.049 A 
ATOM     38  N   UNL A   1      43.394  27.268  27.399  1.00  0.00    -0.248 NA
ATOM     39  C   UNL A   1      43.449  25.138  26.452  1.00  0.00     0.031 C 
ATOM     40  C   UNL A   1      39.220  26.562  28.778  1.00  0.00     0.029 A 
ATOM     41  N   UNL A   1      40.941  27.990  28.779  1.00  0.00    -0.354 N 
ATOM     42  C   UNL A   1      44.667  27.029  26.892  1.00  0.00     0.074 A 
ATOM     43  C   UNL A   1      44.656  25.682  26.361  1.00  0.00     0.031 C 
ATOM     44  C   UNL A   1      38.852  27.638  29.493  1.00  0.00     0.029 A 
ATOM     45  C   UNL A   1      39.953  28.597  29.518  1.00  0.00     0.049 A 
ATOM     46  H   UNL A   1      41.823  28.397  28.621  1.00  0.00     0.167 HD
ATOM     47  C   UNL A   1      45.738  27.860  26.842  1.00  0.00     0.034 A 
ATOM     48  C   UNL A   1      39.923  29.795  30.134  1.00  0.00     0.034 A 
ATOM     49  C   UNL A   1      45.745  29.214  27.331  1.00  0.00     0.049 A 
ATOM     50  C   UNL A   1      41.105  30.720  30.016  1.00  0.00     0.074 A 
ATOM     51  C   UNL A   1      46.754  30.157  27.239  1.00  0.00     0.029 A 
ATOM     52  N   UNL A   1      44.700  29.819  28.010  1.00  0.00    -0.354 N 
ATOM     53  N   UNL A   1      42.231  30.541  29.370  1.00  0.00    -0.248 NA
ATOM     54  C   UNL A   1      40.992  32.028  30.677  1.00  0.00     0.031 C 
ATOM     55  C   UNL A   1      46.325  31.327  27.877  1.00  0.00     0.029 A 
ATOM     56  C   UNL A   1      45.042  31.118  28.353  1.00  0.00     0.049 A 
ATOM     57  H   UNL A   1      43.838  29.390  28.219  1.00  0.00     0.167 HD
ATOM     58  C   UNL A   1      42.949  31.722  29.523  1.00  0.00     0.074 A 
ATOM     59  C   UNL A   1      42.116  32.621  30.295  1.00  0.00     0.031 C 
ATOM     60  C   UNL A   1      44.195  32.026  29.081  1.00  0.00     0.034 A 
BRANCH  47  61
ATOM     61  C   UNL A   1      46.988  27.351  26.168  1.00  0.00     0.023 A 
ATOM     62  C   UNL A   1      47.193  27.627  24.800  1.00  0.00     0.012 A 
ATOM     63  C   UNL A   1      47.988  26.673  26.892  1.00  0.00     0.148 A 
ATOM     64  C   UNL A   1      48.358  27.213  24.157  1.00  0.00     0.002 A 
ATOM     65  C   UNL A   1      49.164  26.297  26.254  1.00  0.00     0.091 A 
ATOM     66  F   UNL A   1      47.767  26.401  28.187  1.00  0.00    -0.205 F 
ATOM     67  C   UNL A   1      49.348  26.557  24.885  1.00  0.00     0.022 A 
BRANCH  65  68
ATOM     68  S   UNL A   1      50.531  25.515  27.121  1.00  0.00     0.127 S 
ATOM     69  O   UNL A   1      50.861  26.522  28.123  1.00  0.00    -0.237 OA
ATOM     70  O   UNL A   1      49.908  24.303  27.652  1.00  0.00    -0.237 OA
ATOM     71  O   UNL A   1      51.555  25.273  26.109  1.00  0.00    -0.744 OA
ENDBRANCH  65  68
ENDBRANCH  47  61
BRANCH  48  72
ATOM     72  C   UNL A   1      38.691  30.227  30.851  1.00  0.00     0.023 A 
ATOM     73  C   UNL A   1      38.557  29.949  32.226  1.00  0.00     0.012 A 
ATOM     74  C   UNL A   1      37.671  30.939  30.191  1.00  0.00     0.148 A 
ATOM     75  C   UNL A   1      37.416  30.346  32.923  1.00  0.00     0.002 A 
ATOM     76  C   UNL A   1      36.565  31.382  30.905  1.00  0.00     0.091 A 
ATOM     77  F   UNL A   1      37.809  31.178  28.879  1.00  0.00    -0.205 F 
ATOM     78  C   UNL A   1      36.425  31.073  32.267  1.00  0.00     0.022 A 
BRANCH  76  79
ATOM     79  S   UNL A   1      35.316  32.443  30.170  1.00  0.00     0.127 S 
ATOM     80  O   UNL A   1      34.369  32.601  31.266  1.00  0.00    -0.237 OA
ATOM     81  O   UNL A   1      36.087  33.641  29.839  1.00  0.00    -0.237 OA
ATOM     82  O   UNL A   1      34.827  31.711  29.003  1.00  0.00    -0.744 OA
ENDBRANCH  76  79
ENDBRANCH  48  72
BRANCH  60  83
ATOM     83  C   UNL A   1      44.736  33.393  29.415  1.00  0.00     0.023 A 
ATOM     84  C   UNL A   1      45.468  33.580  30.605  1.00  0.00     0.012 A 
ATOM     85  C   UNL A   1      44.562  34.481  28.537  1.00  0.00     0.148 A 
ATOM     86  C   UNL A   1      45.982  34.834  30.935  1.00  0.00     0.002 A 
ATOM     87  C   UNL A   1      45.116  35.718  28.851  1.00  0.00     0.091 A 
ATOM     88  F   UNL A   1      43.844  34.295  27.419  1.00  0.00    -0.205 F 
ATOM     89  C   UNL A   1      45.815  35.899  30.054  1.00  0.00     0.022 A 
BRANCH  87  90
ATOM     90  S   UNL A   1      45.020  37.120  27.730  1.00  0.00     0.127 S 
ATOM     91  O   UNL A   1      45.702  36.604  26.546  1.00  0.00    -0.237 OA
ATOM     92  O   UNL A   1      43.577  37.302  27.573  1.00  0.00    -0.237 OA
ATOM     93  O   UNL A   1      45.691  38.218  28.418  1.00  0.00    -0.744 OA
ENDBRANCH  87  90
ENDBRANCH  60  83
ENDBRANCH  34  35
ENDBRANCH  26  29
ENDBRANCH  24  25
ENDBRANCH  23  24
ENDBRANCH  22  23
ENDBRANCH   1  22
TORSDOF 20
ENDMDL
