MODEL 1
REMARK VINA RESULT:      -9.9      0.000      0.000
REMARK SMILES COc1ccc([C@H]2[NH2+][C@@H](C(=O)NCCCCCCNC(=O)c3ccc(-c4c5nc(c(-c6cccc(S(=O)(=O)[O-])c6F)c6ccc([nH]6)c(-c6cccc(S(=O)(=O)[O-])c6F)c6nc(c(-c7cccc(S(=O)(=O)[O-])c7F)c7ccc4[nH]7)C=C6)C=C5)cc3)CC3=c4ccccc4=N[C@H]32)cc1Cn1cc([N+](=O)[O-])cn1
REMARK SMILES IDX 15 1 14 2 13 3 12 4 10 5 11 6 9 8 7 9 8 10 94 11 86 14 93 15
REMARK SMILES IDX 85 16 87 17 92 18 88 19 91 20 89 21 90 22 6 23 3 24 4 25
REMARK SMILES IDX 96 26 5 27 95 28 2 29 1 30 97 31 98 32 99 33 105 34 100 35
REMARK SMILES IDX 104 36 101 37 102 38 103 39 16 40 17 41 18 42 19 43 20 44
REMARK SMILES IDX 21 46 22 47 23 48 84 49 24 50 83 51 25 52 26 53 27 54 77 55
REMARK SMILES IDX 28 56 82 57 76 58 78 59 29 60 81 61 75 62 74 63 30 65 62 66
REMARK SMILES IDX 42 67 61 68 43 69 46 70 60 71 79 72 44 73 45 74 59 76 80 77
REMARK SMILES IDX 47 78 31 79 32 80 40 81 33 82 35 83 41 84 34 85 36 86 37 87
REMARK SMILES IDX 38 88 39 89 63 90 64 91 72 92 65 93 67 94 73 95 66 96 68 97
REMARK SMILES IDX 69 98 70 99 71 100 48 101 49 102 57 103 50 104 52 105 58 106
REMARK SMILES IDX 51 107 53 108 54 109 55 110 56 111
REMARK H PARENT 12 7 8 12 8 13 19 45 78 64 46 75
REMARK Flexibility Score: inf
ROOT
ATOM      1  C   UNL A   1      48.300  25.709  24.331  1.00  0.00     0.002 C 
ENDROOT
BRANCH   1   2
ATOM      2  C   UNL A   1      47.542  25.061  25.495  1.00  0.00     0.021 C 
BRANCH   2   3
ATOM      3  C   UNL A   1      46.132  24.588  25.153  1.00  0.00     0.116 C 
BRANCH   3   4
ATOM      4  N   UNL A   1      45.228  25.712  25.013  1.00  0.00    -0.351 N 
ATOM      5  C   UNL A   1      44.347  26.098  25.977  1.00  0.00     0.278 C 
ATOM      6  O   UNL A   1      43.150  26.099  25.678  1.00  0.00    -0.268 OA
ATOM      7  H   UNL A   1      45.252  26.226  24.173  1.00  0.00     0.163 HD
BRANCH   5   8
ATOM      8  C   UNL A   1      44.840  26.446  27.402  1.00  0.00     0.277 C 
ATOM      9  C   UNL A   1      43.168  25.260  28.946  1.00  0.00     0.243 C 
ATOM     10  N   UNL A   1      44.546  25.312  28.347  1.00  0.00    -0.327 N 
ATOM     11  C   UNL A   1      42.794  26.716  29.526  1.00  0.00     0.196 C 
ATOM     12  H   UNL A   1      44.692  24.440  27.836  1.00  0.00     0.347 HD
ATOM     13  H   UNL A   1      45.173  25.457  29.138  1.00  0.00     0.347 HD
ATOM     14  C   UNL A   1      42.998  27.723  28.445  1.00  0.00    -0.024 C 
ATOM     15  N   UNL A   1      41.381  26.941  29.955  1.00  0.00    -0.270 NA
ATOM     16  C   UNL A   1      44.386  27.809  27.948  1.00  0.00     0.109 C 
ATOM     17  C   UNL A   1      41.858  28.268  28.044  1.00  0.00     0.002 A 
ATOM     18  C   UNL A   1      40.919  27.757  29.050  1.00  0.00     0.066 A 
ATOM     19  C   UNL A   1      41.434  29.088  26.960  1.00  0.00     0.010 A 
ATOM     20  C   UNL A   1      39.510  28.194  28.907  1.00  0.00     0.028 A 
ATOM     21  C   UNL A   1      40.123  29.358  26.835  1.00  0.00     0.001 A 
ATOM     22  C   UNL A   1      39.160  28.913  27.828  1.00  0.00     0.002 A 
BRANCH   9  23
ATOM     23  C   UNL A   1      42.114  24.520  28.080  1.00  0.00     0.012 A 
ATOM     24  C   UNL A   1      40.187  22.901  26.772  1.00  0.00     0.123 A 
ATOM     25  C   UNL A   1      40.021  24.286  26.852  1.00  0.00     0.047 A 
ATOM     26  C   UNL A   1      41.391  22.316  27.157  1.00  0.00     0.016 A 
ATOM     27  C   UNL A   1      40.988  25.087  27.483  1.00  0.00     0.014 A 
ATOM     28  C   UNL A   1      42.325  23.176  27.750  1.00  0.00     0.019 A 
BRANCH  24  29
ATOM     29  O   UNL A   1      39.165  22.163  26.236  1.00  0.00    -0.496 OA
ATOM     30  C   UNL A   1      38.014  22.983  26.014  1.00  0.00     0.278 C 
ENDBRANCH  24  29
BRANCH  26  31
ATOM     31  C   UNL A   1      41.607  20.817  27.137  1.00  0.00     0.183 C 
BRANCH  31  32
ATOM     32  N   UNL A   1      42.611  20.245  26.219  1.00  0.00    -0.261 N 
ATOM     33  C   UNL A   1      43.858  20.701  25.885  1.00  0.00     0.194 A 
ATOM     34  N   UNL A   1      42.436  18.956  25.816  1.00  0.00    -0.174 NA
ATOM     35  C   UNL A   1      44.463  19.723  25.133  1.00  0.00     0.307 A 
ATOM     36  C   UNL A   1      43.556  18.658  25.149  1.00  0.00     0.220 A 
BRANCH  35  37
ATOM     37  N   UNL A   1      45.753  19.792  24.524  1.00  0.00     0.066 N 
ATOM     38  O   UNL A   1      46.000  18.956  23.647  1.00  0.00    -0.258 OA
ATOM     39  O   UNL A   1      46.520  20.681  24.916  1.00  0.00    -0.258 OA
ENDBRANCH  35  37
ENDBRANCH  31  32
ENDBRANCH  26  31
ENDBRANCH   9  23
ENDBRANCH   5   8
ENDBRANCH   3   4
ENDBRANCH   2   3
ENDBRANCH   1   2
BRANCH   1  40
ATOM     40  C   UNL A   1      49.275  26.821  24.726  1.00  0.00     0.002 C 
BRANCH  40  41
ATOM     41  C   UNL A   1      50.754  26.450  24.622  1.00  0.00     0.021 C 
BRANCH  41  42
ATOM     42  C   UNL A   1      51.700  27.415  25.325  1.00  0.00     0.116 C 
BRANCH  42  43
ATOM     43  N   UNL A   1      52.632  26.727  26.206  1.00  0.00    -0.352 N 
ATOM     44  C   UNL A   1      52.543  26.534  27.562  1.00  0.00     0.251 C 
ATOM     45  H   UNL A   1      53.430  26.349  25.772  1.00  0.00     0.163 HD
ATOM     46  O   UNL A   1      53.503  26.089  28.188  1.00  0.00    -0.269 OA
BRANCH  44  47
ATOM     47  C   UNL A   1      51.293  26.891  28.263  1.00  0.00     0.039 A 
ATOM     48  C   UNL A   1      51.263  28.040  29.056  1.00  0.00     0.014 A 
ATOM     49  C   UNL A   1      50.145  26.108  28.111  1.00  0.00     0.014 A 
ATOM     50  C   UNL A   1      50.062  28.437  29.648  1.00  0.00     0.010 A 
ATOM     51  C   UNL A   1      48.936  26.548  28.635  1.00  0.00     0.010 A 
ATOM     52  C   UNL A   1      48.881  27.713  29.415  1.00  0.00    -0.014 A 
BRANCH  52  53
ATOM     53  C   UNL A   1      47.577  28.160  29.967  1.00  0.00     0.031 A 
ATOM     54  C   UNL A   1      46.877  27.332  31.011  1.00  0.00     0.074 A 
ATOM     55  C   UNL A   1      46.976  29.255  29.461  1.00  0.00     0.049 A 
ATOM     56  N   UNL A   1      45.700  27.509  31.550  1.00  0.00    -0.248 NA
ATOM     57  C   UNL A   1      47.581  26.130  31.490  1.00  0.00     0.031 C 
ATOM     58  C   UNL A   1      47.519  30.103  28.398  1.00  0.00     0.029 A 
ATOM     59  N   UNL A   1      45.763  29.827  29.753  1.00  0.00    -0.354 N 
ATOM     60  C   UNL A   1      45.505  26.426  32.398  1.00  0.00     0.074 A 
ATOM     61  C   UNL A   1      46.671  25.579  32.279  1.00  0.00     0.031 C 
ATOM     62  C   UNL A   1      46.644  31.084  28.126  1.00  0.00     0.029 A 
ATOM     63  C   UNL A   1      45.462  30.915  28.965  1.00  0.00     0.049 A 
ATOM     64  H   UNL A   1      45.163  29.491  30.458  1.00  0.00     0.167 HD
ATOM     65  C   UNL A   1      44.461  26.171  33.223  1.00  0.00     0.034 A 
ATOM     66  C   UNL A   1      44.353  31.679  28.911  1.00  0.00     0.034 A 
ATOM     67  C   UNL A   1      43.320  27.034  33.366  1.00  0.00     0.049 A 
ATOM     68  C   UNL A   1      43.216  31.388  29.853  1.00  0.00     0.074 A 
ATOM     69  C   UNL A   1      42.255  26.912  34.239  1.00  0.00     0.029 A 
ATOM     70  N   UNL A   1      43.087  28.171  32.607  1.00  0.00    -0.354 N 
ATOM     71  N   UNL A   1      43.118  30.446  30.758  1.00  0.00    -0.248 NA
ATOM     72  C   UNL A   1      42.052  32.284  29.790  1.00  0.00     0.031 C 
ATOM     73  C   UNL A   1      41.357  27.953  33.982  1.00  0.00     0.029 A 
ATOM     74  C   UNL A   1      41.887  28.750  32.979  1.00  0.00     0.049 A 
ATOM     75  H   UNL A   1      43.687  28.516  31.907  1.00  0.00     0.167 HD
ATOM     76  C   UNL A   1      41.902  30.659  31.400  1.00  0.00     0.074 A 
ATOM     77  C   UNL A   1      41.307  31.828  30.788  1.00  0.00     0.031 C 
ATOM     78  C   UNL A   1      41.328  29.944  32.399  1.00  0.00     0.034 A 
BRANCH  65  79
ATOM     79  C   UNL A   1      44.520  24.922  34.064  1.00  0.00     0.023 A 
ATOM     80  C   UNL A   1      43.969  23.721  33.574  1.00  0.00     0.012 A 
ATOM     81  C   UNL A   1      45.170  24.924  35.314  1.00  0.00     0.148 A 
ATOM     82  C   UNL A   1      44.028  22.551  34.331  1.00  0.00     0.002 A 
ATOM     83  C   UNL A   1      45.269  23.743  36.040  1.00  0.00     0.091 A 
ATOM     84  F   UNL A   1      45.672  26.080  35.772  1.00  0.00    -0.205 F 
ATOM     85  C   UNL A   1      44.687  22.561  35.557  1.00  0.00     0.022 A 
BRANCH  83  86
ATOM     86  S   UNL A   1      46.170  23.632  37.590  1.00  0.00     0.127 S 
ATOM     87  O   UNL A   1      47.557  23.658  37.127  1.00  0.00    -0.237 OA
ATOM     88  O   UNL A   1      45.737  24.845  38.284  1.00  0.00    -0.237 OA
ATOM     89  O   UNL A   1      45.744  22.388  38.215  1.00  0.00    -0.744 OA
ENDBRANCH  83  86
ENDBRANCH  65  79
BRANCH  66  90
ATOM     90  C   UNL A   1      44.285  32.823  27.958  1.00  0.00     0.023 A 
ATOM     91  C   UNL A   1      44.026  32.578  26.595  1.00  0.00     0.012 A 
ATOM     92  C   UNL A   1      44.446  34.152  28.398  1.00  0.00     0.148 A 
ATOM     93  C   UNL A   1      43.962  33.631  25.683  1.00  0.00     0.002 A 
ATOM     94  C   UNL A   1      44.322  35.200  27.495  1.00  0.00     0.091 A 
ATOM     95  F   UNL A   1      44.699  34.362  29.698  1.00  0.00    -0.205 F 
ATOM     96  C   UNL A   1      44.101  34.941  26.133  1.00  0.00     0.022 A 
BRANCH  94  97
ATOM     97  S   UNL A   1      44.351  36.921  28.007  1.00  0.00     0.127 S 
ATOM     98  O   UNL A   1      44.216  37.616  26.730  1.00  0.00    -0.237 OA
ATOM     99  O   UNL A   1      43.175  36.994  28.876  1.00  0.00    -0.237 OA
ATOM    100  O   UNL A   1      45.619  37.107  28.698  1.00  0.00    -0.744 OA
ENDBRANCH  94  97
ENDBRANCH  66  90
BRANCH  78 101
ATOM    101  C   UNL A   1      40.006  30.424  32.940  1.00  0.00     0.023 A 
ATOM    102  C   UNL A   1      38.801  29.965  32.374  1.00  0.00     0.012 A 
ATOM    103  C   UNL A   1      39.965  31.261  34.073  1.00  0.00     0.148 A 
ATOM    104  C   UNL A   1      37.575  30.351  32.913  1.00  0.00     0.002 A 
ATOM    105  C   UNL A   1      38.741  31.599  34.636  1.00  0.00     0.091 A 
ATOM    106  F   UNL A   1      41.124  31.700  34.585  1.00  0.00    -0.205 F 
ATOM    107  C   UNL A   1      37.545  31.156  34.050  1.00  0.00     0.022 A 
BRANCH 105 108
ATOM    108  S   UNL A   1      38.607  32.544  36.157  1.00  0.00     0.127 S 
ATOM    109  O   UNL A   1      39.223  33.814  35.773  1.00  0.00    -0.237 OA
ATOM    110  O   UNL A   1      37.159  32.605  36.356  1.00  0.00    -0.237 OA
ATOM    111  O   UNL A   1      39.327  31.786  37.170  1.00  0.00    -0.744 OA
ENDBRANCH 105 108
ENDBRANCH  78 101
ENDBRANCH  52  53
ENDBRANCH  44  47
ENDBRANCH  42  43
ENDBRANCH  41  42
ENDBRANCH  40  41
ENDBRANCH   1  40
TORSDOF 21
ENDMDL
MODEL 2
REMARK VINA RESULT:      -8.9      3.949     10.154
REMARK SMILES COc1ccc([C@H]2[NH2+][C@@H](C(=O)NCCCCCCNC(=O)c3ccc(-c4c5nc(c(-c6cccc(S(=O)(=O)[O-])c6F)c6ccc([nH]6)c(-c6cccc(S(=O)(=O)[O-])c6F)c6nc(c(-c7cccc(S(=O)(=O)[O-])c7F)c7ccc4[nH]7)C=C6)C=C5)cc3)CC3=c4ccccc4=N[C@H]32)cc1Cn1cc([N+](=O)[O-])cn1
REMARK SMILES IDX 15 1 14 2 13 3 12 4 10 5 11 6 9 8 7 9 8 10 94 11 86 14 93 15
REMARK SMILES IDX 85 16 87 17 92 18 88 19 91 20 89 21 90 22 6 23 3 24 4 25
REMARK SMILES IDX 96 26 5 27 95 28 2 29 1 30 97 31 98 32 99 33 105 34 100 35
REMARK SMILES IDX 104 36 101 37 102 38 103 39 16 40 17 41 18 42 19 43 20 44
REMARK SMILES IDX 21 46 22 47 23 48 84 49 24 50 83 51 25 52 26 53 27 54 77 55
REMARK SMILES IDX 28 56 82 57 76 58 78 59 29 60 81 61 75 62 74 63 30 65 62 66
REMARK SMILES IDX 42 67 61 68 43 69 46 70 60 71 79 72 44 73 45 74 59 76 80 77
REMARK SMILES IDX 47 78 31 79 32 80 40 81 33 82 35 83 41 84 34 85 36 86 37 87
REMARK SMILES IDX 38 88 39 89 63 90 64 91 72 92 65 93 67 94 73 95 66 96 68 97
REMARK SMILES IDX 69 98 70 99 71 100 48 101 49 102 57 103 50 104 52 105 58 106
REMARK SMILES IDX 51 107 53 108 54 109 55 110 56 111
REMARK H PARENT 12 7 8 12 8 13 19 45 78 64 46 75
REMARK Flexibility Score: inf
ROOT
ATOM      1  C   UNL A   1      49.185  27.758  32.185  1.00  0.00     0.002 C 
ENDROOT
BRANCH   1   2
ATOM      2  C   UNL A   1      48.239  28.895  31.784  1.00  0.00     0.021 C 
BRANCH   2   3
ATOM      3  C   UNL A   1      48.316  29.301  30.315  1.00  0.00     0.116 C 
BRANCH   3   4
ATOM      4  N   UNL A   1      47.832  30.654  30.125  1.00  0.00    -0.351 N 
ATOM      5  C   UNL A   1      47.290  31.106  28.961  1.00  0.00     0.278 C 
ATOM      6  O   UNL A   1      47.848  32.060  28.414  1.00  0.00    -0.268 OA
ATOM      7  H   UNL A   1      47.899  31.281  30.881  1.00  0.00     0.163 HD
BRANCH   5   8
ATOM      8  C   UNL A   1      46.070  30.394  28.330  1.00  0.00     0.277 C 
ATOM      9  C   UNL A   1      44.329  32.260  28.059  1.00  0.00     0.243 C 
ATOM     10  N   UNL A   1      45.329  31.336  27.419  1.00  0.00    -0.327 N 
ATOM     11  C   UNL A   1      43.379  31.406  29.040  1.00  0.00     0.196 C 
ATOM     12  H   UNL A   1      46.022  31.915  26.945  1.00  0.00     0.347 HD
ATOM     13  H   UNL A   1      44.778  30.735  26.806  1.00  0.00     0.347 HD
ATOM     14  C   UNL A   1      44.241  30.629  29.977  1.00  0.00    -0.024 C 
ATOM     15  N   UNL A   1      42.469  32.167  29.948  1.00  0.00    -0.270 NA
ATOM     16  C   UNL A   1      45.143  29.665  29.315  1.00  0.00     0.109 C 
ATOM     17  C   UNL A   1      44.124  31.044  31.230  1.00  0.00     0.002 A 
ATOM     18  C   UNL A   1      42.987  31.968  31.127  1.00  0.00     0.066 A 
ATOM     19  C   UNL A   1      44.818  30.832  32.455  1.00  0.00     0.010 A 
ATOM     20  C   UNL A   1      42.565  32.623  32.387  1.00  0.00     0.028 A 
ATOM     21  C   UNL A   1      44.444  31.539  33.535  1.00  0.00     0.001 A 
ATOM     22  C   UNL A   1      43.298  32.433  33.496  1.00  0.00     0.002 A 
BRANCH   9  23
ATOM     23  C   UNL A   1      44.927  33.592  28.588  1.00  0.00     0.012 A 
ATOM     24  C   UNL A   1      45.725  36.197  29.376  1.00  0.00     0.123 A 
ATOM     25  C   UNL A   1      45.736  35.139  30.289  1.00  0.00     0.047 A 
ATOM     26  C   UNL A   1      45.513  35.952  28.022  1.00  0.00     0.016 A 
ATOM     27  C   UNL A   1      45.359  33.845  29.889  1.00  0.00     0.014 A 
ATOM     28  C   UNL A   1      45.172  34.635  27.686  1.00  0.00     0.019 A 
BRANCH  24  29
ATOM     29  O   UNL A   1      46.004  37.452  29.847  1.00  0.00    -0.496 OA
ATOM     30  C   UNL A   1      47.097  37.412  30.771  1.00  0.00     0.278 C 
ENDBRANCH  24  29
BRANCH  26  31
ATOM     31  C   UNL A   1      45.443  37.066  26.998  1.00  0.00     0.183 C 
BRANCH  31  32
ATOM     32  N   UNL A   1      44.278  37.971  26.996  1.00  0.00    -0.261 N 
ATOM     33  C   UNL A   1      44.119  39.198  26.412  1.00  0.00     0.194 A 
ATOM     34  N   UNL A   1      43.081  37.459  27.397  1.00  0.00    -0.174 NA
ATOM     35  C   UNL A   1      42.797  39.549  26.551  1.00  0.00     0.307 A 
ATOM     36  C   UNL A   1      42.197  38.428  27.135  1.00  0.00     0.220 A 
BRANCH  35  37
ATOM     37  N   UNL A   1      42.193  40.774  26.136  1.00  0.00     0.066 N 
ATOM     38  O   UNL A   1      42.921  41.773  26.109  1.00  0.00    -0.258 OA
ATOM     39  O   UNL A   1      40.993  40.742  25.831  1.00  0.00    -0.258 OA
ENDBRANCH  35  37
ENDBRANCH  31  32
ENDBRANCH  26  31
ENDBRANCH   9  23
ENDBRANCH   5   8
ENDBRANCH   3   4
ENDBRANCH   2   3
ENDBRANCH   1   2
BRANCH   1  40
ATOM     40  C   UNL A   1      48.534  26.378  32.300  1.00  0.00     0.002 C 
BRANCH  40  41
ATOM     41  C   UNL A   1      49.255  25.399  33.226  1.00  0.00     0.021 C 
BRANCH  41  42
ATOM     42  C   UNL A   1      48.333  24.487  34.026  1.00  0.00     0.116 C 
BRANCH  42  43
ATOM     43  N   UNL A   1      48.411  24.744  35.456  1.00  0.00    -0.352 N 
ATOM     44  C   UNL A   1      47.640  25.585  36.217  1.00  0.00     0.251 C 
ATOM     45  H   UNL A   1      49.110  24.247  35.941  1.00  0.00     0.163 HD
ATOM     46  O   UNL A   1      47.951  25.826  37.382  1.00  0.00    -0.269 OA
BRANCH  44  47
ATOM     47  C   UNL A   1      46.448  26.218  35.615  1.00  0.00     0.039 A 
ATOM     48  C   UNL A   1      46.566  27.489  35.049  1.00  0.00     0.014 A 
ATOM     49  C   UNL A   1      45.226  25.540  35.583  1.00  0.00     0.014 A 
ATOM     50  C   UNL A   1      45.470  28.056  34.396  1.00  0.00     0.010 A 
ATOM     51  C   UNL A   1      44.162  26.072  34.864  1.00  0.00     0.010 A 
ATOM     52  C   UNL A   1      44.270  27.338  34.268  1.00  0.00    -0.014 A 
BRANCH  52  53
ATOM     53  C   UNL A   1      43.116  27.886  33.509  1.00  0.00     0.031 A 
ATOM     54  C   UNL A   1      42.959  27.570  32.046  1.00  0.00     0.074 A 
ATOM     55  C   UNL A   1      42.267  28.743  34.109  1.00  0.00     0.049 A 
ATOM     56  N   UNL A   1      42.072  28.019  31.197  1.00  0.00    -0.248 NA
ATOM     57  C   UNL A   1      43.946  26.652  31.452  1.00  0.00     0.031 C 
ATOM     58  C   UNL A   1      42.354  29.183  35.503  1.00  0.00     0.029 A 
ATOM     59  N   UNL A   1      41.181  29.422  33.615  1.00  0.00    -0.354 N 
ATOM     60  C   UNL A   1      42.414  27.473  29.967  1.00  0.00     0.074 A 
ATOM     61  C   UNL A   1      43.610  26.685  30.171  1.00  0.00     0.031 C 
ATOM     62  C   UNL A   1      41.366  30.057  35.752  1.00  0.00     0.029 A 
ATOM     63  C   UNL A   1      40.599  30.271  34.529  1.00  0.00     0.049 A 
ATOM     64  H   UNL A   1      40.850  29.313  32.694  1.00  0.00     0.167 HD
ATOM     65  C   UNL A   1      41.778  27.595  28.777  1.00  0.00     0.034 A 
ATOM     66  C   UNL A   1      39.575  31.137  34.394  1.00  0.00     0.034 A 
ATOM     67  C   UNL A   1      40.570  28.350  28.586  1.00  0.00     0.049 A 
ATOM     68  C   UNL A   1      38.871  31.237  33.067  1.00  0.00     0.074 A 
ATOM     69  C   UNL A   1      39.799  28.462  27.443  1.00  0.00     0.029 A 
ATOM     70  N   UNL A   1      39.964  29.135  29.555  1.00  0.00    -0.354 N 
ATOM     71  N   UNL A   1      39.119  30.594  31.953  1.00  0.00    -0.248 NA
ATOM     72  C   UNL A   1      37.727  32.158  32.988  1.00  0.00     0.031 C 
ATOM     73  C   UNL A   1      38.748  29.344  27.710  1.00  0.00     0.029 A 
ATOM     74  C   UNL A   1      38.839  29.748  29.033  1.00  0.00     0.049 A 
ATOM     75  H   UNL A   1      40.287  29.240  30.479  1.00  0.00     0.167 HD
ATOM     76  C   UNL A   1      38.139  30.999  31.053  1.00  0.00     0.074 A 
ATOM     77  C   UNL A   1      37.286  31.934  31.757  1.00  0.00     0.031 C 
ATOM     78  C   UNL A   1      37.968  30.636  29.758  1.00  0.00     0.034 A 
BRANCH  65  79
ATOM     79  C   UNL A   1      42.358  26.865  27.593  1.00  0.00     0.023 A 
ATOM     80  C   UNL A   1      43.207  27.546  26.698  1.00  0.00     0.012 A 
ATOM     81  C   UNL A   1      42.109  25.492  27.399  1.00  0.00     0.148 A 
ATOM     82  C   UNL A   1      43.766  26.884  25.605  1.00  0.00     0.002 A 
ATOM     83  C   UNL A   1      42.709  24.827  26.337  1.00  0.00     0.091 A 
ATOM     84  F   UNL A   1      41.283  24.865  28.250  1.00  0.00    -0.205 F 
ATOM     85  C   UNL A   1      43.526  25.523  25.432  1.00  0.00     0.022 A 
BRANCH  83  86
ATOM     86  S   UNL A   1      42.530  23.059  26.076  1.00  0.00     0.127 S 
ATOM     87  O   UNL A   1      43.361  22.517  27.151  1.00  0.00    -0.237 OA
ATOM     88  O   UNL A   1      41.092  22.866  26.262  1.00  0.00    -0.237 OA
ATOM     89  O   UNL A   1      43.009  22.801  24.726  1.00  0.00    -0.744 OA
ENDBRANCH  83  86
ENDBRANCH  65  79
BRANCH  66  90
ATOM     90  C   UNL A   1      39.126  31.946  35.562  1.00  0.00     0.023 A 
ATOM     91  C   UNL A   1      38.237  31.381  36.497  1.00  0.00     0.012 A 
ATOM     92  C   UNL A   1      39.597  33.257  35.768  1.00  0.00     0.148 A 
ATOM     93  C   UNL A   1      37.798  32.118  37.597  1.00  0.00     0.002 A 
ATOM     94  C   UNL A   1      39.202  33.965  36.896  1.00  0.00     0.091 A 
ATOM     95  F   UNL A   1      40.436  33.778  34.863  1.00  0.00    -0.205 F 
ATOM     96  C   UNL A   1      38.288  33.406  37.802  1.00  0.00     0.022 A 
BRANCH  94  97
ATOM     97  S   UNL A   1      39.885  35.574  37.312  1.00  0.00     0.127 S 
ATOM     98  O   UNL A   1      39.171  35.893  38.545  1.00  0.00    -0.237 OA
ATOM     99  O   UNL A   1      41.305  35.261  37.483  1.00  0.00    -0.237 OA
ATOM    100  O   UNL A   1      39.595  36.433  36.173  1.00  0.00    -0.744 OA
ENDBRANCH  94  97
ENDBRANCH  66  90
BRANCH  78 101
ATOM    101  C   UNL A   1      36.787  31.206  29.016  1.00  0.00     0.023 A 
ATOM    102  C   UNL A   1      36.713  32.588  28.758  1.00  0.00     0.012 A 
ATOM    103  C   UNL A   1      35.795  30.350  28.494  1.00  0.00     0.148 A 
ATOM    104  C   UNL A   1      35.657  33.113  28.013  1.00  0.00     0.002 A 
ATOM    105  C   UNL A   1      34.777  30.874  27.709  1.00  0.00     0.091 A 
ATOM    106  F   UNL A   1      35.876  29.040  28.767  1.00  0.00    -0.205 F 
ATOM    107  C   UNL A   1      34.699  32.256  27.478  1.00  0.00     0.022 A 
BRANCH 105 108
ATOM    108  S   UNL A   1      33.557  29.837  26.894  1.00  0.00     0.127 S 
ATOM    109  O   UNL A   1      34.397  29.026  26.014  1.00  0.00    -0.237 OA
ATOM    110  O   UNL A   1      32.970  29.108  28.019  1.00  0.00    -0.237 OA
ATOM    111  O   UNL A   1      32.643  30.745  26.216  1.00  0.00    -0.744 OA
ENDBRANCH 105 108
ENDBRANCH  78 101
ENDBRANCH  52  53
ENDBRANCH  44  47
ENDBRANCH  42  43
ENDBRANCH  41  42
ENDBRANCH  40  41
ENDBRANCH   1  40
TORSDOF 21
ENDMDL
MODEL 3
REMARK VINA RESULT:      -8.7      4.526     12.142
REMARK SMILES COc1ccc([C@H]2[NH2+][C@@H](C(=O)NCCCCCCNC(=O)c3ccc(-c4c5nc(c(-c6cccc(S(=O)(=O)[O-])c6F)c6ccc([nH]6)c(-c6cccc(S(=O)(=O)[O-])c6F)c6nc(c(-c7cccc(S(=O)(=O)[O-])c7F)c7ccc4[nH]7)C=C6)C=C5)cc3)CC3=c4ccccc4=N[C@H]32)cc1Cn1cc([N+](=O)[O-])cn1
REMARK SMILES IDX 15 1 14 2 13 3 12 4 10 5 11 6 9 8 7 9 8 10 94 11 86 14 93 15
REMARK SMILES IDX 85 16 87 17 92 18 88 19 91 20 89 21 90 22 6 23 3 24 4 25
REMARK SMILES IDX 96 26 5 27 95 28 2 29 1 30 97 31 98 32 99 33 105 34 100 35
REMARK SMILES IDX 104 36 101 37 102 38 103 39 16 40 17 41 18 42 19 43 20 44
REMARK SMILES IDX 21 46 22 47 23 48 84 49 24 50 83 51 25 52 26 53 27 54 77 55
REMARK SMILES IDX 28 56 82 57 76 58 78 59 29 60 81 61 75 62 74 63 30 65 62 66
REMARK SMILES IDX 42 67 61 68 43 69 46 70 60 71 79 72 44 73 45 74 59 76 80 77
REMARK SMILES IDX 47 78 31 79 32 80 40 81 33 82 35 83 41 84 34 85 36 86 37 87
REMARK SMILES IDX 38 88 39 89 63 90 64 91 72 92 65 93 67 94 73 95 66 96 68 97
REMARK SMILES IDX 69 98 70 99 71 100 48 101 49 102 57 103 50 104 52 105 58 106
REMARK SMILES IDX 51 107 53 108 54 109 55 110 56 111
REMARK H PARENT 12 7 8 12 8 13 19 45 78 64 46 75
REMARK Flexibility Score: inf
ROOT
ATOM      1  C   UNL A   1      41.647  27.314  27.131  1.00  0.00     0.002 C 
ENDROOT
BRANCH   1   2
ATOM      2  C   UNL A   1      41.217  28.775  26.957  1.00  0.00     0.021 C 
BRANCH   2   3
ATOM      3  C   UNL A   1      39.713  29.013  27.057  1.00  0.00     0.116 C 
BRANCH   3   4
ATOM      4  N   UNL A   1      39.406  29.954  28.115  1.00  0.00    -0.351 N 
ATOM      5  C   UNL A   1      38.196  30.029  28.733  1.00  0.00     0.278 C 
ATOM      6  O   UNL A   1      37.596  31.105  28.666  1.00  0.00    -0.268 OA
ATOM      7  H   UNL A   1      40.115  30.574  28.405  1.00  0.00     0.163 HD
BRANCH   5   8
ATOM      8  C   UNL A   1      37.583  28.786  29.421  1.00  0.00     0.277 C 
ATOM      9  C   UNL A   1      37.372  29.478  31.884  1.00  0.00     0.243 C 
ATOM     10  N   UNL A   1      36.700  29.206  30.567  1.00  0.00    -0.327 N 
ATOM     11  C   UNL A   1      38.363  28.255  32.229  1.00  0.00     0.196 C 
ATOM     12  H   UNL A   1      36.217  30.060  30.286  1.00  0.00     0.347 HD
ATOM     13  H   UNL A   1      36.092  28.406  30.740  1.00  0.00     0.347 HD
ATOM     14  C   UNL A   1      39.272  28.040  31.065  1.00  0.00    -0.024 C 
ATOM     15  N   UNL A   1      39.299  28.435  33.378  1.00  0.00    -0.270 NA
ATOM     16  C   UNL A   1      38.579  27.683  29.811  1.00  0.00     0.109 C 
ATOM     17  C   UNL A   1      40.532  28.335  31.350  1.00  0.00     0.002 A 
ATOM     18  C   UNL A   1      40.465  28.535  32.803  1.00  0.00     0.066 A 
ATOM     19  C   UNL A   1      41.739  28.516  30.617  1.00  0.00     0.010 A 
ATOM     20  C   UNL A   1      41.742  28.876  33.473  1.00  0.00     0.028 A 
ATOM     21  C   UNL A   1      42.835  28.927  31.276  1.00  0.00     0.001 A 
ATOM     22  C   UNL A   1      42.832  29.096  32.720  1.00  0.00     0.002 A 
BRANCH   9  23
ATOM     23  C   UNL A   1      37.904  30.926  32.052  1.00  0.00     0.012 A 
ATOM     24  C   UNL A   1      38.739  33.554  32.716  1.00  0.00     0.123 A 
ATOM     25  C   UNL A   1      39.588  32.689  32.021  1.00  0.00     0.047 A 
ATOM     26  C   UNL A   1      37.404  33.213  32.920  1.00  0.00     0.016 A 
ATOM     27  C   UNL A   1      39.162  31.395  31.676  1.00  0.00     0.014 A 
ATOM     28  C   UNL A   1      37.038  31.920  32.525  1.00  0.00     0.019 A 
BRANCH  24  29
ATOM     29  O   UNL A   1      39.244  34.764  33.113  1.00  0.00    -0.496 OA
ATOM     30  C   UNL A   1      40.667  34.696  33.250  1.00  0.00     0.278 C 
ENDBRANCH  24  29
BRANCH  26  31
ATOM     31  C   UNL A   1      36.455  34.091  33.709  1.00  0.00     0.183 C 
BRANCH  31  32
ATOM     32  N   UNL A   1      35.451  34.897  32.988  1.00  0.00    -0.261 N 
ATOM     33  C   UNL A   1      34.761  34.620  31.839  1.00  0.00     0.194 A 
ATOM     34  N   UNL A   1      34.906  35.959  33.643  1.00  0.00    -0.174 NA
ATOM     35  C   UNL A   1      33.819  35.608  31.679  1.00  0.00     0.307 A 
ATOM     36  C   UNL A   1      33.930  36.387  32.835  1.00  0.00     0.220 A 
BRANCH  35  37
ATOM     37  N   UNL A   1      32.910  35.750  30.587  1.00  0.00     0.066 N 
ATOM     38  O   UNL A   1      32.758  34.763  29.857  1.00  0.00    -0.258 OA
ATOM     39  O   UNL A   1      32.343  36.843  30.457  1.00  0.00    -0.258 OA
ENDBRANCH  35  37
ENDBRANCH  31  32
ENDBRANCH  26  31
ENDBRANCH   9  23
ENDBRANCH   5   8
ENDBRANCH   3   4
ENDBRANCH   2   3
ENDBRANCH   1   2
BRANCH   1  40
ATOM     40  C   UNL A   1      40.608  26.273  26.707  1.00  0.00     0.002 C 
BRANCH  40  41
ATOM     41  C   UNL A   1      40.257  25.239  27.776  1.00  0.00     0.021 C 
BRANCH  41  42
ATOM     42  C   UNL A   1      41.389  24.284  28.130  1.00  0.00     0.116 C 
BRANCH  42  43
ATOM     43  N   UNL A   1      41.610  23.285  27.096  1.00  0.00    -0.352 N 
ATOM     44  C   UNL A   1      42.612  23.230  26.160  1.00  0.00     0.251 C 
ATOM     45  H   UNL A   1      40.954  22.551  27.065  1.00  0.00     0.163 HD
ATOM     46  O   UNL A   1      42.554  22.418  25.239  1.00  0.00    -0.269 OA
BRANCH  44  47
ATOM     47  C   UNL A   1      43.744  24.174  26.255  1.00  0.00     0.039 A 
ATOM     48  C   UNL A   1      44.121  24.900  25.124  1.00  0.00     0.014 A 
ATOM     49  C   UNL A   1      44.410  24.363  27.470  1.00  0.00     0.014 A 
ATOM     50  C   UNL A   1      45.128  25.861  25.226  1.00  0.00     0.010 A 
ATOM     51  C   UNL A   1      45.355  25.374  27.588  1.00  0.00     0.010 A 
ATOM     52  C   UNL A   1      45.730  26.131  26.467  1.00  0.00    -0.014 A 
BRANCH  52  53
ATOM     53  C   UNL A   1      46.746  27.203  26.618  1.00  0.00     0.031 A 
ATOM     54  C   UNL A   1      46.317  28.644  26.681  1.00  0.00     0.074 A 
ATOM     55  C   UNL A   1      48.057  26.889  26.603  1.00  0.00     0.049 A 
ATOM     56  N   UNL A   1      47.056  29.722  26.727  1.00  0.00    -0.248 NA
ATOM     57  C   UNL A   1      44.869  28.910  26.659  1.00  0.00     0.031 C 
ATOM     58  C   UNL A   1      48.602  25.536  26.476  1.00  0.00     0.029 A 
ATOM     59  N   UNL A   1      49.170  27.690  26.663  1.00  0.00    -0.354 N 
ATOM     60  C   UNL A   1      46.168  30.791  26.699  1.00  0.00     0.074 A 
ATOM     61  C   UNL A   1      44.837  30.233  26.600  1.00  0.00     0.031 C 
ATOM     62  C   UNL A   1      49.942  25.600  26.467  1.00  0.00     0.029 A 
ATOM     63  C   UNL A   1      50.354  26.997  26.547  1.00  0.00     0.049 A 
ATOM     64  H   UNL A   1      49.127  28.667  26.777  1.00  0.00     0.167 HD
ATOM     65  C   UNL A   1      46.433  32.117  26.776  1.00  0.00     0.034 A 
ATOM     66  C   UNL A   1      51.627  27.438  26.494  1.00  0.00     0.034 A 
ATOM     67  C   UNL A   1      47.755  32.666  26.910  1.00  0.00     0.049 A 
ATOM     68  C   UNL A   1      51.896  28.915  26.603  1.00  0.00     0.074 A 
ATOM     69  C   UNL A   1      48.123  33.987  27.086  1.00  0.00     0.029 A 
ATOM     70  N   UNL A   1      48.928  31.926  26.869  1.00  0.00    -0.354 N 
ATOM     71  N   UNL A   1      51.041  29.900  26.731  1.00  0.00    -0.248 NA
ATOM     72  C   UNL A   1      53.304  29.338  26.592  1.00  0.00     0.031 C 
ATOM     73  C   UNL A   1      49.519  34.052  27.113  1.00  0.00     0.029 A 
ATOM     74  C   UNL A   1      50.020  32.765  26.998  1.00  0.00     0.049 A 
ATOM     75  H   UNL A   1      48.975  30.949  26.763  1.00  0.00     0.167 HD
ATOM     76  C   UNL A   1      51.807  31.055  26.857  1.00  0.00     0.074 A 
ATOM     77  C   UNL A   1      53.194  30.643  26.804  1.00  0.00     0.031 C 
ATOM     78  C   UNL A   1      51.396  32.339  26.996  1.00  0.00     0.034 A 
BRANCH  65  79
ATOM     79  C   UNL A   1      45.265  33.068  26.751  1.00  0.00     0.023 A 
ATOM     80  C   UNL A   1      44.730  33.488  25.516  1.00  0.00     0.012 A 
ATOM     81  C   UNL A   1      44.662  33.502  27.948  1.00  0.00     0.148 A 
ATOM     82  C   UNL A   1      43.639  34.356  25.473  1.00  0.00     0.002 A 
ATOM     83  C   UNL A   1      43.545  34.327  27.896  1.00  0.00     0.091 A 
ATOM     84  F   UNL A   1      45.197  33.108  29.113  1.00  0.00    -0.205 F 
ATOM     85  C   UNL A   1      43.041  34.765  26.662  1.00  0.00     0.022 A 
BRANCH  83  86
ATOM     86  S   UNL A   1      42.652  34.842  29.367  1.00  0.00     0.127 S 
ATOM     87  O   UNL A   1      43.609  35.759  29.986  1.00  0.00    -0.237 OA
ATOM     88  O   UNL A   1      41.470  35.488  28.798  1.00  0.00    -0.237 OA
ATOM     89  O   UNL A   1      42.379  33.625  30.119  1.00  0.00    -0.744 OA
ENDBRANCH  83  86
ENDBRANCH  65  79
BRANCH  66  90
ATOM     90  C   UNL A   1      52.747  26.462  26.375  1.00  0.00     0.023 A 
ATOM     91  C   UNL A   1      52.936  25.766  25.165  1.00  0.00     0.012 A 
ATOM     92  C   UNL A   1      53.641  26.242  27.441  1.00  0.00     0.148 A 
ATOM     93  C   UNL A   1      53.974  24.844  25.030  1.00  0.00     0.002 A 
ATOM     94  C   UNL A   1      54.707  25.366  27.280  1.00  0.00     0.091 A 
ATOM     95  F   UNL A   1      53.438  26.909  28.586  1.00  0.00    -0.205 F 
ATOM     96  C   UNL A   1      54.865  24.651  26.083  1.00  0.00     0.022 A 
BRANCH  94  97
ATOM     97  S   UNL A   1      55.979  25.157  28.532  1.00  0.00     0.127 S 
ATOM     98  O   UNL A   1      56.779  24.074  27.967  1.00  0.00    -0.237 OA
ATOM     99  O   UNL A   1      56.625  26.471  28.524  1.00  0.00    -0.237 OA
ATOM    100  O   UNL A   1      55.272  24.845  29.766  1.00  0.00    -0.744 OA
ENDBRANCH  94  97
ENDBRANCH  66  90
BRANCH  78 101
ATOM    101  C   UNL A   1      52.451  33.404  27.151  1.00  0.00     0.023 A 
ATOM    102  C   UNL A   1      52.938  34.087  26.020  1.00  0.00     0.012 A 
ATOM    103  C   UNL A   1      52.888  33.788  28.435  1.00  0.00     0.148 A 
ATOM    104  C   UNL A   1      53.864  35.120  26.163  1.00  0.00     0.002 A 
ATOM    105  C   UNL A   1      53.770  34.852  28.572  1.00  0.00     0.091 A 
ATOM    106  F   UNL A   1      52.424  33.113  29.496  1.00  0.00    -0.205 F 
ATOM    107  C   UNL A   1      54.269  35.511  27.437  1.00  0.00     0.022 A 
BRANCH 105 108
ATOM    108  S   UNL A   1      54.267  35.493  30.176  1.00  0.00     0.127 S 
ATOM    109  O   UNL A   1      54.038  34.335  31.041  1.00  0.00    -0.237 OA
ATOM    110  O   UNL A   1      55.675  35.820  29.954  1.00  0.00    -0.237 OA
ATOM    111  O   UNL A   1      53.410  36.641  30.436  1.00  0.00    -0.744 OA
ENDBRANCH 105 108
ENDBRANCH  78 101
ENDBRANCH  52  53
ENDBRANCH  44  47
ENDBRANCH  42  43
ENDBRANCH  41  42
ENDBRANCH  40  41
ENDBRANCH   1  40
TORSDOF 21
ENDMDL
