MODEL 1
REMARK VINA RESULT:     -10.4      0.000      0.000
REMARK SMILES C#CCN(CC(=O)NCCCCCCNC(=O)c1ccc(-c2c3nc(c(-c4cccc(S(=O)(=O)[O-])c4F)c4ccc([nH]4)c(-c4cccc(S(=O)(=O)[O-])c4F)c4nc(c(-c5cccc(S(=O)(=O)[O-])c5F)c5ccc2[nH]5)C=C4)C=C3)cc1)C(=O)N[C@@H]1CCOC1
REMARK SMILES IDX 11 1 10 2 9 3 8 4 6 5 7 6 5 8 4 9 3 10 2 11 1 12 81 13 82 14
REMARK SMILES IDX 83 15 84 17 85 18 88 19 86 20 87 21 12 22 13 23 14 24 15 25
REMARK SMILES IDX 16 26 17 28 18 29 19 30 80 31 20 32 79 33 21 34 22 35 23 36
REMARK SMILES IDX 73 37 24 38 78 39 72 40 74 41 25 42 77 43 71 44 70 45 26 47
REMARK SMILES IDX 58 48 38 49 57 50 39 51 42 52 56 53 75 54 40 55 41 56 55 58
REMARK SMILES IDX 76 59 43 60 27 61 28 62 36 63 29 64 31 65 37 66 30 67 32 68
REMARK SMILES IDX 33 69 34 70 35 71 59 72 60 73 68 74 61 75 63 76 69 77 62 78
REMARK SMILES IDX 64 79 65 80 66 81 67 82 44 83 45 84 53 85 46 86 48 87 54 88
REMARK SMILES IDX 47 89 49 90 50 91 51 92 52 93
REMARK H PARENT 8 7 83 16 15 27 74 46 42 57
REMARK Flexibility Score: inf
ROOT
ATOM      1  C   UNL A   1      31.777  29.952  25.472  1.00  0.00     0.002 C 
ENDROOT
BRANCH   1   2
ATOM      2  C   UNL A   1      32.245  28.488  25.420  1.00  0.00     0.021 C 
BRANCH   2   3
ATOM      3  C   UNL A   1      32.706  28.040  24.029  1.00  0.00     0.116 C 
BRANCH   3   4
ATOM      4  N   UNL A   1      33.656  26.962  24.162  1.00  0.00    -0.355 N 
ATOM      5  C   UNL A   1      33.331  25.756  24.708  1.00  0.00     0.239 C 
ATOM      6  O   UNL A   1      34.071  25.309  25.583  1.00  0.00    -0.273 OA
ATOM      7  H   UNL A   1      34.577  27.104  23.847  1.00  0.00     0.163 HD
BRANCH   5   8
ATOM      8  C   UNL A   1      32.059  25.062  24.197  1.00  0.00     0.222 C 
BRANCH   8   9
ATOM      9  N   UNL A   1      31.187  24.541  25.227  1.00  0.00    -0.304 N 
BRANCH   9  10
ATOM     10  C   UNL A   1      30.188  25.494  25.743  1.00  0.00     0.211 C 
BRANCH  10  11
ATOM     11  C   UNL A   1      29.482  26.290  24.657  1.00  0.00    -0.085 C 
ATOM     12  C   UNL A   1      28.877  26.972  23.725  1.00  0.00     0.006 C 
ENDBRANCH  10  11
ENDBRANCH   9  10
BRANCH   9  13
ATOM     13  C   UNL A   1      31.404  23.398  25.924  1.00  0.00     0.318 C 
ATOM     14  O   UNL A   1      31.035  23.295  27.102  1.00  0.00    -0.249 OA
ATOM     15  N   UNL A   1      32.035  22.306  25.496  1.00  0.00    -0.333 N 
ATOM     16  H   UNL A   1      32.149  21.746  26.298  1.00  0.00     0.165 HD
BRANCH  15  17
ATOM     17  C   UNL A   1      32.648  21.527  24.395  1.00  0.00     0.112 C 
ATOM     18  C   UNL A   1      32.434  20.055  24.159  1.00  0.00     0.056 C 
ATOM     19  C   UNL A   1      34.184  21.529  24.539  1.00  0.00     0.185 C 
ATOM     20  C   UNL A   1      33.417  19.422  25.109  1.00  0.00     0.162 C 
ATOM     21  O   UNL A   1      34.586  20.243  25.050  1.00  0.00    -0.379 OA
ENDBRANCH  15  17
ENDBRANCH   9  13
ENDBRANCH   8   9
ENDBRANCH   5   8
ENDBRANCH   3   4
ENDBRANCH   2   3
ENDBRANCH   1   2
BRANCH   1  22
ATOM     22  C   UNL A   1      31.848  30.593  26.863  1.00  0.00     0.002 C 
BRANCH  22  23
ATOM     23  C   UNL A   1      31.718  32.115  26.858  1.00  0.00     0.021 C 
BRANCH  23  24
ATOM     24  C   UNL A   1      32.984  32.824  27.298  1.00  0.00     0.116 C 
BRANCH  24  25
ATOM     25  N   UNL A   1      32.712  34.211  27.629  1.00  0.00    -0.352 N 
ATOM     26  C   UNL A   1      33.164  34.912  28.716  1.00  0.00     0.251 C 
ATOM     27  H   UNL A   1      32.137  34.706  27.000  1.00  0.00     0.163 HD
ATOM     28  O   UNL A   1      32.635  35.974  29.042  1.00  0.00    -0.269 OA
BRANCH  26  29
ATOM     29  C   UNL A   1      34.287  34.356  29.493  1.00  0.00     0.039 A 
ATOM     30  C   UNL A   1      34.023  33.581  30.621  1.00  0.00     0.014 A 
ATOM     31  C   UNL A   1      35.602  34.568  29.064  1.00  0.00     0.014 A 
ATOM     32  C   UNL A   1      35.086  32.987  31.303  1.00  0.00     0.010 A 
ATOM     33  C   UNL A   1      36.645  33.895  29.683  1.00  0.00     0.010 A 
ATOM     34  C   UNL A   1      36.401  33.120  30.826  1.00  0.00    -0.014 A 
BRANCH  34  35
ATOM     35  C   UNL A   1      37.541  32.476  31.522  1.00  0.00     0.031 A 
ATOM     36  C   UNL A   1      38.282  31.348  30.857  1.00  0.00     0.074 A 
ATOM     37  C   UNL A   1      37.860  32.856  32.775  1.00  0.00     0.049 A 
ATOM     38  N   UNL A   1      39.275  30.631  31.317  1.00  0.00    -0.248 NA
ATOM     39  C   UNL A   1      37.831  30.948  29.513  1.00  0.00     0.031 C 
ATOM     40  C   UNL A   1      37.160  33.879  33.554  1.00  0.00     0.029 A 
ATOM     41  N   UNL A   1      38.840  32.405  33.623  1.00  0.00    -0.354 N 
ATOM     42  C   UNL A   1      39.539  29.679  30.340  1.00  0.00     0.074 A 
ATOM     43  C   UNL A   1      38.577  29.879  29.280  1.00  0.00     0.031 C 
ATOM     44  C   UNL A   1      37.738  33.986  34.761  1.00  0.00     0.029 A 
ATOM     45  C   UNL A   1      38.824  33.015  34.855  1.00  0.00     0.049 A 
ATOM     46  H   UNL A   1      39.491  31.711  33.373  1.00  0.00     0.167 HD
ATOM     47  C   UNL A   1      40.512  28.740  30.314  1.00  0.00     0.034 A 
ATOM     48  C   UNL A   1      39.592  32.809  35.943  1.00  0.00     0.034 A 
ATOM     49  C   UNL A   1      41.492  28.574  31.352  1.00  0.00     0.049 A 
ATOM     50  C   UNL A   1      40.695  31.787  35.871  1.00  0.00     0.074 A 
ATOM     51  C   UNL A   1      42.578  27.719  31.379  1.00  0.00     0.029 A 
ATOM     52  N   UNL A   1      41.497  29.267  32.552  1.00  0.00    -0.354 N 
ATOM     53  N   UNL A   1      41.032  31.006  34.874  1.00  0.00    -0.248 NA
ATOM     54  C   UNL A   1      41.547  31.644  37.061  1.00  0.00     0.031 C 
ATOM     55  C   UNL A   1      43.220  27.869  32.612  1.00  0.00     0.029 A 
ATOM     56  C   UNL A   1      42.557  28.848  33.335  1.00  0.00     0.049 A 
ATOM     57  H   UNL A   1      40.843  29.956  32.809  1.00  0.00     0.167 HD
ATOM     58  C   UNL A   1      42.154  30.305  35.300  1.00  0.00     0.074 A 
ATOM     59  C   UNL A   1      42.451  30.771  36.639  1.00  0.00     0.031 C 
ATOM     60  C   UNL A   1      42.868  29.354  34.647  1.00  0.00     0.034 A 
BRANCH  47  61
ATOM     61  C   UNL A   1      40.594  27.845  29.105  1.00  0.00     0.023 A 
ATOM     62  C   UNL A   1      39.704  26.758  28.976  1.00  0.00     0.012 A 
ATOM     63  C   UNL A   1      41.509  28.114  28.069  1.00  0.00     0.148 A 
ATOM     64  C   UNL A   1      39.748  25.932  27.854  1.00  0.00     0.002 A 
ATOM     65  C   UNL A   1      41.513  27.318  26.931  1.00  0.00     0.091 A 
ATOM     66  F   UNL A   1      42.361  29.138  28.220  1.00  0.00    -0.205 F 
ATOM     67  C   UNL A   1      40.644  26.219  26.826  1.00  0.00     0.022 A 
BRANCH  65  68
ATOM     68  S   UNL A   1      42.568  27.654  25.516  1.00  0.00     0.127 S 
ATOM     69  O   UNL A   1      42.328  26.475  24.684  1.00  0.00    -0.237 OA
ATOM     70  O   UNL A   1      41.995  28.895  24.996  1.00  0.00    -0.237 OA
ATOM     71  O   UNL A   1      43.920  27.781  26.042  1.00  0.00    -0.744 OA
ENDBRANCH  65  68
ENDBRANCH  47  61
BRANCH  48  72
ATOM     72  C   UNL A   1      39.377  33.622  37.172  1.00  0.00     0.023 A 
ATOM     73  C   UNL A   1      39.928  34.916  37.257  1.00  0.00     0.012 A 
ATOM     74  C   UNL A   1      38.606  33.132  38.244  1.00  0.00     0.148 A 
ATOM     75  C   UNL A   1      39.746  35.693  38.402  1.00  0.00     0.002 A 
ATOM     76  C   UNL A   1      38.379  33.933  39.357  1.00  0.00     0.091 A 
ATOM     77  F   UNL A   1      38.096  31.896  38.147  1.00  0.00    -0.205 F 
ATOM     78  C   UNL A   1      38.963  35.206  39.446  1.00  0.00     0.022 A 
BRANCH  76  79
ATOM     79  S   UNL A   1      37.275  33.444  40.687  1.00  0.00     0.127 S 
ATOM     80  O   UNL A   1      37.155  34.685  41.448  1.00  0.00    -0.237 OA
ATOM     81  O   UNL A   1      36.073  33.053  39.951  1.00  0.00    -0.237 OA
ATOM     82  O   UNL A   1      37.943  32.345  41.370  1.00  0.00    -0.744 OA
ENDBRANCH  76  79
ENDBRANCH  48  72
BRANCH  60  83
ATOM     83  C   UNL A   1      44.069  28.777  35.348  1.00  0.00     0.023 A 
ATOM     84  C   UNL A   1      45.338  29.364  35.173  1.00  0.00     0.012 A 
ATOM     85  C   UNL A   1      43.922  27.700  36.244  1.00  0.00     0.148 A 
ATOM     86  C   UNL A   1      46.448  28.864  35.853  1.00  0.00     0.002 A 
ATOM     87  C   UNL A   1      45.021  27.243  36.958  1.00  0.00     0.091 A 
ATOM     88  F   UNL A   1      42.709  27.145  36.384  1.00  0.00    -0.205 F 
ATOM     89  C   UNL A   1      46.288  27.813  36.754  1.00  0.00     0.022 A 
BRANCH  87  90
ATOM     90  S   UNL A   1      44.892  25.964  38.213  1.00  0.00     0.127 S 
ATOM     91  O   UNL A   1      44.152  26.654  39.267  1.00  0.00    -0.237 OA
ATOM     92  O   UNL A   1      44.136  24.923  37.516  1.00  0.00    -0.237 OA
ATOM     93  O   UNL A   1      46.260  25.592  38.552  1.00  0.00    -0.744 OA
ENDBRANCH  87  90
ENDBRANCH  60  83
ENDBRANCH  34  35
ENDBRANCH  26  29
ENDBRANCH  24  25
ENDBRANCH  23  24
ENDBRANCH  22  23
ENDBRANCH   1  22
TORSDOF 21
ENDMDL
MODEL 2
REMARK VINA RESULT:     -10.4      3.830      9.078
REMARK SMILES C#CCN(CC(=O)NCCCCCCNC(=O)c1ccc(-c2c3nc(c(-c4cccc(S(=O)(=O)[O-])c4F)c4ccc([nH]4)c(-c4cccc(S(=O)(=O)[O-])c4F)c4nc(c(-c5cccc(S(=O)(=O)[O-])c5F)c5ccc2[nH]5)C=C4)C=C3)cc1)C(=O)N[C@@H]1CCOC1
REMARK SMILES IDX 11 1 10 2 9 3 8 4 6 5 7 6 5 8 4 9 3 10 2 11 1 12 81 13 82 14
REMARK SMILES IDX 83 15 84 17 85 18 88 19 86 20 87 21 12 22 13 23 14 24 15 25
REMARK SMILES IDX 16 26 17 28 18 29 19 30 80 31 20 32 79 33 21 34 22 35 23 36
REMARK SMILES IDX 73 37 24 38 78 39 72 40 74 41 25 42 77 43 71 44 70 45 26 47
REMARK SMILES IDX 58 48 38 49 57 50 39 51 42 52 56 53 75 54 40 55 41 56 55 58
REMARK SMILES IDX 76 59 43 60 27 61 28 62 36 63 29 64 31 65 37 66 30 67 32 68
REMARK SMILES IDX 33 69 34 70 35 71 59 72 60 73 68 74 61 75 63 76 69 77 62 78
REMARK SMILES IDX 64 79 65 80 66 81 67 82 44 83 45 84 53 85 46 86 48 87 54 88
REMARK SMILES IDX 47 89 49 90 50 91 51 92 52 93
REMARK H PARENT 8 7 83 16 15 27 74 46 42 57
REMARK Flexibility Score: inf
ROOT
ATOM      1  C   UNL A   1      31.390  27.031  26.571  1.00  0.00     0.002 C 
ENDROOT
BRANCH   1   2
ATOM      2  C   UNL A   1      30.274  26.110  26.051  1.00  0.00     0.021 C 
BRANCH   2   3
ATOM      3  C   UNL A   1      30.789  24.929  25.220  1.00  0.00     0.116 C 
BRANCH   3   4
ATOM      4  N   UNL A   1      31.890  24.301  25.910  1.00  0.00    -0.355 N 
ATOM      5  C   UNL A   1      31.807  23.053  26.450  1.00  0.00     0.239 C 
ATOM      6  O   UNL A   1      32.177  22.909  27.614  1.00  0.00    -0.273 OA
ATOM      7  H   UNL A   1      32.736  24.796  25.995  1.00  0.00     0.163 HD
BRANCH   5   8
ATOM      8  C   UNL A   1      31.241  21.930  25.565  1.00  0.00     0.222 C 
BRANCH   8   9
ATOM      9  N   UNL A   1      32.203  21.285  24.699  1.00  0.00    -0.304 N 
BRANCH   9  10
ATOM     10  C   UNL A   1      32.541  19.897  25.064  1.00  0.00     0.211 C 
BRANCH  10  11
ATOM     11  C   UNL A   1      32.519  18.932  23.890  1.00  0.00    -0.085 C 
ATOM     12  C   UNL A   1      32.499  18.105  22.882  1.00  0.00     0.006 C 
ENDBRANCH  10  11
ENDBRANCH   9  10
BRANCH   9  13
ATOM     13  C   UNL A   1      32.996  21.925  23.805  1.00  0.00     0.318 C 
ATOM     14  O   UNL A   1      32.510  22.482  22.811  1.00  0.00    -0.249 OA
ATOM     15  N   UNL A   1      34.325  22.015  23.833  1.00  0.00    -0.333 N 
ATOM     16  H   UNL A   1      34.573  22.403  22.964  1.00  0.00     0.165 HD
BRANCH  15  17
ATOM     17  C   UNL A   1      35.609  21.811  24.542  1.00  0.00     0.112 C 
ATOM     18  C   UNL A   1      35.896  22.264  25.951  1.00  0.00     0.056 C 
ATOM     19  C   UNL A   1      36.741  22.561  23.811  1.00  0.00     0.185 C 
ATOM     20  C   UNL A   1      36.268  23.711  25.763  1.00  0.00     0.162 C 
ATOM     21  O   UNL A   1      37.048  23.751  24.564  1.00  0.00    -0.379 OA
ENDBRANCH  15  17
ENDBRANCH   9  13
ENDBRANCH   8   9
ENDBRANCH   5   8
ENDBRANCH   3   4
ENDBRANCH   2   3
ENDBRANCH   1   2
BRANCH   1  22
ATOM     22  C   UNL A   1      31.571  28.325  25.770  1.00  0.00     0.002 C 
BRANCH  22  23
ATOM     23  C   UNL A   1      33.007  28.590  25.325  1.00  0.00     0.021 C 
BRANCH  23  24
ATOM     24  C   UNL A   1      33.948  28.877  26.480  1.00  0.00     0.116 C 
BRANCH  24  25
ATOM     25  N   UNL A   1      33.849  30.265  26.895  1.00  0.00    -0.352 N 
ATOM     26  C   UNL A   1      34.629  30.916  27.815  1.00  0.00     0.251 C 
ATOM     27  H   UNL A   1      33.141  30.799  26.467  1.00  0.00     0.163 HD
ATOM     28  O   UNL A   1      34.268  31.989  28.295  1.00  0.00    -0.269 OA
BRANCH  26  29
ATOM     29  C   UNL A   1      35.901  30.292  28.225  1.00  0.00     0.039 A 
ATOM     30  C   UNL A   1      37.028  30.439  27.417  1.00  0.00     0.014 A 
ATOM     31  C   UNL A   1      35.978  29.604  29.441  1.00  0.00     0.014 A 
ATOM     32  C   UNL A   1      38.248  29.920  27.850  1.00  0.00     0.010 A 
ATOM     33  C   UNL A   1      37.211  29.179  29.913  1.00  0.00     0.010 A 
ATOM     34  C   UNL A   1      38.354  29.307  29.111  1.00  0.00    -0.014 A 
BRANCH  34  35
ATOM     35  C   UNL A   1      39.647  28.772  29.599  1.00  0.00     0.031 A 
ATOM     36  C   UNL A   1      40.373  29.473  30.716  1.00  0.00     0.074 A 
ATOM     37  C   UNL A   1      40.201  27.704  28.992  1.00  0.00     0.049 A 
ATOM     38  N   UNL A   1      41.530  29.185  31.254  1.00  0.00    -0.248 NA
ATOM     39  C   UNL A   1      39.732  30.672  31.284  1.00  0.00     0.031 C 
ATOM     40  C   UNL A   1      39.633  26.993  27.845  1.00  0.00     0.029 A 
ATOM     41  N   UNL A   1      41.379  27.046  29.240  1.00  0.00    -0.354 N 
ATOM     42  C   UNL A   1      41.771  30.184  32.190  1.00  0.00     0.074 A 
ATOM     43  C   UNL A   1      40.662  31.108  32.121  1.00  0.00     0.031 C 
ATOM     44  C   UNL A   1      40.457  25.993  27.494  1.00  0.00     0.029 A 
ATOM     45  C   UNL A   1      41.628  26.014  28.367  1.00  0.00     0.049 A 
ATOM     46  H   UNL A   1      41.989  27.291  29.972  1.00  0.00     0.167 HD
ATOM     47  C   UNL A   1      42.807  30.305  33.050  1.00  0.00     0.034 A 
ATOM     48  C   UNL A   1      42.684  25.182  28.272  1.00  0.00     0.034 A 
ATOM     49  C   UNL A   1      43.885  29.360  33.144  1.00  0.00     0.049 A 
ATOM     50  C   UNL A   1      43.803  25.313  29.270  1.00  0.00     0.074 A 
ATOM     51  C   UNL A   1      44.932  29.338  34.046  1.00  0.00     0.029 A 
ATOM     52  N   UNL A   1      44.061  28.277  32.297  1.00  0.00    -0.354 N 
ATOM     53  N   UNL A   1      43.935  26.169  30.255  1.00  0.00    -0.248 NA
ATOM     54  C   UNL A   1      44.903  24.344  29.166  1.00  0.00     0.031 C 
ATOM     55  C   UNL A   1      45.763  28.261  33.722  1.00  0.00     0.029 A 
ATOM     56  C   UNL A   1      45.210  27.588  32.645  1.00  0.00     0.049 A 
ATOM     57  H   UNL A   1      43.459  28.034  31.558  1.00  0.00     0.167 HD
ATOM     58  C   UNL A   1      45.109  25.819  30.911  1.00  0.00     0.074 A 
ATOM     59  C   UNL A   1      45.641  24.661  30.222  1.00  0.00     0.031 C 
ATOM     60  C   UNL A   1      45.701  26.410  31.978  1.00  0.00     0.034 A 
BRANCH  47  61
ATOM     61  C   UNL A   1      42.806  31.482  33.991  1.00  0.00     0.023 A 
ATOM     62  C   UNL A   1      43.335  32.719  33.567  1.00  0.00     0.012 A 
ATOM     63  C   UNL A   1      42.227  31.382  35.271  1.00  0.00     0.148 A 
ATOM     64  C   UNL A   1      43.322  33.826  34.415  1.00  0.00     0.002 A 
ATOM     65  C   UNL A   1      42.172  32.501  36.091  1.00  0.00     0.091 A 
ATOM     66  F   UNL A   1      41.750  30.192  35.663  1.00  0.00    -0.205 F 
ATOM     67  C   UNL A   1      42.730  33.721  35.671  1.00  0.00     0.022 A 
BRANCH  65  68
ATOM     68  S   UNL A   1      41.356  32.492  37.691  1.00  0.00     0.127 S 
ATOM     69  O   UNL A   1      41.429  33.904  38.066  1.00  0.00    -0.237 OA
ATOM     70  O   UNL A   1      40.014  32.021  37.347  1.00  0.00    -0.237 OA
ATOM     71  O   UNL A   1      42.123  31.583  38.530  1.00  0.00    -0.744 OA
ENDBRANCH  65  68
ENDBRANCH  47  61
BRANCH  48  72
ATOM     72  C   UNL A   1      42.707  24.122  27.227  1.00  0.00     0.023 A 
ATOM     73  C   UNL A   1      43.396  24.346  26.020  1.00  0.00     0.012 A 
ATOM     74  C   UNL A   1      42.074  22.881  27.436  1.00  0.00     0.148 A 
ATOM     75  C   UNL A   1      43.424  23.369  25.024  1.00  0.00     0.002 A 
ATOM     76  C   UNL A   1      42.154  21.890  26.465  1.00  0.00     0.091 A 
ATOM     77  F   UNL A   1      41.417  22.689  28.588  1.00  0.00    -0.205 F 
ATOM     78  C   UNL A   1      42.813  22.139  25.250  1.00  0.00     0.022 A 
BRANCH  76  79
ATOM     79  S   UNL A   1      41.516  20.231  26.725  1.00  0.00     0.127 S 
ATOM     80  O   UNL A   1      40.089  20.485  26.905  1.00  0.00    -0.237 OA
ATOM     81  O   UNL A   1      41.871  19.572  25.469  1.00  0.00    -0.237 OA
ATOM     82  O   UNL A   1      42.218  19.717  27.892  1.00  0.00    -0.744 OA
ENDBRANCH  76  79
ENDBRANCH  48  72
BRANCH  60  83
ATOM     83  C   UNL A   1      46.971  25.794  32.503  1.00  0.00     0.023 A 
ATOM     84  C   UNL A   1      46.925  24.897  33.589  1.00  0.00     0.012 A 
ATOM     85  C   UNL A   1      48.202  26.045  31.864  1.00  0.00     0.148 A 
ATOM     86  C   UNL A   1      48.090  24.288  34.053  1.00  0.00     0.002 A 
ATOM     87  C   UNL A   1      49.348  25.393  32.297  1.00  0.00     0.091 A 
ATOM     88  F   UNL A   1      48.227  26.914  30.843  1.00  0.00    -0.205 F 
ATOM     89  C   UNL A   1      49.298  24.524  33.401  1.00  0.00     0.022 A 
BRANCH  87  90
ATOM     90  S   UNL A   1      50.927  25.558  31.457  1.00  0.00     0.127 S 
ATOM     91  O   UNL A   1      51.786  24.694  32.264  1.00  0.00    -0.237 OA
ATOM     92  O   UNL A   1      50.622  25.040  30.123  1.00  0.00    -0.237 OA
ATOM     93  O   UNL A   1      51.257  26.976  31.494  1.00  0.00    -0.744 OA
ENDBRANCH  87  90
ENDBRANCH  60  83
ENDBRANCH  34  35
ENDBRANCH  26  29
ENDBRANCH  24  25
ENDBRANCH  23  24
ENDBRANCH  22  23
ENDBRANCH   1  22
TORSDOF 21
ENDMDL
MODEL 3
REMARK VINA RESULT:     -10.3      2.432      8.104
REMARK SMILES C#CCN(CC(=O)NCCCCCCNC(=O)c1ccc(-c2c3nc(c(-c4cccc(S(=O)(=O)[O-])c4F)c4ccc([nH]4)c(-c4cccc(S(=O)(=O)[O-])c4F)c4nc(c(-c5cccc(S(=O)(=O)[O-])c5F)c5ccc2[nH]5)C=C4)C=C3)cc1)C(=O)N[C@@H]1CCOC1
REMARK SMILES IDX 11 1 10 2 9 3 8 4 6 5 7 6 5 8 4 9 3 10 2 11 1 12 81 13 82 14
REMARK SMILES IDX 83 15 84 17 85 18 88 19 86 20 87 21 12 22 13 23 14 24 15 25
REMARK SMILES IDX 16 26 17 28 18 29 19 30 80 31 20 32 79 33 21 34 22 35 23 36
REMARK SMILES IDX 73 37 24 38 78 39 72 40 74 41 25 42 77 43 71 44 70 45 26 47
REMARK SMILES IDX 58 48 38 49 57 50 39 51 42 52 56 53 75 54 40 55 41 56 55 58
REMARK SMILES IDX 76 59 43 60 27 61 28 62 36 63 29 64 31 65 37 66 30 67 32 68
REMARK SMILES IDX 33 69 34 70 35 71 59 72 60 73 68 74 61 75 63 76 69 77 62 78
REMARK SMILES IDX 64 79 65 80 66 81 67 82 44 83 45 84 53 85 46 86 48 87 54 88
REMARK SMILES IDX 47 89 49 90 50 91 51 92 52 93
REMARK H PARENT 8 7 83 16 15 27 74 46 42 57
REMARK Flexibility Score: inf
ROOT
ATOM      1  C   UNL A   1      31.692  27.136  25.013  1.00  0.00     0.002 C 
ENDROOT
BRANCH   1   2
ATOM      2  C   UNL A   1      30.932  26.464  26.168  1.00  0.00     0.021 C 
BRANCH   2   3
ATOM      3  C   UNL A   1      29.859  25.472  25.703  1.00  0.00     0.116 C 
BRANCH   3   4
ATOM      4  N   UNL A   1      29.657  24.471  26.723  1.00  0.00    -0.355 N 
ATOM      5  C   UNL A   1      30.240  23.242  26.677  1.00  0.00     0.239 C 
ATOM      6  O   UNL A   1      29.518  22.260  26.847  1.00  0.00    -0.273 OA
ATOM      7  H   UNL A   1      29.071  24.687  27.484  1.00  0.00     0.163 HD
BRANCH   5   8
ATOM      8  C   UNL A   1      31.751  23.179  26.398  1.00  0.00     0.222 C 
BRANCH   8   9
ATOM      9  N   UNL A   1      32.142  22.293  25.324  1.00  0.00    -0.304 N 
BRANCH   9  10
ATOM     10  C   UNL A   1      31.516  22.576  24.020  1.00  0.00     0.211 C 
BRANCH  10  11
ATOM     11  C   UNL A   1      32.237  23.646  23.214  1.00  0.00    -0.085 C 
ATOM     12  C   UNL A   1      32.855  24.563  22.524  1.00  0.00     0.006 C 
ENDBRANCH  10  11
ENDBRANCH   9  10
BRANCH   9  13
ATOM     13  C   UNL A   1      32.774  21.104  25.488  1.00  0.00     0.318 C 
ATOM     14  O   UNL A   1      32.161  20.036  25.353  1.00  0.00    -0.249 OA
ATOM     15  N   UNL A   1      34.048  20.915  25.831  1.00  0.00    -0.333 N 
ATOM     16  H   UNL A   1      34.122  19.951  26.012  1.00  0.00     0.165 HD
BRANCH  15  17
ATOM     17  C   UNL A   1      35.405  21.457  26.072  1.00  0.00     0.112 C 
ATOM     18  C   UNL A   1      35.770  22.918  26.018  1.00  0.00     0.056 C 
ATOM     19  C   UNL A   1      36.383  20.923  25.006  1.00  0.00     0.185 C 
ATOM     20  C   UNL A   1      35.975  23.153  24.544  1.00  0.00     0.162 C 
ATOM     21  O   UNL A   1      36.635  21.980  24.060  1.00  0.00    -0.379 OA
ENDBRANCH  15  17
ENDBRANCH   9  13
ENDBRANCH   8   9
ENDBRANCH   5   8
ENDBRANCH   3   4
ENDBRANCH   2   3
ENDBRANCH   1   2
BRANCH   1  22
ATOM     22  C   UNL A   1      31.175  28.530  24.638  1.00  0.00     0.002 C 
BRANCH  22  23
ATOM     23  C   UNL A   1      32.245  29.618  24.649  1.00  0.00     0.021 C 
BRANCH  23  24
ATOM     24  C   UNL A   1      32.712  29.984  26.044  1.00  0.00     0.116 C 
BRANCH  24  25
ATOM     25  N   UNL A   1      32.482  31.392  26.315  1.00  0.00    -0.352 N 
ATOM     26  C   UNL A   1      33.100  32.170  27.259  1.00  0.00     0.251 C 
ATOM     27  H   UNL A   1      31.804  31.839  25.757  1.00  0.00     0.163 HD
ATOM     28  O   UNL A   1      32.620  33.253  27.591  1.00  0.00    -0.269 OA
BRANCH  26  29
ATOM     29  C   UNL A   1      34.344  31.672  27.875  1.00  0.00     0.039 A 
ATOM     30  C   UNL A   1      35.281  32.583  28.360  1.00  0.00     0.014 A 
ATOM     31  C   UNL A   1      34.548  30.294  28.013  1.00  0.00     0.014 A 
ATOM     32  C   UNL A   1      36.415  32.107  29.018  1.00  0.00     0.010 A 
ATOM     33  C   UNL A   1      35.625  29.830  28.754  1.00  0.00     0.010 A 
ATOM     34  C   UNL A   1      36.584  30.730  29.241  1.00  0.00    -0.014 A 
BRANCH  34  35
ATOM     35  C   UNL A   1      37.770  30.207  29.959  1.00  0.00     0.031 A 
ATOM     36  C   UNL A   1      38.048  30.655  31.369  1.00  0.00     0.074 A 
ATOM     37  C   UNL A   1      38.633  29.391  29.322  1.00  0.00     0.049 A 
ATOM     38  N   UNL A   1      39.052  30.345  32.148  1.00  0.00    -0.248 NA
ATOM     39  C   UNL A   1      37.092  31.599  31.974  1.00  0.00     0.031 C 
ATOM     40  C   UNL A   1      38.514  28.956  27.929  1.00  0.00     0.029 A 
ATOM     41  N   UNL A   1      39.794  28.803  29.756  1.00  0.00    -0.354 N 
ATOM     42  C   UNL A   1      38.868  31.081  33.313  1.00  0.00     0.074 A 
ATOM     43  C   UNL A   1      37.681  31.885  33.125  1.00  0.00     0.031 C 
ATOM     44  C   UNL A   1      39.554  28.163  27.625  1.00  0.00     0.029 A 
ATOM     45  C   UNL A   1      40.431  28.063  28.788  1.00  0.00     0.049 A 
ATOM     46  H   UNL A   1      40.139  28.903  30.672  1.00  0.00     0.167 HD
ATOM     47  C   UNL A   1      39.604  31.069  34.448  1.00  0.00     0.034 A 
ATOM     48  C   UNL A   1      41.596  27.387  28.829  1.00  0.00     0.034 A 
ATOM     49  C   UNL A   1      40.758  30.235  34.643  1.00  0.00     0.049 A 
ATOM     50  C   UNL A   1      42.373  27.355  30.118  1.00  0.00     0.074 A 
ATOM     51  C   UNL A   1      41.517  30.075  35.788  1.00  0.00     0.029 A 
ATOM     52  N   UNL A   1      41.328  29.433  33.668  1.00  0.00    -0.354 N 
ATOM     53  N   UNL A   1      42.096  27.931  31.262  1.00  0.00    -0.248 NA
ATOM     54  C   UNL A   1      43.604  26.552  30.132  1.00  0.00     0.031 C 
ATOM     55  C   UNL A   1      42.569  29.202  35.494  1.00  0.00     0.029 A 
ATOM     56  C   UNL A   1      42.440  28.787  34.178  1.00  0.00     0.049 A 
ATOM     57  H   UNL A   1      40.992  29.337  32.748  1.00  0.00     0.167 HD
ATOM     58  C   UNL A   1      43.095  27.532  32.143  1.00  0.00     0.074 A 
ATOM     59  C   UNL A   1      43.972  26.649  31.402  1.00  0.00     0.031 C 
ATOM     60  C   UNL A   1      43.276  27.874  33.442  1.00  0.00     0.034 A 
BRANCH  47  61
ATOM     61  C   UNL A   1      39.160  31.953  35.584  1.00  0.00     0.023 A 
ATOM     62  C   UNL A   1      38.271  31.451  36.557  1.00  0.00     0.012 A 
ATOM     63  C   UNL A   1      39.667  33.260  35.721  1.00  0.00     0.148 A 
ATOM     64  C   UNL A   1      37.867  32.246  37.628  1.00  0.00     0.002 A 
ATOM     65  C   UNL A   1      39.299  34.028  36.818  1.00  0.00     0.091 A 
ATOM     66  F   UNL A   1      40.493  33.726  34.774  1.00  0.00    -0.205 F 
ATOM     67  C   UNL A   1      38.390  33.530  37.765  1.00  0.00     0.022 A 
BRANCH  65  68
ATOM     68  S   UNL A   1      39.982  35.660  37.131  1.00  0.00     0.127 S 
ATOM     69  O   UNL A   1      39.291  36.036  38.364  1.00  0.00    -0.237 OA
ATOM     70  O   UNL A   1      41.407  35.369  37.295  1.00  0.00    -0.237 OA
ATOM     71  O   UNL A   1      39.656  36.465  35.962  1.00  0.00    -0.744 OA
ENDBRANCH  65  68
ENDBRANCH  47  61
BRANCH  48  72
ATOM     72  C   UNL A   1      42.069  26.644  27.629  1.00  0.00     0.023 A 
ATOM     73  C   UNL A   1      42.786  27.323  26.625  1.00  0.00     0.012 A 
ATOM     74  C   UNL A   1      41.838  25.261  27.491  1.00  0.00     0.148 A 
ATOM     75  C   UNL A   1      43.231  26.648  25.488  1.00  0.00     0.002 A 
ATOM     76  C   UNL A   1      42.335  24.583  26.384  1.00  0.00     0.091 A 
ATOM     77  F   UNL A   1      41.148  24.633  28.453  1.00  0.00    -0.205 F 
ATOM     78  C   UNL A   1      43.016  25.278  25.373  1.00  0.00     0.022 A 
BRANCH  76  79
ATOM     79  S   UNL A   1      42.224  22.797  26.219  1.00  0.00     0.127 S 
ATOM     80  O   UNL A   1      40.779  22.586  26.227  1.00  0.00    -0.237 OA
ATOM     81  O   UNL A   1      42.874  22.574  24.928  1.00  0.00    -0.237 OA
ATOM     82  O   UNL A   1      42.950  22.250  27.357  1.00  0.00    -0.744 OA
ENDBRANCH  76  79
ENDBRANCH  48  72
BRANCH  60  83
ATOM     83  C   UNL A   1      44.444  27.263  34.170  1.00  0.00     0.023 A 
ATOM     84  C   UNL A   1      45.672  27.952  34.241  1.00  0.00     0.012 A 
ATOM     85  C   UNL A   1      44.298  26.038  34.851  1.00  0.00     0.148 A 
ATOM     86  C   UNL A   1      46.745  27.414  34.949  1.00  0.00     0.002 A 
ATOM     87  C   UNL A   1      45.354  25.536  35.600  1.00  0.00     0.091 A 
ATOM     88  F   UNL A   1      43.127  25.391  34.759  1.00  0.00    -0.205 F 
ATOM     89  C   UNL A   1      46.583  26.215  35.639  1.00  0.00     0.022 A 
BRANCH  87  90
ATOM     90  S   UNL A   1      45.205  24.053  36.602  1.00  0.00     0.127 S 
ATOM     91  O   UNL A   1      46.606  23.686  36.801  1.00  0.00    -0.237 OA
ATOM     92  O   UNL A   1      44.529  24.554  37.798  1.00  0.00    -0.237 OA
ATOM     93  O   UNL A   1      44.420  23.111  35.814  1.00  0.00    -0.744 OA
ENDBRANCH  87  90
ENDBRANCH  60  83
ENDBRANCH  34  35
ENDBRANCH  26  29
ENDBRANCH  24  25
ENDBRANCH  23  24
ENDBRANCH  22  23
ENDBRANCH   1  22
TORSDOF 21
ENDMDL
