MODEL 1
REMARK VINA RESULT:     -11.9      0.000      0.000
REMARK SMILES Cc1c(Cl)cc2c(c1C)O[C@H](C(F)(F)F)C(C(=O)NCCCCCCNC(=O)c1ccc(-c3c4nc(c(-c5cccc(S(=O)(=O)[O-])c5F)c5ccc([nH]5)c(-c5cccc(S(=O)(=O)[O-])c5F)c5nc(c(-c6cccc(S(=O)(=O)[O-])c6F)c6ccc3[nH]6)C=C5)C=C4)cc1)=C2
REMARK SMILES IDX 23 1 22 2 21 3 20 4 19 5 17 6 18 7 16 9 1 10 2 11 3 12 8 13
REMARK SMILES IDX 4 14 5 15 7 16 9 17 6 18 10 19 92 20 11 21 12 22 13 23 14 24
REMARK SMILES IDX 15 25 24 26 25 27 26 28 27 29 28 31 29 32 30 33 91 34 31 35
REMARK SMILES IDX 90 36 32 37 33 38 34 39 84 40 35 41 89 42 83 43 85 44 36 45
REMARK SMILES IDX 88 46 82 47 81 48 37 50 69 51 49 52 68 53 50 54 53 55 67 56
REMARK SMILES IDX 86 57 51 58 52 59 66 61 87 62 54 63 38 64 39 65 47 66 40 67
REMARK SMILES IDX 42 68 48 69 41 70 43 71 44 72 45 73 46 74 70 75 71 76 79 77
REMARK SMILES IDX 72 78 74 79 80 80 73 81 75 82 76 83 77 84 78 85 55 86 56 87
REMARK SMILES IDX 64 88 57 89 59 90 65 91 58 92 60 93 61 94 62 95 63 96
REMARK H PARENT 19 8 26 30 85 49 53 60
REMARK Flexibility Score: inf
ROOT
ATOM      1  C   UNL A   1      35.168  21.567  26.292  1.00  0.00     0.002 C 
ENDROOT
BRANCH   1   2
ATOM      2  C   UNL A   1      34.678  20.832  25.037  1.00  0.00     0.002 C 
BRANCH   2   3
ATOM      3  C   UNL A   1      33.164  20.624  24.962  1.00  0.00     0.021 C 
BRANCH   3   4
ATOM      4  C   UNL A   1      32.412  21.835  24.418  1.00  0.00     0.116 C 
BRANCH   4   5
ATOM      5  N   UNL A   1      33.037  22.365  23.217  1.00  0.00    -0.352 N 
ATOM      6  C   UNL A   1      33.254  23.583  22.668  1.00  0.00     0.251 C 
ATOM      7  O   UNL A   1      33.885  23.581  21.604  1.00  0.00    -0.270 OA
ATOM      8  H   UNL A   1      33.399  21.645  22.651  1.00  0.00     0.163 HD
BRANCH   6   9
ATOM      9  C   UNL A   1      32.792  24.881  23.246  1.00  0.00     0.067 C 
ATOM     10  C   UNL A   1      32.048  30.567  26.399  1.00  0.00     0.046 C 
ATOM     11  C   UNL A   1      32.455  29.230  25.834  1.00  0.00    -0.026 A 
ATOM     12  C   UNL A   1      33.585  28.535  26.314  1.00  0.00     0.045 A 
ATOM     13  C   UNL A   1      31.727  28.667  24.760  1.00  0.00    -0.004 A 
ATOM     14  Cl  UNL A   1      34.589  29.167  27.574  1.00  0.00    -0.084 Cl
ATOM     15  C   UNL A   1      33.963  27.298  25.776  1.00  0.00     0.032 A 
ATOM     16  C   UNL A   1      32.115  27.414  24.250  1.00  0.00     0.131 A 
ATOM     17  C   UNL A   1      30.527  29.338  24.133  1.00  0.00     0.049 C 
ATOM     18  C   UNL A   1      33.224  26.729  24.742  1.00  0.00     0.019 A 
ATOM     19  O   UNL A   1      31.376  26.932  23.209  1.00  0.00    -0.475 OA
ATOM     20  C   UNL A   1      33.620  25.462  24.134  1.00  0.00     0.025 C 
ATOM     21  C   UNL A   1      31.476  25.520  22.916  1.00  0.00     0.314 C 
BRANCH  21  22
ATOM     22  C   UNL A   1      30.283  24.783  23.552  1.00  0.00     0.429 C 
ATOM     23  F   UNL A   1      29.185  25.576  23.567  1.00  0.00    -0.167 F 
ATOM     24  F   UNL A   1      29.941  23.665  22.869  1.00  0.00    -0.167 F 
ATOM     25  F   UNL A   1      30.534  24.402  24.825  1.00  0.00    -0.167 F 
ENDBRANCH  21  22
ENDBRANCH   6   9
ENDBRANCH   4   5
ENDBRANCH   3   4
ENDBRANCH   2   3
ENDBRANCH   1   2
BRANCH   1  26
ATOM     26  C   UNL A   1      35.236  23.094  26.172  1.00  0.00     0.021 C 
BRANCH  26  27
ATOM     27  C   UNL A   1      36.634  23.648  25.913  1.00  0.00     0.116 C 
BRANCH  27  28
ATOM     28  N   UNL A   1      37.658  22.633  26.114  1.00  0.00    -0.352 N 
ATOM     29  C   UNL A   1      38.978  22.788  26.439  1.00  0.00     0.251 C 
ATOM     30  H   UNL A   1      37.357  21.702  26.001  1.00  0.00     0.163 HD
ATOM     31  O   UNL A   1      39.749  21.832  26.346  1.00  0.00    -0.269 OA
BRANCH  29  32
ATOM     32  C   UNL A   1      39.475  24.099  26.897  1.00  0.00     0.039 A 
ATOM     33  C   UNL A   1      40.054  24.968  25.968  1.00  0.00     0.014 A 
ATOM     34  C   UNL A   1      39.391  24.460  28.245  1.00  0.00     0.014 A 
ATOM     35  C   UNL A   1      40.508  26.220  26.383  1.00  0.00     0.010 A 
ATOM     36  C   UNL A   1      39.787  25.732  28.646  1.00  0.00     0.010 A 
ATOM     37  C   UNL A   1      40.355  26.620  27.720  1.00  0.00    -0.014 A 
BRANCH  37  38
ATOM     38  C   UNL A   1      40.774  27.966  28.179  1.00  0.00     0.031 A 
ATOM     39  C   UNL A   1      42.232  28.325  28.230  1.00  0.00     0.074 A 
ATOM     40  C   UNL A   1      39.842  28.828  28.633  1.00  0.00     0.049 A 
ATOM     41  N   UNL A   1      42.798  29.407  28.696  1.00  0.00    -0.248 NA
ATOM     42  C   UNL A   1      43.181  27.328  27.705  1.00  0.00     0.031 C 
ATOM     43  C   UNL A   1      38.403  28.568  28.674  1.00  0.00     0.029 A 
ATOM     44  N   UNL A   1      39.970  30.082  29.172  1.00  0.00    -0.354 N 
ATOM     45  C   UNL A   1      44.167  29.213  28.547  1.00  0.00     0.074 A 
ATOM     46  C   UNL A   1      44.348  27.896  27.977  1.00  0.00     0.031 C 
ATOM     47  C   UNL A   1      37.780  29.631  29.208  1.00  0.00     0.029 A 
ATOM     48  C   UNL A   1      38.776  30.630  29.582  1.00  0.00     0.049 A 
ATOM     49  H   UNL A   1      40.835  30.547  29.259  1.00  0.00     0.167 HD
ATOM     50  C   UNL A   1      45.177  30.068  28.833  1.00  0.00     0.034 A 
ATOM     51  C   UNL A   1      38.516  31.799  30.197  1.00  0.00     0.034 A 
ATOM     52  C   UNL A   1      44.983  31.386  29.374  1.00  0.00     0.049 A 
ATOM     53  C   UNL A   1      39.656  32.735  30.493  1.00  0.00     0.074 A 
ATOM     54  C   UNL A   1      45.938  32.346  29.660  1.00  0.00     0.029 A 
ATOM     55  N   UNL A   1      43.754  31.935  29.709  1.00  0.00    -0.354 N 
ATOM     56  N   UNL A   1      40.936  32.579  30.250  1.00  0.00    -0.248 NA
ATOM     57  C   UNL A   1      39.316  34.022  31.115  1.00  0.00     0.031 C 
ATOM     58  C   UNL A   1      45.288  33.466  30.187  1.00  0.00     0.029 A 
ATOM     59  C   UNL A   1      43.925  33.219  30.197  1.00  0.00     0.049 A 
ATOM     60  H   UNL A   1      42.887  31.478  29.614  1.00  0.00     0.167 HD
ATOM     61  C   UNL A   1      41.548  33.762  30.648  1.00  0.00     0.074 A 
ATOM     62  C   UNL A   1      40.495  34.631  31.132  1.00  0.00     0.031 C 
ATOM     63  C   UNL A   1      42.862  34.094  30.625  1.00  0.00     0.034 A 
BRANCH  50  64
ATOM     64  C   UNL A   1      46.584  29.632  28.513  1.00  0.00     0.023 A 
ATOM     65  C   UNL A   1      47.158  29.997  27.279  1.00  0.00     0.012 A 
ATOM     66  C   UNL A   1      47.368  28.945  29.461  1.00  0.00     0.148 A 
ATOM     67  C   UNL A   1      48.481  29.668  26.982  1.00  0.00     0.002 A 
ATOM     68  C   UNL A   1      48.699  28.663  29.179  1.00  0.00     0.091 A 
ATOM     69  F   UNL A   1      46.799  28.585  30.621  1.00  0.00    -0.205 F 
ATOM     70  C   UNL A   1      49.253  29.014  27.937  1.00  0.00     0.022 A 
BRANCH  68  71
ATOM     71  S   UNL A   1      49.808  27.903  30.372  1.00  0.00     0.127 S 
ATOM     72  O   UNL A   1      49.590  28.740  31.552  1.00  0.00    -0.237 OA
ATOM     73  O   UNL A   1      49.265  26.549  30.477  1.00  0.00    -0.237 OA
ATOM     74  O   UNL A   1      51.141  27.984  29.793  1.00  0.00    -0.744 OA
ENDBRANCH  68  71
ENDBRANCH  50  64
BRANCH  51  75
ATOM     75  C   UNL A   1      37.105  32.180  30.493  1.00  0.00     0.023 A 
ATOM     76  C   UNL A   1      36.589  31.958  31.784  1.00  0.00     0.012 A 
ATOM     77  C   UNL A   1      36.295  32.814  29.531  1.00  0.00     0.148 A 
ATOM     78  C   UNL A   1      35.286  32.338  32.107  1.00  0.00     0.002 A 
ATOM     79  C   UNL A   1      35.019  33.244  29.875  1.00  0.00     0.091 A 
ATOM     80  F   UNL A   1      36.801  33.007  28.303  1.00  0.00    -0.205 F 
ATOM     81  C   UNL A   1      34.506  32.993  31.157  1.00  0.00     0.022 A 
BRANCH  79  82
ATOM     82  S   UNL A   1      33.998  34.225  28.768  1.00  0.00     0.127 S 
ATOM     83  O   UNL A   1      32.893  34.610  29.642  1.00  0.00    -0.237 OA
ATOM     84  O   UNL A   1      34.907  35.312  28.406  1.00  0.00    -0.237 OA
ATOM     85  O   UNL A   1      33.650  33.339  27.664  1.00  0.00    -0.744 OA
ENDBRANCH  79  82
ENDBRANCH  51  75
BRANCH  63  86
ATOM     86  C   UNL A   1      43.247  35.472  31.098  1.00  0.00     0.023 A 
ATOM     87  C   UNL A   1      43.537  35.694  32.458  1.00  0.00     0.012 A 
ATOM     88  C   UNL A   1      43.406  36.527  30.177  1.00  0.00     0.148 A 
ATOM     89  C   UNL A   1      43.944  36.953  32.900  1.00  0.00     0.002 A 
ATOM     90  C   UNL A   1      43.865  37.763  30.616  1.00  0.00     0.091 A 
ATOM     91  F   UNL A   1      43.107  36.304  28.888  1.00  0.00    -0.205 F 
ATOM     92  C   UNL A   1      44.120  37.982  31.979  1.00  0.00     0.022 A 
BRANCH  90  93
ATOM     93  S   UNL A   1      44.225  39.111  29.484  1.00  0.00     0.127 S 
ATOM     94  O   UNL A   1      42.900  39.411  28.946  1.00  0.00    -0.237 OA
ATOM     95  O   UNL A   1      44.766  40.135  30.380  1.00  0.00    -0.237 OA
ATOM     96  O   UNL A   1      45.187  38.582  28.525  1.00  0.00    -0.744 OA
ENDBRANCH  90  93
ENDBRANCH  63  86
ENDBRANCH  37  38
ENDBRANCH  29  32
ENDBRANCH  27  28
ENDBRANCH  26  27
ENDBRANCH   1  26
TORSDOF 17
ENDMDL
MODEL 2
REMARK VINA RESULT:     -11.7      1.845      2.213
REMARK SMILES Cc1c(Cl)cc2c(c1C)O[C@H](C(F)(F)F)C(C(=O)NCCCCCCNC(=O)c1ccc(-c3c4nc(c(-c5cccc(S(=O)(=O)[O-])c5F)c5ccc([nH]5)c(-c5cccc(S(=O)(=O)[O-])c5F)c5nc(c(-c6cccc(S(=O)(=O)[O-])c6F)c6ccc3[nH]6)C=C5)C=C4)cc1)=C2
REMARK SMILES IDX 23 1 22 2 21 3 20 4 19 5 17 6 18 7 16 9 1 10 2 11 3 12 8 13
REMARK SMILES IDX 4 14 5 15 7 16 9 17 6 18 10 19 92 20 11 21 12 22 13 23 14 24
REMARK SMILES IDX 15 25 24 26 25 27 26 28 27 29 28 31 29 32 30 33 91 34 31 35
REMARK SMILES IDX 90 36 32 37 33 38 34 39 84 40 35 41 89 42 83 43 85 44 36 45
REMARK SMILES IDX 88 46 82 47 81 48 37 50 69 51 49 52 68 53 50 54 53 55 67 56
REMARK SMILES IDX 86 57 51 58 52 59 66 61 87 62 54 63 38 64 39 65 47 66 40 67
REMARK SMILES IDX 42 68 48 69 41 70 43 71 44 72 45 73 46 74 70 75 71 76 79 77
REMARK SMILES IDX 72 78 74 79 80 80 73 81 75 82 76 83 77 84 78 85 55 86 56 87
REMARK SMILES IDX 64 88 57 89 59 90 65 91 58 92 60 93 61 94 62 95 63 96
REMARK H PARENT 19 8 26 30 85 49 53 60
REMARK Flexibility Score: inf
ROOT
ATOM      1  C   UNL A   1      35.204  21.576  26.165  1.00  0.00     0.002 C 
ENDROOT
BRANCH   1   2
ATOM      2  C   UNL A   1      34.591  20.921  24.919  1.00  0.00     0.002 C 
BRANCH   2   3
ATOM      3  C   UNL A   1      33.070  20.770  24.953  1.00  0.00     0.021 C 
BRANCH   3   4
ATOM      4  C   UNL A   1      32.326  21.989  24.416  1.00  0.00     0.116 C 
BRANCH   4   5
ATOM      5  N   UNL A   1      32.959  22.524  23.220  1.00  0.00    -0.352 N 
ATOM      6  C   UNL A   1      33.190  23.746  22.685  1.00  0.00     0.251 C 
ATOM      7  O   UNL A   1      33.821  23.747  21.622  1.00  0.00    -0.270 OA
ATOM      8  H   UNL A   1      33.313  21.806  22.647  1.00  0.00     0.163 HD
BRANCH   6   9
ATOM      9  C   UNL A   1      32.742  25.042  23.275  1.00  0.00     0.067 C 
ATOM     10  C   UNL A   1      32.063  30.707  26.481  1.00  0.00     0.046 C 
ATOM     11  C   UNL A   1      32.455  29.371  25.903  1.00  0.00    -0.026 A 
ATOM     12  C   UNL A   1      33.580  28.661  26.373  1.00  0.00     0.045 A 
ATOM     13  C   UNL A   1      31.719  28.825  24.827  1.00  0.00    -0.004 A 
ATOM     14  Cl  UNL A   1      34.595  29.273  27.635  1.00  0.00    -0.084 Cl
ATOM     15  C   UNL A   1      33.944  27.426  25.823  1.00  0.00     0.032 A 
ATOM     16  C   UNL A   1      32.093  27.573  24.305  1.00  0.00     0.131 A 
ATOM     17  C   UNL A   1      30.523  29.512  24.210  1.00  0.00     0.049 C 
ATOM     18  C   UNL A   1      33.197  26.873  24.787  1.00  0.00     0.019 A 
ATOM     19  O   UNL A   1      31.346  27.107  23.262  1.00  0.00    -0.475 OA
ATOM     20  C   UNL A   1      33.579  25.608  24.165  1.00  0.00     0.025 C 
ATOM     21  C   UNL A   1      31.431  25.697  22.956  1.00  0.00     0.314 C 
BRANCH  21  22
ATOM     22  C   UNL A   1      30.234  24.965  23.589  1.00  0.00     0.429 C 
ATOM     23  F   UNL A   1      30.488  24.666  24.885  1.00  0.00    -0.167 F 
ATOM     24  F   UNL A   1      29.105  25.714  23.581  1.00  0.00    -0.167 F 
ATOM     25  F   UNL A   1      29.941  23.810  22.950  1.00  0.00    -0.167 F 
ENDBRANCH  21  22
ENDBRANCH   6   9
ENDBRANCH   4   5
ENDBRANCH   3   4
ENDBRANCH   2   3
ENDBRANCH   1   2
BRANCH   1  26
ATOM     26  C   UNL A   1      35.259  23.107  26.141  1.00  0.00     0.021 C 
BRANCH  26  27
ATOM     27  C   UNL A   1      36.650  23.689  25.905  1.00  0.00     0.116 C 
BRANCH  27  28
ATOM     28  N   UNL A   1      37.681  22.667  26.000  1.00  0.00    -0.352 N 
ATOM     29  C   UNL A   1      39.007  22.801  26.309  1.00  0.00     0.251 C 
ATOM     30  H   UNL A   1      37.380  21.747  25.816  1.00  0.00     0.163 HD
ATOM     31  O   UNL A   1      39.779  21.859  26.121  1.00  0.00    -0.269 OA
BRANCH  29  32
ATOM     32  C   UNL A   1      39.510  24.072  26.862  1.00  0.00     0.039 A 
ATOM     33  C   UNL A   1      40.064  25.018  25.996  1.00  0.00     0.014 A 
ATOM     34  C   UNL A   1      39.455  24.320  28.237  1.00  0.00     0.014 A 
ATOM     35  C   UNL A   1      40.523  26.234  26.502  1.00  0.00     0.010 A 
ATOM     36  C   UNL A   1      39.856  25.556  28.733  1.00  0.00     0.010 A 
ATOM     37  C   UNL A   1      40.399  26.521  27.871  1.00  0.00    -0.014 A 
BRANCH  37  38
ATOM     38  C   UNL A   1      40.824  27.827  28.431  1.00  0.00     0.031 A 
ATOM     39  C   UNL A   1      42.283  28.117  28.641  1.00  0.00     0.074 A 
ATOM     40  C   UNL A   1      39.887  28.709  28.831  1.00  0.00     0.049 A 
ATOM     41  N   UNL A   1      42.842  29.152  29.211  1.00  0.00    -0.248 NA
ATOM     42  C   UNL A   1      43.239  27.102  28.168  1.00  0.00     0.031 C 
ATOM     43  C   UNL A   1      38.441  28.512  28.718  1.00  0.00     0.029 A 
ATOM     44  N   UNL A   1      40.010  29.933  29.437  1.00  0.00    -0.354 N 
ATOM     45  C   UNL A   1      44.210  28.904  29.189  1.00  0.00     0.074 A 
ATOM     46  C   UNL A   1      44.394  27.606  28.579  1.00  0.00     0.031 C 
ATOM     47  C   UNL A   1      37.811  29.578  29.236  1.00  0.00     0.029 A 
ATOM     48  C   UNL A   1      38.804  30.515  29.752  1.00  0.00     0.049 A 
ATOM     49  H   UNL A   1      40.880  30.355  29.630  1.00  0.00     0.167 HD
ATOM     50  C   UNL A   1      45.220  29.701  29.612  1.00  0.00     0.034 A 
ATOM     51  C   UNL A   1      38.530  31.668  30.391  1.00  0.00     0.034 A 
ATOM     52  C   UNL A   1      45.026  31.003  30.191  1.00  0.00     0.049 A 
ATOM     53  C   UNL A   1      39.672  32.539  30.842  1.00  0.00     0.074 A 
ATOM     54  C   UNL A   1      45.985  31.907  30.614  1.00  0.00     0.029 A 
ATOM     55  N   UNL A   1      43.792  31.591  30.428  1.00  0.00    -0.354 N 
ATOM     56  N   UNL A   1      40.962  32.337  30.719  1.00  0.00    -0.248 NA
ATOM     57  C   UNL A   1      39.323  33.813  31.486  1.00  0.00     0.031 C 
ATOM     58  C   UNL A   1      45.331  33.031  31.125  1.00  0.00     0.029 A 
ATOM     59  C   UNL A   1      43.965  32.844  30.989  1.00  0.00     0.049 A 
ATOM     60  H   UNL A   1      42.922  31.177  30.227  1.00  0.00     0.167 HD
ATOM     61  C   UNL A   1      41.578  33.473  31.228  1.00  0.00     0.074 A 
ATOM     62  C   UNL A   1      40.518  34.368  31.647  1.00  0.00     0.031 C 
ATOM     63  C   UNL A   1      42.901  33.747  31.351  1.00  0.00     0.034 A 
BRANCH  50  64
ATOM     64  C   UNL A   1      46.633  29.216  29.412  1.00  0.00     0.023 A 
ATOM     65  C   UNL A   1      47.281  28.523  30.454  1.00  0.00     0.012 A 
ATOM     66  C   UNL A   1      47.286  29.364  28.172  1.00  0.00     0.148 A 
ATOM     67  C   UNL A   1      48.563  28.003  30.276  1.00  0.00     0.002 A 
ATOM     68  C   UNL A   1      48.544  28.801  27.985  1.00  0.00     0.091 A 
ATOM     69  F   UNL A   1      46.665  30.046  27.200  1.00  0.00    -0.205 F 
ATOM     70  C   UNL A   1      49.187  28.131  29.038  1.00  0.00     0.022 A 
BRANCH  68  71
ATOM     71  S   UNL A   1      49.398  28.830  26.404  1.00  0.00     0.127 S 
ATOM     72  O   UNL A   1      49.898  30.204  26.364  1.00  0.00    -0.237 OA
ATOM     73  O   UNL A   1      50.430  27.811  26.595  1.00  0.00    -0.237 OA
ATOM     74  O   UNL A   1      48.396  28.505  25.399  1.00  0.00    -0.744 OA
ENDBRANCH  68  71
ENDBRANCH  50  64
BRANCH  51  75
ATOM     75  C   UNL A   1      37.113  32.099  30.564  1.00  0.00     0.023 A 
ATOM     76  C   UNL A   1      36.490  31.929  31.815  1.00  0.00     0.012 A 
ATOM     77  C   UNL A   1      36.403  32.729  29.525  1.00  0.00     0.148 A 
ATOM     78  C   UNL A   1      35.179  32.356  32.023  1.00  0.00     0.002 A 
ATOM     79  C   UNL A   1      35.117  33.207  29.756  1.00  0.00     0.091 A 
ATOM     80  F   UNL A   1      37.009  32.873  28.337  1.00  0.00    -0.205 F 
ATOM     81  C   UNL A   1      34.497  33.007  30.998  1.00  0.00     0.022 A 
BRANCH  79  82
ATOM     82  S   UNL A   1      34.219  34.186  28.546  1.00  0.00     0.127 S 
ATOM     83  O   UNL A   1      34.215  33.298  27.386  1.00  0.00    -0.237 OA
ATOM     84  O   UNL A   1      32.921  34.353  29.200  1.00  0.00    -0.237 OA
ATOM     85  O   UNL A   1      34.978  35.420  28.393  1.00  0.00    -0.744 OA
ENDBRANCH  79  82
ENDBRANCH  51  75
BRANCH  63  86
ATOM     86  C   UNL A   1      43.291  35.086  31.922  1.00  0.00     0.023 A 
ATOM     87  C   UNL A   1      43.584  36.161  31.060  1.00  0.00     0.012 A 
ATOM     88  C   UNL A   1      43.282  35.301  33.315  1.00  0.00     0.148 A 
ATOM     89  C   UNL A   1      43.897  37.418  31.575  1.00  0.00     0.002 A 
ATOM     90  C   UNL A   1      43.541  36.570  33.818  1.00  0.00     0.091 A 
ATOM     91  F   UNL A   1      43.020  34.263  34.122  1.00  0.00    -0.205 F 
ATOM     92  C   UNL A   1      43.863  37.627  32.951  1.00  0.00     0.022 A 
BRANCH  90  93
ATOM     93  S   UNL A   1      43.410  36.953  35.569  1.00  0.00     0.127 S 
ATOM     94  O   UNL A   1      44.415  36.062  36.145  1.00  0.00    -0.237 OA
ATOM     95  O   UNL A   1      43.762  38.374  35.604  1.00  0.00    -0.237 OA
ATOM     96  O   UNL A   1      42.030  36.666  35.939  1.00  0.00    -0.744 OA
ENDBRANCH  90  93
ENDBRANCH  63  86
ENDBRANCH  37  38
ENDBRANCH  29  32
ENDBRANCH  27  28
ENDBRANCH  26  27
ENDBRANCH   1  26
TORSDOF 17
ENDMDL
MODEL 3
REMARK VINA RESULT:     -11.6      4.239      9.436
REMARK SMILES Cc1c(Cl)cc2c(c1C)O[C@H](C(F)(F)F)C(C(=O)NCCCCCCNC(=O)c1ccc(-c3c4nc(c(-c5cccc(S(=O)(=O)[O-])c5F)c5ccc([nH]5)c(-c5cccc(S(=O)(=O)[O-])c5F)c5nc(c(-c6cccc(S(=O)(=O)[O-])c6F)c6ccc3[nH]6)C=C5)C=C4)cc1)=C2
REMARK SMILES IDX 23 1 22 2 21 3 20 4 19 5 17 6 18 7 16 9 1 10 2 11 3 12 8 13
REMARK SMILES IDX 4 14 5 15 7 16 9 17 6 18 10 19 92 20 11 21 12 22 13 23 14 24
REMARK SMILES IDX 15 25 24 26 25 27 26 28 27 29 28 31 29 32 30 33 91 34 31 35
REMARK SMILES IDX 90 36 32 37 33 38 34 39 84 40 35 41 89 42 83 43 85 44 36 45
REMARK SMILES IDX 88 46 82 47 81 48 37 50 69 51 49 52 68 53 50 54 53 55 67 56
REMARK SMILES IDX 86 57 51 58 52 59 66 61 87 62 54 63 38 64 39 65 47 66 40 67
REMARK SMILES IDX 42 68 48 69 41 70 43 71 44 72 45 73 46 74 70 75 71 76 79 77
REMARK SMILES IDX 72 78 74 79 80 80 73 81 75 82 76 83 77 84 78 85 55 86 56 87
REMARK SMILES IDX 64 88 57 89 59 90 65 91 58 92 60 93 61 94 62 95 63 96
REMARK H PARENT 19 8 26 30 85 49 53 60
REMARK Flexibility Score: inf
ROOT
ATOM      1  C   UNL A   1      33.329  29.293  24.172  1.00  0.00     0.002 C 
ENDROOT
BRANCH   1   2
ATOM      2  C   UNL A   1      32.339  28.624  23.208  1.00  0.00     0.002 C 
BRANCH   2   3
ATOM      3  C   UNL A   1      32.230  27.105  23.349  1.00  0.00     0.021 C 
BRANCH   3   4
ATOM      4  C   UNL A   1      30.790  26.605  23.419  1.00  0.00     0.116 C 
BRANCH   4   5
ATOM      5  N   UNL A   1      30.425  26.196  24.766  1.00  0.00    -0.352 N 
ATOM      6  C   UNL A   1      30.830  25.265  25.663  1.00  0.00     0.251 C 
ATOM      7  O   UNL A   1      30.245  25.289  26.751  1.00  0.00    -0.270 OA
ATOM      8  H   UNL A   1      29.686  26.741  25.121  1.00  0.00     0.163 HD
BRANCH   6   9
ATOM      9  C   UNL A   1      31.897  24.248  25.423  1.00  0.00     0.067 C 
ATOM     10  C   UNL A   1      37.408  20.741  25.030  1.00  0.00     0.046 C 
ATOM     11  C   UNL A   1      36.312  21.760  25.206  1.00  0.00    -0.026 A 
ATOM     12  C   UNL A   1      36.590  23.089  25.590  1.00  0.00     0.045 A 
ATOM     13  C   UNL A   1      34.961  21.379  25.038  1.00  0.00    -0.004 A 
ATOM     14  Cl  UNL A   1      38.202  23.642  25.894  1.00  0.00    -0.084 Cl
ATOM     15  C   UNL A   1      35.565  24.027  25.762  1.00  0.00     0.032 A 
ATOM     16  C   UNL A   1      33.950  22.346  25.197  1.00  0.00     0.131 A 
ATOM     17  C   UNL A   1      34.536  19.976  24.671  1.00  0.00     0.049 C 
ATOM     18  C   UNL A   1      34.237  23.660  25.561  1.00  0.00     0.019 A 
ATOM     19  O   UNL A   1      32.668  21.911  25.029  1.00  0.00    -0.475 OA
ATOM     20  C   UNL A   1      33.146  24.605  25.776  1.00  0.00     0.025 C 
ATOM     21  C   UNL A   1      31.648  22.909  24.796  1.00  0.00     0.314 C 
BRANCH  21  22
ATOM     22  C   UNL A   1      31.366  23.005  23.286  1.00  0.00     0.429 C 
ATOM     23  F   UNL A   1      30.114  23.471  23.063  1.00  0.00    -0.167 F 
ATOM     24  F   UNL A   1      32.211  23.853  22.653  1.00  0.00    -0.167 F 
ATOM     25  F   UNL A   1      31.476  21.808  22.665  1.00  0.00    -0.167 F 
ENDBRANCH  21  22
ENDBRANCH   6   9
ENDBRANCH   4   5
ENDBRANCH   3   4
ENDBRANCH   2   3
ENDBRANCH   1   2
BRANCH   1  26
ATOM     26  C   UNL A   1      33.945  28.367  25.226  1.00  0.00     0.021 C 
BRANCH  26  27
ATOM     27  C   UNL A   1      33.665  28.775  26.670  1.00  0.00     0.116 C 
BRANCH  27  28
ATOM     28  N   UNL A   1      33.757  30.217  26.846  1.00  0.00    -0.352 N 
ATOM     29  C   UNL A   1      34.663  30.944  27.569  1.00  0.00     0.251 C 
ATOM     30  H   UNL A   1      33.069  30.743  26.378  1.00  0.00     0.163 HD
ATOM     31  O   UNL A   1      34.454  32.138  27.790  1.00  0.00    -0.269 OA
BRANCH  29  32
ATOM     32  C   UNL A   1      35.885  30.298  28.083  1.00  0.00     0.039 A 
ATOM     33  C   UNL A   1      37.023  30.256  27.272  1.00  0.00     0.014 A 
ATOM     34  C   UNL A   1      35.900  29.716  29.354  1.00  0.00     0.014 A 
ATOM     35  C   UNL A   1      38.193  29.668  27.755  1.00  0.00     0.010 A 
ATOM     36  C   UNL A   1      37.084  29.185  29.857  1.00  0.00     0.010 A 
ATOM     37  C   UNL A   1      38.238  29.151  29.059  1.00  0.00    -0.014 A 
BRANCH  37  38
ATOM     38  C   UNL A   1      39.483  28.573  29.621  1.00  0.00     0.031 A 
ATOM     39  C   UNL A   1      40.130  29.202  30.822  1.00  0.00     0.074 A 
ATOM     40  C   UNL A   1      40.072  27.537  28.991  1.00  0.00     0.049 A 
ATOM     41  N   UNL A   1      41.268  28.908  31.393  1.00  0.00    -0.248 NA
ATOM     42  C   UNL A   1      39.413  30.324  31.454  1.00  0.00     0.031 C 
ATOM     43  C   UNL A   1      39.558  26.877  27.791  1.00  0.00     0.029 A 
ATOM     44  N   UNL A   1      41.245  26.879  29.257  1.00  0.00    -0.354 N 
ATOM     45  C   UNL A   1      41.419  29.819  32.431  1.00  0.00     0.074 A 
ATOM     46  C   UNL A   1      40.271  30.699  32.392  1.00  0.00     0.031 C 
ATOM     47  C   UNL A   1      40.409  25.907  27.424  1.00  0.00     0.029 A 
ATOM     48  C   UNL A   1      41.547  25.900  28.338  1.00  0.00     0.049 A 
ATOM     49  H   UNL A   1      41.818  27.086  30.031  1.00  0.00     0.167 HD
ATOM     50  C   UNL A   1      42.410  29.897  33.351  1.00  0.00     0.034 A 
ATOM     51  C   UNL A   1      42.622  25.096  28.239  1.00  0.00     0.034 A 
ATOM     52  C   UNL A   1      43.533  28.999  33.397  1.00  0.00     0.049 A 
ATOM     53  C   UNL A   1      43.704  25.195  29.280  1.00  0.00     0.074 A 
ATOM     54  C   UNL A   1      44.569  28.966  34.314  1.00  0.00     0.029 A 
ATOM     55  N   UNL A   1      43.768  27.974  32.493  1.00  0.00    -0.354 N 
ATOM     56  N   UNL A   1      43.779  25.995  30.317  1.00  0.00    -0.248 NA
ATOM     57  C   UNL A   1      44.831  24.259  29.161  1.00  0.00     0.031 C 
ATOM     58  C   UNL A   1      45.440  27.936  33.951  1.00  0.00     0.029 A 
ATOM     59  C   UNL A   1      44.930  27.302  32.830  1.00  0.00     0.049 A 
ATOM     60  H   UNL A   1      43.193  27.756  31.725  1.00  0.00     0.167 HD
ATOM     61  C   UNL A   1      44.935  25.631  30.998  1.00  0.00     0.074 A 
ATOM     62  C   UNL A   1      45.519  24.527  30.263  1.00  0.00     0.031 C 
ATOM     63  C   UNL A   1      45.472  26.170  32.121  1.00  0.00     0.034 A 
BRANCH  50  64
ATOM     64  C   UNL A   1      42.300  30.951  34.422  1.00  0.00     0.023 A 
ATOM     65  C   UNL A   1      41.602  30.660  35.612  1.00  0.00     0.012 A 
ATOM     66  C   UNL A   1      42.959  32.190  34.296  1.00  0.00     0.148 A 
ATOM     67  C   UNL A   1      41.541  31.590  36.649  1.00  0.00     0.002 A 
ATOM     68  C   UNL A   1      42.936  33.093  35.353  1.00  0.00     0.091 A 
ATOM     69  F   UNL A   1      43.600  32.460  33.149  1.00  0.00    -0.205 F 
ATOM     70  C   UNL A   1      42.219  32.799  36.524  1.00  0.00     0.022 A 
BRANCH  68  71
ATOM     71  S   UNL A   1      43.849  34.641  35.331  1.00  0.00     0.127 S 
ATOM     72  O   UNL A   1      43.722  35.078  36.721  1.00  0.00    -0.237 OA
ATOM     73  O   UNL A   1      45.191  34.199  34.952  1.00  0.00    -0.237 OA
ATOM     74  O   UNL A   1      43.185  35.488  34.351  1.00  0.00    -0.744 OA
ENDBRANCH  68  71
ENDBRANCH  50  64
BRANCH  51  75
ATOM     75  C   UNL A   1      42.681  24.070  27.157  1.00  0.00     0.023 A 
ATOM     76  C   UNL A   1      43.377  24.363  25.969  1.00  0.00     0.012 A 
ATOM     77  C   UNL A   1      42.111  22.793  27.321  1.00  0.00     0.148 A 
ATOM     78  C   UNL A   1      43.485  23.414  24.953  1.00  0.00     0.002 A 
ATOM     79  C   UNL A   1      42.273  21.831  26.331  1.00  0.00     0.091 A 
ATOM     80  F   UNL A   1      41.443  22.537  28.455  1.00  0.00    -0.205 F 
ATOM     81  C   UNL A   1      42.945  22.144  25.139  1.00  0.00     0.022 A 
BRANCH  79  82
ATOM     82  S   UNL A   1      41.741  20.128  26.542  1.00  0.00     0.127 S 
ATOM     83  O   UNL A   1      40.293  20.278  26.653  1.00  0.00    -0.237 OA
ATOM     84  O   UNL A   1      42.205  19.513  25.298  1.00  0.00    -0.237 OA
ATOM     85  O   UNL A   1      42.419  19.648  27.739  1.00  0.00    -0.744 OA
ENDBRANCH  79  82
ENDBRANCH  51  75
BRANCH  63  86
ATOM     86  C   UNL A   1      46.736  25.552  32.662  1.00  0.00     0.023 A 
ATOM     87  C   UNL A   1      47.988  25.961  32.163  1.00  0.00     0.012 A 
ATOM     88  C   UNL A   1      46.684  24.630  33.727  1.00  0.00     0.148 A 
ATOM     89  C   UNL A   1      49.167  25.435  32.690  1.00  0.00     0.002 A 
ATOM     90  C   UNL A   1      47.864  24.153  34.284  1.00  0.00     0.091 A 
ATOM     91  F   UNL A   1      45.483  24.238  34.177  1.00  0.00    -0.205 F 
ATOM     92  C   UNL A   1      49.106  24.543  33.758  1.00  0.00     0.022 A 
BRANCH  90  93
ATOM     93  S   UNL A   1      47.881  23.088  35.730  1.00  0.00     0.127 S 
ATOM     94  O   UNL A   1      49.314  22.870  35.923  1.00  0.00    -0.237 OA
ATOM     95  O   UNL A   1      47.250  23.931  36.746  1.00  0.00    -0.237 OA
ATOM     96  O   UNL A   1      47.111  21.905  35.365  1.00  0.00    -0.744 OA
ENDBRANCH  90  93
ENDBRANCH  63  86
ENDBRANCH  37  38
ENDBRANCH  29  32
ENDBRANCH  27  28
ENDBRANCH  26  27
ENDBRANCH   1  26
TORSDOF 17
ENDMDL
