MODEL 1
REMARK VINA RESULT:     -13.2      0.000      0.000
REMARK SMILES O=C(NCCCCCCNC(=O)[C@H]1[C@H]2CC[C@H](CC2)[C@@H]1C(=O)Nc1sc2c(c1C(=O)N1CCCCC1)CCCC2)c1ccc(-c2c3nc(c(-c4cccc(S(=O)(=O)[O-])c4F)c4ccc([nH]4)c(-c4cccc(S(=O)(=O)[O-])c4F)c4nc(c(-c5cccc(S(=O)(=O)[O-])c5F)c5ccc2[nH]5)C=C4)C=C3)cc1
REMARK SMILES IDX 6 1 5 2 4 3 3 4 1 5 2 6 41 8 42 9 103 10 43 11 102 12 44 13
REMARK SMILES IDX 45 14 46 15 96 16 47 17 101 18 95 19 97 20 48 21 100 22
REMARK SMILES IDX 94 23 93 24 49 26 81 27 61 28 80 29 62 30 65 31 79 32 98 33
REMARK SMILES IDX 63 34 64 35 78 37 99 38 66 39 50 40 51 41 59 42 52 43 54 44
REMARK SMILES IDX 60 45 53 46 55 47 56 48 57 49 58 50 82 51 83 52 91 53 84 54
REMARK SMILES IDX 86 55 92 56 85 57 87 58 88 59 89 60 90 61 67 62 68 63 76 64
REMARK SMILES IDX 69 65 71 66 77 67 70 68 72 69 73 70 74 71 75 72 7 73 8 74
REMARK SMILES IDX 9 75 10 76 11 77 12 79 13 80 14 81 20 82 15 83 19 84 17 85
REMARK SMILES IDX 16 86 18 87 21 88 22 89 23 90 24 92 25 93 28 94 26 95 27 96
REMARK SMILES IDX 40 97 37 98 39 99 38 100 29 101 30 102 31 103 32 104 36 105
REMARK SMILES IDX 33 106 35 107 34 108
REMARK H PARENT 3 7 97 25 65 36 10 78 23 91
REMARK Flexibility Score: inf
ROOT
ATOM      1  C   UNL A   1      31.396  31.515  25.842  1.00  0.00     0.002 C 
ENDROOT
BRANCH   1   2
ATOM      2  C   UNL A   1      31.316  32.645  26.868  1.00  0.00     0.021 C 
BRANCH   2   3
ATOM      3  C   UNL A   1      32.658  33.152  27.381  1.00  0.00     0.116 C 
BRANCH   3   4
ATOM      4  N   UNL A   1      32.597  34.523  27.853  1.00  0.00    -0.352 N 
ATOM      5  O   UNL A   1      32.996  36.251  29.246  1.00  0.00    -0.269 OA
ATOM      6  C   UNL A   1      33.298  35.120  28.875  1.00  0.00     0.251 C 
ATOM      7  H   UNL A   1      31.964  35.108  27.376  1.00  0.00     0.163 HD
BRANCH   6   8
ATOM      8  C   UNL A   1      34.398  34.382  29.534  1.00  0.00     0.039 A 
ATOM      9  C   UNL A   1      34.136  33.557  30.630  1.00  0.00     0.014 A 
ATOM     10  C   UNL A   1      35.705  34.520  29.056  1.00  0.00     0.014 A 
ATOM     11  C   UNL A   1      35.192  32.994  31.336  1.00  0.00     0.010 A 
ATOM     12  C   UNL A   1      36.757  33.870  29.711  1.00  0.00     0.010 A 
ATOM     13  C   UNL A   1      36.513  33.125  30.874  1.00  0.00    -0.014 A 
BRANCH  13  14
ATOM     14  C   UNL A   1      37.588  32.380  31.580  1.00  0.00     0.031 A 
ATOM     15  C   UNL A   1      38.330  31.245  30.931  1.00  0.00     0.074 A 
ATOM     16  C   UNL A   1      37.915  32.777  32.827  1.00  0.00     0.049 A 
ATOM     17  N   UNL A   1      39.353  30.569  31.389  1.00  0.00    -0.248 NA
ATOM     18  C   UNL A   1      37.869  30.804  29.604  1.00  0.00     0.031 C 
ATOM     19  C   UNL A   1      37.218  33.822  33.582  1.00  0.00     0.029 A 
ATOM     20  N   UNL A   1      38.914  32.370  33.672  1.00  0.00    -0.354 N 
ATOM     21  C   UNL A   1      39.640  29.605  30.429  1.00  0.00     0.074 A 
ATOM     22  C   UNL A   1      38.675  29.777  29.363  1.00  0.00     0.031 C 
ATOM     23  C   UNL A   1      37.836  34.004  34.757  1.00  0.00     0.029 A 
ATOM     24  C   UNL A   1      38.938  33.057  34.863  1.00  0.00     0.049 A 
ATOM     25  H   UNL A   1      39.553  31.654  33.448  1.00  0.00     0.167 HD
ATOM     26  C   UNL A   1      40.629  28.678  30.429  1.00  0.00     0.034 A 
ATOM     27  C   UNL A   1      39.750  32.937  35.930  1.00  0.00     0.034 A 
ATOM     28  C   UNL A   1      41.598  28.529  31.485  1.00  0.00     0.049 A 
ATOM     29  C   UNL A   1      40.868  31.939  35.874  1.00  0.00     0.074 A 
ATOM     30  C   UNL A   1      42.660  27.643  31.561  1.00  0.00     0.029 A 
ATOM     31  N   UNL A   1      41.624  29.280  32.651  1.00  0.00    -0.354 N 
ATOM     32  N   UNL A   1      41.198  31.127  34.900  1.00  0.00    -0.248 NA
ATOM     33  C   UNL A   1      41.743  31.860  37.051  1.00  0.00     0.031 C 
ATOM     34  C   UNL A   1      43.322  27.853  32.775  1.00  0.00     0.029 A 
ATOM     35  C   UNL A   1      42.684  28.882  33.450  1.00  0.00     0.049 A 
ATOM     36  H   UNL A   1      40.983  29.991  32.878  1.00  0.00     0.167 HD
ATOM     37  C   UNL A   1      42.324  30.444  35.342  1.00  0.00     0.074 A 
ATOM     38  C   UNL A   1      42.647  30.975  36.651  1.00  0.00     0.031 C 
ATOM     39  C   UNL A   1      43.012  29.447  34.733  1.00  0.00     0.034 A 
BRANCH  26  40
ATOM     40  C   UNL A   1      40.754  27.781  29.224  1.00  0.00     0.023 A 
ATOM     41  C   UNL A   1      39.950  26.627  29.138  1.00  0.00     0.012 A 
ATOM     42  C   UNL A   1      41.593  28.119  28.143  1.00  0.00     0.148 A 
ATOM     43  C   UNL A   1      39.993  25.811  28.009  1.00  0.00     0.002 A 
ATOM     44  C   UNL A   1      41.603  27.321  27.004  1.00  0.00     0.091 A 
ATOM     45  F   UNL A   1      42.364  29.211  28.249  1.00  0.00    -0.205 F 
ATOM     46  C   UNL A   1      40.810  26.163  26.938  1.00  0.00     0.022 A 
BRANCH  44  47
ATOM     47  S   UNL A   1      42.565  27.726  25.540  1.00  0.00     0.127 S 
ATOM     48  O   UNL A   1      43.914  27.829  26.095  1.00  0.00    -0.237 OA
ATOM     49  O   UNL A   1      42.342  26.553  24.693  1.00  0.00    -0.237 OA
ATOM     50  O   UNL A   1      42.004  28.966  25.023  1.00  0.00    -0.744 OA
ENDBRANCH  44  47
ENDBRANCH  26  40
BRANCH  27  51
ATOM     51  C   UNL A   1      39.551  33.822  37.110  1.00  0.00     0.023 A 
ATOM     52  C   UNL A   1      39.963  35.166  37.056  1.00  0.00     0.012 A 
ATOM     53  C   UNL A   1      38.902  33.350  38.268  1.00  0.00     0.148 A 
ATOM     54  C   UNL A   1      39.752  36.018  38.141  1.00  0.00     0.002 A 
ATOM     55  C   UNL A   1      38.636  34.220  39.318  1.00  0.00     0.091 A 
ATOM     56  F   UNL A   1      38.535  32.060  38.313  1.00  0.00    -0.205 F 
ATOM     57  C   UNL A   1      39.076  35.549  39.265  1.00  0.00     0.022 A 
BRANCH  55  58
ATOM     58  S   UNL A   1      37.626  33.722  40.717  1.00  0.00     0.127 S 
ATOM     59  O   UNL A   1      36.454  33.157  40.055  1.00  0.00    -0.237 OA
ATOM     60  O   UNL A   1      38.486  32.745  41.388  1.00  0.00    -0.237 OA
ATOM     61  O   UNL A   1      37.409  34.942  41.482  1.00  0.00    -0.744 OA
ENDBRANCH  55  58
ENDBRANCH  27  51
BRANCH  39  62
ATOM     62  C   UNL A   1      44.182  28.870  35.482  1.00  0.00     0.023 A 
ATOM     63  C   UNL A   1      45.478  29.369  35.237  1.00  0.00     0.012 A 
ATOM     64  C   UNL A   1      44.000  27.861  36.447  1.00  0.00     0.148 A 
ATOM     65  C   UNL A   1      46.579  28.845  35.911  1.00  0.00     0.002 A 
ATOM     66  C   UNL A   1      45.097  27.375  37.148  1.00  0.00     0.091 A 
ATOM     67  F   UNL A   1      42.764  27.382  36.648  1.00  0.00    -0.205 F 
ATOM     68  C   UNL A   1      46.388  27.855  36.873  1.00  0.00     0.022 A 
BRANCH  66  69
ATOM     69  S   UNL A   1      44.925  26.161  38.460  1.00  0.00     0.127 S 
ATOM     70  O   UNL A   1      44.217  25.080  37.777  1.00  0.00    -0.237 OA
ATOM     71  O   UNL A   1      46.318  25.861  38.796  1.00  0.00    -0.237 OA
ATOM     72  O   UNL A   1      44.184  26.830  39.521  1.00  0.00    -0.744 OA
ENDBRANCH  66  69
ENDBRANCH  39  62
ENDBRANCH  13  14
ENDBRANCH   6   8
ENDBRANCH   3   4
ENDBRANCH   2   3
ENDBRANCH   1   2
BRANCH   1  73
ATOM     73  C   UNL A   1      31.741  30.129  26.401  1.00  0.00     0.002 C 
BRANCH  73  74
ATOM     74  C   UNL A   1      33.096  29.555  25.983  1.00  0.00     0.021 C 
BRANCH  74  75
ATOM     75  C   UNL A   1      33.645  28.454  26.887  1.00  0.00     0.116 C 
BRANCH  75  76
ATOM     76  N   UNL A   1      34.250  27.376  26.137  1.00  0.00    -0.356 N 
ATOM     77  C   UNL A   1      33.758  26.345  25.412  1.00  0.00     0.224 C 
ATOM     78  H   UNL A   1      35.234  27.398  26.158  1.00  0.00     0.163 HD
ATOM     79  O   UNL A   1      34.618  25.609  24.907  1.00  0.00    -0.275 OA
BRANCH  77  80
ATOM     80  C   UNL A   1      32.277  25.963  25.255  1.00  0.00     0.094 C 
ATOM     81  C   UNL A   1      31.530  26.953  24.318  1.00  0.00     0.002 C 
ATOM     82  C   UNL A   1      31.880  24.489  24.938  1.00  0.00     0.094 C 
ATOM     83  C   UNL A   1      31.809  26.641  22.842  1.00  0.00     0.005 C 
ATOM     84  C   UNL A   1      30.015  26.772  24.554  1.00  0.00     0.005 C 
ATOM     85  C   UNL A   1      30.828  24.524  23.776  1.00  0.00     0.002 C 
ATOM     86  C   UNL A   1      31.405  25.204  22.523  1.00  0.00     0.005 C 
ATOM     87  C   UNL A   1      29.597  25.337  24.216  1.00  0.00     0.005 C 
BRANCH  82  88
ATOM     88  C   UNL A   1      31.331  23.754  26.192  1.00  0.00     0.229 C 
ATOM     89  O   UNL A   1      30.248  24.068  26.697  1.00  0.00    -0.274 OA
ATOM     90  N   UNL A   1      31.988  22.689  26.751  1.00  0.00    -0.317 N 
ATOM     91  H   UNL A   1      31.485  22.191  27.435  1.00  0.00     0.170 HD
BRANCH  90  92
ATOM     92  C   UNL A   1      33.257  22.217  26.486  1.00  0.00     0.108 A 
ATOM     93  S   UNL A   1      34.581  23.043  27.149  1.00  0.00    -0.122 S 
ATOM     94  C   UNL A   1      33.605  21.075  25.768  1.00  0.00     0.078 A 
ATOM     95  C   UNL A   1      35.661  22.134  26.220  1.00  0.00     0.011 A 
ATOM     96  C   UNL A   1      35.053  21.061  25.585  1.00  0.00    -0.019 A 
ATOM     97  C   UNL A   1      37.112  22.498  26.137  1.00  0.00     0.047 C 
ATOM     98  C   UNL A   1      35.874  20.125  24.745  1.00  0.00     0.037 C 
ATOM     99  C   UNL A   1      37.746  21.839  24.907  1.00  0.00     0.006 C 
ATOM    100  C   UNL A   1      37.390  20.356  24.852  1.00  0.00     0.005 C 
BRANCH  94 101
ATOM    101  C   UNL A   1      32.550  20.220  25.177  1.00  0.00     0.257 C 
ATOM    102  O   UNL A   1      31.444  20.675  24.877  1.00  0.00    -0.269 OA
ATOM    103  N   UNL A   1      32.891  18.916  24.830  1.00  0.00    -0.339 N 
ATOM    104  C   UNL A   1      32.529  18.487  23.486  1.00  0.00     0.120 C 
ATOM    105  C   UNL A   1      32.756  17.870  25.837  1.00  0.00     0.120 C 
ATOM    106  C   UNL A   1      33.409  17.325  23.045  1.00  0.00     0.022 C 
ATOM    107  C   UNL A   1      33.596  16.643  25.475  1.00  0.00     0.022 C 
ATOM    108  C   UNL A   1      33.338  16.170  24.044  1.00  0.00     0.004 C 
ENDBRANCH  94 101
ENDBRANCH  90  92
ENDBRANCH  82  88
ENDBRANCH  77  80
ENDBRANCH  75  76
ENDBRANCH  74  75
ENDBRANCH  73  74
ENDBRANCH   1  73
TORSDOF 19
ENDMDL
MODEL 2
REMARK VINA RESULT:     -12.7      1.066      7.291
REMARK SMILES O=C(NCCCCCCNC(=O)[C@H]1[C@H]2CC[C@H](CC2)[C@@H]1C(=O)Nc1sc2c(c1C(=O)N1CCCCC1)CCCC2)c1ccc(-c2c3nc(c(-c4cccc(S(=O)(=O)[O-])c4F)c4ccc([nH]4)c(-c4cccc(S(=O)(=O)[O-])c4F)c4nc(c(-c5cccc(S(=O)(=O)[O-])c5F)c5ccc2[nH]5)C=C4)C=C3)cc1
REMARK SMILES IDX 6 1 5 2 4 3 3 4 1 5 2 6 41 8 42 9 103 10 43 11 102 12 44 13
REMARK SMILES IDX 45 14 46 15 96 16 47 17 101 18 95 19 97 20 48 21 100 22
REMARK SMILES IDX 94 23 93 24 49 26 81 27 61 28 80 29 62 30 65 31 79 32 98 33
REMARK SMILES IDX 63 34 64 35 78 37 99 38 66 39 50 40 51 41 59 42 52 43 54 44
REMARK SMILES IDX 60 45 53 46 55 47 56 48 57 49 58 50 82 51 83 52 91 53 84 54
REMARK SMILES IDX 86 55 92 56 85 57 87 58 88 59 89 60 90 61 67 62 68 63 76 64
REMARK SMILES IDX 69 65 71 66 77 67 70 68 72 69 73 70 74 71 75 72 7 73 8 74
REMARK SMILES IDX 9 75 10 76 11 77 12 79 13 80 14 81 20 82 15 83 19 84 17 85
REMARK SMILES IDX 16 86 18 87 21 88 22 89 23 90 24 92 25 93 28 94 26 95 27 96
REMARK SMILES IDX 40 97 37 98 39 99 38 100 29 101 30 102 31 103 32 104 36 105
REMARK SMILES IDX 33 106 35 107 34 108
REMARK H PARENT 3 7 97 25 65 36 10 78 23 91
REMARK Flexibility Score: inf
ROOT
ATOM      1  C   UNL A   1      34.490  31.188  27.830  1.00  0.00     0.002 C 
ENDROOT
BRANCH   1   2
ATOM      2  C   UNL A   1      33.202  32.000  27.965  1.00  0.00     0.021 C 
BRANCH   2   3
ATOM      3  C   UNL A   1      33.230  33.374  27.306  1.00  0.00     0.116 C 
BRANCH   3   4
ATOM      4  N   UNL A   1      32.754  34.427  28.184  1.00  0.00    -0.352 N 
ATOM      5  O   UNL A   1      32.581  35.602  30.101  1.00  0.00    -0.269 OA
ATOM      6  C   UNL A   1      33.214  34.794  29.426  1.00  0.00     0.251 C 
ATOM      7  H   UNL A   1      31.993  34.951  27.843  1.00  0.00     0.163 HD
BRANCH   6   8
ATOM      8  C   UNL A   1      34.461  34.192  29.951  1.00  0.00     0.039 A 
ATOM      9  C   UNL A   1      34.416  33.309  31.031  1.00  0.00     0.014 A 
ATOM     10  C   UNL A   1      35.685  34.517  29.360  1.00  0.00     0.014 A 
ATOM     11  C   UNL A   1      35.600  32.873  31.613  1.00  0.00     0.010 A 
ATOM     12  C   UNL A   1      36.872  33.996  29.887  1.00  0.00     0.010 A 
ATOM     13  C   UNL A   1      36.842  33.192  31.037  1.00  0.00    -0.014 A 
BRANCH  13  14
ATOM     14  C   UNL A   1      38.068  32.579  31.609  1.00  0.00     0.031 A 
ATOM     15  C   UNL A   1      38.670  33.058  32.901  1.00  0.00     0.074 A 
ATOM     16  C   UNL A   1      38.620  31.540  30.950  1.00  0.00     0.049 A 
ATOM     17  N   UNL A   1      39.679  32.558  33.567  1.00  0.00    -0.248 NA
ATOM     18  C   UNL A   1      38.074  34.249  33.527  1.00  0.00     0.031 C 
ATOM     19  C   UNL A   1      38.161  31.034  29.653  1.00  0.00     0.029 A 
ATOM     20  N   UNL A   1      39.665  30.715  31.276  1.00  0.00    -0.354 N 
ATOM     21  C   UNL A   1      39.862  33.384  34.670  1.00  0.00     0.074 A 
ATOM     22  C   UNL A   1      38.863  34.428  34.580  1.00  0.00     0.031 C 
ATOM     23  C   UNL A   1      38.890  29.962  29.315  1.00  0.00     0.029 A 
ATOM     24  C   UNL A   1      39.900  29.733  30.341  1.00  0.00     0.049 A 
ATOM     25  H   UNL A   1      40.196  30.815  32.099  1.00  0.00     0.167 HD
ATOM     26  C   UNL A   1      40.766  33.270  35.673  1.00  0.00     0.034 A 
ATOM     27  C   UNL A   1      40.828  28.760  30.305  1.00  0.00     0.034 A 
ATOM     28  C   UNL A   1      41.742  32.215  35.766  1.00  0.00     0.049 A 
ATOM     29  C   UNL A   1      41.778  28.628  31.458  1.00  0.00     0.074 A 
ATOM     30  C   UNL A   1      42.678  31.992  36.763  1.00  0.00     0.029 A 
ATOM     31  N   UNL A   1      41.915  31.207  34.829  1.00  0.00    -0.354 N 
ATOM     32  N   UNL A   1      41.847  29.345  32.553  1.00  0.00    -0.248 NA
ATOM     33  C   UNL A   1      42.757  27.537  31.387  1.00  0.00     0.031 C 
ATOM     34  C   UNL A   1      43.420  30.856  36.424  1.00  0.00     0.029 A 
ATOM     35  C   UNL A   1      42.936  30.358  35.225  1.00  0.00     0.049 A 
ATOM     36  H   UNL A   1      41.388  31.109  34.004  1.00  0.00     0.167 HD
ATOM     37  C   UNL A   1      42.872  28.789  33.306  1.00  0.00     0.074 A 
ATOM     38  C   UNL A   1      43.361  27.644  32.563  1.00  0.00     0.031 C 
ATOM     39  C   UNL A   1      43.384  29.203  34.491  1.00  0.00     0.034 A 
BRANCH  26  40
ATOM     40  C   UNL A   1      40.711  34.281  36.790  1.00  0.00     0.023 A 
ATOM     41  C   UNL A   1      41.268  35.561  36.588  1.00  0.00     0.012 A 
ATOM     42  C   UNL A   1      40.039  34.005  37.997  1.00  0.00     0.148 A 
ATOM     43  C   UNL A   1      41.176  36.541  37.575  1.00  0.00     0.002 A 
ATOM     44  C   UNL A   1      39.920  34.999  38.963  1.00  0.00     0.091 A 
ATOM     45  F   UNL A   1      39.531  32.777  38.179  1.00  0.00    -0.205 F 
ATOM     46  C   UNL A   1      40.494  36.264  38.756  1.00  0.00     0.022 A 
BRANCH  44  47
ATOM     47  S   UNL A   1      38.997  34.770  40.488  1.00  0.00     0.127 S 
ATOM     48  O   UNL A   1      37.902  33.910  40.042  1.00  0.00    -0.237 OA
ATOM     49  O   UNL A   1      39.982  34.108  41.345  1.00  0.00    -0.237 OA
ATOM     50  O   UNL A   1      38.608  36.103  40.926  1.00  0.00    -0.744 OA
ENDBRANCH  44  47
ENDBRANCH  26  40
BRANCH  27  51
ATOM     51  C   UNL A   1      40.861  27.816  29.154  1.00  0.00     0.023 A 
ATOM     52  C   UNL A   1      39.968  26.729  29.113  1.00  0.00     0.012 A 
ATOM     53  C   UNL A   1      41.737  28.024  28.071  1.00  0.00     0.148 A 
ATOM     54  C   UNL A   1      39.963  25.855  28.026  1.00  0.00     0.002 A 
ATOM     55  C   UNL A   1      41.681  27.190  26.963  1.00  0.00     0.091 A 
ATOM     56  F   UNL A   1      42.598  29.051  28.136  1.00  0.00    -0.205 F 
ATOM     57  C   UNL A   1      40.808  26.093  26.944  1.00  0.00     0.022 A 
BRANCH  55  58
ATOM     58  S   UNL A   1      42.623  27.541  25.474  1.00  0.00     0.127 S 
ATOM     59  O   UNL A   1      42.051  28.816  25.051  1.00  0.00    -0.237 OA
ATOM     60  O   UNL A   1      43.992  27.618  25.985  1.00  0.00    -0.237 OA
ATOM     61  O   UNL A   1      42.382  26.404  24.596  1.00  0.00    -0.744 OA
ENDBRANCH  55  58
ENDBRANCH  27  51
BRANCH  39  62
ATOM     62  C   UNL A   1      44.532  28.409  35.053  1.00  0.00     0.023 A 
ATOM     63  C   UNL A   1      45.852  28.745  34.689  1.00  0.00     0.012 A 
ATOM     64  C   UNL A   1      44.310  27.356  35.960  1.00  0.00     0.148 A 
ATOM     65  C   UNL A   1      46.932  28.019  35.189  1.00  0.00     0.002 A 
ATOM     66  C   UNL A   1      45.394  26.666  36.490  1.00  0.00     0.091 A 
ATOM     67  F   UNL A   1      43.047  27.036  36.275  1.00  0.00    -0.205 F 
ATOM     68  C   UNL A   1      46.704  26.987  36.096  1.00  0.00     0.022 A 
BRANCH  66  69
ATOM     69  S   UNL A   1      45.191  25.380  37.727  1.00  0.00     0.127 S 
ATOM     70  O   UNL A   1      46.577  24.996  37.989  1.00  0.00    -0.237 OA
ATOM     71  O   UNL A   1      44.538  26.098  38.823  1.00  0.00    -0.237 OA
ATOM     72  O   UNL A   1      44.362  24.359  37.101  1.00  0.00    -0.744 OA
ENDBRANCH  66  69
ENDBRANCH  39  62
ENDBRANCH  13  14
ENDBRANCH   6   8
ENDBRANCH   3   4
ENDBRANCH   2   3
ENDBRANCH   1   2
BRANCH   1  73
ATOM     73  C   UNL A   1      34.570  30.259  26.614  1.00  0.00     0.002 C 
BRANCH  73  74
ATOM     74  C   UNL A   1      35.036  28.828  26.890  1.00  0.00     0.021 C 
BRANCH  74  75
ATOM     75  C   UNL A   1      34.021  27.736  26.561  1.00  0.00     0.116 C 
BRANCH  75  76
ATOM     76  N   UNL A   1      32.757  27.939  27.234  1.00  0.00    -0.356 N 
ATOM     77  C   UNL A   1      31.543  27.348  27.149  1.00  0.00     0.224 C 
ATOM     78  H   UNL A   1      32.787  28.666  27.898  1.00  0.00     0.163 HD
ATOM     79  O   UNL A   1      30.684  27.818  27.908  1.00  0.00    -0.275 OA
BRANCH  77  80
ATOM     80  C   UNL A   1      31.128  26.254  26.153  1.00  0.00     0.094 C 
ATOM     81  C   UNL A   1      30.849  26.844  24.742  1.00  0.00     0.002 C 
ATOM     82  C   UNL A   1      31.954  24.936  26.051  1.00  0.00     0.094 C 
ATOM     83  C   UNL A   1      32.154  27.102  23.978  1.00  0.00     0.005 C 
ATOM     84  C   UNL A   1      30.041  25.798  23.945  1.00  0.00     0.005 C 
ATOM     85  C   UNL A   1      32.200  24.650  24.528  1.00  0.00     0.002 C 
ATOM     86  C   UNL A   1      32.959  25.810  23.860  1.00  0.00     0.005 C 
ATOM     87  C   UNL A   1      30.850  24.504  23.804  1.00  0.00     0.005 C 
BRANCH  82  88
ATOM     88  C   UNL A   1      31.240  23.748  26.752  1.00  0.00     0.229 C 
ATOM     89  O   UNL A   1      30.094  23.861  27.200  1.00  0.00    -0.274 OA
ATOM     90  N   UNL A   1      31.821  22.510  26.847  1.00  0.00    -0.317 N 
ATOM     91  H   UNL A   1      31.231  21.787  27.160  1.00  0.00     0.170 HD
BRANCH  90  92
ATOM     92  C   UNL A   1      33.118  22.136  26.564  1.00  0.00     0.108 A 
ATOM     93  S   UNL A   1      34.385  23.021  27.265  1.00  0.00    -0.122 S 
ATOM     94  C   UNL A   1      33.542  21.054  25.796  1.00  0.00     0.078 A 
ATOM     95  C   UNL A   1      35.523  22.228  26.298  1.00  0.00     0.011 A 
ATOM     96  C   UNL A   1      34.987  21.146  25.616  1.00  0.00    -0.019 A 
ATOM     97  C   UNL A   1      36.946  22.693  26.233  1.00  0.00     0.047 C 
ATOM     98  C   UNL A   1      35.869  20.305  24.736  1.00  0.00     0.037 C 
ATOM     99  C   UNL A   1      37.621  22.133  24.977  1.00  0.00     0.006 C 
ATOM    100  C   UNL A   1      37.365  20.632  24.856  1.00  0.00     0.005 C 
BRANCH  94 101
ATOM    101  C   UNL A   1      32.547  20.156  25.167  1.00  0.00     0.257 C 
ATOM    102  O   UNL A   1      31.433  20.564  24.828  1.00  0.00    -0.269 OA
ATOM    103  N   UNL A   1      32.955  18.868  24.831  1.00  0.00    -0.339 N 
ATOM    104  C   UNL A   1      32.660  18.429  23.475  1.00  0.00     0.120 C 
ATOM    105  C   UNL A   1      32.829  17.815  25.831  1.00  0.00     0.120 C 
ATOM    106  C   UNL A   1      33.604  17.307  23.064  1.00  0.00     0.022 C 
ATOM    107  C   UNL A   1      33.734  16.626  25.497  1.00  0.00     0.022 C 
ATOM    108  C   UNL A   1      33.547  16.147  24.057  1.00  0.00     0.004 C 
ENDBRANCH  94 101
ENDBRANCH  90  92
ENDBRANCH  82  88
ENDBRANCH  77  80
ENDBRANCH  75  76
ENDBRANCH  74  75
ENDBRANCH  73  74
ENDBRANCH   1  73
TORSDOF 19
ENDMDL
MODEL 3
REMARK VINA RESULT:     -12.0      6.106      9.771
REMARK SMILES O=C(NCCCCCCNC(=O)[C@H]1[C@H]2CC[C@H](CC2)[C@@H]1C(=O)Nc1sc2c(c1C(=O)N1CCCCC1)CCCC2)c1ccc(-c2c3nc(c(-c4cccc(S(=O)(=O)[O-])c4F)c4ccc([nH]4)c(-c4cccc(S(=O)(=O)[O-])c4F)c4nc(c(-c5cccc(S(=O)(=O)[O-])c5F)c5ccc2[nH]5)C=C4)C=C3)cc1
REMARK SMILES IDX 6 1 5 2 4 3 3 4 1 5 2 6 41 8 42 9 103 10 43 11 102 12 44 13
REMARK SMILES IDX 45 14 46 15 96 16 47 17 101 18 95 19 97 20 48 21 100 22
REMARK SMILES IDX 94 23 93 24 49 26 81 27 61 28 80 29 62 30 65 31 79 32 98 33
REMARK SMILES IDX 63 34 64 35 78 37 99 38 66 39 50 40 51 41 59 42 52 43 54 44
REMARK SMILES IDX 60 45 53 46 55 47 56 48 57 49 58 50 82 51 83 52 91 53 84 54
REMARK SMILES IDX 86 55 92 56 85 57 87 58 88 59 89 60 90 61 67 62 68 63 76 64
REMARK SMILES IDX 69 65 71 66 77 67 70 68 72 69 73 70 74 71 75 72 7 73 8 74
REMARK SMILES IDX 9 75 10 76 11 77 12 79 13 80 14 81 20 82 15 83 19 84 17 85
REMARK SMILES IDX 16 86 18 87 21 88 22 89 23 90 24 92 25 93 28 94 26 95 27 96
REMARK SMILES IDX 40 97 37 98 39 99 38 100 29 101 30 102 31 103 32 104 36 105
REMARK SMILES IDX 33 106 35 107 34 108
REMARK H PARENT 3 7 97 25 65 36 10 78 23 91
REMARK Flexibility Score: inf
ROOT
ATOM      1  C   UNL A   1      35.369  31.164  28.114  1.00  0.00     0.002 C 
ENDROOT
BRANCH   1   2
ATOM      2  C   UNL A   1      34.774  31.913  29.306  1.00  0.00     0.021 C 
BRANCH   2   3
ATOM      3  C   UNL A   1      35.695  32.051  30.511  1.00  0.00     0.116 C 
BRANCH   3   4
ATOM      4  N   UNL A   1      35.803  30.822  31.278  1.00  0.00    -0.352 N 
ATOM      5  O   UNL A   1      36.774  28.929  32.026  1.00  0.00    -0.269 OA
ATOM      6  C   UNL A   1      36.904  30.025  31.486  1.00  0.00     0.251 C 
ATOM      7  H   UNL A   1      34.972  30.516  31.708  1.00  0.00     0.163 HD
BRANCH   6   8
ATOM      8  C   UNL A   1      38.237  30.487  31.037  1.00  0.00     0.039 A 
ATOM      9  C   UNL A   1      38.576  30.449  29.683  1.00  0.00     0.014 A 
ATOM     10  C   UNL A   1      39.157  30.957  31.978  1.00  0.00     0.014 A 
ATOM     11  C   UNL A   1      39.878  30.736  29.291  1.00  0.00     0.010 A 
ATOM     12  C   UNL A   1      40.438  31.342  31.566  1.00  0.00     0.010 A 
ATOM     13  C   UNL A   1      40.819  31.207  30.223  1.00  0.00    -0.014 A 
BRANCH  13  14
ATOM     14  C   UNL A   1      42.151  31.641  29.728  1.00  0.00     0.031 A 
ATOM     15  C   UNL A   1      42.533  33.092  29.638  1.00  0.00     0.074 A 
ATOM     16  C   UNL A   1      43.039  30.685  29.389  1.00  0.00     0.049 A 
ATOM     17  N   UNL A   1      43.689  33.614  29.316  1.00  0.00    -0.248 NA
ATOM     18  C   UNL A   1      41.492  34.088  29.940  1.00  0.00     0.031 C 
ATOM     19  C   UNL A   1      42.755  29.247  29.372  1.00  0.00     0.029 A 
ATOM     20  N   UNL A   1      44.355  30.766  29.011  1.00  0.00    -0.354 N 
ATOM     21  C   UNL A   1      43.512  34.993  29.345  1.00  0.00     0.074 A 
ATOM     22  C   UNL A   1      42.130  35.229  29.706  1.00  0.00     0.031 C 
ATOM     23  C   UNL A   1      43.871  28.581  29.047  1.00  0.00     0.029 A 
ATOM     24  C   UNL A   1      44.935  29.541  28.782  1.00  0.00     0.049 A 
ATOM     25  H   UNL A   1      44.837  31.620  28.914  1.00  0.00     0.167 HD
ATOM     26  C   UNL A   1      44.423  35.969  29.111  1.00  0.00     0.034 A 
ATOM     27  C   UNL A   1      46.183  29.220  28.393  1.00  0.00     0.034 A 
ATOM     28  C   UNL A   1      45.802  35.724  28.773  1.00  0.00     0.049 A 
ATOM     29  C   UNL A   1      47.182  30.322  28.196  1.00  0.00     0.074 A 
ATOM     30  C   UNL A   1      46.811  36.647  28.552  1.00  0.00     0.029 A 
ATOM     31  N   UNL A   1      46.368  34.470  28.603  1.00  0.00    -0.354 N 
ATOM     32  N   UNL A   1      47.023  31.613  28.355  1.00  0.00    -0.248 NA
ATOM     33  C   UNL A   1      48.537  29.923  27.796  1.00  0.00     0.031 C 
ATOM     34  C   UNL A   1      47.984  35.950  28.241  1.00  0.00     0.029 A 
ATOM     35  C   UNL A   1      47.711  34.592  28.285  1.00  0.00     0.049 A 
ATOM     36  H   UNL A   1      45.885  33.617  28.695  1.00  0.00     0.167 HD
ATOM     37  C   UNL A   1      48.260  32.182  28.081  1.00  0.00     0.074 A 
ATOM     38  C   UNL A   1      49.168  31.089  27.796  1.00  0.00     0.031 C 
ATOM     39  C   UNL A   1      48.607  33.492  28.041  1.00  0.00     0.034 A 
BRANCH  26  40
ATOM     40  C   UNL A   1      43.977  37.401  29.266  1.00  0.00     0.023 A 
ATOM     41  C   UNL A   1      43.452  38.083  28.149  1.00  0.00     0.012 A 
ATOM     42  C   UNL A   1      43.993  38.042  30.521  1.00  0.00     0.148 A 
ATOM     43  C   UNL A   1      42.970  39.385  28.272  1.00  0.00     0.002 A 
ATOM     44  C   UNL A   1      43.477  39.328  30.644  1.00  0.00     0.091 A 
ATOM     45  F   UNL A   1      44.512  37.385  31.568  1.00  0.00    -0.205 F 
ATOM     46  C   UNL A   1      42.972  40.003  29.520  1.00  0.00     0.022 A 
BRANCH  44  47
ATOM     47  S   UNL A   1      43.365  40.186  32.220  1.00  0.00     0.127 S 
ATOM     48  O   UNL A   1      43.090  39.080  33.136  1.00  0.00    -0.237 OA
ATOM     49  O   UNL A   1      44.702  40.766  32.348  1.00  0.00    -0.237 OA
ATOM     50  O   UNL A   1      42.291  41.158  32.071  1.00  0.00    -0.744 OA
ENDBRANCH  44  47
ENDBRANCH  26  40
BRANCH  27  51
ATOM     51  C   UNL A   1      46.554  27.789  28.215  1.00  0.00     0.023 A 
ATOM     52  C   UNL A   1      47.014  27.042  29.314  1.00  0.00     0.012 A 
ATOM     53  C   UNL A   1      46.397  27.150  26.969  1.00  0.00     0.148 A 
ATOM     54  C   UNL A   1      47.333  25.691  29.171  1.00  0.00     0.002 A 
ATOM     55  C   UNL A   1      46.653  25.790  26.850  1.00  0.00     0.091 A 
ATOM     56  F   UNL A   1      45.979  27.881  25.925  1.00  0.00    -0.205 F 
ATOM     57  C   UNL A   1      47.139  25.062  27.944  1.00  0.00     0.022 A 
BRANCH  55  58
ATOM     58  S   UNL A   1      46.265  24.890  25.345  1.00  0.00     0.127 S 
ATOM     59  O   UNL A   1      47.119  25.557  24.367  1.00  0.00    -0.237 OA
ATOM     60  O   UNL A   1      46.668  23.525  25.687  1.00  0.00    -0.237 OA
ATOM     61  O   UNL A   1      44.829  25.055  25.164  1.00  0.00    -0.744 OA
ENDBRANCH  55  58
ENDBRANCH  27  51
BRANCH  39  62
ATOM     62  C   UNL A   1      50.032  33.808  27.674  1.00  0.00     0.023 A 
ATOM     63  C   UNL A   1      51.020  33.829  28.679  1.00  0.00     0.012 A 
ATOM     64  C   UNL A   1      50.399  34.054  26.337  1.00  0.00     0.148 A 
ATOM     65  C   UNL A   1      52.344  34.128  28.367  1.00  0.00     0.002 A 
ATOM     66  C   UNL A   1      51.730  34.307  26.026  1.00  0.00     0.091 A 
ATOM     67  F   UNL A   1      49.442  34.054  25.398  1.00  0.00    -0.205 F 
ATOM     68  C   UNL A   1      52.701  34.358  27.040  1.00  0.00     0.022 A 
BRANCH  66  69
ATOM     69  S   UNL A   1      52.286  34.529  24.333  1.00  0.00     0.127 S 
ATOM     70  O   UNL A   1      53.733  34.640  24.506  1.00  0.00    -0.237 OA
ATOM     71  O   UNL A   1      51.841  33.292  23.690  1.00  0.00    -0.237 OA
ATOM     72  O   UNL A   1      51.615  35.729  23.852  1.00  0.00    -0.744 OA
ENDBRANCH  66  69
ENDBRANCH  39  62
ENDBRANCH  13  14
ENDBRANCH   6   8
ENDBRANCH   3   4
ENDBRANCH   2   3
ENDBRANCH   1   2
BRANCH   1  73
ATOM     73  C   UNL A   1      34.408  30.239  27.359  1.00  0.00     0.002 C 
BRANCH  73  74
ATOM     74  C   UNL A   1      35.016  28.953  26.796  1.00  0.00     0.021 C 
BRANCH  74  75
ATOM     75  C   UNL A   1      34.016  27.849  26.461  1.00  0.00     0.116 C 
BRANCH  75  76
ATOM     76  N   UNL A   1      32.761  28.014  27.161  1.00  0.00    -0.356 N 
ATOM     77  C   UNL A   1      31.563  27.387  27.100  1.00  0.00     0.224 C 
ATOM     78  H   UNL A   1      32.783  28.740  27.826  1.00  0.00     0.163 HD
ATOM     79  O   UNL A   1      30.707  27.831  27.879  1.00  0.00    -0.275 OA
BRANCH  77  80
ATOM     80  C   UNL A   1      31.159  26.284  26.110  1.00  0.00     0.094 C 
ATOM     81  C   UNL A   1      30.890  26.862  24.693  1.00  0.00     0.002 C 
ATOM     82  C   UNL A   1      31.990  24.967  26.025  1.00  0.00     0.094 C 
ATOM     83  C   UNL A   1      32.200  27.117  23.936  1.00  0.00     0.005 C 
ATOM     84  C   UNL A   1      30.092  25.806  23.898  1.00  0.00     0.005 C 
ATOM     85  C   UNL A   1      32.249  24.670  24.507  1.00  0.00     0.002 C 
ATOM     86  C   UNL A   1      33.010  25.826  23.836  1.00  0.00     0.005 C 
ATOM     87  C   UNL A   1      30.905  24.513  23.774  1.00  0.00     0.005 C 
BRANCH  82  88
ATOM     88  C   UNL A   1      31.274  23.783  26.731  1.00  0.00     0.229 C 
ATOM     89  O   UNL A   1      30.128  23.899  27.178  1.00  0.00    -0.274 OA
ATOM     90  N   UNL A   1      31.854  22.544  26.831  1.00  0.00    -0.317 N 
ATOM     91  H   UNL A   1      31.262  21.823  27.147  1.00  0.00     0.170 HD
BRANCH  90  92
ATOM     92  C   UNL A   1      33.150  22.168  26.550  1.00  0.00     0.108 A 
ATOM     93  S   UNL A   1      34.417  23.037  27.269  1.00  0.00    -0.122 S 
ATOM     94  C   UNL A   1      33.573  21.094  25.771  1.00  0.00     0.078 A 
ATOM     95  C   UNL A   1      35.557  22.251  26.299  1.00  0.00     0.011 A 
ATOM     96  C   UNL A   1      35.019  21.181  25.599  1.00  0.00    -0.019 A 
ATOM     97  C   UNL A   1      36.982  22.710  26.247  1.00  0.00     0.047 C 
ATOM     98  C   UNL A   1      35.902  20.347  24.713  1.00  0.00     0.037 C 
ATOM     99  C   UNL A   1      37.661  22.163  24.987  1.00  0.00     0.006 C 
ATOM    100  C   UNL A   1      37.399  20.665  24.846  1.00  0.00     0.005 C 
BRANCH  94 101
ATOM    101  C   UNL A   1      32.576  20.209  25.124  1.00  0.00     0.257 C 
ATOM    102  O   UNL A   1      31.492  20.641  24.727  1.00  0.00    -0.269 OA
ATOM    103  N   UNL A   1      32.957  18.901  24.841  1.00  0.00    -0.339 N 
ATOM    104  C   UNL A   1      32.705  18.432  23.486  1.00  0.00     0.120 C 
ATOM    105  C   UNL A   1      32.756  17.881  25.863  1.00  0.00     0.120 C 
ATOM    106  C   UNL A   1      33.629  17.270  23.146  1.00  0.00     0.022 C 
ATOM    107  C   UNL A   1      33.635  16.656  25.601  1.00  0.00     0.022 C 
ATOM    108  C   UNL A   1      33.493  16.141  24.168  1.00  0.00     0.004 C 
ENDBRANCH  94 101
ENDBRANCH  90  92
ENDBRANCH  82  88
ENDBRANCH  77  80
ENDBRANCH  75  76
ENDBRANCH  74  75
ENDBRANCH  73  74
ENDBRANCH   1  73
TORSDOF 19
ENDMDL
