MODEL 1
REMARK VINA RESULT:     -10.9      0.000      0.000
REMARK SMILES O=C(Cc1ccc(F)cc1F)N[C@H](CCO)C(=O)NCCCCCCNC(=O)c1ccc(-c2c3nc(c(-c4cccc(S(=O)(=O)[O-])c4F)c4ccc([nH]4)c(-c4cccc(S(=O)(=O)[O-])c4F)c4nc(c(-c5cccc(S(=O)(=O)[O-])c5F)c5ccc2[nH]5)C=C4)C=C3)cc1
REMARK SMILES IDX 22 1 21 2 20 3 19 4 17 5 18 6 13 8 12 9 1 10 2 11 3 13 4 14
REMARK SMILES IDX 5 15 10 16 6 17 9 18 11 19 7 20 8 21 14 22 15 23 16 24 23 26
REMARK SMILES IDX 24 27 25 28 26 29 27 30 28 32 29 33 30 34 91 35 31 36 90 37
REMARK SMILES IDX 32 38 33 39 34 40 84 41 35 42 89 43 83 44 85 45 36 46 88 47
REMARK SMILES IDX 82 48 81 49 37 51 69 52 49 53 68 54 50 55 53 56 67 57 86 58
REMARK SMILES IDX 51 59 52 60 66 62 87 63 54 64 38 65 39 66 47 67 40 68 42 69
REMARK SMILES IDX 48 70 41 71 43 72 44 73 45 74 46 75 70 76 71 77 79 78 72 79
REMARK SMILES IDX 74 80 80 81 73 82 75 83 76 84 77 85 78 86 55 87 56 88 64 89
REMARK SMILES IDX 57 90 59 91 65 92 58 93 60 94 61 95 62 96 63 97
REMARK H PARENT 19 7 12 12 16 25 26 31 85 50 53 61
REMARK Flexibility Score: inf
ROOT
ATOM      1  C   UNL A   1      31.861  26.486  25.189  1.00  0.00     0.002 C 
ENDROOT
BRANCH   1   2
ATOM      2  C   UNL A   1      31.963  25.336  24.186  1.00  0.00     0.021 C 
BRANCH   2   3
ATOM      3  C   UNL A   1      30.788  24.364  24.200  1.00  0.00     0.116 C 
BRANCH   3   4
ATOM      4  N   UNL A   1      30.285  24.119  25.533  1.00  0.00    -0.354 N 
ATOM      5  C   UNL A   1      30.746  23.268  26.488  1.00  0.00     0.242 C 
ATOM      6  O   UNL A   1      30.080  23.170  27.526  1.00  0.00    -0.273 OA
ATOM      7  H   UNL A   1      29.493  24.646  25.787  1.00  0.00     0.163 HD
BRANCH   5   8
ATOM      8  C   UNL A   1      32.043  22.439  26.331  1.00  0.00     0.173 C 
BRANCH   8   9
ATOM      9  N   UNL A   1      31.750  21.196  25.597  1.00  0.00    -0.344 N 
ATOM     10  O   UNL A   1      32.897  21.560  23.660  1.00  0.00    -0.275 OA
ATOM     11  C   UNL A   1      32.314  20.786  24.416  1.00  0.00     0.225 C 
ATOM     12  H   UNL A   1      31.078  20.597  25.996  1.00  0.00     0.164 HD
BRANCH  11  13
ATOM     13  C   UNL A   1      32.163  19.321  24.027  1.00  0.00     0.138 C 
BRANCH  13  14
ATOM     14  C   UNL A   1      33.224  18.330  24.459  1.00  0.00    -0.003 A 
ATOM     15  C   UNL A   1      34.598  18.548  24.261  1.00  0.00     0.010 A 
ATOM     16  C   UNL A   1      32.822  17.094  24.985  1.00  0.00     0.129 A 
ATOM     17  C   UNL A   1      35.530  17.583  24.658  1.00  0.00     0.040 A 
ATOM     18  C   UNL A   1      33.739  16.119  25.356  1.00  0.00     0.078 A 
ATOM     19  F   UNL A   1      31.517  16.828  25.139  1.00  0.00    -0.207 F 
ATOM     20  C   UNL A   1      35.091  16.380  25.201  1.00  0.00     0.126 A 
ATOM     21  F   UNL A   1      35.989  15.458  25.573  1.00  0.00    -0.207 F 
ENDBRANCH  13  14
ENDBRANCH  11  13
ENDBRANCH   8   9
BRANCH   8  22
ATOM     22  C   UNL A   1      32.931  22.355  27.580  1.00  0.00     0.063 C 
BRANCH  22  23
ATOM     23  C   UNL A   1      34.411  22.610  27.289  1.00  0.00     0.158 C 
BRANCH  23  24
ATOM     24  O   UNL A   1      34.678  22.628  25.894  1.00  0.00    -0.396 OA
ATOM     25  H   UNL A   1      34.304  23.434  25.504  1.00  0.00     0.210 HD
ENDBRANCH  23  24
ENDBRANCH  22  23
ENDBRANCH   8  22
ENDBRANCH   5   8
ENDBRANCH   3   4
ENDBRANCH   2   3
ENDBRANCH   1   2
BRANCH   1  26
ATOM     26  C   UNL A   1      31.460  27.842  24.603  1.00  0.00     0.002 C 
BRANCH  26  27
ATOM     27  C   UNL A   1      31.392  29.008  25.595  1.00  0.00     0.021 C 
BRANCH  27  28
ATOM     28  C   UNL A   1      32.692  29.780  25.793  1.00  0.00     0.116 C 
BRANCH  28  29
ATOM     29  N   UNL A   1      32.463  31.158  26.195  1.00  0.00    -0.352 N 
ATOM     30  C   UNL A   1      33.123  31.913  27.130  1.00  0.00     0.251 C 
ATOM     31  H   UNL A   1      31.728  31.616  25.728  1.00  0.00     0.163 HD
ATOM     32  O   UNL A   1      32.675  33.017  27.448  1.00  0.00    -0.269 OA
BRANCH  30  33
ATOM     33  C   UNL A   1      34.352  31.402  27.773  1.00  0.00     0.039 A 
ATOM     34  C   UNL A   1      35.417  32.282  27.983  1.00  0.00     0.014 A 
ATOM     35  C   UNL A   1      34.466  30.061  28.151  1.00  0.00     0.014 A 
ATOM     36  C   UNL A   1      36.576  31.831  28.620  1.00  0.00     0.010 A 
ATOM     37  C   UNL A   1      35.593  29.629  28.847  1.00  0.00     0.010 A 
ATOM     38  C   UNL A   1      36.663  30.506  29.081  1.00  0.00    -0.014 A 
BRANCH  38  39
ATOM     39  C   UNL A   1      37.860  30.025  29.816  1.00  0.00     0.031 A 
ATOM     40  C   UNL A   1      38.140  30.510  31.213  1.00  0.00     0.074 A 
ATOM     41  C   UNL A   1      38.741  29.218  29.194  1.00  0.00     0.049 A 
ATOM     42  N   UNL A   1      39.154  30.236  31.992  1.00  0.00    -0.248 NA
ATOM     43  C   UNL A   1      37.167  31.444  31.801  1.00  0.00     0.031 C 
ATOM     44  C   UNL A   1      38.623  28.743  27.813  1.00  0.00     0.029 A 
ATOM     45  N   UNL A   1      39.924  28.675  29.632  1.00  0.00    -0.354 N 
ATOM     46  C   UNL A   1      38.962  30.990  33.144  1.00  0.00     0.074 A 
ATOM     47  C   UNL A   1      37.751  31.756  32.949  1.00  0.00     0.031 C 
ATOM     48  C   UNL A   1      39.687  27.978  27.520  1.00  0.00     0.029 A 
ATOM     49  C   UNL A   1      40.574  27.928  28.677  1.00  0.00     0.049 A 
ATOM     50  H   UNL A   1      40.274  28.809  30.542  1.00  0.00     0.167 HD
ATOM     51  C   UNL A   1      39.709  31.019  34.275  1.00  0.00     0.034 A 
ATOM     52  C   UNL A   1      41.753  27.277  28.729  1.00  0.00     0.034 A 
ATOM     53  C   UNL A   1      40.886  30.220  34.483  1.00  0.00     0.049 A 
ATOM     54  C   UNL A   1      42.540  27.289  30.010  1.00  0.00     0.074 A 
ATOM     55  C   UNL A   1      41.657  30.104  35.626  1.00  0.00     0.029 A 
ATOM     56  N   UNL A   1      41.469  29.407  33.523  1.00  0.00    -0.354 N 
ATOM     57  N   UNL A   1      42.255  27.873  31.149  1.00  0.00    -0.248 NA
ATOM     58  C   UNL A   1      43.794  26.523  30.027  1.00  0.00     0.031 C 
ATOM     59  C   UNL A   1      42.718  29.234  35.351  1.00  0.00     0.029 A 
ATOM     60  C   UNL A   1      42.597  28.792  34.043  1.00  0.00     0.049 A 
ATOM     61  H   UNL A   1      41.132  29.283  32.606  1.00  0.00     0.167 HD
ATOM     62  C   UNL A   1      43.273  27.519  32.026  1.00  0.00     0.074 A 
ATOM     63  C   UNL A   1      44.172  26.652  31.293  1.00  0.00     0.031 C 
ATOM     64  C   UNL A   1      43.455  27.891  33.317  1.00  0.00     0.034 A 
BRANCH  51  65
ATOM     65  C   UNL A   1      39.235  31.904  35.399  1.00  0.00     0.023 A 
ATOM     66  C   UNL A   1      38.290  31.407  36.321  1.00  0.00     0.012 A 
ATOM     67  C   UNL A   1      39.751  33.203  35.573  1.00  0.00     0.148 A 
ATOM     68  C   UNL A   1      37.835  32.202  37.372  1.00  0.00     0.002 A 
ATOM     69  C   UNL A   1      39.325  33.973  36.649  1.00  0.00     0.091 A 
ATOM     70  F   UNL A   1      40.631  33.668  34.675  1.00  0.00    -0.205 F 
ATOM     71  C   UNL A   1      38.360  33.480  37.542  1.00  0.00     0.022 A 
BRANCH  69  72
ATOM     72  S   UNL A   1      39.999  35.603  36.996  1.00  0.00     0.127 S 
ATOM     73  O   UNL A   1      39.322  35.943  38.246  1.00  0.00    -0.237 OA
ATOM     74  O   UNL A   1      41.430  35.323  37.134  1.00  0.00    -0.237 OA
ATOM     75  O   UNL A   1      39.655  36.430  35.848  1.00  0.00    -0.744 OA
ENDBRANCH  69  72
ENDBRANCH  51  65
BRANCH  52  76
ATOM     76  C   UNL A   1      42.216  26.492  27.550  1.00  0.00     0.023 A 
ATOM     77  C   UNL A   1      42.991  27.128  26.562  1.00  0.00     0.012 A 
ATOM     78  C   UNL A   1      41.936  25.117  27.425  1.00  0.00     0.148 A 
ATOM     79  C   UNL A   1      43.458  26.418  25.457  1.00  0.00     0.002 A 
ATOM     80  C   UNL A   1      42.450  24.403  26.348  1.00  0.00     0.091 A 
ATOM     81  F   UNL A   1      41.188  24.531  28.371  1.00  0.00    -0.205 F 
ATOM     82  C   UNL A   1      43.198  25.054  25.354  1.00  0.00     0.022 A 
BRANCH  80  83
ATOM     83  S   UNL A   1      42.278  22.620  26.203  1.00  0.00     0.127 S 
ATOM     84  O   UNL A   1      42.894  22.158  27.445  1.00  0.00    -0.237 OA
ATOM     85  O   UNL A   1      40.823  22.462  26.142  1.00  0.00    -0.237 OA
ATOM     86  O   UNL A   1      42.972  22.255  24.977  1.00  0.00    -0.744 OA
ENDBRANCH  80  83
ENDBRANCH  52  76
BRANCH  64  87
ATOM     87  C   UNL A   1      44.660  27.345  34.038  1.00  0.00     0.023 A 
ATOM     88  C   UNL A   1      45.869  28.069  34.026  1.00  0.00     0.012 A 
ATOM     89  C   UNL A   1      44.574  26.155  34.789  1.00  0.00     0.148 A 
ATOM     90  C   UNL A   1      46.982  27.604  34.724  1.00  0.00     0.002 A 
ATOM     91  C   UNL A   1      45.674  25.722  35.521  1.00  0.00     0.091 A 
ATOM     92  F   UNL A   1      43.423  25.469  34.771  1.00  0.00    -0.205 F 
ATOM     93  C   UNL A   1      46.881  26.439  35.481  1.00  0.00     0.022 A 
BRANCH  91  94
ATOM     94  S   UNL A   1      45.606  24.285  36.597  1.00  0.00     0.127 S 
ATOM     95  O   UNL A   1      44.656  24.722  37.618  1.00  0.00    -0.237 OA
ATOM     96  O   UNL A   1      45.100  23.246  35.698  1.00  0.00    -0.237 OA
ATOM     97  O   UNL A   1      46.970  24.066  37.060  1.00  0.00    -0.744 OA
ENDBRANCH  91  94
ENDBRANCH  64  87
ENDBRANCH  38  39
ENDBRANCH  30  33
ENDBRANCH  28  29
ENDBRANCH  27  28
ENDBRANCH  26  27
ENDBRANCH   1  26
TORSDOF 22
ENDMDL
MODEL 2
REMARK VINA RESULT:     -10.8      5.340      8.452
REMARK SMILES O=C(Cc1ccc(F)cc1F)N[C@H](CCO)C(=O)NCCCCCCNC(=O)c1ccc(-c2c3nc(c(-c4cccc(S(=O)(=O)[O-])c4F)c4ccc([nH]4)c(-c4cccc(S(=O)(=O)[O-])c4F)c4nc(c(-c5cccc(S(=O)(=O)[O-])c5F)c5ccc2[nH]5)C=C4)C=C3)cc1
REMARK SMILES IDX 22 1 21 2 20 3 19 4 17 5 18 6 13 8 12 9 1 10 2 11 3 13 4 14
REMARK SMILES IDX 5 15 10 16 6 17 9 18 11 19 7 20 8 21 14 22 15 23 16 24 23 26
REMARK SMILES IDX 24 27 25 28 26 29 27 30 28 32 29 33 30 34 91 35 31 36 90 37
REMARK SMILES IDX 32 38 33 39 34 40 84 41 35 42 89 43 83 44 85 45 36 46 88 47
REMARK SMILES IDX 82 48 81 49 37 51 69 52 49 53 68 54 50 55 53 56 67 57 86 58
REMARK SMILES IDX 51 59 52 60 66 62 87 63 54 64 38 65 39 66 47 67 40 68 42 69
REMARK SMILES IDX 48 70 41 71 43 72 44 73 45 74 46 75 70 76 71 77 79 78 72 79
REMARK SMILES IDX 74 80 80 81 73 82 75 83 76 84 77 85 78 86 55 87 56 88 64 89
REMARK SMILES IDX 57 90 59 91 65 92 58 93 60 94 61 95 62 96 63 97
REMARK H PARENT 19 7 12 12 16 25 26 31 85 50 53 61
REMARK Flexibility Score: inf
ROOT
ATOM      1  C   UNL A   1      36.818  21.708  24.698  1.00  0.00     0.002 C 
ENDROOT
BRANCH   1   2
ATOM      2  C   UNL A   1      35.881  22.495  25.616  1.00  0.00     0.021 C 
BRANCH   2   3
ATOM      3  C   UNL A   1      35.684  23.958  25.233  1.00  0.00     0.116 C 
BRANCH   3   4
ATOM      4  N   UNL A   1      34.508  24.538  25.843  1.00  0.00    -0.354 N 
ATOM      5  C   UNL A   1      33.352  24.958  25.262  1.00  0.00     0.242 C 
ATOM      6  O   UNL A   1      32.521  25.511  25.994  1.00  0.00    -0.273 OA
ATOM      7  H   UNL A   1      34.549  24.643  26.821  1.00  0.00     0.163 HD
BRANCH   5   8
ATOM      8  C   UNL A   1      33.043  24.775  23.757  1.00  0.00     0.173 C 
BRANCH   8   9
ATOM      9  N   UNL A   1      33.070  23.342  23.418  1.00  0.00    -0.344 N 
ATOM     10  O   UNL A   1      31.058  22.666  24.251  1.00  0.00    -0.275 OA
ATOM     11  C   UNL A   1      32.036  22.449  23.539  1.00  0.00     0.225 C 
ATOM     12  H   UNL A   1      33.919  22.988  23.068  1.00  0.00     0.164 HD
BRANCH  11  13
ATOM     13  C   UNL A   1      32.146  21.127  22.790  1.00  0.00     0.138 C 
BRANCH  13  14
ATOM     14  C   UNL A   1      32.426  19.859  23.568  1.00  0.00    -0.003 A 
ATOM     15  C   UNL A   1      32.683  19.852  24.950  1.00  0.00     0.010 A 
ATOM     16  C   UNL A   1      32.538  18.647  22.871  1.00  0.00     0.129 A 
ATOM     17  C   UNL A   1      32.962  18.651  25.610  1.00  0.00     0.040 A 
ATOM     18  C   UNL A   1      32.842  17.454  23.515  1.00  0.00     0.078 A 
ATOM     19  F   UNL A   1      32.353  18.623  21.543  1.00  0.00    -0.207 F 
ATOM     20  C   UNL A   1      33.038  17.465  24.886  1.00  0.00     0.126 A 
ATOM     21  F   UNL A   1      33.311  16.320  25.524  1.00  0.00    -0.207 F 
ENDBRANCH  13  14
ENDBRANCH  11  13
ENDBRANCH   8   9
BRANCH   8  22
ATOM     22  C   UNL A   1      33.745  25.760  22.812  1.00  0.00     0.063 C 
BRANCH  22  23
ATOM     23  C   UNL A   1      32.945  26.053  21.541  1.00  0.00     0.158 C 
BRANCH  23  24
ATOM     24  O   UNL A   1      31.785  25.238  21.449  1.00  0.00    -0.396 OA
ATOM     25  H   UNL A   1      32.009  24.327  21.698  1.00  0.00     0.210 HD
ENDBRANCH  23  24
ENDBRANCH  22  23
ENDBRANCH   8  22
ENDBRANCH   5   8
ENDBRANCH   3   4
ENDBRANCH   2   3
ENDBRANCH   1   2
BRANCH   1  26
ATOM     26  C   UNL A   1      36.623  20.189  24.698  1.00  0.00     0.002 C 
BRANCH  26  27
ATOM     27  C   UNL A   1      37.864  19.354  25.027  1.00  0.00     0.021 C 
BRANCH  27  28
ATOM     28  C   UNL A   1      38.976  20.090  25.767  1.00  0.00     0.116 C 
BRANCH  28  29
ATOM     29  N   UNL A   1      40.129  19.243  26.023  1.00  0.00    -0.352 N 
ATOM     30  C   UNL A   1      41.419  19.596  26.323  1.00  0.00     0.251 C 
ATOM     31  H   UNL A   1      39.958  18.275  25.974  1.00  0.00     0.163 HD
ATOM     32  O   UNL A   1      42.297  18.731  26.345  1.00  0.00    -0.269 OA
BRANCH  30  33
ATOM     33  C   UNL A   1      41.765  21.006  26.599  1.00  0.00     0.039 A 
ATOM     34  C   UNL A   1      42.059  21.383  27.913  1.00  0.00     0.014 A 
ATOM     35  C   UNL A   1      41.782  21.959  25.576  1.00  0.00     0.014 A 
ATOM     36  C   UNL A   1      42.423  22.703  28.192  1.00  0.00     0.010 A 
ATOM     37  C   UNL A   1      42.210  23.257  25.844  1.00  0.00     0.010 A 
ATOM     38  C   UNL A   1      42.526  23.645  27.155  1.00  0.00    -0.014 A 
BRANCH  38  39
ATOM     39  C   UNL A   1      42.973  25.036  27.422  1.00  0.00     0.031 A 
ATOM     40  C   UNL A   1      42.029  26.033  28.036  1.00  0.00     0.074 A 
ATOM     41  C   UNL A   1      44.203  25.424  27.032  1.00  0.00     0.049 A 
ATOM     42  N   UNL A   1      42.225  27.299  28.301  1.00  0.00    -0.248 NA
ATOM     43  C   UNL A   1      40.679  25.553  28.373  1.00  0.00     0.031 C 
ATOM     44  C   UNL A   1      45.182  24.573  26.353  1.00  0.00     0.029 A 
ATOM     45  N   UNL A   1      44.830  26.642  27.125  1.00  0.00    -0.354 N 
ATOM     46  C   UNL A   1      41.018  27.775  28.799  1.00  0.00     0.074 A 
ATOM     47  C   UNL A   1      40.085  26.669  28.770  1.00  0.00     0.031 C 
ATOM     48  C   UNL A   1      46.286  25.292  26.095  1.00  0.00     0.029 A 
ATOM     49  C   UNL A   1      46.086  26.660  26.565  1.00  0.00     0.049 A 
ATOM     50  H   UNL A   1      44.419  27.429  27.552  1.00  0.00     0.167 HD
ATOM     51  C   UNL A   1      40.720  29.011  29.268  1.00  0.00     0.034 A 
ATOM     52  C   UNL A   1      46.976  27.664  26.442  1.00  0.00     0.034 A 
ATOM     53  C   UNL A   1      41.663  30.094  29.338  1.00  0.00     0.049 A 
ATOM     54  C   UNL A   1      46.637  29.015  27.010  1.00  0.00     0.074 A 
ATOM     55  C   UNL A   1      41.488  31.354  29.883  1.00  0.00     0.029 A 
ATOM     56  N   UNL A   1      42.956  30.051  28.840  1.00  0.00    -0.354 N 
ATOM     57  N   UNL A   1      45.549  29.400  27.632  1.00  0.00    -0.248 NA
ATOM     58  C   UNL A   1      47.663  30.061  26.893  1.00  0.00     0.031 C 
ATOM     59  C   UNL A   1      42.671  32.079  29.698  1.00  0.00     0.029 A 
ATOM     60  C   UNL A   1      43.589  31.263  29.055  1.00  0.00     0.049 A 
ATOM     61  H   UNL A   1      43.365  29.271  28.397  1.00  0.00     0.167 HD
ATOM     62  C   UNL A   1      45.770  30.719  28.009  1.00  0.00     0.074 A 
ATOM     63  C   UNL A   1      47.105  31.061  27.564  1.00  0.00     0.031 C 
ATOM     64  C   UNL A   1      44.937  31.574  28.652  1.00  0.00     0.034 A 
BRANCH  51  65
ATOM     65  C   UNL A   1      39.327  29.237  29.797  1.00  0.00     0.023 A 
ATOM     66  C   UNL A   1      39.026  28.886  31.130  1.00  0.00     0.012 A 
ATOM     67  C   UNL A   1      38.330  29.834  29.000  1.00  0.00     0.148 A 
ATOM     68  C   UNL A   1      37.748  29.086  31.648  1.00  0.00     0.002 A 
ATOM     69  C   UNL A   1      37.070  30.070  29.538  1.00  0.00     0.091 A 
ATOM     70  F   UNL A   1      38.625  30.141  27.729  1.00  0.00    -0.205 F 
ATOM     71  C   UNL A   1      36.773  29.687  30.856  1.00  0.00     0.022 A 
BRANCH  69  72
ATOM     72  S   UNL A   1      35.772  30.909  28.621  1.00  0.00     0.127 S 
ATOM     73  O   UNL A   1      35.331  29.859  27.705  1.00  0.00    -0.237 OA
ATOM     74  O   UNL A   1      34.812  31.241  29.675  1.00  0.00    -0.237 OA
ATOM     75  O   UNL A   1      36.405  32.063  27.998  1.00  0.00    -0.744 OA
ENDBRANCH  69  72
ENDBRANCH  51  65
BRANCH  52  76
ATOM     76  C   UNL A   1      48.306  27.402  25.824  1.00  0.00     0.023 A 
ATOM     77  C   UNL A   1      49.352  26.910  26.628  1.00  0.00     0.012 A 
ATOM     78  C   UNL A   1      48.528  27.588  24.445  1.00  0.00     0.148 A 
ATOM     79  C   UNL A   1      50.603  26.634  26.079  1.00  0.00     0.002 A 
ATOM     80  C   UNL A   1      49.762  27.260  23.894  1.00  0.00     0.091 A 
ATOM     81  F   UNL A   1      47.522  28.065  23.698  1.00  0.00    -0.205 F 
ATOM     82  C   UNL A   1      50.806  26.798  24.710  1.00  0.00     0.022 A 
BRANCH  80  83
ATOM     83  S   UNL A   1      50.072  27.313  22.125  1.00  0.00     0.127 S 
ATOM     84  O   UNL A   1      51.445  26.819  22.046  1.00  0.00    -0.237 OA
ATOM     85  O   UNL A   1      49.056  26.390  21.613  1.00  0.00    -0.237 OA
ATOM     86  O   UNL A   1      49.874  28.700  21.731  1.00  0.00    -0.744 OA
ENDBRANCH  80  83
ENDBRANCH  52  76
BRANCH  64  87
ATOM     87  C   UNL A   1      45.447  32.962  28.939  1.00  0.00     0.023 A 
ATOM     88  C   UNL A   1      46.204  33.201  30.104  1.00  0.00     0.012 A 
ATOM     89  C   UNL A   1      45.242  34.012  28.020  1.00  0.00     0.148 A 
ATOM     90  C   UNL A   1      46.724  34.468  30.365  1.00  0.00     0.002 A 
ATOM     91  C   UNL A   1      45.803  35.260  28.265  1.00  0.00     0.091 A 
ATOM     92  F   UNL A   1      44.502  33.771  26.929  1.00  0.00    -0.205 F 
ATOM     93  C   UNL A   1      46.534  35.493  29.441  1.00  0.00     0.022 A 
BRANCH  91  94
ATOM     94  S   UNL A   1      45.691  36.611  27.085  1.00  0.00     0.127 S 
ATOM     95  O   UNL A   1      46.414  36.066  25.937  1.00  0.00    -0.237 OA
ATOM     96  O   UNL A   1      44.245  36.735  26.891  1.00  0.00    -0.237 OA
ATOM     97  O   UNL A   1      46.312  37.759  27.731  1.00  0.00    -0.744 OA
ENDBRANCH  91  94
ENDBRANCH  64  87
ENDBRANCH  38  39
ENDBRANCH  30  33
ENDBRANCH  28  29
ENDBRANCH  27  28
ENDBRANCH  26  27
ENDBRANCH   1  26
TORSDOF 22
ENDMDL
MODEL 3
REMARK VINA RESULT:     -10.7      2.430      8.032
REMARK SMILES O=C(Cc1ccc(F)cc1F)N[C@H](CCO)C(=O)NCCCCCCNC(=O)c1ccc(-c2c3nc(c(-c4cccc(S(=O)(=O)[O-])c4F)c4ccc([nH]4)c(-c4cccc(S(=O)(=O)[O-])c4F)c4nc(c(-c5cccc(S(=O)(=O)[O-])c5F)c5ccc2[nH]5)C=C4)C=C3)cc1
REMARK SMILES IDX 22 1 21 2 20 3 19 4 17 5 18 6 13 8 12 9 1 10 2 11 3 13 4 14
REMARK SMILES IDX 5 15 10 16 6 17 9 18 11 19 7 20 8 21 14 22 15 23 16 24 23 26
REMARK SMILES IDX 24 27 25 28 26 29 27 30 28 32 29 33 30 34 91 35 31 36 90 37
REMARK SMILES IDX 32 38 33 39 34 40 84 41 35 42 89 43 83 44 85 45 36 46 88 47
REMARK SMILES IDX 82 48 81 49 37 51 69 52 49 53 68 54 50 55 53 56 67 57 86 58
REMARK SMILES IDX 51 59 52 60 66 62 87 63 54 64 38 65 39 66 47 67 40 68 42 69
REMARK SMILES IDX 48 70 41 71 43 72 44 73 45 74 46 75 70 76 71 77 79 78 72 79
REMARK SMILES IDX 74 80 80 81 73 82 75 83 76 84 77 85 78 86 55 87 56 88 64 89
REMARK SMILES IDX 57 90 59 91 65 92 58 93 60 94 61 95 62 96 63 97
REMARK H PARENT 19 7 12 12 16 25 26 31 85 50 53 61
REMARK Flexibility Score: inf
ROOT
ATOM      1  C   UNL A   1      32.356  29.727  25.715  1.00  0.00     0.002 C 
ENDROOT
BRANCH   1   2
ATOM      2  C   UNL A   1      32.244  28.700  26.843  1.00  0.00     0.021 C 
BRANCH   2   3
ATOM      3  C   UNL A   1      32.481  27.254  26.423  1.00  0.00     0.116 C 
BRANCH   3   4
ATOM      4  N   UNL A   1      31.433  26.366  26.873  1.00  0.00    -0.354 N 
ATOM      5  C   UNL A   1      30.464  25.739  26.154  1.00  0.00     0.242 C 
ATOM      6  O   UNL A   1      29.617  25.096  26.787  1.00  0.00    -0.273 OA
ATOM      7  H   UNL A   1      31.418  26.187  27.842  1.00  0.00     0.163 HD
BRANCH   5   8
ATOM      8  C   UNL A   1      30.384  25.794  24.610  1.00  0.00     0.173 C 
BRANCH   8   9
ATOM      9  N   UNL A   1      31.495  25.022  24.028  1.00  0.00    -0.344 N 
ATOM     10  O   UNL A   1      31.182  22.997  25.030  1.00  0.00    -0.275 OA
ATOM     11  C   UNL A   1      31.712  23.673  24.151  1.00  0.00     0.225 C 
ATOM     12  H   UNL A   1      32.152  25.527  23.497  1.00  0.00     0.164 HD
BRANCH  11  13
ATOM     13  C   UNL A   1      32.682  23.018  23.177  1.00  0.00     0.138 C 
BRANCH  13  14
ATOM     14  C   UNL A   1      34.079  22.672  23.648  1.00  0.00    -0.003 A 
ATOM     15  C   UNL A   1      35.208  23.441  23.318  1.00  0.00     0.010 A 
ATOM     16  C   UNL A   1      34.279  21.479  24.359  1.00  0.00     0.129 A 
ATOM     17  C   UNL A   1      36.478  23.056  23.761  1.00  0.00     0.040 A 
ATOM     18  C   UNL A   1      35.540  21.076  24.779  1.00  0.00     0.078 A 
ATOM     19  F   UNL A   1      33.232  20.692  24.646  1.00  0.00    -0.207 F 
ATOM     20  C   UNL A   1      36.631  21.879  24.487  1.00  0.00     0.126 A 
ATOM     21  F   UNL A   1      37.850  21.514  24.903  1.00  0.00    -0.207 F 
ENDBRANCH  13  14
ENDBRANCH  11  13
ENDBRANCH   8   9
BRANCH   8  22
ATOM     22  C   UNL A   1      30.063  27.171  24.012  1.00  0.00     0.063 C 
BRANCH  22  23
ATOM     23  C   UNL A   1      28.668  27.251  23.391  1.00  0.00     0.158 C 
BRANCH  23  24
ATOM     24  O   UNL A   1      27.746  26.397  24.053  1.00  0.00    -0.396 OA
ATOM     25  H   UNL A   1      27.196  26.921  24.657  1.00  0.00     0.210 HD
ENDBRANCH  23  24
ENDBRANCH  22  23
ENDBRANCH   8  22
ENDBRANCH   5   8
ENDBRANCH   3   4
ENDBRANCH   2   3
ENDBRANCH   1   2
BRANCH   1  26
ATOM     26  C   UNL A   1      31.130  30.620  25.507  1.00  0.00     0.002 C 
BRANCH  26  27
ATOM     27  C   UNL A   1      31.079  31.897  26.353  1.00  0.00     0.021 C 
BRANCH  27  28
ATOM     28  C   UNL A   1      32.414  32.359  26.927  1.00  0.00     0.116 C 
BRANCH  28  29
ATOM     29  N   UNL A   1      32.382  33.747  27.359  1.00  0.00    -0.352 N 
ATOM     30  C   UNL A   1      33.161  34.387  28.287  1.00  0.00     0.251 C 
ATOM     31  H   UNL A   1      31.702  34.307  26.921  1.00  0.00     0.163 HD
ATOM     32  O   UNL A   1      32.873  35.534  28.636  1.00  0.00    -0.269 OA
BRANCH  30  33
ATOM     33  C   UNL A   1      34.329  33.706  28.883  1.00  0.00     0.039 A 
ATOM     34  C   UNL A   1      35.601  34.246  28.680  1.00  0.00     0.014 A 
ATOM     35  C   UNL A   1      34.177  32.530  29.625  1.00  0.00     0.014 A 
ATOM     36  C   UNL A   1      36.716  33.638  29.263  1.00  0.00     0.010 A 
ATOM     37  C   UNL A   1      35.279  31.965  30.262  1.00  0.00     0.010 A 
ATOM     38  C   UNL A   1      36.561  32.507  30.081  1.00  0.00    -0.014 A 
BRANCH  38  39
ATOM     39  C   UNL A   1      37.725  31.885  30.762  1.00  0.00     0.031 A 
ATOM     40  C   UNL A   1      38.555  30.849  30.054  1.00  0.00     0.074 A 
ATOM     41  C   UNL A   1      37.981  32.190  32.049  1.00  0.00     0.049 A 
ATOM     42  N   UNL A   1      39.578  30.167  30.502  1.00  0.00    -0.248 NA
ATOM     43  C   UNL A   1      38.172  30.518  28.672  1.00  0.00     0.031 C 
ATOM     44  C   UNL A   1      37.200  33.118  32.869  1.00  0.00     0.029 A 
ATOM     45  N   UNL A   1      38.955  31.732  32.902  1.00  0.00    -0.354 N 
ATOM     46  C   UNL A   1      39.936  29.302  29.474  1.00  0.00     0.074 A 
ATOM     47  C   UNL A   1      39.002  29.524  28.392  1.00  0.00     0.031 C 
ATOM     48  C   UNL A   1      37.727  33.163  34.104  1.00  0.00     0.029 A 
ATOM     49  C   UNL A   1      38.864  32.252  34.172  1.00  0.00     0.049 A 
ATOM     50  H   UNL A   1      39.651  31.091  32.630  1.00  0.00     0.167 HD
ATOM     51  C   UNL A   1      40.968  28.424  29.422  1.00  0.00     0.034 A 
ATOM     52  C   UNL A   1      39.612  32.019  35.269  1.00  0.00     0.034 A 
ATOM     53  C   UNL A   1      41.922  28.241  30.483  1.00  0.00     0.049 A 
ATOM     54  C   UNL A   1      40.778  31.073  35.172  1.00  0.00     0.074 A 
ATOM     55  C   UNL A   1      43.057  27.449  30.491  1.00  0.00     0.029 A 
ATOM     56  N   UNL A   1      41.849  28.849  31.726  1.00  0.00    -0.354 N 
ATOM     57  N   UNL A   1      41.203  30.391  34.137  1.00  0.00    -0.248 NA
ATOM     58  C   UNL A   1      41.590  30.894  36.384  1.00  0.00     0.031 C 
ATOM     59  C   UNL A   1      43.661  27.565  31.749  1.00  0.00     0.029 A 
ATOM     60  C   UNL A   1      42.913  28.445  32.516  1.00  0.00     0.049 A 
ATOM     61  H   UNL A   1      41.145  29.478  32.007  1.00  0.00     0.167 HD
ATOM     62  C   UNL A   1      42.349  29.728  34.560  1.00  0.00     0.074 A 
ATOM     63  C   UNL A   1      42.563  30.107  35.942  1.00  0.00     0.031 C 
ATOM     64  C   UNL A   1      43.142  28.870  33.873  1.00  0.00     0.034 A 
BRANCH  51  65
ATOM     65  C   UNL A   1      41.150  27.639  28.149  1.00  0.00     0.023 A 
ATOM     66  C   UNL A   1      41.672  28.281  27.007  1.00  0.00     0.012 A 
ATOM     67  C   UNL A   1      40.851  26.264  28.090  1.00  0.00     0.148 A 
ATOM     68  C   UNL A   1      41.854  27.580  25.816  1.00  0.00     0.002 A 
ATOM     69  C   UNL A   1      41.077  25.561  26.912  1.00  0.00     0.091 A 
ATOM     70  F   UNL A   1      40.335  25.673  29.178  1.00  0.00    -0.205 F 
ATOM     71  C   UNL A   1      41.566  26.219  25.772  1.00  0.00     0.022 A 
BRANCH  69  72
ATOM     72  S   UNL A   1      40.810  23.789  26.779  1.00  0.00     0.127 S 
ATOM     73  O   UNL A   1      41.700  23.438  25.674  1.00  0.00    -0.237 OA
ATOM     74  O   UNL A   1      41.249  23.310  28.091  1.00  0.00    -0.237 OA
ATOM     75  O   UNL A   1      39.387  23.618  26.521  1.00  0.00    -0.744 OA
ENDBRANCH  69  72
ENDBRANCH  51  65
BRANCH  52  76
ATOM     76  C   UNL A   1      39.325  32.759  36.530  1.00  0.00     0.023 A 
ATOM     77  C   UNL A   1      39.912  34.023  36.732  1.00  0.00     0.012 A 
ATOM     78  C   UNL A   1      38.443  32.247  37.501  1.00  0.00     0.148 A 
ATOM     79  C   UNL A   1      39.649  34.752  37.891  1.00  0.00     0.002 A 
ATOM     80  C   UNL A   1      38.144  33.003  38.630  1.00  0.00     0.091 A 
ATOM     81  F   UNL A   1      37.902  31.038  37.295  1.00  0.00    -0.205 F 
ATOM     82  C   UNL A   1      38.757  34.248  38.835  1.00  0.00     0.022 A 
BRANCH  80  83
ATOM     83  S   UNL A   1      36.908  32.494  39.831  1.00  0.00     0.127 S 
ATOM     84  O   UNL A   1      36.979  33.576  40.811  1.00  0.00    -0.237 OA
ATOM     85  O   UNL A   1      35.688  32.477  39.020  1.00  0.00    -0.237 OA
ATOM     86  O   UNL A   1      37.331  31.184  40.302  1.00  0.00    -0.744 OA
ENDBRANCH  80  83
ENDBRANCH  52  76
BRANCH  64  87
ATOM     87  C   UNL A   1      44.336  28.296  34.590  1.00  0.00     0.023 A 
ATOM     88  C   UNL A   1      45.548  29.014  34.615  1.00  0.00     0.012 A 
ATOM     89  C   UNL A   1      44.236  27.083  35.302  1.00  0.00     0.148 A 
ATOM     90  C   UNL A   1      46.651  28.521  35.312  1.00  0.00     0.002 A 
ATOM     91  C   UNL A   1      45.325  26.621  36.033  1.00  0.00     0.091 A 
ATOM     92  F   UNL A   1      43.081  26.404  35.249  1.00  0.00    -0.205 F 
ATOM     93  C   UNL A   1      46.535  27.333  36.030  1.00  0.00     0.022 A 
BRANCH  91  94
ATOM     94  S   UNL A   1      45.237  25.151  37.063  1.00  0.00     0.127 S 
ATOM     95  O   UNL A   1      44.504  25.646  38.227  1.00  0.00    -0.237 OA
ATOM     96  O   UNL A   1      44.484  24.224  36.217  1.00  0.00    -0.237 OA
ATOM     97  O   UNL A   1      46.616  24.754  37.311  1.00  0.00    -0.744 OA
ENDBRANCH  91  94
ENDBRANCH  64  87
ENDBRANCH  38  39
ENDBRANCH  30  33
ENDBRANCH  28  29
ENDBRANCH  27  28
ENDBRANCH  26  27
ENDBRANCH   1  26
TORSDOF 22
ENDMDL
