MODEL 1
REMARK VINA RESULT:     -11.9      0.000      0.000
REMARK SMILES Cc1cc(F)cc(NC(=O)N[C@@H]2COC[C@H]2C(=O)NCCCCCCNC(=O)c2ccc(-c3c4nc(c(-c5cccc(S(=O)(=O)[O-])c5F)c5ccc([nH]5)c(-c5cccc(S(=O)(=O)[O-])c5F)c5nc(c(-c6cccc(S(=O)(=O)[O-])c6F)c6ccc3[nH]6)C=C5)C=C4)cc2)c1
REMARK SMILES IDX 23 1 22 2 21 3 20 4 19 5 17 6 18 7 16 9 12 10 13 11 14 12
REMARK SMILES IDX 15 13 11 14 8 15 9 16 10 18 7 20 1 21 2 22 3 23 92 24 4 25
REMARK SMILES IDX 5 26 6 27 24 28 25 29 26 30 27 31 28 33 29 34 30 35 91 36
REMARK SMILES IDX 31 37 90 38 32 39 33 40 34 41 84 42 35 43 89 44 83 45 85 46
REMARK SMILES IDX 36 47 88 48 82 49 81 50 37 52 69 53 49 54 68 55 50 56 53 57
REMARK SMILES IDX 67 58 86 59 51 60 52 61 66 63 87 64 54 65 38 66 39 67 47 68
REMARK SMILES IDX 40 69 42 70 48 71 41 72 43 73 44 74 45 75 46 76 70 77 71 78
REMARK SMILES IDX 79 79 72 80 74 81 80 82 73 83 75 84 76 85 77 86 78 87 55 88
REMARK SMILES IDX 56 89 64 90 57 91 59 92 65 93 58 94 60 95 61 96 62 97 63 98
REMARK H PARENT 19 8 8 17 11 19 26 32 85 51 53 62
REMARK Flexibility Score: inf
ROOT
ATOM      1  C   UNL A   1      37.032  21.528  24.323  1.00  0.00     0.002 C 
ENDROOT
BRANCH   1   2
ATOM      2  C   UNL A   1      37.435  22.712  25.208  1.00  0.00     0.002 C 
BRANCH   2   3
ATOM      3  C   UNL A   1      36.276  23.342  25.978  1.00  0.00     0.021 C 
BRANCH   3   4
ATOM      4  C   UNL A   1      35.454  24.296  25.127  1.00  0.00     0.116 C 
BRANCH   4   5
ATOM      5  N   UNL A   1      34.233  24.678  25.808  1.00  0.00    -0.356 N 
ATOM      6  C   UNL A   1      33.450  25.780  25.663  1.00  0.00     0.227 C 
ATOM      7  O   UNL A   1      32.489  25.901  26.426  1.00  0.00    -0.275 OA
ATOM      8  H   UNL A   1      33.921  24.037  26.486  1.00  0.00     0.163 HD
BRANCH   6   9
ATOM      9  C   UNL A   1      33.734  26.832  24.602  1.00  0.00     0.129 C 
ATOM     10  C   UNL A   1      32.621  26.979  23.583  1.00  0.00     0.124 C 
ATOM     11  C   UNL A   1      32.190  28.441  23.611  1.00  0.00     0.186 C 
ATOM     12  O   UNL A   1      32.945  29.103  24.638  1.00  0.00    -0.378 OA
ATOM     13  C   UNL A   1      33.895  28.203  25.237  1.00  0.00     0.176 C 
BRANCH  10  14
ATOM     14  N   UNL A   1      32.830  26.374  22.256  1.00  0.00    -0.332 N 
ATOM     15  N   UNL A   1      32.659  23.984  21.895  1.00  0.00    -0.308 N 
ATOM     16  C   UNL A   1      32.835  25.257  21.549  1.00  0.00     0.319 C 
ATOM     17  H   UNL A   1      32.580  23.431  21.084  1.00  0.00     0.171 HD
ATOM     18  O   UNL A   1      33.010  25.440  20.332  1.00  0.00    -0.248 OA
ATOM     19  H   UNL A   1      33.065  27.105  21.641  1.00  0.00     0.165 HD
BRANCH  15  20
ATOM     20  C   UNL A   1      32.547  23.167  23.026  1.00  0.00     0.046 A 
ATOM     21  C   UNL A   1      30.303  22.937  26.127  1.00  0.00     0.044 C 
ATOM     22  C   UNL A   1      31.377  22.659  25.123  1.00  0.00    -0.046 A 
ATOM     23  C   UNL A   1      32.237  21.585  25.351  1.00  0.00     0.042 A 
ATOM     24  C   UNL A   1      31.546  23.454  23.969  1.00  0.00     0.029 A 
ATOM     25  C   UNL A   1      33.200  21.293  24.412  1.00  0.00     0.125 A 
ATOM     26  F   UNL A   1      34.028  20.260  24.606  1.00  0.00    -0.207 F 
ATOM     27  C   UNL A   1      33.322  22.061  23.263  1.00  0.00     0.065 A 
ENDBRANCH  15  20
ENDBRANCH  10  14
ENDBRANCH   6   9
ENDBRANCH   4   5
ENDBRANCH   3   4
ENDBRANCH   2   3
ENDBRANCH   1   2
BRANCH   1  28
ATOM     28  C   UNL A   1      37.780  20.224  24.616  1.00  0.00     0.021 C 
BRANCH  28  29
ATOM     29  C   UNL A   1      38.465  20.194  25.976  1.00  0.00     0.116 C 
BRANCH  29  30
ATOM     30  N   UNL A   1      39.623  19.312  25.965  1.00  0.00    -0.352 N 
ATOM     31  C   UNL A   1      40.945  19.649  26.089  1.00  0.00     0.251 C 
ATOM     32  H   UNL A   1      39.433  18.353  25.855  1.00  0.00     0.163 HD
ATOM     33  O   UNL A   1      41.826  18.838  25.822  1.00  0.00    -0.269 OA
BRANCH  31  34
ATOM     34  C   UNL A   1      41.281  21.011  26.538  1.00  0.00     0.039 A 
ATOM     35  C   UNL A   1      41.963  21.181  27.744  1.00  0.00     0.014 A 
ATOM     36  C   UNL A   1      40.968  22.106  25.728  1.00  0.00     0.014 A 
ATOM     37  C   UNL A   1      42.379  22.459  28.115  1.00  0.00     0.010 A 
ATOM     38  C   UNL A   1      41.447  23.365  26.066  1.00  0.00     0.010 A 
ATOM     39  C   UNL A   1      42.152  23.553  27.265  1.00  0.00    -0.014 A 
BRANCH  39  40
ATOM     40  C   UNL A   1      42.658  24.907  27.595  1.00  0.00     0.031 A 
ATOM     41  C   UNL A   1      41.741  25.914  28.230  1.00  0.00     0.074 A 
ATOM     42  C   UNL A   1      43.905  25.256  27.220  1.00  0.00     0.049 A 
ATOM     43  N   UNL A   1      41.967  27.172  28.505  1.00  0.00    -0.248 NA
ATOM     44  C   UNL A   1      40.383  25.460  28.575  1.00  0.00     0.031 C 
ATOM     45  C   UNL A   1      44.855  24.386  26.524  1.00  0.00     0.029 A 
ATOM     46  N   UNL A   1      44.572  26.451  27.334  1.00  0.00    -0.354 N 
ATOM     47  C   UNL A   1      40.772  27.671  29.007  1.00  0.00     0.074 A 
ATOM     48  C   UNL A   1      39.816  26.586  28.986  1.00  0.00     0.031 C 
ATOM     49  C   UNL A   1      45.976  25.078  26.262  1.00  0.00     0.029 A 
ATOM     50  C   UNL A   1      45.810  26.449  26.735  1.00  0.00     0.049 A 
ATOM     51  H   UNL A   1      44.199  27.234  27.800  1.00  0.00     0.167 HD
ATOM     52  C   UNL A   1      40.503  28.916  29.459  1.00  0.00     0.034 A 
ATOM     53  C   UNL A   1      46.701  27.445  26.564  1.00  0.00     0.034 A 
ATOM     54  C   UNL A   1      41.473  29.974  29.524  1.00  0.00     0.049 A 
ATOM     55  C   UNL A   1      46.383  28.809  27.115  1.00  0.00     0.074 A 
ATOM     56  C   UNL A   1      41.333  31.232  30.083  1.00  0.00     0.029 A 
ATOM     57  N   UNL A   1      42.752  29.909  28.996  1.00  0.00    -0.354 N 
ATOM     58  N   UNL A   1      45.316  29.210  27.763  1.00  0.00    -0.248 NA
ATOM     59  C   UNL A   1      47.406  29.852  26.942  1.00  0.00     0.031 C 
ATOM     60  C   UNL A   1      42.514  31.943  29.856  1.00  0.00     0.029 A 
ATOM     61  C   UNL A   1      43.402  31.115  29.189  1.00  0.00     0.049 A 
ATOM     62  H   UNL A   1      43.139  29.123  28.549  1.00  0.00     0.167 HD
ATOM     63  C   UNL A   1      45.550  30.537  28.100  1.00  0.00     0.074 A 
ATOM     64  C   UNL A   1      46.872  30.866  27.610  1.00  0.00     0.031 C 
ATOM     65  C   UNL A   1      44.738  31.412  28.742  1.00  0.00     0.034 A 
BRANCH  52  66
ATOM     66  C   UNL A   1      39.113  29.207  29.958  1.00  0.00     0.023 A 
ATOM     67  C   UNL A   1      38.759  28.881  31.282  1.00  0.00     0.012 A 
ATOM     68  C   UNL A   1      38.192  29.894  29.141  1.00  0.00     0.148 A 
ATOM     69  C   UNL A   1      37.500  29.214  31.781  1.00  0.00     0.002 A 
ATOM     70  C   UNL A   1      36.957  30.262  29.661  1.00  0.00     0.091 A 
ATOM     71  F   UNL A   1      38.543  30.173  27.879  1.00  0.00    -0.205 F 
ATOM     72  C   UNL A   1      36.606  29.916  30.975  1.00  0.00     0.022 A 
BRANCH  70  73
ATOM     73  S   UNL A   1      35.768  31.239  28.733  1.00  0.00     0.127 S 
ATOM     74  O   UNL A   1      35.181  30.230  27.853  1.00  0.00    -0.237 OA
ATOM     75  O   UNL A   1      34.878  31.719  29.790  1.00  0.00    -0.237 OA
ATOM     76  O   UNL A   1      36.535  32.279  28.062  1.00  0.00    -0.744 OA
ENDBRANCH  70  73
ENDBRANCH  52  66
BRANCH  53  77
ATOM     77  C   UNL A   1      47.988  27.190  25.859  1.00  0.00     0.023 A 
ATOM     78  C   UNL A   1      49.102  26.728  26.587  1.00  0.00     0.012 A 
ATOM     79  C   UNL A   1      48.116  27.402  24.472  1.00  0.00     0.148 A 
ATOM     80  C   UNL A   1      50.331  26.526  25.956  1.00  0.00     0.002 A 
ATOM     81  C   UNL A   1      49.326  27.141  23.840  1.00  0.00     0.091 A 
ATOM     82  F   UNL A   1      47.051  27.854  23.797  1.00  0.00    -0.205 F 
ATOM     83  C   UNL A   1      50.441  26.723  24.583  1.00  0.00     0.022 A 
BRANCH  81  84
ATOM     84  S   UNL A   1      49.514  27.237  22.056  1.00  0.00     0.127 S 
ATOM     85  O   UNL A   1      50.950  27.029  21.894  1.00  0.00    -0.237 OA
ATOM     86  O   UNL A   1      48.674  26.128  21.602  1.00  0.00    -0.237 OA
ATOM     87  O   UNL A   1      49.015  28.554  21.684  1.00  0.00    -0.744 OA
ENDBRANCH  81  84
ENDBRANCH  53  77
BRANCH  65  88
ATOM     88  C   UNL A   1      45.260  32.803  28.986  1.00  0.00     0.023 A 
ATOM     89  C   UNL A   1      46.010  33.078  30.146  1.00  0.00     0.012 A 
ATOM     90  C   UNL A   1      45.077  33.816  28.024  1.00  0.00     0.148 A 
ATOM     91  C   UNL A   1      46.543  34.348  30.360  1.00  0.00     0.002 A 
ATOM     92  C   UNL A   1      45.656  35.062  28.217  1.00  0.00     0.091 A 
ATOM     93  F   UNL A   1      44.348  33.537  26.934  1.00  0.00    -0.205 F 
ATOM     94  C   UNL A   1      46.378  35.335  29.391  1.00  0.00     0.022 A 
BRANCH  92  95
ATOM     95  S   UNL A   1      45.584  36.364  26.982  1.00  0.00     0.127 S 
ATOM     96  O   UNL A   1      44.146  36.620  26.903  1.00  0.00    -0.237 OA
ATOM     97  O   UNL A   1      46.360  37.431  27.610  1.00  0.00    -0.237 OA
ATOM     98  O   UNL A   1      46.182  35.808  25.774  1.00  0.00    -0.744 OA
ENDBRANCH  92  95
ENDBRANCH  65  88
ENDBRANCH  39  40
ENDBRANCH  31  34
ENDBRANCH  29  30
ENDBRANCH  28  29
ENDBRANCH   1  28
TORSDOF 18
ENDMDL
MODEL 2
REMARK VINA RESULT:     -11.8      6.187     11.208
REMARK SMILES Cc1cc(F)cc(NC(=O)N[C@@H]2COC[C@H]2C(=O)NCCCCCCNC(=O)c2ccc(-c3c4nc(c(-c5cccc(S(=O)(=O)[O-])c5F)c5ccc([nH]5)c(-c5cccc(S(=O)(=O)[O-])c5F)c5nc(c(-c6cccc(S(=O)(=O)[O-])c6F)c6ccc3[nH]6)C=C5)C=C4)cc2)c1
REMARK SMILES IDX 23 1 22 2 21 3 20 4 19 5 17 6 18 7 16 9 12 10 13 11 14 12
REMARK SMILES IDX 15 13 11 14 8 15 9 16 10 18 7 20 1 21 2 22 3 23 92 24 4 25
REMARK SMILES IDX 5 26 6 27 24 28 25 29 26 30 27 31 28 33 29 34 30 35 91 36
REMARK SMILES IDX 31 37 90 38 32 39 33 40 34 41 84 42 35 43 89 44 83 45 85 46
REMARK SMILES IDX 36 47 88 48 82 49 81 50 37 52 69 53 49 54 68 55 50 56 53 57
REMARK SMILES IDX 67 58 86 59 51 60 52 61 66 63 87 64 54 65 38 66 39 67 47 68
REMARK SMILES IDX 40 69 42 70 48 71 41 72 43 73 44 74 45 75 46 76 70 77 71 78
REMARK SMILES IDX 79 79 72 80 74 81 80 82 73 83 75 84 76 85 77 86 78 87 55 88
REMARK SMILES IDX 56 89 64 90 57 91 59 92 65 93 58 94 60 95 61 96 62 97 63 98
REMARK H PARENT 19 8 8 17 11 19 26 32 85 51 53 62
REMARK Flexibility Score: inf
ROOT
ATOM      1  C   UNL A   1      32.277  30.289  25.952  1.00  0.00     0.002 C 
ENDROOT
BRANCH   1   2
ATOM      2  C   UNL A   1      32.450  28.929  26.636  1.00  0.00     0.002 C 
BRANCH   2   3
ATOM      3  C   UNL A   1      33.681  28.150  26.177  1.00  0.00     0.021 C 
BRANCH   3   4
ATOM      4  C   UNL A   1      33.506  26.646  26.306  1.00  0.00     0.116 C 
BRANCH   4   5
ATOM      5  N   UNL A   1      34.094  25.957  25.174  1.00  0.00    -0.356 N 
ATOM      6  C   UNL A   1      34.441  24.652  25.019  1.00  0.00     0.227 C 
ATOM      7  O   UNL A   1      34.997  24.331  23.966  1.00  0.00    -0.275 OA
ATOM      8  H   UNL A   1      34.271  26.527  24.390  1.00  0.00     0.163 HD
BRANCH   6   9
ATOM      9  C   UNL A   1      34.159  23.614  26.094  1.00  0.00     0.129 C 
ATOM     10  C   UNL A   1      32.970  22.726  25.780  1.00  0.00     0.124 C 
ATOM     11  C   UNL A   1      33.474  21.289  25.813  1.00  0.00     0.186 C 
ATOM     12  O   UNL A   1      34.890  21.324  26.052  1.00  0.00    -0.378 OA
ATOM     13  C   UNL A   1      35.342  22.674  26.254  1.00  0.00     0.176 C 
BRANCH  10  14
ATOM     14  N   UNL A   1      31.710  23.004  26.491  1.00  0.00    -0.332 N 
ATOM     15  N   UNL A   1      30.067  24.564  25.627  1.00  0.00    -0.308 N 
ATOM     16  C   UNL A   1      30.564  23.666  26.475  1.00  0.00     0.319 C 
ATOM     17  H   UNL A   1      29.123  24.735  25.847  1.00  0.00     0.171 HD
ATOM     18  O   UNL A   1      29.806  23.369  27.414  1.00  0.00    -0.248 OA
ATOM     19  H   UNL A   1      31.728  22.480  27.324  1.00  0.00     0.165 HD
BRANCH  15  20
ATOM     20  C   UNL A   1      30.437  25.346  24.527  1.00  0.00     0.046 A 
ATOM     21  C   UNL A   1      29.986  28.972  23.367  1.00  0.00     0.044 C 
ATOM     22  C   UNL A   1      30.388  27.532  23.413  1.00  0.00    -0.046 A 
ATOM     23  C   UNL A   1      31.125  27.014  22.348  1.00  0.00     0.042 A 
ATOM     24  C   UNL A   1      30.035  26.691  24.490  1.00  0.00     0.029 A 
ATOM     25  C   UNL A   1      31.538  25.702  22.401  1.00  0.00     0.125 A 
ATOM     26  F   UNL A   1      32.256  25.189  21.395  1.00  0.00    -0.207 F 
ATOM     27  C   UNL A   1      31.217  24.903  23.490  1.00  0.00     0.065 A 
ENDBRANCH  15  20
ENDBRANCH  10  14
ENDBRANCH   6   9
ENDBRANCH   4   5
ENDBRANCH   3   4
ENDBRANCH   2   3
ENDBRANCH   1   2
BRANCH   1  28
ATOM     28  C   UNL A   1      31.934  31.444  26.897  1.00  0.00     0.021 C 
BRANCH  28  29
ATOM     29  C   UNL A   1      33.132  32.295  27.299  1.00  0.00     0.116 C 
BRANCH  29  30
ATOM     30  N   UNL A   1      32.742  33.673  27.552  1.00  0.00    -0.352 N 
ATOM     31  C   UNL A   1      33.163  34.502  28.557  1.00  0.00     0.251 C 
ATOM     32  H   UNL A   1      32.093  34.059  26.921  1.00  0.00     0.163 HD
ATOM     33  O   UNL A   1      32.574  35.553  28.792  1.00  0.00    -0.269 OA
BRANCH  31  34
ATOM     34  C   UNL A   1      34.332  34.095  29.356  1.00  0.00     0.039 A 
ATOM     35  C   UNL A   1      34.135  33.366  30.529  1.00  0.00     0.014 A 
ATOM     36  C   UNL A   1      35.620  34.391  28.901  1.00  0.00     0.014 A 
ATOM     37  C   UNL A   1      35.242  32.886  31.226  1.00  0.00     0.010 A 
ATOM     38  C   UNL A   1      36.718  33.850  29.557  1.00  0.00     0.010 A 
ATOM     39  C   UNL A   1      36.539  33.098  30.728  1.00  0.00    -0.014 A 
BRANCH  39  40
ATOM     40  C   UNL A   1      37.728  32.526  31.403  1.00  0.00     0.031 A 
ATOM     41  C   UNL A   1      38.475  31.387  30.767  1.00  0.00     0.074 A 
ATOM     42  C   UNL A   1      38.062  32.959  32.636  1.00  0.00     0.049 A 
ATOM     43  N   UNL A   1      39.474  30.693  31.242  1.00  0.00    -0.248 NA
ATOM     44  C   UNL A   1      38.022  30.951  29.435  1.00  0.00     0.031 C 
ATOM     45  C   UNL A   1      37.359  34.002  33.386  1.00  0.00     0.029 A 
ATOM     46  N   UNL A   1      39.052  32.545  33.492  1.00  0.00    -0.354 N 
ATOM     47  C   UNL A   1      39.738  29.711  30.295  1.00  0.00     0.074 A 
ATOM     48  C   UNL A   1      38.785  29.887  29.223  1.00  0.00     0.031 C 
ATOM     49  C   UNL A   1      37.931  34.138  34.593  1.00  0.00     0.029 A 
ATOM     50  C   UNL A   1      39.014  33.167  34.718  1.00  0.00     0.049 A 
ATOM     51  H   UNL A   1      39.724  31.867  33.251  1.00  0.00     0.167 HD
ATOM     52  C   UNL A   1      40.699  28.760  30.313  1.00  0.00     0.034 A 
ATOM     53  C   UNL A   1      39.751  32.962  35.827  1.00  0.00     0.034 A 
ATOM     54  C   UNL A   1      41.676  28.624  31.359  1.00  0.00     0.049 A 
ATOM     55  C   UNL A   1      40.838  31.921  35.797  1.00  0.00     0.074 A 
ATOM     56  C   UNL A   1      42.767  27.775  31.407  1.00  0.00     0.029 A 
ATOM     57  N   UNL A   1      41.668  29.337  32.547  1.00  0.00    -0.354 N 
ATOM     58  N   UNL A   1      41.197  31.131  34.814  1.00  0.00    -0.248 NA
ATOM     59  C   UNL A   1      41.644  31.764  37.017  1.00  0.00     0.031 C 
ATOM     60  C   UNL A   1      43.396  27.944  32.643  1.00  0.00     0.029 A 
ATOM     61  C   UNL A   1      42.718  28.925  33.348  1.00  0.00     0.049 A 
ATOM     62  H   UNL A   1      41.013  30.030  32.785  1.00  0.00     0.167 HD
ATOM     63  C   UNL A   1      42.286  30.408  35.285  1.00  0.00     0.074 A 
ATOM     64  C   UNL A   1      42.546  30.873  36.631  1.00  0.00     0.031 C 
ATOM     65  C   UNL A   1      42.997  29.434  34.666  1.00  0.00     0.034 A 
BRANCH  52  66
ATOM     66  C   UNL A   1      40.777  27.805  29.153  1.00  0.00     0.023 A 
ATOM     67  C   UNL A   1      39.896  26.708  29.085  1.00  0.00     0.012 A 
ATOM     68  C   UNL A   1      41.658  28.055  28.081  1.00  0.00     0.148 A 
ATOM     69  C   UNL A   1      39.904  25.859  27.979  1.00  0.00     0.002 A 
ATOM     70  C   UNL A   1      41.628  27.231  26.962  1.00  0.00     0.091 A 
ATOM     71  F   UNL A   1      42.502  29.091  28.177  1.00  0.00    -0.205 F 
ATOM     72  C   UNL A   1      40.759  26.129  26.914  1.00  0.00     0.022 A 
BRANCH  70  73
ATOM     73  S   UNL A   1      42.630  27.541  25.504  1.00  0.00     0.127 S 
ATOM     74  O   UNL A   1      42.346  26.358  24.694  1.00  0.00    -0.237 OA
ATOM     75  O   UNL A   1      42.048  28.783  24.994  1.00  0.00    -0.237 OA
ATOM     76  O   UNL A   1      44.002  27.658  25.974  1.00  0.00    -0.744 OA
ENDBRANCH  70  73
ENDBRANCH  52  66
BRANCH  53  77
ATOM     77  C   UNL A   1      39.505  33.770  37.055  1.00  0.00     0.023 A 
ATOM     78  C   UNL A   1      40.005  35.084  37.136  1.00  0.00     0.012 A 
ATOM     79  C   UNL A   1      38.779  33.245  38.142  1.00  0.00     0.148 A 
ATOM     80  C   UNL A   1      39.826  35.843  38.293  1.00  0.00     0.002 A 
ATOM     81  C   UNL A   1      38.553  34.028  39.268  1.00  0.00     0.091 A 
ATOM     82  F   UNL A   1      38.322  31.988  38.054  1.00  0.00    -0.205 F 
ATOM     83  C   UNL A   1      39.094  35.320  39.354  1.00  0.00     0.022 A 
BRANCH  81  84
ATOM     84  S   UNL A   1      37.505  33.481  40.619  1.00  0.00     0.127 S 
ATOM     85  O   UNL A   1      36.353  32.939  39.905  1.00  0.00    -0.237 OA
ATOM     86  O   UNL A   1      38.351  32.482  41.275  1.00  0.00    -0.237 OA
ATOM     87  O   UNL A   1      37.256  34.670  41.423  1.00  0.00    -0.744 OA
ENDBRANCH  81  84
ENDBRANCH  53  77
BRANCH  65  88
ATOM     88  C   UNL A   1      44.149  28.821  35.418  1.00  0.00     0.023 A 
ATOM     89  C   UNL A   1      45.445  29.349  35.268  1.00  0.00     0.012 A 
ATOM     90  C   UNL A   1      43.928  27.776  36.337  1.00  0.00     0.148 A 
ATOM     91  C   UNL A   1      46.512  28.826  35.997  1.00  0.00     0.002 A 
ATOM     92  C   UNL A   1      44.985  27.295  37.099  1.00  0.00     0.091 A 
ATOM     93  F   UNL A   1      42.689  27.278  36.453  1.00  0.00    -0.205 F 
ATOM     94  C   UNL A   1      46.280  27.809  36.921  1.00  0.00     0.022 A 
BRANCH  92  95
ATOM     95  S   UNL A   1      44.765  26.060  38.384  1.00  0.00     0.127 S 
ATOM     96  O   UNL A   1      44.235  24.930  37.622  1.00  0.00    -0.237 OA
ATOM     97  O   UNL A   1      46.130  25.878  38.875  1.00  0.00    -0.237 OA
ATOM     98  O   UNL A   1      43.845  26.643  39.351  1.00  0.00    -0.744 OA
ENDBRANCH  92  95
ENDBRANCH  65  88
ENDBRANCH  39  40
ENDBRANCH  31  34
ENDBRANCH  29  30
ENDBRANCH  28  29
ENDBRANCH   1  28
TORSDOF 18
ENDMDL
MODEL 3
REMARK VINA RESULT:     -11.6      5.717     10.944
REMARK SMILES Cc1cc(F)cc(NC(=O)N[C@@H]2COC[C@H]2C(=O)NCCCCCCNC(=O)c2ccc(-c3c4nc(c(-c5cccc(S(=O)(=O)[O-])c5F)c5ccc([nH]5)c(-c5cccc(S(=O)(=O)[O-])c5F)c5nc(c(-c6cccc(S(=O)(=O)[O-])c6F)c6ccc3[nH]6)C=C5)C=C4)cc2)c1
REMARK SMILES IDX 23 1 22 2 21 3 20 4 19 5 17 6 18 7 16 9 12 10 13 11 14 12
REMARK SMILES IDX 15 13 11 14 8 15 9 16 10 18 7 20 1 21 2 22 3 23 92 24 4 25
REMARK SMILES IDX 5 26 6 27 24 28 25 29 26 30 27 31 28 33 29 34 30 35 91 36
REMARK SMILES IDX 31 37 90 38 32 39 33 40 34 41 84 42 35 43 89 44 83 45 85 46
REMARK SMILES IDX 36 47 88 48 82 49 81 50 37 52 69 53 49 54 68 55 50 56 53 57
REMARK SMILES IDX 67 58 86 59 51 60 52 61 66 63 87 64 54 65 38 66 39 67 47 68
REMARK SMILES IDX 40 69 42 70 48 71 41 72 43 73 44 74 45 75 46 76 70 77 71 78
REMARK SMILES IDX 79 79 72 80 74 81 80 82 73 83 75 84 76 85 77 86 78 87 55 88
REMARK SMILES IDX 56 89 64 90 57 91 59 92 65 93 58 94 60 95 61 96 62 97 63 98
REMARK H PARENT 19 8 8 17 11 19 26 32 85 51 53 62
REMARK Flexibility Score: inf
ROOT
ATOM      1  C   UNL A   1      31.686  30.224  25.751  1.00  0.00     0.002 C 
ENDROOT
BRANCH   1   2
ATOM      2  C   UNL A   1      32.173  28.907  26.366  1.00  0.00     0.002 C 
BRANCH   2   3
ATOM      3  C   UNL A   1      33.217  28.173  25.527  1.00  0.00     0.021 C 
BRANCH   3   4
ATOM      4  C   UNL A   1      33.522  26.781  26.054  1.00  0.00     0.116 C 
BRANCH   4   5
ATOM      5  N   UNL A   1      34.123  25.956  25.025  1.00  0.00    -0.356 N 
ATOM      6  C   UNL A   1      34.447  24.636  25.030  1.00  0.00     0.227 C 
ATOM      7  O   UNL A   1      35.021  24.186  24.035  1.00  0.00    -0.275 OA
ATOM      8  H   UNL A   1      34.329  26.428  24.186  1.00  0.00     0.163 HD
BRANCH   6   9
ATOM      9  C   UNL A   1      34.119  23.734  26.209  1.00  0.00     0.129 C 
ATOM     10  C   UNL A   1      32.944  22.809  25.954  1.00  0.00     0.124 C 
ATOM     11  C   UNL A   1      33.446  21.388  26.182  1.00  0.00     0.186 C 
ATOM     12  O   UNL A   1      34.850  21.459  26.476  1.00  0.00    -0.378 OA
ATOM     13  C   UNL A   1      35.293  22.826  26.533  1.00  0.00     0.176 C 
BRANCH  10  14
ATOM     14  N   UNL A   1      31.654  23.163  26.571  1.00  0.00    -0.332 N 
ATOM     15  N   UNL A   1      30.078  24.649  25.482  1.00  0.00    -0.308 N 
ATOM     16  C   UNL A   1      30.520  23.831  26.435  1.00  0.00     0.319 C 
ATOM     17  H   UNL A   1      29.126  24.848  25.638  1.00  0.00     0.171 HD
ATOM     18  O   UNL A   1      29.712  23.631  27.358  1.00  0.00    -0.248 OA
ATOM     19  H   UNL A   1      31.624  22.721  27.449  1.00  0.00     0.165 HD
BRANCH  15  20
ATOM     20  C   UNL A   1      30.512  25.320  24.334  1.00  0.00     0.046 A 
ATOM     21  C   UNL A   1      30.103  28.800  22.778  1.00  0.00     0.044 C 
ATOM     22  C   UNL A   1      30.516  27.379  22.998  1.00  0.00    -0.046 A 
ATOM     23  C   UNL A   1      31.326  26.766  22.043  1.00  0.00     0.042 A 
ATOM     24  C   UNL A   1      30.100  26.647  24.131  1.00  0.00     0.029 A 
ATOM     25  C   UNL A   1      31.748  25.474  22.259  1.00  0.00     0.125 A 
ATOM     26  F   UNL A   1      32.536  24.873  21.360  1.00  0.00    -0.207 F 
ATOM     27  C   UNL A   1      31.364  24.786  23.401  1.00  0.00     0.065 A 
ENDBRANCH  15  20
ENDBRANCH  10  14
ENDBRANCH   6   9
ENDBRANCH   4   5
ENDBRANCH   3   4
ENDBRANCH   2   3
ENDBRANCH   1   2
BRANCH   1  28
ATOM     28  C   UNL A   1      31.512  31.372  26.749  1.00  0.00     0.021 C 
BRANCH  28  29
ATOM     29  C   UNL A   1      32.803  32.113  27.075  1.00  0.00     0.116 C 
BRANCH  29  30
ATOM     30  N   UNL A   1      32.558  33.529  27.300  1.00  0.00    -0.352 N 
ATOM     31  C   UNL A   1      33.104  34.341  28.258  1.00  0.00     0.251 C 
ATOM     32  H   UNL A   1      31.919  33.958  26.687  1.00  0.00     0.163 HD
ATOM     33  O   UNL A   1      32.630  35.450  28.485  1.00  0.00    -0.269 OA
BRANCH  31  34
ATOM     34  C   UNL A   1      34.265  33.846  29.016  1.00  0.00     0.039 A 
ATOM     35  C   UNL A   1      34.080  32.843  29.970  1.00  0.00     0.014 A 
ATOM     36  C   UNL A   1      35.542  34.341  28.733  1.00  0.00     0.014 A 
ATOM     37  C   UNL A   1      35.192  32.297  30.608  1.00  0.00     0.010 A 
ATOM     38  C   UNL A   1      36.651  33.744  29.316  1.00  0.00     0.010 A 
ATOM     39  C   UNL A   1      36.486  32.721  30.263  1.00  0.00    -0.014 A 
BRANCH  39  40
ATOM     40  C   UNL A   1      37.689  32.097  30.864  1.00  0.00     0.031 A 
ATOM     41  C   UNL A   1      38.440  31.037  30.107  1.00  0.00     0.074 A 
ATOM     42  C   UNL A   1      38.032  32.406  32.131  1.00  0.00     0.049 A 
ATOM     43  N   UNL A   1      39.452  30.310  30.499  1.00  0.00    -0.248 NA
ATOM     44  C   UNL A   1      37.976  30.734  28.742  1.00  0.00     0.031 C 
ATOM     45  C   UNL A   1      37.327  33.360  32.990  1.00  0.00     0.029 A 
ATOM     46  N   UNL A   1      39.036  31.919  32.930  1.00  0.00    -0.354 N 
ATOM     47  C   UNL A   1      39.715  29.433  29.454  1.00  0.00     0.074 A 
ATOM     48  C   UNL A   1      38.748  29.706  28.415  1.00  0.00     0.031 C 
ATOM     49  C   UNL A   1      37.911  33.378  34.199  1.00  0.00     0.029 A 
ATOM     50  C   UNL A   1      39.005  32.413  34.213  1.00  0.00     0.049 A 
ATOM     51  H   UNL A   1      39.713  31.277  32.615  1.00  0.00     0.167 HD
ATOM     52  C   UNL A   1      40.686  28.496  29.365  1.00  0.00     0.034 A 
ATOM     53  C   UNL A   1      39.757  32.104  35.288  1.00  0.00     0.034 A 
ATOM     54  C   UNL A   1      41.676  28.266  30.382  1.00  0.00     0.049 A 
ATOM     55  C   UNL A   1      40.855  31.084  35.141  1.00  0.00     0.074 A 
ATOM     56  C   UNL A   1      42.777  27.428  30.332  1.00  0.00     0.029 A 
ATOM     57  N   UNL A   1      41.675  28.854  31.636  1.00  0.00    -0.354 N 
ATOM     58  N   UNL A   1      41.211  30.403  34.079  1.00  0.00    -0.248 NA
ATOM     59  C   UNL A   1      41.676  30.813  36.330  1.00  0.00     0.031 C 
ATOM     60  C   UNL A   1      43.418  27.479  31.572  1.00  0.00     0.029 A 
ATOM     61  C   UNL A   1      42.738  28.375  32.380  1.00  0.00     0.049 A 
ATOM     62  H   UNL A   1      41.015  29.512  31.950  1.00  0.00     0.167 HD
ATOM     63  C   UNL A   1      42.312  29.648  34.462  1.00  0.00     0.074 A 
ATOM     64  C   UNL A   1      42.583  29.976  35.846  1.00  0.00     0.031 C 
ATOM     65  C   UNL A   1      43.027  28.750  33.740  1.00  0.00     0.034 A 
BRANCH  52  66
ATOM     66  C   UNL A   1      40.760  27.665  28.113  1.00  0.00     0.023 A 
ATOM     67  C   UNL A   1      41.388  28.182  26.962  1.00  0.00     0.012 A 
ATOM     68  C   UNL A   1      40.294  26.335  28.111  1.00  0.00     0.148 A 
ATOM     69  C   UNL A   1      41.531  27.396  25.819  1.00  0.00     0.002 A 
ATOM     70  C   UNL A   1      40.482  25.544  26.984  1.00  0.00     0.091 A 
ATOM     71  F   UNL A   1      39.681  25.872  29.209  1.00  0.00    -0.205 F 
ATOM     72  C   UNL A   1      41.091  26.075  25.836  1.00  0.00     0.022 A 
BRANCH  70  73
ATOM     73  S   UNL A   1      40.027  23.807  26.933  1.00  0.00     0.127 S 
ATOM     74  O   UNL A   1      38.594  23.886  26.656  1.00  0.00    -0.237 OA
ATOM     75  O   UNL A   1      40.837  23.313  25.819  1.00  0.00    -0.237 OA
ATOM     76  O   UNL A   1      40.380  23.258  28.234  1.00  0.00    -0.744 OA
ENDBRANCH  70  73
ENDBRANCH  52  66
BRANCH  53  77
ATOM     77  C   UNL A   1      39.517  32.780  36.594  1.00  0.00     0.023 A 
ATOM     78  C   UNL A   1      40.244  33.941  36.922  1.00  0.00     0.012 A 
ATOM     79  C   UNL A   1      38.574  32.280  37.513  1.00  0.00     0.148 A 
ATOM     80  C   UNL A   1      40.069  34.565  38.158  1.00  0.00     0.002 A 
ATOM     81  C   UNL A   1      38.361  32.941  38.717  1.00  0.00     0.091 A 
ATOM     82  F   UNL A   1      37.900  31.167  37.191  1.00  0.00    -0.205 F 
ATOM     83  C   UNL A   1      39.122  34.072  39.050  1.00  0.00     0.022 A 
BRANCH  81  84
ATOM     84  S   UNL A   1      37.066  32.452  39.861  1.00  0.00     0.127 S 
ATOM     85  O   UNL A   1      35.881  32.500  39.011  1.00  0.00    -0.237 OA
ATOM     86  O   UNL A   1      37.495  31.107  40.248  1.00  0.00    -0.237 OA
ATOM     87  O   UNL A   1      37.116  33.427  40.943  1.00  0.00    -0.744 OA
ENDBRANCH  81  84
ENDBRANCH  53  77
BRANCH  65  88
ATOM     88  C   UNL A   1      44.193  28.078  34.414  1.00  0.00     0.023 A 
ATOM     89  C   UNL A   1      45.454  28.704  34.425  1.00  0.00     0.012 A 
ATOM     90  C   UNL A   1      44.017  26.864  35.107  1.00  0.00     0.148 A 
ATOM     91  C   UNL A   1      46.530  28.118  35.090  1.00  0.00     0.002 A 
ATOM     92  C   UNL A   1      45.078  26.313  35.811  1.00  0.00     0.091 A 
ATOM     93  F   UNL A   1      42.812  26.277  35.071  1.00  0.00    -0.205 F 
ATOM     94  C   UNL A   1      46.340  26.931  35.793  1.00  0.00     0.022 A 
BRANCH  92  95
ATOM     95  S   UNL A   1      44.904  24.842  36.828  1.00  0.00     0.127 S 
ATOM     96  O   UNL A   1      44.268  23.911  35.897  1.00  0.00    -0.237 OA
ATOM     97  O   UNL A   1      46.293  24.525  37.154  1.00  0.00    -0.237 OA
ATOM     98  O   UNL A   1      44.087  25.235  37.969  1.00  0.00    -0.744 OA
ENDBRANCH  92  95
ENDBRANCH  65  88
ENDBRANCH  39  40
ENDBRANCH  31  34
ENDBRANCH  29  30
ENDBRANCH  28  29
ENDBRANCH   1  28
TORSDOF 18
ENDMDL
