MODEL 1
REMARK VINA RESULT:     -10.0      0.000      0.000
REMARK SMILES CC(C)(C)SSC[C@H]([NH3+])C(=O)NCCCCCCNC(=O)c1ccc(-c2c3nc(c(-c4cccc(S(=O)(=O)[O-])c4F)c4ccc([nH]4)c(-c4cccc(S(=O)(=O)[O-])c4F)c4nc(c(-c5cccc(S(=O)(=O)[O-])c5F)c5ccc2[nH]5)C=C4)C=C3)cc1
REMARK SMILES IDX 15 1 14 2 13 3 12 4 10 5 11 6 8 8 7 9 6 10 5 11 2 12 1 13
REMARK SMILES IDX 3 14 4 15 9 16 16 20 17 21 18 22 19 23 20 24 21 26 22 27
REMARK SMILES IDX 23 28 84 29 24 30 83 31 25 32 26 33 27 34 77 35 28 36 82 37
REMARK SMILES IDX 76 38 78 39 29 40 81 41 75 42 74 43 30 45 62 46 42 47 61 48
REMARK SMILES IDX 43 49 46 50 60 51 79 52 44 53 45 54 59 56 80 57 47 58 31 59
REMARK SMILES IDX 32 60 40 61 33 62 35 63 41 64 34 65 36 66 37 67 38 68 39 69
REMARK SMILES IDX 63 70 64 71 72 72 65 73 67 74 73 75 66 76 68 77 69 78 70 79
REMARK SMILES IDX 71 80 48 81 49 82 57 83 50 84 52 85 58 86 51 87 53 88 54 89
REMARK SMILES IDX 55 90 56 91
REMARK H PARENT 12 7 9 17 9 18 9 19 19 25 78 44 46 55
REMARK Flexibility Score: inf
ROOT
ATOM      1  C   UNL A   1      31.940  28.763  26.193  1.00  0.00     0.002 C 
ENDROOT
BRANCH   1   2
ATOM      2  C   UNL A   1      32.475  27.367  26.534  1.00  0.00     0.021 C 
BRANCH   2   3
ATOM      3  C   UNL A   1      31.848  26.234  25.723  1.00  0.00     0.116 C 
BRANCH   3   4
ATOM      4  N   UNL A   1      32.808  25.643  24.813  1.00  0.00    -0.351 N 
ATOM      5  C   UNL A   1      33.114  25.950  23.522  1.00  0.00     0.279 C 
ATOM      6  O   UNL A   1      33.939  25.226  22.952  1.00  0.00    -0.268 OA
ATOM      7  H   UNL A   1      33.324  24.896  25.190  1.00  0.00     0.163 HD
BRANCH   5   8
ATOM      8  C   UNL A   1      32.547  27.193  22.819  1.00  0.00     0.281 C 
BRANCH   8   9
ATOM      9  C   UNL A   1      31.158  26.853  22.253  1.00  0.00     0.157 C 
BRANCH   9  10
ATOM     10  S   UNL A   1      29.796  27.799  23.013  1.00  0.00    -0.087 SA
BRANCH  10  11
ATOM     11  S   UNL A   1      30.031  29.662  22.176  1.00  0.00    -0.088 SA
BRANCH  11  12
ATOM     12  C   UNL A   1      28.434  30.534  22.494  1.00  0.00     0.018 C 
ATOM     13  C   UNL A   1      28.704  31.514  23.646  1.00  0.00     0.023 C 
ATOM     14  C   UNL A   1      27.359  29.527  22.920  1.00  0.00     0.023 C 
ATOM     15  C   UNL A   1      27.983  31.319  21.256  1.00  0.00     0.023 C 
ENDBRANCH  11  12
ENDBRANCH  10  11
ENDBRANCH   9  10
ENDBRANCH   8   9
BRANCH   8  16
ATOM     16  N   UNL A   1      33.514  27.767  21.852  1.00  0.00    -0.347 N 
ATOM     17  H   UNL A   1      34.264  27.096  21.682  1.00  0.00     0.345 HD
ATOM     18  H   UNL A   1      33.908  28.627  22.234  1.00  0.00     0.345 HD
ATOM     19  H   UNL A   1      33.037  27.972  20.974  1.00  0.00     0.345 HD
ENDBRANCH   8  16
ENDBRANCH   5   8
ENDBRANCH   3   4
ENDBRANCH   2   3
ENDBRANCH   1   2
BRANCH   1  20
ATOM     20  C   UNL A   1      32.091  29.815  27.296  1.00  0.00     0.002 C 
BRANCH  20  21
ATOM     21  C   UNL A   1      31.901  31.265  26.849  1.00  0.00     0.021 C 
BRANCH  21  22
ATOM     22  C   UNL A   1      33.083  32.184  27.134  1.00  0.00     0.116 C 
BRANCH  22  23
ATOM     23  N   UNL A   1      32.663  33.531  27.491  1.00  0.00    -0.352 N 
ATOM     24  C   UNL A   1      33.136  34.335  28.500  1.00  0.00     0.251 C 
ATOM     25  H   UNL A   1      31.947  33.917  26.938  1.00  0.00     0.163 HD
ATOM     26  O   UNL A   1      32.571  35.389  28.776  1.00  0.00    -0.269 OA
BRANCH  24  27
ATOM     27  C   UNL A   1      34.322  33.903  29.269  1.00  0.00     0.039 A 
ATOM     28  C   UNL A   1      34.153  33.051  30.364  1.00  0.00     0.014 A 
ATOM     29  C   UNL A   1      35.599  34.317  28.884  1.00  0.00     0.014 A 
ATOM     30  C   UNL A   1      35.275  32.562  31.038  1.00  0.00     0.010 A 
ATOM     31  C   UNL A   1      36.715  33.777  29.512  1.00  0.00     0.010 A 
ATOM     32  C   UNL A   1      36.565  32.898  30.597  1.00  0.00    -0.014 A 
BRANCH  32  33
ATOM     33  C   UNL A   1      37.785  32.351  31.241  1.00  0.00     0.031 A 
ATOM     34  C   UNL A   1      38.521  31.212  30.594  1.00  0.00     0.074 A 
ATOM     35  C   UNL A   1      38.141  32.775  32.469  1.00  0.00     0.049 A 
ATOM     36  N   UNL A   1      39.496  30.484  31.066  1.00  0.00    -0.248 NA
ATOM     37  C   UNL A   1      38.068  30.814  29.250  1.00  0.00     0.031 C 
ATOM     38  C   UNL A   1      37.456  33.817  33.235  1.00  0.00     0.029 A 
ATOM     39  N   UNL A   1      39.136  32.342  33.310  1.00  0.00    -0.354 N 
ATOM     40  C   UNL A   1      39.738  29.507  30.107  1.00  0.00     0.074 A 
ATOM     41  C   UNL A   1      38.791  29.724  29.035  1.00  0.00     0.031 C 
ATOM     42  C   UNL A   1      38.032  33.924  34.443  1.00  0.00     0.029 A 
ATOM     43  C   UNL A   1      39.106  32.940  34.549  1.00  0.00     0.049 A 
ATOM     44  H   UNL A   1      39.808  31.670  33.052  1.00  0.00     0.167 HD
ATOM     45  C   UNL A   1      40.678  28.534  30.108  1.00  0.00     0.034 A 
ATOM     46  C   UNL A   1      39.840  32.706  35.656  1.00  0.00     0.034 A 
ATOM     47  C   UNL A   1      41.655  28.363  31.147  1.00  0.00     0.049 A 
ATOM     48  C   UNL A   1      40.927  31.666  35.609  1.00  0.00     0.074 A 
ATOM     49  C   UNL A   1      42.723  27.485  31.187  1.00  0.00     0.029 A 
ATOM     50  N   UNL A   1      41.679  29.080  32.334  1.00  0.00    -0.354 N 
ATOM     51  N   UNL A   1      41.254  30.864  34.625  1.00  0.00    -0.248 NA
ATOM     52  C   UNL A   1      41.770  31.524  36.805  1.00  0.00     0.031 C 
ATOM     53  C   UNL A   1      43.385  27.660  32.407  1.00  0.00     0.029 A 
ATOM     54  C   UNL A   1      42.739  28.660  33.118  1.00  0.00     0.049 A 
ATOM     55  H   UNL A   1      41.038  29.783  32.581  1.00  0.00     0.167 HD
ATOM     56  C   UNL A   1      42.358  30.146  35.067  1.00  0.00     0.074 A 
ATOM     57  C   UNL A   1      42.652  30.615  36.406  1.00  0.00     0.031 C 
ATOM     58  C   UNL A   1      43.058  29.178  34.424  1.00  0.00     0.034 A 
BRANCH  45  59
ATOM     59  C   UNL A   1      40.723  27.612  28.918  1.00  0.00     0.023 A 
ATOM     60  C   UNL A   1      39.769  26.579  28.801  1.00  0.00     0.012 A 
ATOM     61  C   UNL A   1      41.686  27.779  27.905  1.00  0.00     0.148 A 
ATOM     62  C   UNL A   1      39.800  25.701  27.719  1.00  0.00     0.002 A 
ATOM     63  C   UNL A   1      41.683  26.927  26.806  1.00  0.00     0.091 A 
ATOM     64  F   UNL A   1      42.603  28.748  28.043  1.00  0.00    -0.205 F 
ATOM     65  C   UNL A   1      40.751  25.881  26.717  1.00  0.00     0.022 A 
BRANCH  63  66
ATOM     66  S   UNL A   1      42.822  27.139  25.432  1.00  0.00     0.127 S 
ATOM     67  O   UNL A   1      42.658  25.877  24.713  1.00  0.00    -0.237 OA
ATOM     68  O   UNL A   1      42.272  28.308  24.745  1.00  0.00    -0.237 OA
ATOM     69  O   UNL A   1      44.128  27.360  26.037  1.00  0.00    -0.744 OA
ENDBRANCH  63  66
ENDBRANCH  45  59
BRANCH  46  70
ATOM     70  C   UNL A   1      39.596  33.523  36.877  1.00  0.00     0.023 A 
ATOM     71  C   UNL A   1      40.033  34.860  36.912  1.00  0.00     0.012 A 
ATOM     72  C   UNL A   1      38.861  33.009  37.964  1.00  0.00     0.148 A 
ATOM     73  C   UNL A   1      39.758  35.669  38.016  1.00  0.00     0.002 A 
ATOM     74  C   UNL A   1      38.543  33.836  39.036  1.00  0.00     0.091 A 
ATOM     75  F   UNL A   1      38.459  31.731  37.911  1.00  0.00    -0.205 F 
ATOM     76  C   UNL A   1      39.002  35.162  39.070  1.00  0.00     0.022 A 
BRANCH  74  77
ATOM     77  S   UNL A   1      37.459  33.313  40.371  1.00  0.00     0.127 S 
ATOM     78  O   UNL A   1      36.253  32.926  39.643  1.00  0.00    -0.237 OA
ATOM     79  O   UNL A   1      38.214  32.201  40.950  1.00  0.00    -0.237 OA
ATOM     80  O   UNL A   1      37.325  34.468  41.247  1.00  0.00    -0.744 OA
ENDBRANCH  74  77
ENDBRANCH  46  70
BRANCH  58  81
ATOM     81  C   UNL A   1      44.241  28.572  35.129  1.00  0.00     0.023 A 
ATOM     82  C   UNL A   1      45.526  29.114  34.931  1.00  0.00     0.012 A 
ATOM     83  C   UNL A   1      44.058  27.550  36.083  1.00  0.00     0.148 A 
ATOM     84  C   UNL A   1      46.613  28.640  35.663  1.00  0.00     0.002 A 
ATOM     85  C   UNL A   1      45.138  27.115  36.841  1.00  0.00     0.091 A 
ATOM     86  F   UNL A   1      42.829  27.039  36.242  1.00  0.00    -0.205 F 
ATOM     87  C   UNL A   1      46.417  27.654  36.628  1.00  0.00     0.022 A 
BRANCH  85  88
ATOM     88  S   UNL A   1      44.964  25.919  38.170  1.00  0.00     0.127 S 
ATOM     89  O   UNL A   1      44.646  26.782  39.307  1.00  0.00    -0.237 OA
ATOM     90  O   UNL A   1      43.852  25.093  37.701  1.00  0.00    -0.237 OA
ATOM     91  O   UNL A   1      46.241  25.223  38.256  1.00  0.00    -0.744 OA
ENDBRANCH  85  88
ENDBRANCH  58  81
ENDBRANCH  32  33
ENDBRANCH  24  27
ENDBRANCH  22  23
ENDBRANCH  21  22
ENDBRANCH  20  21
ENDBRANCH   1  20
TORSDOF 21
ENDMDL
MODEL 2
REMARK VINA RESULT:      -9.0      1.000      8.038
REMARK SMILES CC(C)(C)SSC[C@H]([NH3+])C(=O)NCCCCCCNC(=O)c1ccc(-c2c3nc(c(-c4cccc(S(=O)(=O)[O-])c4F)c4ccc([nH]4)c(-c4cccc(S(=O)(=O)[O-])c4F)c4nc(c(-c5cccc(S(=O)(=O)[O-])c5F)c5ccc2[nH]5)C=C4)C=C3)cc1
REMARK SMILES IDX 15 1 14 2 13 3 12 4 10 5 11 6 8 8 7 9 6 10 5 11 2 12 1 13
REMARK SMILES IDX 3 14 4 15 9 16 16 20 17 21 18 22 19 23 20 24 21 26 22 27
REMARK SMILES IDX 23 28 84 29 24 30 83 31 25 32 26 33 27 34 77 35 28 36 82 37
REMARK SMILES IDX 76 38 78 39 29 40 81 41 75 42 74 43 30 45 62 46 42 47 61 48
REMARK SMILES IDX 43 49 46 50 60 51 79 52 44 53 45 54 59 56 80 57 47 58 31 59
REMARK SMILES IDX 32 60 40 61 33 62 35 63 41 64 34 65 36 66 37 67 38 68 39 69
REMARK SMILES IDX 63 70 64 71 72 72 65 73 67 74 73 75 66 76 68 77 69 78 70 79
REMARK SMILES IDX 71 80 48 81 49 82 57 83 50 84 52 85 58 86 51 87 53 88 54 89
REMARK SMILES IDX 55 90 56 91
REMARK H PARENT 12 7 9 17 9 18 9 19 19 25 78 44 46 55
REMARK Flexibility Score: inf
ROOT
ATOM      1  C   UNL A   1      32.005  29.653  26.662  1.00  0.00     0.002 C 
ENDROOT
BRANCH   1   2
ATOM      2  C   UNL A   1      31.941  28.298  27.379  1.00  0.00     0.021 C 
BRANCH   2   3
ATOM      3  C   UNL A   1      31.210  27.205  26.602  1.00  0.00     0.116 C 
BRANCH   3   4
ATOM      4  N   UNL A   1      32.134  26.399  25.830  1.00  0.00    -0.351 N 
ATOM      5  C   UNL A   1      31.953  25.700  24.676  1.00  0.00     0.279 C 
ATOM      6  O   UNL A   1      32.910  25.033  24.266  1.00  0.00    -0.268 OA
ATOM      7  H   UNL A   1      33.044  26.349  26.202  1.00  0.00     0.163 HD
BRANCH   5   8
ATOM      8  C   UNL A   1      30.660  25.800  23.852  1.00  0.00     0.281 C 
BRANCH   8   9
ATOM      9  C   UNL A   1      30.813  26.934  22.824  1.00  0.00     0.157 C 
BRANCH   9  10
ATOM     10  S   UNL A   1      30.405  28.587  23.480  1.00  0.00    -0.087 SA
BRANCH  10  11
ATOM     11  S   UNL A   1      28.505  28.892  22.756  1.00  0.00    -0.088 SA
BRANCH  11  12
ATOM     12  C   UNL A   1      28.300  30.726  22.706  1.00  0.00     0.018 C 
ATOM     13  C   UNL A   1      29.647  31.320  23.147  1.00  0.00     0.023 C 
ATOM     14  C   UNL A   1      27.204  31.162  23.685  1.00  0.00     0.023 C 
ATOM     15  C   UNL A   1      27.978  31.203  21.284  1.00  0.00     0.023 C 
ENDBRANCH  11  12
ENDBRANCH  10  11
ENDBRANCH   9  10
ENDBRANCH   8   9
BRANCH   8  16
ATOM     16  N   UNL A   1      29.459  25.875  24.719  1.00  0.00    -0.347 N 
ATOM     17  H   UNL A   1      28.760  26.475  24.281  1.00  0.00     0.345 HD
ATOM     18  H   UNL A   1      29.719  26.261  25.627  1.00  0.00     0.345 HD
ATOM     19  H   UNL A   1      29.072  24.940  24.845  1.00  0.00     0.345 HD
ENDBRANCH   8  16
ENDBRANCH   5   8
ENDBRANCH   3   4
ENDBRANCH   2   3
ENDBRANCH   1   2
BRANCH   1  20
ATOM     20  C   UNL A   1      32.982  30.669  27.259  1.00  0.00     0.002 C 
BRANCH  20  21
ATOM     21  C   UNL A   1      32.389  32.045  27.566  1.00  0.00     0.021 C 
BRANCH  21  22
ATOM     22  C   UNL A   1      33.315  33.221  27.282  1.00  0.00     0.116 C 
BRANCH  22  23
ATOM     23  N   UNL A   1      32.850  34.455  27.898  1.00  0.00    -0.352 N 
ATOM     24  C   UNL A   1      33.194  34.984  29.119  1.00  0.00     0.251 C 
ATOM     25  H   UNL A   1      32.204  34.979  27.372  1.00  0.00     0.163 HD
ATOM     26  O   UNL A   1      32.596  35.956  29.569  1.00  0.00    -0.269 OA
BRANCH  24  27
ATOM     27  C   UNL A   1      34.281  34.352  29.897  1.00  0.00     0.039 A 
ATOM     28  C   UNL A   1      33.956  33.533  30.983  1.00  0.00     0.014 A 
ATOM     29  C   UNL A   1      35.614  34.546  29.529  1.00  0.00     0.014 A 
ATOM     30  C   UNL A   1      34.971  32.857  31.664  1.00  0.00     0.010 A 
ATOM     31  C   UNL A   1      36.615  33.821  30.165  1.00  0.00     0.010 A 
ATOM     32  C   UNL A   1      36.305  32.973  31.240  1.00  0.00    -0.014 A 
BRANCH  32  33
ATOM     33  C   UNL A   1      37.407  32.223  31.893  1.00  0.00     0.031 A 
ATOM     34  C   UNL A   1      37.975  32.718  33.193  1.00  0.00     0.074 A 
ATOM     35  C   UNL A   1      37.989  31.193  31.249  1.00  0.00     0.049 A 
ATOM     36  N   UNL A   1      39.037  32.315  33.837  1.00  0.00    -0.248 NA
ATOM     37  C   UNL A   1      37.276  33.846  33.831  1.00  0.00     0.031 C 
ATOM     38  C   UNL A   1      37.580  30.672  29.944  1.00  0.00     0.029 A 
ATOM     39  N   UNL A   1      39.085  30.435  31.582  1.00  0.00    -0.354 N 
ATOM     40  C   UNL A   1      39.169  33.172  34.923  1.00  0.00     0.074 A 
ATOM     41  C   UNL A   1      38.088  34.131  34.838  1.00  0.00     0.031 C 
ATOM     42  C   UNL A   1      38.428  29.701  29.573  1.00  0.00     0.029 A 
ATOM     43  C   UNL A   1      39.458  29.550  30.598  1.00  0.00     0.049 A 
ATOM     44  H   UNL A   1      39.557  30.518  32.442  1.00  0.00     0.167 HD
ATOM     45  C   UNL A   1      40.090  33.149  35.914  1.00  0.00     0.034 A 
ATOM     46  C   UNL A   1      40.523  28.727  30.515  1.00  0.00     0.034 A 
ATOM     47  C   UNL A   1      41.123  32.157  36.025  1.00  0.00     0.049 A 
ATOM     48  C   UNL A   1      41.496  28.668  31.662  1.00  0.00     0.074 A 
ATOM     49  C   UNL A   1      42.032  31.973  37.051  1.00  0.00     0.029 A 
ATOM     50  N   UNL A   1      41.390  31.184  35.073  1.00  0.00    -0.354 N 
ATOM     51  N   UNL A   1      41.506  29.373  32.767  1.00  0.00    -0.248 NA
ATOM     52  C   UNL A   1      42.580  27.678  31.571  1.00  0.00     0.031 C 
ATOM     53  C   UNL A   1      42.860  30.898  36.712  1.00  0.00     0.029 A 
ATOM     54  C   UNL A   1      42.455  30.401  35.483  1.00  0.00     0.049 A 
ATOM     55  H   UNL A   1      40.895  31.069  34.231  1.00  0.00     0.167 HD
ATOM     56  C   UNL A   1      42.572  28.892  33.519  1.00  0.00     0.074 A 
ATOM     57  C   UNL A   1      43.179  27.827  32.746  1.00  0.00     0.031 C 
ATOM     58  C   UNL A   1      43.011  29.304  34.733  1.00  0.00     0.034 A 
BRANCH  45  59
ATOM     59  C   UNL A   1      39.986  34.203  36.984  1.00  0.00     0.023 A 
ATOM     60  C   UNL A   1      40.406  35.521  36.708  1.00  0.00     0.012 A 
ATOM     61  C   UNL A   1      39.448  33.902  38.250  1.00  0.00     0.148 A 
ATOM     62  C   UNL A   1      40.336  36.510  37.687  1.00  0.00     0.002 A 
ATOM     63  C   UNL A   1      39.340  34.905  39.208  1.00  0.00     0.091 A 
ATOM     64  F   UNL A   1      39.078  32.639  38.508  1.00  0.00    -0.205 F 
ATOM     65  C   UNL A   1      39.795  36.205  38.933  1.00  0.00     0.022 A 
BRANCH  63  66
ATOM     66  S   UNL A   1      38.582  34.615  40.811  1.00  0.00     0.127 S 
ATOM     67  O   UNL A   1      39.655  33.930  41.528  1.00  0.00    -0.237 OA
ATOM     68  O   UNL A   1      38.308  35.975  41.279  1.00  0.00    -0.237 OA
ATOM     69  O   UNL A   1      37.390  33.823  40.542  1.00  0.00    -0.744 OA
ENDBRANCH  63  66
ENDBRANCH  45  59
BRANCH  46  70
ATOM     70  C   UNL A   1      40.677  27.855  29.317  1.00  0.00     0.023 A 
ATOM     71  C   UNL A   1      39.894  26.691  29.205  1.00  0.00     0.012 A 
ATOM     72  C   UNL A   1      41.531  28.217  28.256  1.00  0.00     0.148 A 
ATOM     73  C   UNL A   1      39.968  25.892  28.063  1.00  0.00     0.002 A 
ATOM     74  C   UNL A   1      41.559  27.447  27.099  1.00  0.00     0.091 A 
ATOM     75  F   UNL A   1      42.271  29.326  28.387  1.00  0.00    -0.205 F 
ATOM     76  C   UNL A   1      40.788  26.277  27.006  1.00  0.00     0.022 A 
BRANCH  74  77
ATOM     77  S   UNL A   1      42.477  27.938  25.634  1.00  0.00     0.127 S 
ATOM     78  O   UNL A   1      43.840  28.031  26.152  1.00  0.00    -0.237 OA
ATOM     79  O   UNL A   1      42.234  26.807  24.736  1.00  0.00    -0.237 OA
ATOM     80  O   UNL A   1      41.882  29.192  25.194  1.00  0.00    -0.744 OA
ENDBRANCH  74  77
ENDBRANCH  46  70
BRANCH  58  81
ATOM     81  C   UNL A   1      44.187  28.588  35.342  1.00  0.00     0.023 A 
ATOM     82  C   UNL A   1      45.495  29.026  35.057  1.00  0.00     0.012 A 
ATOM     83  C   UNL A   1      43.988  27.568  36.294  1.00  0.00     0.148 A 
ATOM     84  C   UNL A   1      46.589  28.450  35.702  1.00  0.00     0.002 A 
ATOM     85  C   UNL A   1      45.079  27.030  36.965  1.00  0.00     0.091 A 
ATOM     86  F   UNL A   1      42.735  27.157  36.536  1.00  0.00    -0.205 F 
ATOM     87  C   UNL A   1      46.380  27.465  36.665  1.00  0.00     0.022 A 
BRANCH  85  88
ATOM     88  S   UNL A   1      44.902  25.828  38.288  1.00  0.00     0.127 S 
ATOM     89  O   UNL A   1      46.280  25.700  38.760  1.00  0.00    -0.237 OA
ATOM     90  O   UNL A   1      44.001  26.517  39.213  1.00  0.00    -0.237 OA
ATOM     91  O   UNL A   1      44.341  24.632  37.674  1.00  0.00    -0.744 OA
ENDBRANCH  85  88
ENDBRANCH  58  81
ENDBRANCH  32  33
ENDBRANCH  24  27
ENDBRANCH  22  23
ENDBRANCH  21  22
ENDBRANCH  20  21
ENDBRANCH   1  20
TORSDOF 21
ENDMDL
MODEL 3
REMARK VINA RESULT:      -9.0      1.807      8.489
REMARK SMILES CC(C)(C)SSC[C@H]([NH3+])C(=O)NCCCCCCNC(=O)c1ccc(-c2c3nc(c(-c4cccc(S(=O)(=O)[O-])c4F)c4ccc([nH]4)c(-c4cccc(S(=O)(=O)[O-])c4F)c4nc(c(-c5cccc(S(=O)(=O)[O-])c5F)c5ccc2[nH]5)C=C4)C=C3)cc1
REMARK SMILES IDX 15 1 14 2 13 3 12 4 10 5 11 6 8 8 7 9 6 10 5 11 2 12 1 13
REMARK SMILES IDX 3 14 4 15 9 16 16 20 17 21 18 22 19 23 20 24 21 26 22 27
REMARK SMILES IDX 23 28 84 29 24 30 83 31 25 32 26 33 27 34 77 35 28 36 82 37
REMARK SMILES IDX 76 38 78 39 29 40 81 41 75 42 74 43 30 45 62 46 42 47 61 48
REMARK SMILES IDX 43 49 46 50 60 51 79 52 44 53 45 54 59 56 80 57 47 58 31 59
REMARK SMILES IDX 32 60 40 61 33 62 35 63 41 64 34 65 36 66 37 67 38 68 39 69
REMARK SMILES IDX 63 70 64 71 72 72 65 73 67 74 73 75 66 76 68 77 69 78 70 79
REMARK SMILES IDX 71 80 48 81 49 82 57 83 50 84 52 85 58 86 51 87 53 88 54 89
REMARK SMILES IDX 55 90 56 91
REMARK H PARENT 12 7 9 17 9 18 9 19 19 25 78 44 46 55
REMARK Flexibility Score: inf
ROOT
ATOM      1  C   UNL A   1      32.469  30.108  25.909  1.00  0.00     0.002 C 
ENDROOT
BRANCH   1   2
ATOM      2  C   UNL A   1      32.437  28.575  25.867  1.00  0.00     0.021 C 
BRANCH   2   3
ATOM      3  C   UNL A   1      32.937  27.969  24.558  1.00  0.00     0.116 C 
BRANCH   3   4
ATOM      4  N   UNL A   1      31.903  27.977  23.543  1.00  0.00    -0.351 N 
ATOM      5  C   UNL A   1      31.576  27.052  22.599  1.00  0.00     0.279 C 
ATOM      6  O   UNL A   1      30.677  27.352  21.804  1.00  0.00    -0.268 OA
ATOM      7  H   UNL A   1      31.344  28.787  23.534  1.00  0.00     0.163 HD
BRANCH   5   8
ATOM      8  C   UNL A   1      32.211  25.653  22.569  1.00  0.00     0.281 C 
BRANCH   8   9
ATOM      9  C   UNL A   1      31.767  24.879  23.821  1.00  0.00     0.157 C 
BRANCH   9  10
ATOM     10  S   UNL A   1      33.144  24.140  24.762  1.00  0.00    -0.087 SA
BRANCH  10  11
ATOM     11  S   UNL A   1      33.583  22.463  23.657  1.00  0.00    -0.088 SA
BRANCH  11  12
ATOM     12  C   UNL A   1      33.544  21.068  24.867  1.00  0.00     0.018 C 
ATOM     13  C   UNL A   1      33.271  21.701  26.240  1.00  0.00     0.023 C 
ATOM     14  C   UNL A   1      34.901  20.355  24.894  1.00  0.00     0.023 C 
ATOM     15  C   UNL A   1      32.419  20.081  24.531  1.00  0.00     0.023 C 
ENDBRANCH  11  12
ENDBRANCH  10  11
ENDBRANCH   9  10
ENDBRANCH   8   9
BRANCH   8  16
ATOM     16  N   UNL A   1      33.675  25.719  22.337  1.00  0.00    -0.347 N 
ATOM     17  H   UNL A   1      33.878  25.470  21.369  1.00  0.00     0.345 HD
ATOM     18  H   UNL A   1      34.148  25.066  22.963  1.00  0.00     0.345 HD
ATOM     19  H   UNL A   1      34.006  26.666  22.521  1.00  0.00     0.345 HD
ENDBRANCH   8  16
ENDBRANCH   5   8
ENDBRANCH   3   4
ENDBRANCH   2   3
ENDBRANCH   1   2
BRANCH   1  20
ATOM     20  C   UNL A   1      32.984  30.721  27.215  1.00  0.00     0.002 C 
BRANCH  20  21
ATOM     21  C   UNL A   1      32.403  32.090  27.570  1.00  0.00     0.021 C 
BRANCH  21  22
ATOM     22  C   UNL A   1      33.316  33.272  27.266  1.00  0.00     0.116 C 
BRANCH  22  23
ATOM     23  N   UNL A   1      32.853  34.504  27.887  1.00  0.00    -0.352 N 
ATOM     24  C   UNL A   1      33.198  35.028  29.110  1.00  0.00     0.251 C 
ATOM     25  H   UNL A   1      32.207  35.030  27.364  1.00  0.00     0.163 HD
ATOM     26  O   UNL A   1      32.601  35.999  29.564  1.00  0.00    -0.269 OA
BRANCH  24  27
ATOM     27  C   UNL A   1      34.285  34.393  29.885  1.00  0.00     0.039 A 
ATOM     28  C   UNL A   1      33.962  33.603  30.992  1.00  0.00     0.014 A 
ATOM     29  C   UNL A   1      35.616  34.555  29.493  1.00  0.00     0.014 A 
ATOM     30  C   UNL A   1      34.975  32.923  31.672  1.00  0.00     0.010 A 
ATOM     31  C   UNL A   1      36.613  33.825  30.129  1.00  0.00     0.010 A 
ATOM     32  C   UNL A   1      36.304  33.005  31.227  1.00  0.00    -0.014 A 
BRANCH  32  33
ATOM     33  C   UNL A   1      37.402  32.249  31.879  1.00  0.00     0.031 A 
ATOM     34  C   UNL A   1      37.962  32.731  33.187  1.00  0.00     0.074 A 
ATOM     35  C   UNL A   1      37.988  31.226  31.228  1.00  0.00     0.049 A 
ATOM     36  N   UNL A   1      39.021  32.322  33.833  1.00  0.00    -0.248 NA
ATOM     37  C   UNL A   1      37.258  33.852  33.832  1.00  0.00     0.031 C 
ATOM     38  C   UNL A   1      37.588  30.718  29.915  1.00  0.00     0.029 A 
ATOM     39  N   UNL A   1      39.082  30.465  31.559  1.00  0.00    -0.354 N 
ATOM     40  C   UNL A   1      39.145  33.167  34.929  1.00  0.00     0.074 A 
ATOM     41  C   UNL A   1      38.065  34.127  34.847  1.00  0.00     0.031 C 
ATOM     42  C   UNL A   1      38.439  29.751  29.539  1.00  0.00     0.029 A 
ATOM     43  C   UNL A   1      39.462  29.589  30.569  1.00  0.00     0.049 A 
ATOM     44  H   UNL A   1      39.549  30.538  32.423  1.00  0.00     0.167 HD
ATOM     45  C   UNL A   1      40.060  33.134  35.925  1.00  0.00     0.034 A 
ATOM     46  C   UNL A   1      40.528  28.768  30.484  1.00  0.00     0.034 A 
ATOM     47  C   UNL A   1      41.092  32.141  36.033  1.00  0.00     0.049 A 
ATOM     48  C   UNL A   1      41.494  28.697  31.636  1.00  0.00     0.074 A 
ATOM     49  C   UNL A   1      41.995  31.947  37.062  1.00  0.00     0.029 A 
ATOM     50  N   UNL A   1      41.366  31.178  35.072  1.00  0.00    -0.354 N 
ATOM     51  N   UNL A   1      41.497  29.390  32.748  1.00  0.00    -0.248 NA
ATOM     52  C   UNL A   1      42.578  27.709  31.542  1.00  0.00     0.031 C 
ATOM     53  C   UNL A   1      42.825  30.875  36.718  1.00  0.00     0.029 A 
ATOM     54  C   UNL A   1      42.428  30.391  35.481  1.00  0.00     0.049 A 
ATOM     55  H   UNL A   1      40.876  31.071  34.226  1.00  0.00     0.167 HD
ATOM     56  C   UNL A   1      42.558  28.903  33.502  1.00  0.00     0.074 A 
ATOM     57  C   UNL A   1      43.170  27.846  32.722  1.00  0.00     0.031 C 
ATOM     58  C   UNL A   1      42.989  29.302  34.723  1.00  0.00     0.034 A 
BRANCH  45  59
ATOM     59  C   UNL A   1      39.949  34.177  37.006  1.00  0.00     0.023 A 
ATOM     60  C   UNL A   1      40.365  35.499  36.744  1.00  0.00     0.012 A 
ATOM     61  C   UNL A   1      39.408  33.862  38.267  1.00  0.00     0.148 A 
ATOM     62  C   UNL A   1      40.290  36.478  37.733  1.00  0.00     0.002 A 
ATOM     63  C   UNL A   1      39.293  34.854  39.234  1.00  0.00     0.091 A 
ATOM     64  F   UNL A   1      39.040  32.595  38.510  1.00  0.00    -0.205 F 
ATOM     65  C   UNL A   1      39.745  36.158  38.974  1.00  0.00     0.022 A 
BRANCH  63  66
ATOM     66  S   UNL A   1      38.530  34.547  40.831  1.00  0.00     0.127 S 
ATOM     67  O   UNL A   1      39.619  33.902  41.561  1.00  0.00    -0.237 OA
ATOM     68  O   UNL A   1      38.204  35.898  41.290  1.00  0.00    -0.237 OA
ATOM     69  O   UNL A   1      37.368  33.712  40.555  1.00  0.00    -0.744 OA
ENDBRANCH  63  66
ENDBRANCH  45  59
BRANCH  46  70
ATOM     70  C   UNL A   1      40.690  27.908  29.278  1.00  0.00     0.023 A 
ATOM     71  C   UNL A   1      39.920  26.736  29.157  1.00  0.00     0.012 A 
ATOM     72  C   UNL A   1      41.536  28.289  28.218  1.00  0.00     0.148 A 
ATOM     73  C   UNL A   1      40.001  25.948  28.008  1.00  0.00     0.002 A 
ATOM     74  C   UNL A   1      41.571  27.530  27.054  1.00  0.00     0.091 A 
ATOM     75  F   UNL A   1      42.264  29.407  28.358  1.00  0.00    -0.205 F 
ATOM     76  C   UNL A   1      40.815  26.352  26.953  1.00  0.00     0.022 A 
BRANCH  74  77
ATOM     77  S   UNL A   1      42.480  28.045  25.592  1.00  0.00     0.127 S 
ATOM     78  O   UNL A   1      42.340  26.877  24.726  1.00  0.00    -0.237 OA
ATOM     79  O   UNL A   1      41.722  29.223  25.168  1.00  0.00    -0.237 OA
ATOM     80  O   UNL A   1      43.833  28.333  26.048  1.00  0.00    -0.744 OA
ENDBRANCH  74  77
ENDBRANCH  46  70
BRANCH  58  81
ATOM     81  C   UNL A   1      44.162  28.580  35.332  1.00  0.00     0.023 A 
ATOM     82  C   UNL A   1      45.472  29.001  35.034  1.00  0.00     0.012 A 
ATOM     83  C   UNL A   1      43.958  27.572  36.296  1.00  0.00     0.148 A 
ATOM     84  C   UNL A   1      46.564  28.420  35.677  1.00  0.00     0.002 A 
ATOM     85  C   UNL A   1      45.048  27.030  36.966  1.00  0.00     0.091 A 
ATOM     86  F   UNL A   1      42.702  27.177  36.550  1.00  0.00    -0.205 F 
ATOM     87  C   UNL A   1      46.352  27.448  36.653  1.00  0.00     0.022 A 
BRANCH  85  88
ATOM     88  S   UNL A   1      44.867  25.844  38.303  1.00  0.00     0.127 S 
ATOM     89  O   UNL A   1      43.941  26.541  39.195  1.00  0.00    -0.237 OA
ATOM     90  O   UNL A   1      44.295  24.687  37.614  1.00  0.00    -0.237 OA
ATOM     91  O   UNL A   1      46.205  25.631  38.837  1.00  0.00    -0.744 OA
ENDBRANCH  85  88
ENDBRANCH  58  81
ENDBRANCH  32  33
ENDBRANCH  24  27
ENDBRANCH  22  23
ENDBRANCH  21  22
ENDBRANCH  20  21
ENDBRANCH   1  20
TORSDOF 21
ENDMDL
