MODEL 1
REMARK VINA RESULT:     -12.4      0.000      0.000
REMARK SMILES Cc1c(Cl)cccc1NC(=O)C[C@](C)(C(=O)NCCCCCCNC(=O)c1ccc(-c2c3nc(c(-c4cccc(S(=O)(=O)[O-])c4F)c4ccc([nH]4)c(-c4cccc(S(=O)(=O)[O-])c4F)c4nc(c(-c5cccc(S(=O)(=O)[O-])c5F)c5ccc2[nH]5)C=C4)C=C3)cc1)c1ccccc1
REMARK SMILES IDX 20 1 19 2 18 3 17 4 15 5 16 6 13 8 14 9 12 10 10 11 9 12
REMARK SMILES IDX 11 14 8 15 1 16 2 17 3 18 4 19 5 20 7 21 6 22 90 23 91 24
REMARK SMILES IDX 95 25 92 26 94 27 93 28 21 29 22 30 23 31 24 32 25 33 26 35
REMARK SMILES IDX 27 36 28 37 89 38 29 39 88 40 30 41 31 42 32 43 82 44 33 45
REMARK SMILES IDX 87 46 81 47 83 48 34 49 86 50 80 51 79 52 35 54 67 55 47 56
REMARK SMILES IDX 66 57 48 58 51 59 65 60 84 61 49 62 50 63 64 65 85 66 52 67
REMARK SMILES IDX 36 68 37 69 45 70 38 71 40 72 46 73 39 74 41 75 42 76 43 77
REMARK SMILES IDX 44 78 68 79 69 80 77 81 70 82 72 83 78 84 71 85 73 86 74 87
REMARK SMILES IDX 75 88 76 89 53 90 54 91 62 92 55 93 57 94 63 95 56 96 58 97
REMARK SMILES IDX 59 98 60 99 61 100
REMARK H PARENT 17 7 9 13 24 34 83 53 51 64
REMARK Flexibility Score: inf
ROOT
ATOM      1  C   UNL A   1      35.372  19.956  24.667  1.00  0.00     0.002 C 
ENDROOT
BRANCH   1   2
ATOM      2  C   UNL A   1      34.055  19.235  24.969  1.00  0.00     0.021 C 
BRANCH   2   3
ATOM      3  C   UNL A   1      32.751  19.805  24.040  1.00  0.00     0.116 C 
BRANCH   3   4
ATOM      4  N   UNL A   1      32.024  21.732  23.685  1.00  0.00    -0.355 N 
ATOM      5  C   UNL A   1      32.059  23.152  23.776  1.00  0.00     0.230 C 
ATOM      6  O   UNL A   1      31.074  23.605  23.161  1.00  0.00    -0.274 OA
ATOM      7  H   UNL A   1      31.202  21.566  23.170  1.00  0.00     0.163 HD
BRANCH   5   8
ATOM      8  C   UNL A   1      33.058  24.160  24.549  1.00  0.00     0.080 C 
ATOM      9  C   UNL A   1      33.122  25.497  23.716  1.00  0.00     0.027 C 
BRANCH   8  10
ATOM     10  C   UNL A   1      32.745  24.420  26.065  1.00  0.00     0.121 C 
BRANCH  10  11
ATOM     11  C   UNL A   1      31.307  24.398  26.545  1.00  0.00     0.225 C 
ATOM     12  N   UNL A   1      30.536  25.521  26.479  1.00  0.00    -0.326 N 
ATOM     13  H   UNL A   1      29.799  25.626  27.124  1.00  0.00     0.169 HD
ATOM     14  O   UNL A   1      30.815  23.380  27.036  1.00  0.00    -0.275 OA
BRANCH  12  15
ATOM     15  C   UNL A   1      30.747  26.527  25.538  1.00  0.00     0.045 A 
ATOM     16  C   UNL A   1      32.653  27.838  27.251  1.00  0.00     0.048 C 
ATOM     17  C   UNL A   1      31.564  27.995  26.226  1.00  0.00    -0.009 A 
ATOM     18  C   UNL A   1      31.371  29.581  25.400  1.00  0.00     0.046 A 
ATOM     19  Cl  UNL A   1      32.115  30.994  26.047  1.00  0.00    -0.084 Cl
ATOM     20  C   UNL A   1      30.277  29.749  23.976  1.00  0.00     0.021 A 
ATOM     21  C   UNL A   1      29.732  26.647  24.018  1.00  0.00     0.026 A 
ATOM     22  C   UNL A   1      29.497  28.279  23.245  1.00  0.00     0.004 A 
ENDBRANCH  12  15
ENDBRANCH  10  11
ENDBRANCH   8  10
BRANCH   8  23
ATOM     23  C   UNL A   1      34.583  23.734  24.549  1.00  0.00    -0.032 A 
ATOM     24  C   UNL A   1      35.302  23.812  25.775  1.00  0.00     0.005 A 
ATOM     25  C   UNL A   1      35.303  23.309  23.430  1.00  0.00     0.005 A 
ATOM     26  C   UNL A   1      36.680  23.635  25.846  1.00  0.00     0.000 A 
ATOM     27  C   UNL A   1      36.690  23.120  23.500  1.00  0.00     0.000 A 
ATOM     28  C   UNL A   1      37.380  23.309  24.696  1.00  0.00     0.000 A 
ENDBRANCH   8  23
ENDBRANCH   5   8
ENDBRANCH   3   4
ENDBRANCH   2   3
ENDBRANCH   1   2
BRANCH   1  29
ATOM     29  C   UNL A   1      36.625  19.127  25.001  1.00  0.00     0.002 C 
BRANCH  29  30
ATOM     30  C   UNL A   1      37.918  19.852  24.625  1.00  0.00     0.021 C 
BRANCH  30  31
ATOM     31  C   UNL A   1      38.740  20.161  25.864  1.00  0.00     0.116 C 
BRANCH  31  32
ATOM     32  N   UNL A   1      39.904  19.269  25.936  1.00  0.00    -0.352 N 
ATOM     33  C   UNL A   1      41.209  19.600  26.126  1.00  0.00     0.251 C 
ATOM     34  H   UNL A   1      39.716  18.308  25.833  1.00  0.00     0.163 HD
ATOM     35  O   UNL A   1      42.121  18.813  25.926  1.00  0.00    -0.269 OA
BRANCH  33  36
ATOM     36  C   UNL A   1      41.426  20.953  26.607  1.00  0.00     0.039 A 
ATOM     37  C   UNL A   1      41.684  21.157  27.956  1.00  0.00     0.014 A 
ATOM     38  C   UNL A   1      41.589  21.952  25.639  1.00  0.00     0.014 A 
ATOM     39  C   UNL A   1      42.103  22.415  28.346  1.00  0.00     0.010 A 
ATOM     40  C   UNL A   1      42.150  23.147  26.014  1.00  0.00     0.010 A 
ATOM     41  C   UNL A   1      42.344  23.405  27.376  1.00  0.00    -0.014 A 
BRANCH  41  42
ATOM     42  C   UNL A   1      42.710  24.768  27.783  1.00  0.00     0.031 A 
ATOM     43  C   UNL A   1      44.149  25.183  27.692  1.00  0.00     0.074 A 
ATOM     44  C   UNL A   1      41.754  25.596  28.235  1.00  0.00     0.049 A 
ATOM     45  N   UNL A   1      44.683  26.340  27.964  1.00  0.00    -0.248 NA
ATOM     46  C   UNL A   1      45.127  24.156  27.277  1.00  0.00     0.031 C 
ATOM     47  C   UNL A   1      40.344  25.243  28.427  1.00  0.00     0.029 A 
ATOM     48  N   UNL A   1      41.826  26.907  28.609  1.00  0.00    -0.354 N 
ATOM     49  C   UNL A   1      46.049  26.170  27.784  1.00  0.00     0.074 A 
ATOM     50  C   UNL A   1      46.275  24.784  27.457  1.00  0.00     0.031 C 
ATOM     51  C   UNL A   1      39.675  26.330  28.840  1.00  0.00     0.029 A 
ATOM     52  C   UNL A   1      40.615  27.436  28.981  1.00  0.00     0.049 A 
ATOM     53  H   UNL A   1      42.665  27.424  28.610  1.00  0.00     0.167 HD
ATOM     54  C   UNL A   1      47.025  27.100  27.842  1.00  0.00     0.034 A 
ATOM     55  C   UNL A   1      40.312  28.680  29.390  1.00  0.00     0.034 A 
ATOM     56  C   UNL A   1      46.772  28.479  28.140  1.00  0.00     0.049 A 
ATOM     57  C   UNL A   1      41.413  29.701  29.434  1.00  0.00     0.074 A 
ATOM     58  C   UNL A   1      47.665  29.530  28.166  1.00  0.00     0.029 A 
ATOM     59  N   UNL A   1      45.529  28.991  28.480  1.00  0.00    -0.354 N 
ATOM     60  N   UNL A   1      42.682  29.559  29.133  1.00  0.00    -0.248 NA
ATOM     61  C   UNL A   1      41.036  31.060  29.837  1.00  0.00     0.031 C 
ATOM     62  C   UNL A   1      46.970  30.672  28.575  1.00  0.00     0.029 A 
ATOM     63  C   UNL A   1      45.632  30.344  28.737  1.00  0.00     0.049 A 
ATOM     64  H   UNL A   1      44.696  28.469  28.529  1.00  0.00     0.167 HD
ATOM     65  C   UNL A   1      43.249  30.820  29.269  1.00  0.00     0.074 A 
ATOM     66  C   UNL A   1      42.176  31.713  29.662  1.00  0.00     0.031 C 
ATOM     67  C   UNL A   1      44.536  31.209  29.092  1.00  0.00     0.034 A 
BRANCH  54  68
ATOM     68  C   UNL A   1      48.432  26.647  27.564  1.00  0.00     0.023 A 
ATOM     69  C   UNL A   1      49.122  25.849  28.501  1.00  0.00     0.012 A 
ATOM     70  C   UNL A   1      49.070  27.006  26.363  1.00  0.00     0.148 A 
ATOM     71  C   UNL A   1      50.439  25.456  28.269  1.00  0.00     0.002 A 
ATOM     72  C   UNL A   1      50.361  26.562  26.111  1.00  0.00     0.091 A 
ATOM     73  F   UNL A   1      48.410  27.791  25.499  1.00  0.00    -0.205 F 
ATOM     74  C   UNL A   1      51.053  25.803  27.069  1.00  0.00     0.022 A 
BRANCH  72  75
ATOM     75  S   UNL A   1      51.208  26.885  24.562  1.00  0.00     0.127 S 
ATOM     76  O   UNL A   1      51.584  28.289  24.719  1.00  0.00    -0.237 OA
ATOM     77  O   UNL A   1      52.324  25.942  24.626  1.00  0.00    -0.237 OA
ATOM     78  O   UNL A   1      50.240  26.615  23.509  1.00  0.00    -0.744 OA
ENDBRANCH  72  75
ENDBRANCH  54  68
BRANCH  55  79
ATOM     79  C   UNL A   1      38.908  29.031  29.734  1.00  0.00     0.023 A 
ATOM     80  C   UNL A   1      38.441  28.847  31.049  1.00  0.00     0.012 A 
ATOM     81  C   UNL A   1      38.042  29.571  28.764  1.00  0.00     0.148 A 
ATOM     82  C   UNL A   1      37.121  29.155  31.382  1.00  0.00     0.002 A 
ATOM     83  C   UNL A   1      36.748  29.928  29.115  1.00  0.00     0.091 A 
ATOM     84  F   UNL A   1      38.512  29.741  27.520  1.00  0.00    -0.205 F 
ATOM     85  C   UNL A   1      36.277  29.702  30.418  1.00  0.00     0.022 A 
BRANCH  83  86
ATOM     86  S   UNL A   1      35.635  30.754  27.974  1.00  0.00     0.127 S 
ATOM     87  O   UNL A   1      35.538  29.776  26.893  1.00  0.00    -0.237 OA
ATOM     88  O   UNL A   1      34.428  30.899  28.786  1.00  0.00    -0.237 OA
ATOM     89  O   UNL A   1      36.284  32.011  27.626  1.00  0.00    -0.744 OA
ENDBRANCH  83  86
ENDBRANCH  55  79
BRANCH  67  90
ATOM     90  C   UNL A   1      44.844  32.672  29.263  1.00  0.00     0.023 A 
ATOM     91  C   UNL A   1      45.312  33.163  30.497  1.00  0.00     0.012 A 
ATOM     92  C   UNL A   1      44.724  33.547  28.167  1.00  0.00     0.148 A 
ATOM     93  C   UNL A   1      45.609  34.516  30.650  1.00  0.00     0.002 A 
ATOM     94  C   UNL A   1      45.083  34.879  28.308  1.00  0.00     0.091 A 
ATOM     95  F   UNL A   1      44.264  33.060  27.005  1.00  0.00    -0.205 F 
ATOM     96  C   UNL A   1      45.507  35.369  29.554  1.00  0.00     0.022 A 
BRANCH  94  97
ATOM     97  S   UNL A   1      45.087  36.026  26.928  1.00  0.00     0.127 S 
ATOM     98  O   UNL A   1      45.812  35.263  25.912  1.00  0.00    -0.237 OA
ATOM     99  O   UNL A   1      43.658  36.194  26.664  1.00  0.00    -0.237 OA
ATOM    100  O   UNL A   1      45.762  37.227  27.402  1.00  0.00    -0.744 OA
ENDBRANCH  94  97
ENDBRANCH  67  90
ENDBRANCH  41  42
ENDBRANCH  33  36
ENDBRANCH  31  32
ENDBRANCH  30  31
ENDBRANCH  29  30
ENDBRANCH   1  29
TORSDOF 20
ENDMDL
MODEL 2
REMARK VINA RESULT:     -12.2      6.236     10.885
REMARK SMILES Cc1c(Cl)cccc1NC(=O)C[C@](C)(C(=O)NCCCCCCNC(=O)c1ccc(-c2c3nc(c(-c4cccc(S(=O)(=O)[O-])c4F)c4ccc([nH]4)c(-c4cccc(S(=O)(=O)[O-])c4F)c4nc(c(-c5cccc(S(=O)(=O)[O-])c5F)c5ccc2[nH]5)C=C4)C=C3)cc1)c1ccccc1
REMARK SMILES IDX 20 1 19 2 18 3 17 4 15 5 16 6 13 8 14 9 12 10 10 11 9 12
REMARK SMILES IDX 11 14 8 15 1 16 2 17 3 18 4 19 5 20 7 21 6 22 90 23 91 24
REMARK SMILES IDX 95 25 92 26 94 27 93 28 21 29 22 30 23 31 24 32 25 33 26 35
REMARK SMILES IDX 27 36 28 37 89 38 29 39 88 40 30 41 31 42 32 43 82 44 33 45
REMARK SMILES IDX 87 46 81 47 83 48 34 49 86 50 80 51 79 52 35 54 67 55 47 56
REMARK SMILES IDX 66 57 48 58 51 59 65 60 84 61 49 62 50 63 64 65 85 66 52 67
REMARK SMILES IDX 36 68 37 69 45 70 38 71 40 72 46 73 39 74 41 75 42 76 43 77
REMARK SMILES IDX 44 78 68 79 69 80 77 81 70 82 72 83 78 84 71 85 73 86 74 87
REMARK SMILES IDX 75 88 76 89 53 90 54 91 62 92 55 93 57 94 63 95 56 96 58 97
REMARK SMILES IDX 59 98 60 99 61 100
REMARK H PARENT 17 7 9 13 24 34 83 53 51 64
REMARK Flexibility Score: inf
ROOT
ATOM      1  C   UNL A   1      35.106  30.452  28.346  1.00  0.00     0.002 C 
ENDROOT
BRANCH   1   2
ATOM      2  C   UNL A   1      34.985  29.417  27.223  1.00  0.00     0.021 C 
BRANCH   2   3
ATOM      3  C   UNL A   1      33.506  28.579  27.241  1.00  0.00     0.116 C 
BRANCH   3   4
ATOM      4  N   UNL A   1      32.099  28.195  25.744  1.00  0.00    -0.355 N 
ATOM      5  C   UNL A   1      31.455  27.385  24.767  1.00  0.00     0.230 C 
ATOM      6  O   UNL A   1      30.537  28.052  24.252  1.00  0.00    -0.274 OA
ATOM      7  H   UNL A   1      31.609  29.047  25.679  1.00  0.00     0.163 HD
BRANCH   5   8
ATOM      8  C   UNL A   1      31.763  25.891  24.232  1.00  0.00     0.080 C 
ATOM      9  C   UNL A   1      30.502  25.411  23.416  1.00  0.00     0.027 C 
BRANCH   8  10
ATOM     10  C   UNL A   1      33.097  25.703  23.427  1.00  0.00     0.121 C 
BRANCH  10  11
ATOM     11  C   UNL A   1      33.067  24.988  22.090  1.00  0.00     0.225 C 
ATOM     12  N   UNL A   1      33.516  23.705  21.978  1.00  0.00    -0.326 N 
ATOM     13  H   UNL A   1      33.868  23.402  21.110  1.00  0.00     0.169 HD
ATOM     14  O   UNL A   1      32.672  25.560  21.071  1.00  0.00    -0.275 OA
BRANCH  12  15
ATOM     15  C   UNL A   1      33.498  22.804  23.041  1.00  0.00     0.045 A 
ATOM     16  C   UNL A   1      36.117  23.637  23.895  1.00  0.00     0.048 C 
ATOM     17  C   UNL A   1      35.138  22.504  23.757  1.00  0.00    -0.009 A 
ATOM     18  C   UNL A   1      35.440  20.981  24.666  1.00  0.00     0.046 A 
ATOM     19  Cl  UNL A   1      36.996  20.661  25.333  1.00  0.00    -0.084 Cl
ATOM     20  C   UNL A   1      34.173  19.701  24.761  1.00  0.00     0.021 A 
ATOM     21  C   UNL A   1      32.154  21.575  23.233  1.00  0.00     0.026 A 
ATOM     22  C   UNL A   1      32.510  20.011  24.096  1.00  0.00     0.004 A 
ENDBRANCH  12  15
ENDBRANCH  10  11
ENDBRANCH   8  10
BRANCH   8  23
ATOM     23  C   UNL A   1      31.838  24.773  25.351  1.00  0.00    -0.032 A 
ATOM     24  C   UNL A   1      33.092  24.541  25.984  1.00  0.00     0.005 A 
ATOM     25  C   UNL A   1      30.775  23.964  25.758  1.00  0.00     0.005 A 
ATOM     26  C   UNL A   1      33.308  23.469  26.843  1.00  0.00     0.000 A 
ATOM     27  C   UNL A   1      30.987  22.890  26.633  1.00  0.00     0.000 A 
ATOM     28  C   UNL A   1      32.253  22.626  27.151  1.00  0.00     0.000 A 
ENDBRANCH   8  23
ENDBRANCH   5   8
ENDBRANCH   3   4
ENDBRANCH   2   3
ENDBRANCH   1   2
BRANCH   1  29
ATOM     29  C   UNL A   1      35.368  31.883  27.845  1.00  0.00     0.002 C 
BRANCH  29  30
ATOM     30  C   UNL A   1      34.099  32.735  27.832  1.00  0.00     0.021 C 
BRANCH  30  31
ATOM     31  C   UNL A   1      34.439  34.209  27.970  1.00  0.00     0.116 C 
BRANCH  31  32
ATOM     32  N   UNL A   1      33.542  34.849  28.940  1.00  0.00    -0.352 N 
ATOM     33  C   UNL A   1      33.515  34.699  30.290  1.00  0.00     0.251 C 
ATOM     34  H   UNL A   1      32.872  35.465  28.563  1.00  0.00     0.163 HD
ATOM     35  O   UNL A   1      32.579  35.084  30.975  1.00  0.00    -0.269 OA
BRANCH  33  36
ATOM     36  C   UNL A   1      34.697  34.070  30.853  1.00  0.00     0.039 A 
ATOM     37  C   UNL A   1      34.573  32.838  31.480  1.00  0.00     0.014 A 
ATOM     38  C   UNL A   1      35.934  34.641  30.527  1.00  0.00     0.014 A 
ATOM     39  C   UNL A   1      35.735  32.164  31.807  1.00  0.00     0.010 A 
ATOM     40  C   UNL A   1      37.072  33.896  30.717  1.00  0.00     0.010 A 
ATOM     41  C   UNL A   1      36.982  32.688  31.418  1.00  0.00    -0.014 A 
BRANCH  41  42
ATOM     42  C   UNL A   1      38.225  32.024  31.830  1.00  0.00     0.031 A 
ATOM     43  C   UNL A   1      38.897  32.477  33.092  1.00  0.00     0.074 A 
ATOM     44  C   UNL A   1      38.730  31.044  31.062  1.00  0.00     0.049 A 
ATOM     45  N   UNL A   1      39.976  32.010  33.655  1.00  0.00    -0.248 NA
ATOM     46  C   UNL A   1      38.306  33.631  33.800  1.00  0.00     0.031 C 
ATOM     47  C   UNL A   1      38.177  30.598  29.779  1.00  0.00     0.029 A 
ATOM     48  N   UNL A   1      39.819  30.244  31.255  1.00  0.00    -0.354 N 
ATOM     49  C   UNL A   1      40.204  32.826  34.754  1.00  0.00     0.074 A 
ATOM     50  C   UNL A   1      39.204  33.864  34.740  1.00  0.00     0.031 C 
ATOM     51  C   UNL A   1      38.908  29.569  29.324  1.00  0.00     0.029 A 
ATOM     52  C   UNL A   1      39.998  29.317  30.259  1.00  0.00     0.049 A 
ATOM     53  H   UNL A   1      40.417  30.323  32.034  1.00  0.00     0.167 HD
ATOM     54  C   UNL A   1      41.140  32.694  35.717  1.00  0.00     0.034 A 
ATOM     55  C   UNL A   1      40.945  28.372  30.128  1.00  0.00     0.034 A 
ATOM     56  C   UNL A   1      42.106  31.634  35.726  1.00  0.00     0.049 A 
ATOM     57  C   UNL A   1      41.969  28.236  31.219  1.00  0.00     0.074 A 
ATOM     58  C   UNL A   1      43.065  31.354  36.678  1.00  0.00     0.029 A 
ATOM     59  N   UNL A   1      42.242  30.689  34.720  1.00  0.00    -0.354 N 
ATOM     60  N   UNL A   1      42.095  28.932  32.324  1.00  0.00    -0.248 NA
ATOM     61  C   UNL A   1      42.955  27.161  31.066  1.00  0.00     0.031 C 
ATOM     62  C   UNL A   1      43.817  30.268  36.221  1.00  0.00     0.029 A 
ATOM     63  C   UNL A   1      43.283  29.833  35.017  1.00  0.00     0.049 A 
ATOM     64  H   UNL A   1      41.678  30.637  33.914  1.00  0.00     0.167 HD
ATOM     65  C   UNL A   1      43.149  28.355  33.019  1.00  0.00     0.074 A 
ATOM     66  C   UNL A   1      43.611  27.240  32.216  1.00  0.00     0.031 C 
ATOM     67  C   UNL A   1      43.693  28.711  34.210  1.00  0.00     0.034 A 
BRANCH  54  68
ATOM     68  C   UNL A   1      41.141  33.708  36.829  1.00  0.00     0.023 A 
ATOM     69  C   UNL A   1      41.840  34.925  36.682  1.00  0.00     0.012 A 
ATOM     70  C   UNL A   1      40.436  33.456  38.020  1.00  0.00     0.148 A 
ATOM     71  C   UNL A   1      41.876  35.853  37.720  1.00  0.00     0.002 A 
ATOM     72  C   UNL A   1      40.428  34.411  39.027  1.00  0.00     0.091 A 
ATOM     73  F   UNL A   1      39.805  32.281  38.154  1.00  0.00    -0.205 F 
ATOM     74  C   UNL A   1      41.162  35.602  38.887  1.00  0.00     0.022 A 
BRANCH  72  75
ATOM     75  S   UNL A   1      39.472  34.218  40.533  1.00  0.00     0.127 S 
ATOM     76  O   UNL A   1      39.742  35.480  41.218  1.00  0.00    -0.237 OA
ATOM     77  O   UNL A   1      38.111  34.084  40.011  1.00  0.00    -0.237 OA
ATOM     78  O   UNL A   1      39.992  33.029  41.192  1.00  0.00    -0.744 OA
ENDBRANCH  72  75
ENDBRANCH  54  68
BRANCH  55  79
ATOM     79  C   UNL A   1      40.931  27.460  28.952  1.00  0.00     0.023 A 
ATOM     80  C   UNL A   1      39.964  26.441  28.867  1.00  0.00     0.012 A 
ATOM     81  C   UNL A   1      41.861  27.618  27.907  1.00  0.00     0.148 A 
ATOM     82  C   UNL A   1      39.949  25.567  27.778  1.00  0.00     0.002 A 
ATOM     83  C   UNL A   1      41.805  26.782  26.801  1.00  0.00     0.091 A 
ATOM     84  F   UNL A   1      42.769  28.598  28.010  1.00  0.00    -0.205 F 
ATOM     85  C   UNL A   1      40.864  25.742  26.743  1.00  0.00     0.022 A 
BRANCH  83  86
ATOM     86  S   UNL A   1      42.861  27.013  25.367  1.00  0.00     0.127 S 
ATOM     87  O   UNL A   1      42.639  25.771  24.631  1.00  0.00    -0.237 OA
ATOM     88  O   UNL A   1      42.277  28.206  24.756  1.00  0.00    -0.237 OA
ATOM     89  O   UNL A   1      44.206  27.200  25.891  1.00  0.00    -0.744 OA
ENDBRANCH  83  86
ENDBRANCH  55  79
BRANCH  67  90
ATOM     90  C   UNL A   1      44.807  27.853  34.743  1.00  0.00     0.023 A 
ATOM     91  C   UNL A   1      46.151  28.183  34.479  1.00  0.00     0.012 A 
ATOM     92  C   UNL A   1      44.512  26.748  35.565  1.00  0.00     0.148 A 
ATOM     93  C   UNL A   1      47.182  27.395  34.985  1.00  0.00     0.002 A 
ATOM     94  C   UNL A   1      45.544  26.007  36.117  1.00  0.00     0.091 A 
ATOM     95  F   UNL A   1      43.224  26.446  35.792  1.00  0.00    -0.205 F 
ATOM     96  C   UNL A   1      46.880  26.317  35.813  1.00  0.00     0.022 A 
BRANCH  94  97
ATOM     97  S   UNL A   1      45.253  24.670  37.279  1.00  0.00     0.127 S 
ATOM     98  O   UNL A   1      44.516  23.715  36.453  1.00  0.00    -0.237 OA
ATOM     99  O   UNL A   1      46.614  24.260  37.624  1.00  0.00    -0.237 OA
ATOM    100  O   UNL A   1      44.497  25.251  38.382  1.00  0.00    -0.744 OA
ENDBRANCH  94  97
ENDBRANCH  67  90
ENDBRANCH  41  42
ENDBRANCH  33  36
ENDBRANCH  31  32
ENDBRANCH  30  31
ENDBRANCH  29  30
ENDBRANCH   1  29
TORSDOF 20
ENDMDL
MODEL 3
REMARK VINA RESULT:     -12.1      1.206      2.044
REMARK SMILES Cc1c(Cl)cccc1NC(=O)C[C@](C)(C(=O)NCCCCCCNC(=O)c1ccc(-c2c3nc(c(-c4cccc(S(=O)(=O)[O-])c4F)c4ccc([nH]4)c(-c4cccc(S(=O)(=O)[O-])c4F)c4nc(c(-c5cccc(S(=O)(=O)[O-])c5F)c5ccc2[nH]5)C=C4)C=C3)cc1)c1ccccc1
REMARK SMILES IDX 20 1 19 2 18 3 17 4 15 5 16 6 13 8 14 9 12 10 10 11 9 12
REMARK SMILES IDX 11 14 8 15 1 16 2 17 3 18 4 19 5 20 7 21 6 22 90 23 91 24
REMARK SMILES IDX 95 25 92 26 94 27 93 28 21 29 22 30 23 31 24 32 25 33 26 35
REMARK SMILES IDX 27 36 28 37 89 38 29 39 88 40 30 41 31 42 32 43 82 44 33 45
REMARK SMILES IDX 87 46 81 47 83 48 34 49 86 50 80 51 79 52 35 54 67 55 47 56
REMARK SMILES IDX 66 57 48 58 51 59 65 60 84 61 49 62 50 63 64 65 85 66 52 67
REMARK SMILES IDX 36 68 37 69 45 70 38 71 40 72 46 73 39 74 41 75 42 76 43 77
REMARK SMILES IDX 44 78 68 79 69 80 77 81 70 82 72 83 78 84 71 85 73 86 74 87
REMARK SMILES IDX 75 88 76 89 53 90 54 91 62 92 55 93 57 94 63 95 56 96 58 97
REMARK SMILES IDX 59 98 60 99 61 100
REMARK H PARENT 17 7 9 13 24 34 83 53 51 64
REMARK Flexibility Score: inf
ROOT
ATOM      1  C   UNL A   1      37.976  23.398  25.844  1.00  0.00     0.002 C 
ENDROOT
BRANCH   1   2
ATOM      2  C   UNL A   1      36.668  22.643  26.103  1.00  0.00     0.021 C 
BRANCH   2   3
ATOM      3  C   UNL A   1      36.063  21.859  24.722  1.00  0.00     0.116 C 
BRANCH   3   4
ATOM      4  N   UNL A   1      34.115  21.560  24.025  1.00  0.00    -0.355 N 
ATOM      5  C   UNL A   1      32.776  21.958  23.752  1.00  0.00     0.230 C 
ATOM      6  O   UNL A   1      32.187  20.999  23.217  1.00  0.00    -0.274 OA
ATOM      7  H   UNL A   1      34.134  20.627  23.713  1.00  0.00     0.163 HD
BRANCH   5   8
ATOM      8  C   UNL A   1      31.969  23.321  24.071  1.00  0.00     0.080 C 
ATOM      9  C   UNL A   1      30.542  23.193  23.412  1.00  0.00     0.027 C 
BRANCH   8  10
ATOM     10  C   UNL A   1      31.890  23.744  25.580  1.00  0.00     0.121 C 
BRANCH  10  11
ATOM     11  C   UNL A   1      30.534  23.975  26.220  1.00  0.00     0.225 C 
ATOM     12  N   UNL A   1      29.987  25.224  26.255  1.00  0.00    -0.326 N 
ATOM     13  H   UNL A   1      29.358  25.444  26.981  1.00  0.00     0.169 HD
ATOM     14  O   UNL A   1      29.915  23.051  26.751  1.00  0.00    -0.275 OA
BRANCH  12  15
ATOM     15  C   UNL A   1      30.281  26.204  25.309  1.00  0.00     0.045 A 
ATOM     16  C   UNL A   1      32.485  27.177  26.884  1.00  0.00     0.048 C 
ATOM     17  C   UNL A   1      31.361  27.517  25.944  1.00  0.00    -0.009 A 
ATOM     18  C   UNL A   1      31.354  29.129  25.146  1.00  0.00     0.046 A 
ATOM     19  Cl  UNL A   1      32.350  30.400  25.747  1.00  0.00    -0.084 Cl
ATOM     20  C   UNL A   1      30.197  29.489  23.810  1.00  0.00     0.021 A 
ATOM     21  C   UNL A   1      29.188  26.505  23.870  1.00  0.00     0.026 A 
ATOM     22  C   UNL A   1      29.150  28.169  23.129  1.00  0.00     0.004 A 
ENDBRANCH  12  15
ENDBRANCH  10  11
ENDBRANCH   8  10
BRANCH   8  23
ATOM     23  C   UNL A   1      32.517  24.618  23.347  1.00  0.00    -0.032 A 
ATOM     24  C   UNL A   1      33.617  25.302  23.937  1.00  0.00     0.005 A 
ATOM     25  C   UNL A   1      31.992  25.174  22.178  1.00  0.00     0.005 A 
ATOM     26  C   UNL A   1      34.056  26.542  23.484  1.00  0.00     0.000 A 
ATOM     27  C   UNL A   1      32.440  26.418  21.712  1.00  0.00     0.000 A 
ATOM     28  C   UNL A   1      33.448  27.112  22.379  1.00  0.00     0.000 A 
ENDBRANCH   8  23
ENDBRANCH   5   8
ENDBRANCH   3   4
ENDBRANCH   2   3
ENDBRANCH   1   2
BRANCH   1  29
ATOM     29  C   UNL A   1      39.210  22.742  26.488  1.00  0.00     0.002 C 
BRANCH  29  30
ATOM     30  C   UNL A   1      39.413  21.301  26.019  1.00  0.00     0.021 C 
BRANCH  30  31
ATOM     31  C   UNL A   1      40.242  20.520  27.023  1.00  0.00     0.116 C 
BRANCH  31  32
ATOM     32  N   UNL A   1      41.281  19.747  26.332  1.00  0.00    -0.352 N 
ATOM     33  C   UNL A   1      42.433  20.198  25.769  1.00  0.00     0.251 C 
ATOM     34  H   UNL A   1      41.124  18.777  26.269  1.00  0.00     0.163 HD
ATOM     35  O   UNL A   1      43.104  19.514  25.010  1.00  0.00    -0.269 OA
BRANCH  33  36
ATOM     36  C   UNL A   1      42.811  21.545  26.159  1.00  0.00     0.039 A 
ATOM     37  C   UNL A   1      42.699  22.574  25.234  1.00  0.00     0.014 A 
ATOM     38  C   UNL A   1      43.052  21.766  27.521  1.00  0.00     0.014 A 
ATOM     39  C   UNL A   1      42.852  23.869  25.692  1.00  0.00     0.010 A 
ATOM     40  C   UNL A   1      43.049  23.057  27.989  1.00  0.00     0.010 A 
ATOM     41  C   UNL A   1      43.018  24.110  27.068  1.00  0.00    -0.014 A 
BRANCH  41  42
ATOM     42  C   UNL A   1      43.263  25.473  27.557  1.00  0.00     0.031 A 
ATOM     43  C   UNL A   1      44.649  26.036  27.451  1.00  0.00     0.074 A 
ATOM     44  C   UNL A   1      42.247  26.168  28.095  1.00  0.00     0.049 A 
ATOM     45  N   UNL A   1      45.076  27.221  27.787  1.00  0.00    -0.248 NA
ATOM     46  C   UNL A   1      45.707  25.143  26.937  1.00  0.00     0.031 C 
ATOM     47  C   UNL A   1      40.887  25.663  28.304  1.00  0.00     0.029 A 
ATOM     48  N   UNL A   1      42.203  27.453  28.556  1.00  0.00    -0.354 N 
ATOM     49  C   UNL A   1      46.445  27.201  27.553  1.00  0.00     0.074 A 
ATOM     50  C   UNL A   1      46.794  25.870  27.125  1.00  0.00     0.031 C 
ATOM     51  C   UNL A   1      40.129  26.648  28.811  1.00  0.00     0.029 A 
ATOM     52  C   UNL A   1      40.961  27.831  29.000  1.00  0.00     0.049 A 
ATOM     53  H   UNL A   1      42.986  28.050  28.567  1.00  0.00     0.167 HD
ATOM     54  C   UNL A   1      47.326  28.219  27.646  1.00  0.00     0.034 A 
ATOM     55  C   UNL A   1      40.552  29.009  29.503  1.00  0.00     0.034 A 
ATOM     56  C   UNL A   1      46.949  29.543  28.046  1.00  0.00     0.049 A 
ATOM     57  C   UNL A   1      41.548  30.130  29.584  1.00  0.00     0.074 A 
ATOM     58  C   UNL A   1      47.734  30.675  28.118  1.00  0.00     0.029 A 
ATOM     59  N   UNL A   1      45.675  29.904  28.458  1.00  0.00    -0.354 N 
ATOM     60  N   UNL A   1      42.812  30.138  29.236  1.00  0.00    -0.248 NA
ATOM     61  C   UNL A   1      41.053  31.415  30.091  1.00  0.00     0.031 C 
ATOM     62  C   UNL A   1      46.946  31.712  28.625  1.00  0.00     0.029 A 
ATOM     63  C   UNL A   1      45.654  31.240  28.806  1.00  0.00     0.049 A 
ATOM     64  H   UNL A   1      44.900  29.298  28.497  1.00  0.00     0.167 HD
ATOM     65  C   UNL A   1      43.257  31.437  29.441  1.00  0.00     0.074 A 
ATOM     66  C   UNL A   1      42.116  32.190  29.927  1.00  0.00     0.031 C 
ATOM     67  C   UNL A   1      44.491  31.965  29.253  1.00  0.00     0.034 A 
BRANCH  54  68
ATOM     68  C   UNL A   1      48.760  27.930  27.295  1.00  0.00     0.023 A 
ATOM     69  C   UNL A   1      49.691  27.614  28.306  1.00  0.00     0.012 A 
ATOM     70  C   UNL A   1      49.183  27.963  25.954  1.00  0.00     0.148 A 
ATOM     71  C   UNL A   1      51.029  27.381  27.994  1.00  0.00     0.002 A 
ATOM     72  C   UNL A   1      50.504  27.671  25.643  1.00  0.00     0.091 A 
ATOM     73  F   UNL A   1      48.291  28.296  25.010  1.00  0.00    -0.205 F 
ATOM     74  C   UNL A   1      51.433  27.399  26.663  1.00  0.00     0.022 A 
BRANCH  72  75
ATOM     75  S   UNL A   1      51.103  27.587  23.954  1.00  0.00     0.127 S 
ATOM     76  O   UNL A   1      50.100  26.727  23.328  1.00  0.00    -0.237 OA
ATOM     77  O   UNL A   1      51.047  28.990  23.543  1.00  0.00    -0.237 OA
ATOM     78  O   UNL A   1      52.444  27.026  24.028  1.00  0.00    -0.744 OA
ENDBRANCH  72  75
ENDBRANCH  54  68
BRANCH  55  79
ATOM     79  C   UNL A   1      39.134  29.192  29.913  1.00  0.00     0.023 A 
ATOM     80  C   UNL A   1      38.726  28.833  31.211  1.00  0.00     0.012 A 
ATOM     81  C   UNL A   1      38.193  29.747  29.024  1.00  0.00     0.148 A 
ATOM     82  C   UNL A   1      37.395  28.984  31.604  1.00  0.00     0.002 A 
ATOM     83  C   UNL A   1      36.884  29.947  29.440  1.00  0.00     0.091 A 
ATOM     84  F   UNL A   1      38.606  30.086  27.795  1.00  0.00    -0.205 F 
ATOM     85  C   UNL A   1      36.477  29.547  30.722  1.00  0.00     0.022 A 
BRANCH  83  86
ATOM     86  S   UNL A   1      35.667  30.780  28.416  1.00  0.00     0.127 S 
ATOM     87  O   UNL A   1      34.816  31.413  29.421  1.00  0.00    -0.237 OA
ATOM     88  O   UNL A   1      36.504  31.700  27.646  1.00  0.00    -0.237 OA
ATOM     89  O   UNL A   1      35.033  29.735  27.624  1.00  0.00    -0.744 OA
ENDBRANCH  83  86
ENDBRANCH  55  79
BRANCH  67  90
ATOM     90  C   UNL A   1      44.660  33.437  29.515  1.00  0.00     0.023 A 
ATOM     91  C   UNL A   1      45.086  33.892  30.777  1.00  0.00     0.012 A 
ATOM     92  C   UNL A   1      44.451  34.364  28.475  1.00  0.00     0.148 A 
ATOM     93  C   UNL A   1      45.254  35.255  31.015  1.00  0.00     0.002 A 
ATOM     94  C   UNL A   1      44.683  35.712  28.700  1.00  0.00     0.091 A 
ATOM     95  F   UNL A   1      44.034  33.908  27.285  1.00  0.00    -0.205 F 
ATOM     96  C   UNL A   1      45.065  36.162  29.974  1.00  0.00     0.022 A 
BRANCH  94  97
ATOM     97  S   UNL A   1      44.570  36.938  27.393  1.00  0.00     0.127 S 
ATOM     98  O   UNL A   1      44.863  38.172  28.120  1.00  0.00    -0.237 OA
ATOM     99  O   UNL A   1      45.622  36.503  26.474  1.00  0.00    -0.237 OA
ATOM    100  O   UNL A   1      43.218  36.836  26.860  1.00  0.00    -0.744 OA
ENDBRANCH  94  97
ENDBRANCH  67  90
ENDBRANCH  41  42
ENDBRANCH  33  36
ENDBRANCH  31  32
ENDBRANCH  30  31
ENDBRANCH  29  30
ENDBRANCH   1  29
TORSDOF 20
ENDMDL
