MODEL 1
REMARK VINA RESULT:      -7.6      0.000      0.000
REMARK SMILES COc1cc(OC)c(CCC(=O)NCCCCCCNC(=O)c2ccc(-c3c4nc(c(-c5cccc(S(=O)(=O)[O-])c5F)c5ccc([nH]5)c(-c5cccc(S(=O)(=O)[O-])c5F)c5nc(c(-c6cccc(S(=O)(=O)[O-])c6F)c6ccc3[nH]6)C=C5)C=C4)cc2)c(OC)c1
REMARK SMILES IDX 16 1 15 2 14 3 13 4 11 5 12 6 10 8 9 9 8 10 3 11 4 12 89 13
REMARK SMILES IDX 5 14 86 15 2 16 1 17 6 18 7 19 87 20 88 21 17 22 18 23 19 24
REMARK SMILES IDX 20 25 21 26 22 28 23 29 24 30 85 31 25 32 84 33 26 34 27 35
REMARK SMILES IDX 28 36 78 37 29 38 83 39 77 40 79 41 30 42 82 43 76 44 75 45
REMARK SMILES IDX 31 47 63 48 43 49 62 50 44 51 47 52 61 53 80 54 45 55 46 56
REMARK SMILES IDX 60 58 81 59 48 60 32 61 33 62 41 63 34 64 36 65 42 66 35 67
REMARK SMILES IDX 37 68 38 69 39 70 40 71 64 72 65 73 73 74 66 75 68 76 74 77
REMARK SMILES IDX 67 78 69 79 70 80 71 81 72 82 49 83 50 84 58 85 51 86 53 87
REMARK SMILES IDX 59 88 52 89 54 90 55 91 56 92 57 93
REMARK H PARENT 13 7 20 27 79 46 47 57
REMARK Flexibility Score: inf
ROOT
ATOM      1  C   UNL A   1      37.022  33.158  30.226  1.00  0.00     0.002 C 
ENDROOT
BRANCH   1   2
ATOM      2  C   UNL A   1      37.647  34.214  31.138  1.00  0.00     0.021 C 
BRANCH   2   3
ATOM      3  C   UNL A   1      39.172  34.220  31.244  1.00  0.00     0.116 C 
BRANCH   3   4
ATOM      4  N   UNL A   1      39.778  34.905  30.111  1.00  0.00    -0.356 N 
ATOM      5  C   UNL A   1      41.026  34.784  29.572  1.00  0.00     0.220 C 
ATOM      6  O   UNL A   1      41.357  35.593  28.700  1.00  0.00    -0.275 OA
ATOM      7  H   UNL A   1      39.195  35.561  29.664  1.00  0.00     0.163 HD
BRANCH   5   8
ATOM      8  C   UNL A   1      41.982  33.691  30.015  1.00  0.00     0.105 C 
BRANCH   8   9
ATOM      9  C   UNL A   1      43.342  33.700  29.293  1.00  0.00     0.053 C 
BRANCH   9  10
ATOM     10  C   UNL A   1      44.269  32.581  29.719  1.00  0.00     0.037 A 
ATOM     11  C   UNL A   1      46.205  30.612  30.382  1.00  0.00     0.126 A 
ATOM     12  C   UNL A   1      45.056  30.279  29.658  1.00  0.00     0.093 A 
ATOM     13  C   UNL A   1      46.350  31.916  30.841  1.00  0.00     0.093 A 
ATOM     14  C   UNL A   1      44.097  31.247  29.320  1.00  0.00     0.129 A 
ATOM     15  C   UNL A   1      45.357  32.870  30.571  1.00  0.00     0.129 A 
BRANCH  11  16
ATOM     16  O   UNL A   1      47.088  29.588  30.572  1.00  0.00    -0.496 OA
ATOM     17  C   UNL A   1      48.281  29.832  31.313  1.00  0.00     0.278 C 
ENDBRANCH  11  16
BRANCH  14  18
ATOM     18  O   UNL A   1      42.946  30.775  28.745  1.00  0.00    -0.496 OA
ATOM     19  C   UNL A   1      43.121  29.740  27.782  1.00  0.00     0.278 C 
ENDBRANCH  14  18
BRANCH  15  20
ATOM     20  O   UNL A   1      45.419  34.132  31.116  1.00  0.00    -0.496 OA
ATOM     21  C   UNL A   1      46.704  34.454  31.661  1.00  0.00     0.278 C 
ENDBRANCH  15  20
ENDBRANCH   9  10
ENDBRANCH   8   9
ENDBRANCH   5   8
ENDBRANCH   3   4
ENDBRANCH   2   3
ENDBRANCH   1   2
BRANCH   1  22
ATOM     22  C   UNL A   1      36.795  33.595  28.777  1.00  0.00     0.002 C 
BRANCH  22  23
ATOM     23  C   UNL A   1      35.340  33.593  28.290  1.00  0.00     0.021 C 
BRANCH  23  24
ATOM     24  C   UNL A   1      34.394  32.638  29.018  1.00  0.00     0.116 C 
BRANCH  24  25
ATOM     25  N   UNL A   1      33.883  31.592  28.147  1.00  0.00    -0.352 N 
ATOM     26  C   UNL A   1      34.502  30.471  27.648  1.00  0.00     0.251 C 
ATOM     27  H   UNL A   1      32.945  31.704  27.872  1.00  0.00     0.163 HD
ATOM     28  O   UNL A   1      33.945  29.817  26.769  1.00  0.00    -0.269 OA
BRANCH  26  29
ATOM     29  C   UNL A   1      35.839  30.051  28.134  1.00  0.00     0.039 A 
ATOM     30  C   UNL A   1      35.946  29.531  29.427  1.00  0.00     0.014 A 
ATOM     31  C   UNL A   1      36.990  30.216  27.359  1.00  0.00     0.014 A 
ATOM     32  C   UNL A   1      37.191  29.123  29.920  1.00  0.00     0.010 A 
ATOM     33  C   UNL A   1      38.222  29.750  27.828  1.00  0.00     0.010 A 
ATOM     34  C   UNL A   1      38.340  29.199  29.114  1.00  0.00    -0.014 A 
BRANCH  34  35
ATOM     35  C   UNL A   1      39.650  28.685  29.602  1.00  0.00     0.031 A 
ATOM     36  C   UNL A   1      40.393  29.381  30.714  1.00  0.00     0.074 A 
ATOM     37  C   UNL A   1      40.217  27.621  28.994  1.00  0.00     0.049 A 
ATOM     38  N   UNL A   1      41.555  29.084  31.239  1.00  0.00    -0.248 NA
ATOM     39  C   UNL A   1      39.764  30.577  31.296  1.00  0.00     0.031 C 
ATOM     40  C   UNL A   1      39.650  26.901  27.852  1.00  0.00     0.029 A 
ATOM     41  N   UNL A   1      41.410  26.979  29.228  1.00  0.00    -0.354 N 
ATOM     42  C   UNL A   1      41.816  30.074  32.180  1.00  0.00     0.074 A 
ATOM     43  C   UNL A   1      40.698  30.991  32.143  1.00  0.00     0.031 C 
ATOM     44  C   UNL A   1      40.493  25.923  27.483  1.00  0.00     0.029 A 
ATOM     45  C   UNL A   1      41.676  25.963  28.339  1.00  0.00     0.049 A 
ATOM     46  H   UNL A   1      42.017  27.224  29.964  1.00  0.00     0.167 HD
ATOM     47  C   UNL A   1      42.878  30.199  33.013  1.00  0.00     0.034 A 
ATOM     48  C   UNL A   1      42.753  25.161  28.211  1.00  0.00     0.034 A 
ATOM     49  C   UNL A   1      43.966  29.260  33.091  1.00  0.00     0.049 A 
ATOM     50  C   UNL A   1      43.892  25.291  29.187  1.00  0.00     0.074 A 
ATOM     51  C   UNL A   1      45.021  29.243  33.987  1.00  0.00     0.029 A 
ATOM     52  N   UNL A   1      44.152  28.186  32.236  1.00  0.00    -0.354 N 
ATOM     53  N   UNL A   1      44.025  26.121  30.192  1.00  0.00    -0.248 NA
ATOM     54  C   UNL A   1      45.010  24.348  29.036  1.00  0.00     0.031 C 
ATOM     55  C   UNL A   1      45.866  28.181  33.650  1.00  0.00     0.029 A 
ATOM     56  C   UNL A   1      45.316  27.513  32.569  1.00  0.00     0.049 A 
ATOM     57  H   UNL A   1      43.547  27.937  31.501  1.00  0.00     0.167 HD
ATOM     58  C   UNL A   1      45.221  25.778  30.813  1.00  0.00     0.074 A 
ATOM     59  C   UNL A   1      45.762  24.648  30.086  1.00  0.00     0.031 C 
ATOM     60  C   UNL A   1      45.824  26.356  31.880  1.00  0.00     0.034 A 
BRANCH  47  61
ATOM     61  C   UNL A   1      42.912  31.377  33.951  1.00  0.00     0.023 A 
ATOM     62  C   UNL A   1      43.517  32.581  33.543  1.00  0.00     0.012 A 
ATOM     63  C   UNL A   1      42.250  31.321  35.195  1.00  0.00     0.148 A 
ATOM     64  C   UNL A   1      43.485  33.707  34.367  1.00  0.00     0.002 A 
ATOM     65  C   UNL A   1      42.182  32.459  35.990  1.00  0.00     0.091 A 
ATOM     66  F   UNL A   1      41.695  30.161  35.572  1.00  0.00    -0.205 F 
ATOM     67  C   UNL A   1      42.807  33.649  35.581  1.00  0.00     0.022 A 
BRANCH  65  68
ATOM     68  S   UNL A   1      41.259  32.511  37.530  1.00  0.00     0.127 S 
ATOM     69  O   UNL A   1      41.223  33.949  37.801  1.00  0.00    -0.237 OA
ATOM     70  O   UNL A   1      39.973  31.934  37.135  1.00  0.00    -0.237 OA
ATOM     71  O   UNL A   1      42.017  31.719  38.483  1.00  0.00    -0.744 OA
ENDBRANCH  65  68
ENDBRANCH  47  61
BRANCH  48  72
ATOM     72  C   UNL A   1      42.796  24.134  27.131  1.00  0.00     0.023 A 
ATOM     73  C   UNL A   1      43.486  24.406  25.934  1.00  0.00     0.012 A 
ATOM     74  C   UNL A   1      42.153  22.890  27.285  1.00  0.00     0.148 A 
ATOM     75  C   UNL A   1      43.502  23.474  24.895  1.00  0.00     0.002 A 
ATOM     76  C   UNL A   1      42.224  21.944  26.271  1.00  0.00     0.091 A 
ATOM     77  F   UNL A   1      41.486  22.656  28.425  1.00  0.00    -0.205 F 
ATOM     78  C   UNL A   1      42.879  22.240  25.066  1.00  0.00     0.022 A 
BRANCH  76  79
ATOM     79  S   UNL A   1      41.569  20.283  26.467  1.00  0.00     0.127 S 
ATOM     80  O   UNL A   1      40.130  20.516  26.387  1.00  0.00    -0.237 OA
ATOM     81  O   UNL A   1      42.147  19.590  25.315  1.00  0.00    -0.237 OA
ATOM     82  O   UNL A   1      42.068  19.817  27.755  1.00  0.00    -0.744 OA
ENDBRANCH  76  79
ENDBRANCH  48  72
BRANCH  60  83
ATOM     83  C   UNL A   1      47.120  25.762  32.366  1.00  0.00     0.023 A 
ATOM     84  C   UNL A   1      48.335  26.119  31.749  1.00  0.00     0.012 A 
ATOM     85  C   UNL A   1      47.140  24.905  33.485  1.00  0.00     0.148 A 
ATOM     86  C   UNL A   1      49.546  25.606  32.216  1.00  0.00     0.002 A 
ATOM     87  C   UNL A   1      48.354  24.440  33.977  1.00  0.00     0.091 A 
ATOM     88  F   UNL A   1      45.973  24.562  34.049  1.00  0.00    -0.205 F 
ATOM     89  C   UNL A   1      49.556  24.778  33.335  1.00  0.00     0.022 A 
BRANCH  87  90
ATOM     90  S   UNL A   1      48.472  23.449  35.471  1.00  0.00     0.127 S 
ATOM     91  O   UNL A   1      47.776  22.227  35.073  1.00  0.00    -0.237 OA
ATOM     92  O   UNL A   1      49.919  23.302  35.633  1.00  0.00    -0.237 OA
ATOM     93  O   UNL A   1      47.823  24.224  36.520  1.00  0.00    -0.744 OA
ENDBRANCH  87  90
ENDBRANCH  60  83
ENDBRANCH  34  35
ENDBRANCH  26  29
ENDBRANCH  24  25
ENDBRANCH  23  24
ENDBRANCH  22  23
ENDBRANCH   1  22
TORSDOF 21
ENDMDL
MODEL 2
REMARK VINA RESULT:      -7.5      4.252     10.922
REMARK SMILES COc1cc(OC)c(CCC(=O)NCCCCCCNC(=O)c2ccc(-c3c4nc(c(-c5cccc(S(=O)(=O)[O-])c5F)c5ccc([nH]5)c(-c5cccc(S(=O)(=O)[O-])c5F)c5nc(c(-c6cccc(S(=O)(=O)[O-])c6F)c6ccc3[nH]6)C=C5)C=C4)cc2)c(OC)c1
REMARK SMILES IDX 16 1 15 2 14 3 13 4 11 5 12 6 10 8 9 9 8 10 3 11 4 12 89 13
REMARK SMILES IDX 5 14 86 15 2 16 1 17 6 18 7 19 87 20 88 21 17 22 18 23 19 24
REMARK SMILES IDX 20 25 21 26 22 28 23 29 24 30 85 31 25 32 84 33 26 34 27 35
REMARK SMILES IDX 28 36 78 37 29 38 83 39 77 40 79 41 30 42 82 43 76 44 75 45
REMARK SMILES IDX 31 47 63 48 43 49 62 50 44 51 47 52 61 53 80 54 45 55 46 56
REMARK SMILES IDX 60 58 81 59 48 60 32 61 33 62 41 63 34 64 36 65 42 66 35 67
REMARK SMILES IDX 37 68 38 69 39 70 40 71 64 72 65 73 73 74 66 75 68 76 74 77
REMARK SMILES IDX 67 78 69 79 70 80 71 81 72 82 49 83 50 84 58 85 51 86 53 87
REMARK SMILES IDX 59 88 52 89 54 90 55 91 56 92 57 93
REMARK H PARENT 13 7 20 27 79 46 47 57
REMARK Flexibility Score: inf
ROOT
ATOM      1  C   UNL A   1      34.934  29.948  27.262  1.00  0.00     0.002 C 
ENDROOT
BRANCH   1   2
ATOM      2  C   UNL A   1      34.410  28.643  26.663  1.00  0.00     0.021 C 
BRANCH   2   3
ATOM      3  C   UNL A   1      33.875  28.704  25.232  1.00  0.00     0.116 C 
BRANCH   3   4
ATOM      4  N   UNL A   1      32.576  28.055  25.126  1.00  0.00    -0.356 N 
ATOM      5  C   UNL A   1      32.231  26.862  24.560  1.00  0.00     0.220 C 
ATOM      6  O   UNL A   1      31.029  26.597  24.460  1.00  0.00    -0.275 OA
ATOM      7  H   UNL A   1      31.829  28.556  25.524  1.00  0.00     0.163 HD
BRANCH   5   8
ATOM      8  C   UNL A   1      33.281  25.878  24.072  1.00  0.00     0.105 C 
BRANCH   8   9
ATOM      9  C   UNL A   1      33.797  24.907  25.150  1.00  0.00     0.053 C 
BRANCH   9  10
ATOM     10  C   UNL A   1      33.292  23.489  24.991  1.00  0.00     0.037 A 
ATOM     11  C   UNL A   1      32.428  20.785  24.946  1.00  0.00     0.126 A 
ATOM     12  C   UNL A   1      33.384  21.251  24.038  1.00  0.00     0.093 A 
ATOM     13  C   UNL A   1      31.848  21.689  25.828  1.00  0.00     0.093 A 
ATOM     14  C   UNL A   1      33.822  22.586  24.057  1.00  0.00     0.129 A 
ATOM     15  C   UNL A   1      32.227  23.039  25.799  1.00  0.00     0.129 A 
BRANCH  11  16
ATOM     16  O   UNL A   1      32.155  19.449  24.864  1.00  0.00    -0.496 OA
ATOM     17  C   UNL A   1      32.876  18.544  25.696  1.00  0.00     0.278 C 
ENDBRANCH  11  16
BRANCH  14  18
ATOM     18  O   UNL A   1      34.644  22.961  23.027  1.00  0.00    -0.496 OA
ATOM     19  C   UNL A   1      36.039  22.917  23.308  1.00  0.00     0.278 C 
ENDBRANCH  14  18
BRANCH  15  20
ATOM     20  O   UNL A   1      31.580  23.973  26.576  1.00  0.00    -0.496 OA
ATOM     21  C   UNL A   1      30.155  23.836  26.563  1.00  0.00     0.278 C 
ENDBRANCH  15  20
ENDBRANCH   9  10
ENDBRANCH   8   9
ENDBRANCH   5   8
ENDBRANCH   3   4
ENDBRANCH   2   3
ENDBRANCH   1   2
BRANCH   1  22
ATOM     22  C   UNL A   1      33.869  30.861  27.874  1.00  0.00     0.002 C 
BRANCH  22  23
ATOM     23  C   UNL A   1      33.586  32.169  27.123  1.00  0.00     0.021 C 
BRANCH  23  24
ATOM     24  C   UNL A   1      32.169  32.726  27.266  1.00  0.00     0.116 C 
BRANCH  24  25
ATOM     25  N   UNL A   1      32.160  34.142  27.596  1.00  0.00    -0.352 N 
ATOM     26  C   UNL A   1      32.929  34.852  28.486  1.00  0.00     0.251 C 
ATOM     27  H   UNL A   1      31.496  34.677  27.104  1.00  0.00     0.163 HD
ATOM     28  O   UNL A   1      32.626  36.012  28.753  1.00  0.00    -0.269 OA
BRANCH  26  29
ATOM     29  C   UNL A   1      34.106  34.235  29.145  1.00  0.00     0.039 A 
ATOM     30  C   UNL A   1      33.907  33.505  30.321  1.00  0.00     0.014 A 
ATOM     31  C   UNL A   1      35.403  34.416  28.655  1.00  0.00     0.014 A 
ATOM     32  C   UNL A   1      34.994  32.909  30.970  1.00  0.00     0.010 A 
ATOM     33  C   UNL A   1      36.479  33.768  29.270  1.00  0.00     0.010 A 
ATOM     34  C   UNL A   1      36.290  33.007  30.434  1.00  0.00    -0.014 A 
BRANCH  34  35
ATOM     35  C   UNL A   1      37.436  32.301  31.074  1.00  0.00     0.031 A 
ATOM     36  C   UNL A   1      38.198  31.230  30.335  1.00  0.00     0.074 A 
ATOM     37  C   UNL A   1      37.753  32.571  32.358  1.00  0.00     0.049 A 
ATOM     38  N   UNL A   1      39.201  30.498  30.752  1.00  0.00    -0.248 NA
ATOM     39  C   UNL A   1      37.768  30.925  28.962  1.00  0.00     0.031 C 
ATOM     40  C   UNL A   1      37.049  33.523  33.219  1.00  0.00     0.029 A 
ATOM     41  N   UNL A   1      38.729  32.049  33.174  1.00  0.00    -0.354 N 
ATOM     42  C   UNL A   1      39.493  29.620  29.714  1.00  0.00     0.074 A 
ATOM     43  C   UNL A   1      38.551  29.900  28.652  1.00  0.00     0.031 C 
ATOM     44  C   UNL A   1      37.608  33.514  34.439  1.00  0.00     0.029 A 
ATOM     45  C   UNL A   1      38.692  32.535  34.461  1.00  0.00     0.049 A 
ATOM     46  H   UNL A   1      39.391  31.389  32.866  1.00  0.00     0.167 HD
ATOM     47  C   UNL A   1      40.468  28.681  29.642  1.00  0.00     0.034 A 
ATOM     48  C   UNL A   1      39.433  32.222  35.544  1.00  0.00     0.034 A 
ATOM     49  C   UNL A   1      41.440  28.437  30.673  1.00  0.00     0.049 A 
ATOM     50  C   UNL A   1      40.543  31.214  35.415  1.00  0.00     0.074 A 
ATOM     51  C   UNL A   1      42.535  27.591  30.636  1.00  0.00     0.029 A 
ATOM     52  N   UNL A   1      41.430  29.020  31.930  1.00  0.00    -0.354 N 
ATOM     53  N   UNL A   1      40.919  30.533  34.361  1.00  0.00    -0.248 NA
ATOM     54  C   UNL A   1      41.356  30.960  36.614  1.00  0.00     0.031 C 
ATOM     55  C   UNL A   1      43.164  27.632  31.884  1.00  0.00     0.029 A 
ATOM     56  C   UNL A   1      42.485  28.534  32.685  1.00  0.00     0.049 A 
ATOM     57  H   UNL A   1      40.771  29.680  32.241  1.00  0.00     0.167 HD
ATOM     58  C   UNL A   1      42.031  29.799  34.758  1.00  0.00     0.074 A 
ATOM     59  C   UNL A   1      42.283  30.137  36.143  1.00  0.00     0.031 C 
ATOM     60  C   UNL A   1      42.767  28.913  34.044  1.00  0.00     0.034 A 
BRANCH  47  61
ATOM     61  C   UNL A   1      40.572  27.859  28.384  1.00  0.00     0.023 A 
ATOM     62  C   UNL A   1      41.317  28.341  27.290  1.00  0.00     0.012 A 
ATOM     63  C   UNL A   1      40.019  26.563  28.327  1.00  0.00     0.148 A 
ATOM     64  C   UNL A   1      41.493  27.557  26.150  1.00  0.00     0.002 A 
ATOM     65  C   UNL A   1      40.237  25.770  27.207  1.00  0.00     0.091 A 
ATOM     66  F   UNL A   1      39.299  26.130  29.372  1.00  0.00    -0.205 F 
ATOM     67  C   UNL A   1      40.965  26.269  26.114  1.00  0.00     0.022 A 
BRANCH  65  68
ATOM     68  S   UNL A   1      39.672  24.068  27.100  1.00  0.00     0.127 S 
ATOM     69  O   UNL A   1      39.981  23.744  25.706  1.00  0.00    -0.237 OA
ATOM     70  O   UNL A   1      40.527  23.400  28.083  1.00  0.00    -0.237 OA
ATOM     71  O   UNL A   1      38.258  24.089  27.434  1.00  0.00    -0.744 OA
ENDBRANCH  65  68
ENDBRANCH  47  61
BRANCH  48  72
ATOM     72  C   UNL A   1      39.171  32.896  36.848  1.00  0.00     0.023 A 
ATOM     73  C   UNL A   1      39.807  34.118  37.146  1.00  0.00     0.012 A 
ATOM     74  C   UNL A   1      38.294  32.331  37.795  1.00  0.00     0.148 A 
ATOM     75  C   UNL A   1      39.606  34.742  38.378  1.00  0.00     0.002 A 
ATOM     76  C   UNL A   1      38.053  32.988  38.995  1.00  0.00     0.091 A 
ATOM     77  F   UNL A   1      37.711  31.160  37.501  1.00  0.00    -0.205 F 
ATOM     78  C   UNL A   1      38.723  34.183  39.299  1.00  0.00     0.022 A 
BRANCH  76  79
ATOM     79  S   UNL A   1      36.828  32.407  40.172  1.00  0.00     0.127 S 
ATOM     80  O   UNL A   1      36.848  33.467  41.175  1.00  0.00    -0.237 OA
ATOM     81  O   UNL A   1      35.617  32.357  39.351  1.00  0.00    -0.237 OA
ATOM     82  O   UNL A   1      37.301  31.101  40.615  1.00  0.00    -0.744 OA
ENDBRANCH  76  79
ENDBRANCH  48  72
BRANCH  60  83
ATOM     83  C   UNL A   1      43.949  28.268  34.722  1.00  0.00     0.023 A 
ATOM     84  C   UNL A   1      45.187  28.938  34.767  1.00  0.00     0.012 A 
ATOM     85  C   UNL A   1      43.809  27.030  35.379  1.00  0.00     0.148 A 
ATOM     86  C   UNL A   1      46.278  28.369  35.426  1.00  0.00     0.002 A 
ATOM     87  C   UNL A   1      44.885  26.494  36.078  1.00  0.00     0.091 A 
ATOM     88  F   UNL A   1      42.628  26.399  35.311  1.00  0.00    -0.205 F 
ATOM     89  C   UNL A   1      46.123  27.155  36.090  1.00  0.00     0.022 A 
BRANCH  87  90
ATOM     90  S   UNL A   1      44.750  24.986  37.044  1.00  0.00     0.127 S 
ATOM     91  O   UNL A   1      46.152  24.693  37.338  1.00  0.00    -0.237 OA
ATOM     92  O   UNL A   1      43.965  25.426  38.198  1.00  0.00    -0.237 OA
ATOM     93  O   UNL A   1      44.076  24.018  36.189  1.00  0.00    -0.744 OA
ENDBRANCH  87  90
ENDBRANCH  60  83
ENDBRANCH  34  35
ENDBRANCH  26  29
ENDBRANCH  24  25
ENDBRANCH  23  24
ENDBRANCH  22  23
ENDBRANCH   1  22
TORSDOF 21
ENDMDL
MODEL 3
REMARK VINA RESULT:      -7.5      4.089      7.951
REMARK SMILES COc1cc(OC)c(CCC(=O)NCCCCCCNC(=O)c2ccc(-c3c4nc(c(-c5cccc(S(=O)(=O)[O-])c5F)c5ccc([nH]5)c(-c5cccc(S(=O)(=O)[O-])c5F)c5nc(c(-c6cccc(S(=O)(=O)[O-])c6F)c6ccc3[nH]6)C=C5)C=C4)cc2)c(OC)c1
REMARK SMILES IDX 16 1 15 2 14 3 13 4 11 5 12 6 10 8 9 9 8 10 3 11 4 12 89 13
REMARK SMILES IDX 5 14 86 15 2 16 1 17 6 18 7 19 87 20 88 21 17 22 18 23 19 24
REMARK SMILES IDX 20 25 21 26 22 28 23 29 24 30 85 31 25 32 84 33 26 34 27 35
REMARK SMILES IDX 28 36 78 37 29 38 83 39 77 40 79 41 30 42 82 43 76 44 75 45
REMARK SMILES IDX 31 47 63 48 43 49 62 50 44 51 47 52 61 53 80 54 45 55 46 56
REMARK SMILES IDX 60 58 81 59 48 60 32 61 33 62 41 63 34 64 36 65 42 66 35 67
REMARK SMILES IDX 37 68 38 69 39 70 40 71 64 72 65 73 73 74 66 75 68 76 74 77
REMARK SMILES IDX 67 78 69 79 70 80 71 81 72 82 49 83 50 84 58 85 51 86 53 87
REMARK SMILES IDX 59 88 52 89 54 90 55 91 56 92 57 93
REMARK H PARENT 13 7 20 27 79 46 47 57
REMARK Flexibility Score: inf
ROOT
ATOM      1  C   UNL A   1      35.261  30.468  27.835  1.00  0.00     0.002 C 
ENDROOT
BRANCH   1   2
ATOM      2  C   UNL A   1      33.983  29.860  27.256  1.00  0.00     0.021 C 
BRANCH   2   3
ATOM      3  C   UNL A   1      34.123  28.526  26.522  1.00  0.00     0.116 C 
BRANCH   3   4
ATOM      4  N   UNL A   1      32.827  28.017  26.099  1.00  0.00    -0.356 N 
ATOM      5  C   UNL A   1      32.515  26.984  25.264  1.00  0.00     0.220 C 
ATOM      6  O   UNL A   1      31.332  26.842  24.938  1.00  0.00    -0.275 OA
ATOM      7  H   UNL A   1      32.052  28.495  26.474  1.00  0.00     0.163 HD
BRANCH   5   8
ATOM      8  C   UNL A   1      33.576  26.025  24.752  1.00  0.00     0.105 C 
BRANCH   8   9
ATOM      9  C   UNL A   1      34.129  25.056  25.812  1.00  0.00     0.053 C 
BRANCH   9  10
ATOM     10  C   UNL A   1      33.948  23.595  25.461  1.00  0.00     0.037 A 
ATOM     11  C   UNL A   1      33.693  20.796  25.053  1.00  0.00     0.126 A 
ATOM     12  C   UNL A   1      34.552  21.565  24.261  1.00  0.00     0.093 A 
ATOM     13  C   UNL A   1      32.905  21.439  26.000  1.00  0.00     0.093 A 
ATOM     14  C   UNL A   1      34.689  22.949  24.460  1.00  0.00     0.129 A 
ATOM     15  C   UNL A   1      32.983  22.831  26.151  1.00  0.00     0.129 A 
BRANCH  11  16
ATOM     16  O   UNL A   1      33.719  19.454  24.801  1.00  0.00    -0.496 OA
ATOM     17  C   UNL A   1      32.721  18.622  25.388  1.00  0.00     0.278 C 
ENDBRANCH  11  16
BRANCH  14  18
ATOM     18  O   UNL A   1      35.440  23.616  23.529  1.00  0.00    -0.496 OA
ATOM     19  C   UNL A   1      36.683  23.008  23.192  1.00  0.00     0.278 C 
ENDBRANCH  14  18
BRANCH  15  20
ATOM     20  O   UNL A   1      32.126  23.502  26.994  1.00  0.00    -0.496 OA
ATOM     21  C   UNL A   1      30.743  23.281  26.694  1.00  0.00     0.278 C 
ENDBRANCH  15  20
ENDBRANCH   9  10
ENDBRANCH   8   9
ENDBRANCH   5   8
ENDBRANCH   3   4
ENDBRANCH   2   3
ENDBRANCH   1   2
BRANCH   1  22
ATOM     22  C   UNL A   1      35.263  31.992  27.961  1.00  0.00     0.002 C 
BRANCH  22  23
ATOM     23  C   UNL A   1      33.886  32.667  28.032  1.00  0.00     0.021 C 
BRANCH  23  24
ATOM     24  C   UNL A   1      33.888  34.194  27.951  1.00  0.00     0.116 C 
BRANCH  24  25
ATOM     25  N   UNL A   1      33.212  34.811  29.081  1.00  0.00    -0.352 N 
ATOM     26  C   UNL A   1      33.454  34.698  30.429  1.00  0.00     0.251 C 
ATOM     27  H   UNL A   1      32.463  35.403  28.843  1.00  0.00     0.163 HD
ATOM     28  O   UNL A   1      32.638  35.154  31.227  1.00  0.00    -0.269 OA
BRANCH  26  29
ATOM     29  C   UNL A   1      34.669  34.018  30.938  1.00  0.00     0.039 A 
ATOM     30  C   UNL A   1      34.514  32.877  31.731  1.00  0.00     0.014 A 
ATOM     31  C   UNL A   1      35.951  34.520  30.693  1.00  0.00     0.014 A 
ATOM     32  C   UNL A   1      35.639  32.208  32.227  1.00  0.00     0.010 A 
ATOM     33  C   UNL A   1      37.075  33.815  31.137  1.00  0.00     0.010 A 
ATOM     34  C   UNL A   1      36.934  32.652  31.910  1.00  0.00    -0.014 A 
BRANCH  34  35
ATOM     35  C   UNL A   1      38.134  31.893  32.363  1.00  0.00     0.031 A 
ATOM     36  C   UNL A   1      38.839  32.247  33.647  1.00  0.00     0.074 A 
ATOM     37  C   UNL A   1      38.642  30.920  31.577  1.00  0.00     0.049 A 
ATOM     38  N   UNL A   1      39.911  31.709  34.174  1.00  0.00    -0.248 NA
ATOM     39  C   UNL A   1      38.285  33.362  34.432  1.00  0.00     0.031 C 
ATOM     40  C   UNL A   1      38.112  30.527  30.270  1.00  0.00     0.029 A 
ATOM     41  N   UNL A   1      39.736  30.104  31.748  1.00  0.00    -0.354 N 
ATOM     42  C   UNL A   1      40.184  32.442  35.323  1.00  0.00     0.074 A 
ATOM     43  C   UNL A   1      39.174  33.475  35.410  1.00  0.00     0.031 C 
ATOM     44  C   UNL A   1      38.880  29.554  29.756  1.00  0.00     0.029 A 
ATOM     45  C   UNL A   1      39.976  29.271  30.678  1.00  0.00     0.049 A 
ATOM     46  H   UNL A   1      40.294  30.115  32.558  1.00  0.00     0.167 HD
ATOM     47  C   UNL A   1      41.172  32.262  36.233  1.00  0.00     0.034 A 
ATOM     48  C   UNL A   1      40.972  28.389  30.453  1.00  0.00     0.034 A 
ATOM     49  C   UNL A   1      42.144  31.203  36.179  1.00  0.00     0.049 A 
ATOM     50  C   UNL A   1      42.023  28.174  31.510  1.00  0.00     0.074 A 
ATOM     51  C   UNL A   1      43.104  30.872  37.120  1.00  0.00     0.029 A 
ATOM     52  N   UNL A   1      42.297  30.317  35.126  1.00  0.00    -0.354 N 
ATOM     53  N   UNL A   1      42.148  28.754  32.678  1.00  0.00    -0.248 NA
ATOM     54  C   UNL A   1      43.047  27.156  31.233  1.00  0.00     0.031 C 
ATOM     55  C   UNL A   1      43.863  29.811  36.619  1.00  0.00     0.029 A 
ATOM     56  C   UNL A   1      43.350  29.454  35.383  1.00  0.00     0.049 A 
ATOM     57  H   UNL A   1      41.740  30.301  34.315  1.00  0.00     0.167 HD
ATOM     58  C   UNL A   1      43.240  28.148  33.289  1.00  0.00     0.074 A 
ATOM     59  C   UNL A   1      43.726  27.138  32.373  1.00  0.00     0.031 C 
ATOM     60  C   UNL A   1      43.797  28.414  34.495  1.00  0.00     0.034 A 
BRANCH  47  61
ATOM     61  C   UNL A   1      41.240  33.205  37.406  1.00  0.00     0.023 A 
ATOM     62  C   UNL A   1      40.534  32.908  38.587  1.00  0.00     0.012 A 
ATOM     63  C   UNL A   1      42.089  34.330  37.371  1.00  0.00     0.148 A 
ATOM     64  C   UNL A   1      40.652  33.727  39.711  1.00  0.00     0.002 A 
ATOM     65  C   UNL A   1      42.237  35.116  38.508  1.00  0.00     0.091 A 
ATOM     66  F   UNL A   1      42.739  34.605  36.232  1.00  0.00    -0.205 F 
ATOM     67  C   UNL A   1      41.512  34.821  39.674  1.00  0.00     0.022 A 
BRANCH  65  68
ATOM     68  S   UNL A   1      43.386  36.495  38.590  1.00  0.00     0.127 S 
ATOM     69  O   UNL A   1      44.672  35.814  38.427  1.00  0.00    -0.237 OA
ATOM     70  O   UNL A   1      42.976  37.303  37.440  1.00  0.00    -0.237 OA
ATOM     71  O   UNL A   1      43.175  37.121  39.884  1.00  0.00    -0.744 OA
ENDBRANCH  65  68
ENDBRANCH  47  61
BRANCH  48  72
ATOM     72  C   UNL A   1      41.009  27.613  29.181  1.00  0.00     0.023 A 
ATOM     73  C   UNL A   1      40.253  26.431  29.059  1.00  0.00     0.012 A 
ATOM     74  C   UNL A   1      41.791  28.042  28.090  1.00  0.00     0.148 A 
ATOM     75  C   UNL A   1      40.307  25.669  27.890  1.00  0.00     0.002 A 
ATOM     76  C   UNL A   1      41.794  27.311  26.909  1.00  0.00     0.091 A 
ATOM     77  F   UNL A   1      42.517  29.161  28.231  1.00  0.00    -0.205 F 
ATOM     78  C   UNL A   1      41.070  26.113  26.813  1.00  0.00     0.022 A 
BRANCH  76  79
ATOM     79  S   UNL A   1      42.637  27.887  25.432  1.00  0.00     0.127 S 
ATOM     80  O   UNL A   1      42.453  26.760  24.522  1.00  0.00    -0.237 OA
ATOM     81  O   UNL A   1      41.871  29.086  25.092  1.00  0.00    -0.237 OA
ATOM     82  O   UNL A   1      44.010  28.154  25.845  1.00  0.00    -0.744 OA
ENDBRANCH  76  79
ENDBRANCH  48  72
BRANCH  60  83
ATOM     83  C   UNL A   1      44.975  27.579  34.928  1.00  0.00     0.023 A 
ATOM     84  C   UNL A   1      46.287  28.049  34.720  1.00  0.00     0.012 A 
ATOM     85  C   UNL A   1      44.778  26.361  35.608  1.00  0.00     0.148 A 
ATOM     86  C   UNL A   1      47.385  27.304  35.152  1.00  0.00     0.002 A 
ATOM     87  C   UNL A   1      45.874  25.650  36.082  1.00  0.00     0.091 A 
ATOM     88  F   UNL A   1      43.523  25.921  35.782  1.00  0.00    -0.205 F 
ATOM     89  C   UNL A   1      47.178  26.113  35.842  1.00  0.00     0.022 A 
BRANCH  87  90
ATOM     90  S   UNL A   1      45.701  24.157  37.067  1.00  0.00     0.127 S 
ATOM     91  O   UNL A   1      47.096  23.766  37.263  1.00  0.00    -0.237 OA
ATOM     92  O   UNL A   1      45.032  24.655  38.270  1.00  0.00    -0.237 OA
ATOM     93  O   UNL A   1      44.901  23.239  36.268  1.00  0.00    -0.744 OA
ENDBRANCH  87  90
ENDBRANCH  60  83
ENDBRANCH  34  35
ENDBRANCH  26  29
ENDBRANCH  24  25
ENDBRANCH  23  24
ENDBRANCH  22  23
ENDBRANCH   1  22
TORSDOF 21
ENDMDL
