MODEL 1
REMARK VINA RESULT:     -11.0      0.000      0.000
REMARK SMILES CCOc1ccccc1NS(=O)(=O)c1ccc(C(=O)NCCCCCCNC(=O)c2ccc(-c3c4nc(c(-c5cccc(S(=O)(=O)[O-])c5F)c5ccc([nH]5)c(-c5cccc(S(=O)(=O)[O-])c5F)c5nc(c(-c6cccc(S(=O)(=O)[O-])c6F)c6ccc3[nH]6)C=C5)C=C4)cc2)cc1
REMARK SMILES IDX 22 1 21 2 20 3 18 4 19 5 17 7 14 8 15 9 94 10 16 11 93 12
REMARK SMILES IDX 11 13 12 14 13 15 10 16 9 18 4 19 5 20 6 21 8 22 7 23 3 24
REMARK SMILES IDX 2 25 1 26 23 27 24 28 25 29 26 30 27 31 28 32 29 34 30 35
REMARK SMILES IDX 31 36 92 37 32 38 91 39 33 40 34 41 35 42 85 43 36 44 90 45
REMARK SMILES IDX 84 46 86 47 37 48 89 49 83 50 82 51 38 53 70 54 50 55 69 56
REMARK SMILES IDX 51 57 54 58 68 59 87 60 52 61 53 62 67 64 88 65 55 66 39 67
REMARK SMILES IDX 40 68 48 69 41 70 43 71 49 72 42 73 44 74 45 75 46 76 47 77
REMARK SMILES IDX 71 78 72 79 80 80 73 81 75 82 81 83 74 84 76 85 77 86 78 87
REMARK SMILES IDX 79 88 56 89 57 90 65 91 58 92 60 93 66 94 59 95 61 96 62 97
REMARK SMILES IDX 63 98 64 99
REMARK H PARENT 20 6 10 17 27 33 86 52 54 63
REMARK Flexibility Score: inf
ROOT
ATOM      1  C   UNL A   1      35.235  20.125  25.023  1.00  0.00     0.021 C 
ENDROOT
BRANCH   1   2
ATOM      2  C   UNL A   1      33.739  20.307  25.271  1.00  0.00     0.116 C 
BRANCH   2   3
ATOM      3  N   UNL A   1      32.995  19.917  24.090  1.00  0.00    -0.352 N 
ATOM      4  C   UNL A   1      32.353  20.687  23.163  1.00  0.00     0.251 C 
ATOM      5  O   UNL A   1      31.792  20.155  22.208  1.00  0.00    -0.269 OA
ATOM      6  H   UNL A   1      32.943  18.946  23.932  1.00  0.00     0.163 HD
BRANCH   4   7
ATOM      7  C   UNL A   1      32.361  22.162  23.263  1.00  0.00     0.039 A 
ATOM      8  C   UNL A   1      32.279  24.929  23.152  1.00  0.00     0.087 A 
ATOM      9  C   UNL A   1      33.170  24.235  22.324  1.00  0.00     0.023 A 
ATOM     10  C   UNL A   1      31.483  24.263  24.088  1.00  0.00     0.023 A 
ATOM     11  C   UNL A   1      33.198  22.846  22.374  1.00  0.00     0.015 A 
ATOM     12  C   UNL A   1      31.506  22.870  24.122  1.00  0.00     0.015 A 
BRANCH   8  13
ATOM     13  S   UNL A   1      31.968  26.641  22.816  1.00  0.00     0.262 S 
ATOM     14  O   UNL A   1      31.310  26.738  21.532  1.00  0.00    -0.201 OA
ATOM     15  O   UNL A   1      33.185  27.375  23.095  1.00  0.00    -0.201 OA
BRANCH  13  16
ATOM     16  N   UNL A   1      30.859  27.041  24.048  1.00  0.00    -0.276 N 
ATOM     17  H   UNL A   1      29.970  26.621  24.097  1.00  0.00     0.180 HD
BRANCH  16  18
ATOM     18  C   UNL A   1      31.282  28.018  25.010  1.00  0.00     0.091 A 
ATOM     19  C   UNL A   1      31.099  29.381  24.757  1.00  0.00     0.143 A 
ATOM     20  C   UNL A   1      31.429  30.327  25.730  1.00  0.00     0.049 A 
ATOM     21  C   UNL A   1      31.933  29.906  26.965  1.00  0.00     0.004 A 
ATOM     22  C   UNL A   1      31.824  27.610  26.229  1.00  0.00     0.031 A 
ATOM     23  C   UNL A   1      32.139  28.549  27.210  1.00  0.00     0.002 A 
BRANCH  19  24
ATOM     24  O   UNL A   1      30.769  29.759  23.485  1.00  0.00    -0.492 OA
BRANCH  24  25
ATOM     25  C   UNL A   1      29.463  30.328  23.370  1.00  0.00     0.226 C 
ATOM     26  C   UNL A   1      29.064  30.269  21.905  1.00  0.00     0.049 C 
ENDBRANCH  24  25
ENDBRANCH  19  24
ENDBRANCH  16  18
ENDBRANCH  13  16
ENDBRANCH   8  13
ENDBRANCH   4   7
ENDBRANCH   2   3
ENDBRANCH   1   2
BRANCH   1  27
ATOM     27  C   UNL A   1      36.008  21.450  25.017  1.00  0.00     0.002 C 
BRANCH  27  28
ATOM     28  C   UNL A   1      37.420  21.359  24.426  1.00  0.00     0.002 C 
BRANCH  28  29
ATOM     29  C   UNL A   1      38.164  20.060  24.746  1.00  0.00     0.021 C 
BRANCH  29  30
ATOM     30  C   UNL A   1      38.859  20.058  26.103  1.00  0.00     0.116 C 
BRANCH  30  31
ATOM     31  N   UNL A   1      40.058  19.232  26.087  1.00  0.00    -0.352 N 
ATOM     32  C   UNL A   1      41.373  19.623  26.111  1.00  0.00     0.251 C 
ATOM     33  H   UNL A   1      39.903  18.261  26.052  1.00  0.00     0.163 HD
ATOM     34  O   UNL A   1      42.260  18.817  25.848  1.00  0.00    -0.269 OA
BRANCH  32  35
ATOM     35  C   UNL A   1      41.710  21.020  26.451  1.00  0.00     0.039 A 
ATOM     36  C   UNL A   1      42.129  21.323  27.748  1.00  0.00     0.014 A 
ATOM     37  C   UNL A   1      41.606  22.028  25.487  1.00  0.00     0.014 A 
ATOM     38  C   UNL A   1      42.493  22.632  28.066  1.00  0.00     0.010 A 
ATOM     39  C   UNL A   1      42.033  23.317  25.787  1.00  0.00     0.010 A 
ATOM     40  C   UNL A   1      42.473  23.634  27.081  1.00  0.00    -0.014 A 
BRANCH  40  41
ATOM     41  C   UNL A   1      42.930  25.014  27.378  1.00  0.00     0.031 A 
ATOM     42  C   UNL A   1      41.997  26.002  28.018  1.00  0.00     0.074 A 
ATOM     43  C   UNL A   1      44.159  25.402  26.984  1.00  0.00     0.049 A 
ATOM     44  N   UNL A   1      42.204  27.260  28.312  1.00  0.00    -0.248 NA
ATOM     45  C   UNL A   1      40.643  25.525  28.349  1.00  0.00     0.031 C 
ATOM     46  C   UNL A   1      45.124  24.558  26.276  1.00  0.00     0.029 A 
ATOM     47  N   UNL A   1      44.795  26.612  27.096  1.00  0.00    -0.354 N 
ATOM     48  C   UNL A   1      41.002  27.734  28.825  1.00  0.00     0.074 A 
ATOM     49  C   UNL A   1      40.060  26.636  28.773  1.00  0.00     0.031 C 
ATOM     50  C   UNL A   1      46.230  25.274  26.023  1.00  0.00     0.029 A 
ATOM     51  C   UNL A   1      46.045  26.631  26.524  1.00  0.00     0.049 A 
ATOM     52  H   UNL A   1      44.395  27.392  27.544  1.00  0.00     0.167 HD
ATOM     53  C   UNL A   1      40.716  28.961  29.322  1.00  0.00     0.034 A 
ATOM     54  C   UNL A   1      46.941  27.632  26.413  1.00  0.00     0.034 A 
ATOM     55  C   UNL A   1      41.670  30.033  29.413  1.00  0.00     0.049 A 
ATOM     56  C   UNL A   1      46.616  28.973  27.011  1.00  0.00     0.074 A 
ATOM     57  C   UNL A   1      41.514  31.279  29.996  1.00  0.00     0.029 A 
ATOM     58  N   UNL A   1      42.957  29.994  28.896  1.00  0.00    -0.354 N 
ATOM     59  N   UNL A   1      45.537  29.350  27.653  1.00  0.00    -0.248 NA
ATOM     60  C   UNL A   1      47.645  30.016  26.901  1.00  0.00     0.031 C 
ATOM     61  C   UNL A   1      42.699  32.000  29.810  1.00  0.00     0.029 A 
ATOM     62  C   UNL A   1      43.601  31.197  29.130  1.00  0.00     0.049 A 
ATOM     63  H   UNL A   1      43.354  29.223  28.430  1.00  0.00     0.167 HD
ATOM     64  C   UNL A   1      45.766  30.663  28.048  1.00  0.00     0.074 A 
ATOM     65  C   UNL A   1      47.099  31.007  27.594  1.00  0.00     0.031 C 
ATOM     66  C   UNL A   1      44.942  31.512  28.711  1.00  0.00     0.034 A 
BRANCH  53  67
ATOM     67  C   UNL A   1      39.328  29.189  29.861  1.00  0.00     0.023 A 
ATOM     68  C   UNL A   1      39.009  28.759  31.165  1.00  0.00     0.012 A 
ATOM     69  C   UNL A   1      38.353  29.861  29.098  1.00  0.00     0.148 A 
ATOM     70  C   UNL A   1      37.732  28.959  31.688  1.00  0.00     0.002 A 
ATOM     71  C   UNL A   1      37.095  30.096  29.643  1.00  0.00     0.091 A 
ATOM     72  F   UNL A   1      38.663  30.241  27.850  1.00  0.00    -0.205 F 
ATOM     73  C   UNL A   1      36.780  29.635  30.932  1.00  0.00     0.022 A 
BRANCH  71  74
ATOM     74  S   UNL A   1      35.826  31.025  28.775  1.00  0.00     0.127 S 
ATOM     75  O   UNL A   1      35.359  30.045  27.797  1.00  0.00    -0.237 OA
ATOM     76  O   UNL A   1      34.871  31.321  29.844  1.00  0.00    -0.237 OA
ATOM     77  O   UNL A   1      36.495  32.194  28.223  1.00  0.00    -0.744 OA
ENDBRANCH  71  74
ENDBRANCH  53  67
BRANCH  54  78
ATOM     78  C   UNL A   1      48.262  27.371  25.774  1.00  0.00     0.023 A 
ATOM     79  C   UNL A   1      49.332  26.918  26.570  1.00  0.00     0.012 A 
ATOM     80  C   UNL A   1      48.450  27.519  24.387  1.00  0.00     0.148 A 
ATOM     81  C   UNL A   1      50.573  26.638  25.998  1.00  0.00     0.002 A 
ATOM     82  C   UNL A   1      49.672  27.186  23.815  1.00  0.00     0.091 A 
ATOM     83  F   UNL A   1      47.421  27.962  23.650  1.00  0.00    -0.205 F 
ATOM     84  C   UNL A   1      50.740  26.760  24.621  1.00  0.00     0.022 A 
BRANCH  82  85
ATOM     85  S   UNL A   1      49.938  27.182  22.039  1.00  0.00     0.127 S 
ATOM     86  O   UNL A   1      48.876  26.291  21.579  1.00  0.00    -0.237 OA
ATOM     87  O   UNL A   1      49.747  28.594  21.703  1.00  0.00    -0.237 OA
ATOM     88  O   UNL A   1      51.298  26.698  21.846  1.00  0.00    -0.744 OA
ENDBRANCH  82  85
ENDBRANCH  54  78
BRANCH  66  89
ATOM     89  C   UNL A   1      45.459  32.896  29.004  1.00  0.00     0.023 A 
ATOM     90  C   UNL A   1      46.219  33.124  30.169  1.00  0.00     0.012 A 
ATOM     91  C   UNL A   1      45.255  33.952  28.093  1.00  0.00     0.148 A 
ATOM     92  C   UNL A   1      46.741  34.389  30.439  1.00  0.00     0.002 A 
ATOM     93  C   UNL A   1      45.819  35.197  28.345  1.00  0.00     0.091 A 
ATOM     94  F   UNL A   1      44.514  33.720  27.001  1.00  0.00    -0.205 F 
ATOM     95  C   UNL A   1      46.552  35.421  29.522  1.00  0.00     0.022 A 
BRANCH  93  96
ATOM     96  S   UNL A   1      45.707  36.559  27.178  1.00  0.00     0.127 S 
ATOM     97  O   UNL A   1      44.261  36.703  27.025  1.00  0.00    -0.237 OA
ATOM     98  O   UNL A   1      46.356  37.648  27.908  1.00  0.00    -0.237 OA
ATOM     99  O   UNL A   1      46.423  36.122  25.986  1.00  0.00    -0.744 OA
ENDBRANCH  93  96
ENDBRANCH  66  89
ENDBRANCH  40  41
ENDBRANCH  32  35
ENDBRANCH  30  31
ENDBRANCH  29  30
ENDBRANCH  28  29
ENDBRANCH  27  28
ENDBRANCH   1  27
TORSDOF 21
ENDMDL
MODEL 2
REMARK VINA RESULT:     -10.4      1.381      2.069
REMARK SMILES CCOc1ccccc1NS(=O)(=O)c1ccc(C(=O)NCCCCCCNC(=O)c2ccc(-c3c4nc(c(-c5cccc(S(=O)(=O)[O-])c5F)c5ccc([nH]5)c(-c5cccc(S(=O)(=O)[O-])c5F)c5nc(c(-c6cccc(S(=O)(=O)[O-])c6F)c6ccc3[nH]6)C=C5)C=C4)cc2)cc1
REMARK SMILES IDX 22 1 21 2 20 3 18 4 19 5 17 7 14 8 15 9 94 10 16 11 93 12
REMARK SMILES IDX 11 13 12 14 13 15 10 16 9 18 4 19 5 20 6 21 8 22 7 23 3 24
REMARK SMILES IDX 2 25 1 26 23 27 24 28 25 29 26 30 27 31 28 32 29 34 30 35
REMARK SMILES IDX 31 36 92 37 32 38 91 39 33 40 34 41 35 42 85 43 36 44 90 45
REMARK SMILES IDX 84 46 86 47 37 48 89 49 83 50 82 51 38 53 70 54 50 55 69 56
REMARK SMILES IDX 51 57 54 58 68 59 87 60 52 61 53 62 67 64 88 65 55 66 39 67
REMARK SMILES IDX 40 68 48 69 41 70 43 71 49 72 42 73 44 74 45 75 46 76 47 77
REMARK SMILES IDX 71 78 72 79 80 80 73 81 75 82 81 83 74 84 76 85 77 86 78 87
REMARK SMILES IDX 79 88 56 89 57 90 65 91 58 92 60 93 66 94 59 95 61 96 62 97
REMARK SMILES IDX 63 98 64 99
REMARK H PARENT 20 6 10 17 27 33 86 52 54 63
REMARK Flexibility Score: inf
ROOT
ATOM      1  C   UNL A   1      34.927  19.980  24.962  1.00  0.00     0.021 C 
ENDROOT
BRANCH   1   2
ATOM      2  C   UNL A   1      33.442  20.334  24.989  1.00  0.00     0.116 C 
BRANCH   2   3
ATOM      3  N   UNL A   1      32.831  19.983  23.723  1.00  0.00    -0.352 N 
ATOM      4  C   UNL A   1      32.218  20.775  22.794  1.00  0.00     0.251 C 
ATOM      5  O   UNL A   1      31.780  20.277  21.760  1.00  0.00    -0.269 OA
ATOM      6  H   UNL A   1      32.861  19.024  23.497  1.00  0.00     0.163 HD
BRANCH   4   7
ATOM      7  C   UNL A   1      32.114  22.236  22.991  1.00  0.00     0.039 A 
ATOM      8  C   UNL A   1      31.989  25.003  23.056  1.00  0.00     0.087 A 
ATOM      9  C   UNL A   1      33.206  24.377  22.759  1.00  0.00     0.023 A 
ATOM     10  C   UNL A   1      30.853  24.264  23.396  1.00  0.00     0.023 A 
ATOM     11  C   UNL A   1      33.261  22.989  22.715  1.00  0.00     0.015 A 
ATOM     12  C   UNL A   1      30.911  22.872  23.335  1.00  0.00     0.015 A 
BRANCH   8  13
ATOM     13  S   UNL A   1      31.827  26.738  22.735  1.00  0.00     0.262 S 
ATOM     14  O   UNL A   1      31.269  26.902  21.411  1.00  0.00    -0.201 OA
ATOM     15  O   UNL A   1      33.071  27.376  23.112  1.00  0.00    -0.201 OA
BRANCH  13  16
ATOM     16  N   UNL A   1      30.666  27.199  23.895  1.00  0.00    -0.276 N 
ATOM     17  H   UNL A   1      29.717  26.954  23.801  1.00  0.00     0.180 HD
BRANCH  16  18
ATOM     18  C   UNL A   1      31.137  27.960  25.017  1.00  0.00     0.091 A 
ATOM     19  C   UNL A   1      31.522  27.313  26.195  1.00  0.00     0.143 A 
ATOM     20  C   UNL A   1      32.062  28.045  27.255  1.00  0.00     0.049 A 
ATOM     21  C   UNL A   1      32.229  29.428  27.129  1.00  0.00     0.004 A 
ATOM     22  C   UNL A   1      31.269  29.345  24.917  1.00  0.00     0.031 A 
ATOM     23  C   UNL A   1      31.824  30.078  25.964  1.00  0.00     0.002 A 
BRANCH  19  24
ATOM     24  O   UNL A   1      31.186  25.996  26.343  1.00  0.00    -0.492 OA
BRANCH  24  25
ATOM     25  C   UNL A   1      32.261  25.171  26.797  1.00  0.00     0.226 C 
ATOM     26  C   UNL A   1      31.748  23.741  26.856  1.00  0.00     0.049 C 
ENDBRANCH  24  25
ENDBRANCH  19  24
ENDBRANCH  16  18
ENDBRANCH  13  16
ENDBRANCH   8  13
ENDBRANCH   4   7
ENDBRANCH   2   3
ENDBRANCH   1   2
BRANCH   1  27
ATOM     27  C   UNL A   1      35.838  21.215  24.963  1.00  0.00     0.002 C 
BRANCH  27  28
ATOM     28  C   UNL A   1      37.229  20.979  24.361  1.00  0.00     0.002 C 
BRANCH  28  29
ATOM     29  C   UNL A   1      37.956  19.744  24.899  1.00  0.00     0.021 C 
BRANCH  29  30
ATOM     30  C   UNL A   1      38.844  20.019  26.108  1.00  0.00     0.116 C 
BRANCH  30  31
ATOM     31  N   UNL A   1      40.037  19.185  26.094  1.00  0.00    -0.352 N 
ATOM     32  C   UNL A   1      41.354  19.566  26.118  1.00  0.00     0.251 C 
ATOM     33  H   UNL A   1      39.875  18.215  26.063  1.00  0.00     0.163 HD
ATOM     34  O   UNL A   1      42.236  18.752  25.858  1.00  0.00    -0.269 OA
BRANCH  32  35
ATOM     35  C   UNL A   1      41.702  20.962  26.453  1.00  0.00     0.039 A 
ATOM     36  C   UNL A   1      42.206  21.251  27.722  1.00  0.00     0.014 A 
ATOM     37  C   UNL A   1      41.523  21.982  25.514  1.00  0.00     0.014 A 
ATOM     38  C   UNL A   1      42.580  22.560  28.033  1.00  0.00     0.010 A 
ATOM     39  C   UNL A   1      41.958  23.270  25.801  1.00  0.00     0.010 A 
ATOM     40  C   UNL A   1      42.484  23.574  27.066  1.00  0.00    -0.014 A 
BRANCH  40  41
ATOM     41  C   UNL A   1      42.948  24.954  27.350  1.00  0.00     0.031 A 
ATOM     42  C   UNL A   1      42.020  25.954  27.981  1.00  0.00     0.074 A 
ATOM     43  C   UNL A   1      44.179  25.332  26.953  1.00  0.00     0.049 A 
ATOM     44  N   UNL A   1      42.234  27.213  28.263  1.00  0.00    -0.248 NA
ATOM     45  C   UNL A   1      40.664  25.487  28.315  1.00  0.00     0.031 C 
ATOM     46  C   UNL A   1      45.140  24.476  26.253  1.00  0.00     0.029 A 
ATOM     47  N   UNL A   1      44.822  26.539  27.054  1.00  0.00    -0.354 N 
ATOM     48  C   UNL A   1      41.034  27.698  28.770  1.00  0.00     0.074 A 
ATOM     49  C   UNL A   1      40.086  26.605  28.728  1.00  0.00     0.031 C 
ATOM     50  C   UNL A   1      46.250  25.184  25.994  1.00  0.00     0.029 A 
ATOM     51  C   UNL A   1      46.072  26.547  26.483  1.00  0.00     0.049 A 
ATOM     52  H   UNL A   1      44.425  27.326  27.494  1.00  0.00     0.167 HD
ATOM     53  C   UNL A   1      40.755  28.931  29.256  1.00  0.00     0.034 A 
ATOM     54  C   UNL A   1      46.973  27.541  26.362  1.00  0.00     0.034 A 
ATOM     55  C   UNL A   1      41.714  29.999  29.337  1.00  0.00     0.049 A 
ATOM     56  C   UNL A   1      46.655  28.890  26.947  1.00  0.00     0.074 A 
ATOM     57  C   UNL A   1      41.564  31.251  29.908  1.00  0.00     0.029 A 
ATOM     58  N   UNL A   1      43.001  29.948  28.821  1.00  0.00    -0.354 N 
ATOM     59  N   UNL A   1      45.578  29.279  27.585  1.00  0.00    -0.248 NA
ATOM     60  C   UNL A   1      47.690  29.927  26.828  1.00  0.00     0.031 C 
ATOM     61  C   UNL A   1      42.753  31.964  29.716  1.00  0.00     0.029 A 
ATOM     62  C   UNL A   1      43.651  31.150  29.044  1.00  0.00     0.049 A 
ATOM     63  H   UNL A   1      43.394  29.171  28.362  1.00  0.00     0.167 HD
ATOM     64  C   UNL A   1      45.814  30.594  27.968  1.00  0.00     0.074 A 
ATOM     65  C   UNL A   1      47.149  30.927  27.511  1.00  0.00     0.031 C 
ATOM     66  C   UNL A   1      44.995  31.454  28.622  1.00  0.00     0.034 A 
BRANCH  53  67
ATOM     67  C   UNL A   1      39.368  29.172  29.792  1.00  0.00     0.023 A 
ATOM     68  C   UNL A   1      38.986  28.592  31.019  1.00  0.00     0.012 A 
ATOM     69  C   UNL A   1      38.456  30.000  29.107  1.00  0.00     0.148 A 
ATOM     70  C   UNL A   1      37.708  28.800  31.539  1.00  0.00     0.002 A 
ATOM     71  C   UNL A   1      37.199  30.237  29.654  1.00  0.00     0.091 A 
ATOM     72  F   UNL A   1      38.825  30.523  27.929  1.00  0.00    -0.205 F 
ATOM     73  C   UNL A   1      36.821  29.629  30.861  1.00  0.00     0.022 A 
BRANCH  71  74
ATOM     74  S   UNL A   1      36.013  31.352  28.893  1.00  0.00     0.127 S 
ATOM     75  O   UNL A   1      36.795  32.583  28.781  1.00  0.00    -0.237 OA
ATOM     76  O   UNL A   1      35.736  30.689  27.619  1.00  0.00    -0.237 OA
ATOM     77  O   UNL A   1      34.879  31.409  29.804  1.00  0.00    -0.744 OA
ENDBRANCH  71  74
ENDBRANCH  53  67
BRANCH  54  78
ATOM     78  C   UNL A   1      48.293  27.268  25.726  1.00  0.00     0.023 A 
ATOM     79  C   UNL A   1      48.429  27.423  24.333  1.00  0.00     0.012 A 
ATOM     80  C   UNL A   1      49.418  26.908  26.493  1.00  0.00     0.148 A 
ATOM     81  C   UNL A   1      49.658  27.202  23.711  1.00  0.00     0.002 A 
ATOM     82  C   UNL A   1      50.652  26.744  25.874  1.00  0.00     0.091 A 
ATOM     83  F   UNL A   1      49.263  26.756  27.815  1.00  0.00    -0.205 F 
ATOM     84  C   UNL A   1      50.771  26.875  24.481  1.00  0.00     0.022 A 
BRANCH  82  85
ATOM     85  S   UNL A   1      52.164  26.455  26.799  1.00  0.00     0.127 S 
ATOM     86  O   UNL A   1      53.187  26.771  25.806  1.00  0.00    -0.237 OA
ATOM     87  O   UNL A   1      52.041  27.426  27.888  1.00  0.00    -0.237 OA
ATOM     88  O   UNL A   1      52.104  25.064  27.227  1.00  0.00    -0.744 OA
ENDBRANCH  82  85
ENDBRANCH  54  78
BRANCH  66  89
ATOM     89  C   UNL A   1      45.519  32.838  28.902  1.00  0.00     0.023 A 
ATOM     90  C   UNL A   1      46.212  33.091  30.104  1.00  0.00     0.012 A 
ATOM     91  C   UNL A   1      45.390  33.867  27.949  1.00  0.00     0.148 A 
ATOM     92  C   UNL A   1      46.741  34.354  30.365  1.00  0.00     0.002 A 
ATOM     93  C   UNL A   1      45.960  35.109  28.195  1.00  0.00     0.091 A 
ATOM     94  F   UNL A   1      44.710  33.612  26.821  1.00  0.00    -0.205 F 
ATOM     95  C   UNL A   1      46.626  35.359  29.407  1.00  0.00     0.022 A 
BRANCH  93  96
ATOM     96  S   UNL A   1      45.944  36.434  26.981  1.00  0.00     0.127 S 
ATOM     97  O   UNL A   1      46.982  37.325  27.498  1.00  0.00    -0.237 OA
ATOM     98  O   UNL A   1      46.299  35.732  25.748  1.00  0.00    -0.237 OA
ATOM     99  O   UNL A   1      44.591  36.975  26.998  1.00  0.00    -0.744 OA
ENDBRANCH  93  96
ENDBRANCH  66  89
ENDBRANCH  40  41
ENDBRANCH  32  35
ENDBRANCH  30  31
ENDBRANCH  29  30
ENDBRANCH  28  29
ENDBRANCH  27  28
ENDBRANCH   1  27
TORSDOF 21
ENDMDL
MODEL 3
REMARK VINA RESULT:     -10.2      4.801      7.986
REMARK SMILES CCOc1ccccc1NS(=O)(=O)c1ccc(C(=O)NCCCCCCNC(=O)c2ccc(-c3c4nc(c(-c5cccc(S(=O)(=O)[O-])c5F)c5ccc([nH]5)c(-c5cccc(S(=O)(=O)[O-])c5F)c5nc(c(-c6cccc(S(=O)(=O)[O-])c6F)c6ccc3[nH]6)C=C5)C=C4)cc2)cc1
REMARK SMILES IDX 22 1 21 2 20 3 18 4 19 5 17 7 14 8 15 9 94 10 16 11 93 12
REMARK SMILES IDX 11 13 12 14 13 15 10 16 9 18 4 19 5 20 6 21 8 22 7 23 3 24
REMARK SMILES IDX 2 25 1 26 23 27 24 28 25 29 26 30 27 31 28 32 29 34 30 35
REMARK SMILES IDX 31 36 92 37 32 38 91 39 33 40 34 41 35 42 85 43 36 44 90 45
REMARK SMILES IDX 84 46 86 47 37 48 89 49 83 50 82 51 38 53 70 54 50 55 69 56
REMARK SMILES IDX 51 57 54 58 68 59 87 60 52 61 53 62 67 64 88 65 55 66 39 67
REMARK SMILES IDX 40 68 48 69 41 70 43 71 49 72 42 73 44 74 45 75 46 76 47 77
REMARK SMILES IDX 71 78 72 79 80 80 73 81 75 82 81 83 74 84 76 85 77 86 78 87
REMARK SMILES IDX 79 88 56 89 57 90 65 91 58 92 60 93 66 94 59 95 61 96 62 97
REMARK SMILES IDX 63 98 64 99
REMARK H PARENT 20 6 10 17 27 33 86 52 54 63
REMARK Flexibility Score: inf
ROOT
ATOM      1  C   UNL A   1      34.517  24.104  26.628  1.00  0.00     0.021 C 
ENDROOT
BRANCH   1   2
ATOM      2  C   UNL A   1      35.731  23.181  26.564  1.00  0.00     0.116 C 
BRANCH   2   3
ATOM      3  N   UNL A   1      35.304  21.829  26.260  1.00  0.00    -0.352 N 
ATOM      4  C   UNL A   1      34.644  21.343  25.168  1.00  0.00     0.251 C 
ATOM      5  O   UNL A   1      34.391  20.142  25.091  1.00  0.00    -0.269 OA
ATOM      6  H   UNL A   1      35.523  21.159  26.947  1.00  0.00     0.163 HD
BRANCH   4   7
ATOM      7  C   UNL A   1      34.266  22.231  24.049  1.00  0.00     0.039 A 
ATOM      8  C   UNL A   1      33.416  24.077  22.166  1.00  0.00     0.087 A 
ATOM      9  C   UNL A   1      32.465  23.352  22.894  1.00  0.00     0.023 A 
ATOM     10  C   UNL A   1      34.785  23.838  22.313  1.00  0.00     0.023 A 
ATOM     11  C   UNL A   1      32.896  22.436  23.847  1.00  0.00     0.015 A 
ATOM     12  C   UNL A   1      35.210  22.929  23.281  1.00  0.00     0.015 A 
BRANCH   8  13
ATOM     13  S   UNL A   1      32.881  25.497  21.250  1.00  0.00     0.262 S 
ATOM     14  O   UNL A   1      32.865  25.149  19.847  1.00  0.00    -0.201 OA
ATOM     15  O   UNL A   1      33.623  26.642  21.734  1.00  0.00    -0.201 OA
BRANCH  13  16
ATOM     16  N   UNL A   1      31.278  25.681  21.801  1.00  0.00    -0.276 N 
ATOM     17  H   UNL A   1      30.581  25.018  21.592  1.00  0.00     0.180 HD
BRANCH  16  18
ATOM     18  C   UNL A   1      30.992  26.848  22.585  1.00  0.00     0.091 A 
ATOM     19  C   UNL A   1      30.589  26.720  23.918  1.00  0.00     0.143 A 
ATOM     20  C   UNL A   1      30.395  27.856  24.707  1.00  0.00     0.049 A 
ATOM     21  C   UNL A   1      30.618  29.125  24.162  1.00  0.00     0.004 A 
ATOM     22  C   UNL A   1      31.170  28.119  22.039  1.00  0.00     0.031 A 
ATOM     23  C   UNL A   1      30.996  29.257  22.827  1.00  0.00     0.002 A 
BRANCH  19  24
ATOM     24  O   UNL A   1      30.218  25.480  24.360  1.00  0.00    -0.492 OA
BRANCH  24  25
ATOM     25  C   UNL A   1      29.965  25.417  25.765  1.00  0.00     0.226 C 
ATOM     26  C   UNL A   1      30.630  24.157  26.295  1.00  0.00     0.049 C 
ENDBRANCH  24  25
ENDBRANCH  19  24
ENDBRANCH  16  18
ENDBRANCH  13  16
ENDBRANCH   8  13
ENDBRANCH   4   7
ENDBRANCH   2   3
ENDBRANCH   1   2
BRANCH   1  27
ATOM     27  C   UNL A   1      34.728  25.425  25.877  1.00  0.00     0.002 C 
BRANCH  27  28
ATOM     28  C   UNL A   1      33.494  26.335  25.833  1.00  0.00     0.002 C 
BRANCH  28  29
ATOM     29  C   UNL A   1      33.642  27.648  26.607  1.00  0.00     0.021 C 
BRANCH  29  30
ATOM     30  C   UNL A   1      34.097  28.827  25.754  1.00  0.00     0.116 C 
BRANCH  30  31
ATOM     31  N   UNL A   1      33.844  30.096  26.419  1.00  0.00    -0.352 N 
ATOM     32  C   UNL A   1      34.467  30.633  27.517  1.00  0.00     0.251 C 
ATOM     33  H   UNL A   1      33.126  30.645  26.027  1.00  0.00     0.163 HD
ATOM     34  O   UNL A   1      33.975  31.596  28.096  1.00  0.00    -0.269 OA
BRANCH  32  35
ATOM     35  C   UNL A   1      35.730  30.038  27.999  1.00  0.00     0.039 A 
ATOM     36  C   UNL A   1      36.872  30.128  27.200  1.00  0.00     0.014 A 
ATOM     37  C   UNL A   1      35.781  29.388  29.236  1.00  0.00     0.014 A 
ATOM     38  C   UNL A   1      38.081  29.608  27.667  1.00  0.00     0.010 A 
ATOM     39  C   UNL A   1      36.999  28.932  29.727  1.00  0.00     0.010 A 
ATOM     40  C   UNL A   1      38.160  29.031  28.945  1.00  0.00    -0.014 A 
BRANCH  40  41
ATOM     41  C   UNL A   1      39.450  28.544  29.491  1.00  0.00     0.031 A 
ATOM     42  C   UNL A   1      40.089  29.234  30.663  1.00  0.00     0.074 A 
ATOM     43  C   UNL A   1      40.092  27.536  28.869  1.00  0.00     0.049 A 
ATOM     44  N   UNL A   1      41.231  28.979  31.247  1.00  0.00    -0.248 NA
ATOM     45  C   UNL A   1      39.364  30.379  31.240  1.00  0.00     0.031 C 
ATOM     46  C   UNL A   1      39.614  26.843  27.671  1.00  0.00     0.029 A 
ATOM     47  N   UNL A   1      41.296  26.937  29.140  1.00  0.00    -0.354 N 
ATOM     48  C   UNL A   1      41.380  29.949  32.232  1.00  0.00     0.074 A 
ATOM     49  C   UNL A   1      40.226  30.818  32.145  1.00  0.00     0.031 C 
ATOM     50  C   UNL A   1      40.512  25.912  27.314  1.00  0.00     0.029 A 
ATOM     51  C   UNL A   1      41.639  25.958  28.239  1.00  0.00     0.049 A 
ATOM     52  H   UNL A   1      41.861  27.186  29.907  1.00  0.00     0.167 HD
ATOM     53  C   UNL A   1      42.371  30.087  33.145  1.00  0.00     0.034 A 
ATOM     54  C   UNL A   1      42.741  25.185  28.163  1.00  0.00     0.034 A 
ATOM     55  C   UNL A   1      43.493  29.194  33.254  1.00  0.00     0.049 A 
ATOM     56  C   UNL A   1      43.807  25.329  29.213  1.00  0.00     0.074 A 
ATOM     57  C   UNL A   1      44.495  29.181  34.209  1.00  0.00     0.029 A 
ATOM     58  N   UNL A   1      43.770  28.159  32.372  1.00  0.00    -0.354 N 
ATOM     59  N   UNL A   1      43.845  26.137  30.246  1.00  0.00    -0.248 NA
ATOM     60  C   UNL A   1      44.967  24.433  29.111  1.00  0.00     0.031 C 
ATOM     61  C   UNL A   1      45.390  28.154  33.889  1.00  0.00     0.029 A 
ATOM     62  C   UNL A   1      44.934  27.512  32.749  1.00  0.00     0.049 A 
ATOM     63  H   UNL A   1      43.219  27.921  31.592  1.00  0.00     0.167 HD
ATOM     64  C   UNL A   1      45.014  25.829  30.930  1.00  0.00     0.074 A 
ATOM     65  C   UNL A   1      45.644  24.741  30.208  1.00  0.00     0.031 C 
ATOM     66  C   UNL A   1      45.528  26.404  32.046  1.00  0.00     0.034 A 
BRANCH  53  67
ATOM     67  C   UNL A   1      42.255  31.216  34.135  1.00  0.00     0.023 A 
ATOM     68  C   UNL A   1      41.531  31.020  35.329  1.00  0.00     0.012 A 
ATOM     69  C   UNL A   1      42.890  32.453  33.908  1.00  0.00     0.148 A 
ATOM     70  C   UNL A   1      41.409  32.048  36.265  1.00  0.00     0.002 A 
ATOM     71  C   UNL A   1      42.800  33.458  34.866  1.00  0.00     0.091 A 
ATOM     72  F   UNL A   1      43.553  32.631  32.757  1.00  0.00    -0.205 F 
ATOM     73  C   UNL A   1      42.051  33.261  36.037  1.00  0.00     0.022 A 
BRANCH  71  74
ATOM     74  S   UNL A   1      43.656  35.028  34.698  1.00  0.00     0.127 S 
ATOM     75  O   UNL A   1      45.045  34.594  34.555  1.00  0.00    -0.237 OA
ATOM     76  O   UNL A   1      43.062  35.577  33.478  1.00  0.00    -0.237 OA
ATOM     77  O   UNL A   1      43.354  35.779  35.908  1.00  0.00    -0.744 OA
ENDBRANCH  71  74
ENDBRANCH  53  67
BRANCH  54  78
ATOM     78  C   UNL A   1      42.846  24.153  27.094  1.00  0.00     0.023 A 
ATOM     79  C   UNL A   1      43.633  24.420  25.957  1.00  0.00     0.012 A 
ATOM     80  C   UNL A   1      42.218  22.899  27.218  1.00  0.00     0.148 A 
ATOM     81  C   UNL A   1      43.774  23.464  24.951  1.00  0.00     0.002 A 
ATOM     82  C   UNL A   1      42.409  21.931  26.239  1.00  0.00     0.091 A 
ATOM     83  F   UNL A   1      41.466  22.670  28.304  1.00  0.00    -0.205 F 
ATOM     84  C   UNL A   1      43.173  22.216  25.097  1.00  0.00     0.022 A 
BRANCH  82  85
ATOM     85  S   UNL A   1      41.786  20.254  26.406  1.00  0.00     0.127 S 
ATOM     86  O   UNL A   1      42.261  19.890  27.738  1.00  0.00    -0.237 OA
ATOM     87  O   UNL A   1      40.341  20.457  26.300  1.00  0.00    -0.237 OA
ATOM     88  O   UNL A   1      42.369  19.506  25.300  1.00  0.00    -0.744 OA
ENDBRANCH  82  85
ENDBRANCH  54  78
BRANCH  66  89
ATOM     89  C   UNL A   1      46.833  25.862  32.570  1.00  0.00     0.023 A 
ATOM     90  C   UNL A   1      48.046  26.457  32.170  1.00  0.00     0.012 A 
ATOM     91  C   UNL A   1      46.854  24.814  33.511  1.00  0.00     0.148 A 
ATOM     92  C   UNL A   1      49.262  25.997  32.675  1.00  0.00     0.002 A 
ATOM     93  C   UNL A   1      48.065  24.393  34.046  1.00  0.00     0.091 A 
ATOM     94  F   UNL A   1      45.691  24.248  33.865  1.00  0.00    -0.205 F 
ATOM     95  C   UNL A   1      49.271  24.975  33.620  1.00  0.00     0.022 A 
BRANCH  93  96
ATOM     96  S   UNL A   1      48.167  23.147  35.337  1.00  0.00     0.127 S 
ATOM     97  O   UNL A   1      47.335  23.735  36.386  1.00  0.00    -0.237 OA
ATOM     98  O   UNL A   1      47.588  21.973  34.684  1.00  0.00    -0.237 OA
ATOM     99  O   UNL A   1      49.583  23.021  35.659  1.00  0.00    -0.744 OA
ENDBRANCH  93  96
ENDBRANCH  66  89
ENDBRANCH  40  41
ENDBRANCH  32  35
ENDBRANCH  30  31
ENDBRANCH  29  30
ENDBRANCH  28  29
ENDBRANCH  27  28
ENDBRANCH   1  27
TORSDOF 21
ENDMDL
