MODEL 1
REMARK VINA RESULT:     -10.8      0.000      0.000
REMARK SMILES CC(C)(O)CC[C@@H](C(=O)NCCCCCCNC(=O)c1ccc(-c2c3nc(c(-c4cccc(S(=O)(=O)[O-])c4F)c4ccc([nH]4)c(-c4cccc(S(=O)(=O)[O-])c4F)c4nc(c(-c5cccc(S(=O)(=O)[O-])c5F)c5ccc2[nH]5)C=C4)C=C3)cc1)[C@@H]1CCS(=O)(=O)C1
REMARK SMILES IDX 13 1 12 2 11 3 10 4 8 5 9 6 7 8 6 9 5 10 2 11 1 12 3 13 4 14
REMARK SMILES IDX 83 16 84 17 89 18 85 19 86 20 87 21 88 22 14 23 15 24 16 25
REMARK SMILES IDX 17 26 18 27 19 29 20 30 21 31 82 32 22 33 81 34 23 35 24 36
REMARK SMILES IDX 25 37 75 38 26 39 80 40 74 41 76 42 27 43 79 44 73 45 72 46
REMARK SMILES IDX 28 48 60 49 40 50 59 51 41 52 44 53 58 54 77 55 42 56 43 57
REMARK SMILES IDX 57 59 78 60 45 61 29 62 30 63 38 64 31 65 33 66 39 67 32 68
REMARK SMILES IDX 34 69 35 70 36 71 37 72 61 73 62 74 70 75 63 76 65 77 71 78
REMARK SMILES IDX 64 79 66 80 67 81 68 82 69 83 46 84 47 85 55 86 48 87 50 88
REMARK SMILES IDX 56 89 49 90 51 91 52 92 53 93 54 94
REMARK H PARENT 10 7 4 15 17 28 76 47 44 58
REMARK Flexibility Score: inf
ROOT
ATOM      1  C   UNL A   1      34.570  19.608  24.739  1.00  0.00     0.002 C 
ENDROOT
BRANCH   1   2
ATOM      2  C   UNL A   1      33.328  20.161  25.437  1.00  0.00     0.021 C 
BRANCH   2   3
ATOM      3  C   UNL A   1      33.581  21.504  26.108  1.00  0.00     0.116 C 
BRANCH   3   4
ATOM      4  N   UNL A   1      32.381  22.020  26.711  1.00  0.00    -0.356 N 
ATOM      5  C   UNL A   1      31.395  22.674  26.062  1.00  0.00     0.223 C 
ATOM      6  O   UNL A   1      30.304  22.092  26.080  1.00  0.00    -0.275 OA
ATOM      7  H   UNL A   1      32.270  21.885  27.680  1.00  0.00     0.163 HD
BRANCH   5   8
ATOM      8  C   UNL A   1      31.570  23.993  25.266  1.00  0.00     0.082 C 
BRANCH   8   9
ATOM      9  C   UNL A   1      30.859  25.315  25.663  1.00  0.00     0.017 C 
BRANCH   9  10
ATOM     10  C   UNL A   1      31.359  26.374  26.658  1.00  0.00     0.035 C 
BRANCH  10  11
ATOM     11  C   UNL A   1      31.925  27.737  26.183  1.00  0.00     0.059 C 
ATOM     12  C   UNL A   1      31.860  28.909  27.160  1.00  0.00     0.042 C 
ATOM     13  C   UNL A   1      31.227  28.124  24.867  1.00  0.00     0.042 C 
BRANCH  11  14
ATOM     14  O   UNL A   1      33.316  27.530  25.903  1.00  0.00    -0.390 OA
ATOM     15  H   UNL A   1      33.809  28.343  26.100  1.00  0.00     0.211 HD
ENDBRANCH  11  14
ENDBRANCH  10  11
ENDBRANCH   9  10
ENDBRANCH   8   9
BRANCH   8  16
ATOM     16  C   UNL A   1      31.422  23.742  23.669  1.00  0.00     0.017 C 
ATOM     17  C   UNL A   1      32.463  22.806  22.981  1.00  0.00     0.021 C 
ATOM     18  C   UNL A   1      31.453  24.941  22.692  1.00  0.00     0.141 C 
ATOM     19  C   UNL A   1      33.731  23.608  22.692  1.00  0.00     0.137 C 
ATOM     20  S   UNL A   1      33.179  25.271  22.376  1.00  0.00     0.150 S 
ATOM     21  O   UNL A   1      33.712  26.129  23.420  1.00  0.00    -0.229 OA
ATOM     22  O   UNL A   1      33.356  25.570  20.973  1.00  0.00    -0.229 OA
ENDBRANCH   8  16
ENDBRANCH   5   8
ENDBRANCH   3   4
ENDBRANCH   2   3
ENDBRANCH   1   2
BRANCH   1  23
ATOM     23  C   UNL A   1      35.852  20.411  25.000  1.00  0.00     0.002 C 
BRANCH  23  24
ATOM     24  C   UNL A   1      37.151  19.602  24.924  1.00  0.00     0.021 C 
BRANCH  24  25
ATOM     25  C   UNL A   1      38.349  20.276  25.584  1.00  0.00     0.116 C 
BRANCH  25  26
ATOM     26  N   UNL A   1      39.417  19.324  25.845  1.00  0.00    -0.352 N 
ATOM     27  C   UNL A   1      40.739  19.563  26.115  1.00  0.00     0.251 C 
ATOM     28  H   UNL A   1      39.154  18.375  25.824  1.00  0.00     0.163 HD
ATOM     29  O   UNL A   1      41.558  18.650  26.052  1.00  0.00    -0.269 OA
BRANCH  27  30
ATOM     30  C   UNL A   1      41.167  20.927  26.481  1.00  0.00     0.039 A 
ATOM     31  C   UNL A   1      41.697  21.160  27.751  1.00  0.00     0.014 A 
ATOM     32  C   UNL A   1      41.037  21.974  25.563  1.00  0.00     0.014 A 
ATOM     33  C   UNL A   1      42.141  22.440  28.087  1.00  0.00     0.010 A 
ATOM     34  C   UNL A   1      41.550  23.227  25.872  1.00  0.00     0.010 A 
ATOM     35  C   UNL A   1      42.094  23.477  27.141  1.00  0.00    -0.014 A 
BRANCH  35  36
ATOM     36  C   UNL A   1      42.598  24.838  27.455  1.00  0.00     0.031 A 
ATOM     37  C   UNL A   1      41.685  25.841  28.109  1.00  0.00     0.074 A 
ATOM     38  C   UNL A   1      43.835  25.200  27.062  1.00  0.00     0.049 A 
ATOM     39  N   UNL A   1      41.904  27.102  28.376  1.00  0.00    -0.248 NA
ATOM     40  C   UNL A   1      40.339  25.375  28.489  1.00  0.00     0.031 C 
ATOM     41  C   UNL A   1      44.788  24.336  26.359  1.00  0.00     0.029 A 
ATOM     42  N   UNL A   1      44.493  26.401  27.166  1.00  0.00    -0.354 N 
ATOM     43  C   UNL A   1      40.714  27.591  28.902  1.00  0.00     0.074 A 
ATOM     44  C   UNL A   1      39.769  26.497  28.905  1.00  0.00     0.031 C 
ATOM     45  C   UNL A   1      45.904  25.035  26.093  1.00  0.00     0.029 A 
ATOM     46  C   UNL A   1      45.734  26.404  26.569  1.00  0.00     0.049 A 
ATOM     47  H   UNL A   1      44.113  27.185  27.624  1.00  0.00     0.167 HD
ATOM     48  C   UNL A   1      40.441  28.834  29.360  1.00  0.00     0.034 A 
ATOM     49  C   UNL A   1      46.624  27.403  26.410  1.00  0.00     0.034 A 
ATOM     50  C   UNL A   1      41.403  29.900  29.410  1.00  0.00     0.049 A 
ATOM     51  C   UNL A   1      46.301  28.765  26.965  1.00  0.00     0.074 A 
ATOM     52  C   UNL A   1      41.255  31.161  29.961  1.00  0.00     0.029 A 
ATOM     53  N   UNL A   1      42.680  29.839  28.880  1.00  0.00    -0.354 N 
ATOM     54  N   UNL A   1      45.233  29.159  27.615  1.00  0.00    -0.248 NA
ATOM     55  C   UNL A   1      47.320  29.813  26.798  1.00  0.00     0.031 C 
ATOM     56  C   UNL A   1      42.432  31.877  29.729  1.00  0.00     0.029 A 
ATOM     57  C   UNL A   1      43.327  31.047  29.073  1.00  0.00     0.049 A 
ATOM     58  H   UNL A   1      43.071  29.053  28.434  1.00  0.00     0.167 HD
ATOM     59  C   UNL A   1      45.472  30.480  27.975  1.00  0.00     0.074 A 
ATOM     60  C   UNL A   1      46.791  30.816  27.485  1.00  0.00     0.031 C 
ATOM     61  C   UNL A   1      44.667  31.343  28.641  1.00  0.00     0.034 A 
BRANCH  48  62
ATOM     62  C   UNL A   1      39.057  29.116  29.882  1.00  0.00     0.023 A 
ATOM     63  C   UNL A   1      38.719  28.767  31.204  1.00  0.00     0.012 A 
ATOM     64  C   UNL A   1      38.130  29.826  29.093  1.00  0.00     0.148 A 
ATOM     65  C   UNL A   1      37.472  29.104  31.728  1.00  0.00     0.002 A 
ATOM     66  C   UNL A   1      36.908  30.199  29.638  1.00  0.00     0.091 A 
ATOM     67  F   UNL A   1      38.466  30.130  27.831  1.00  0.00    -0.205 F 
ATOM     68  C   UNL A   1      36.573  29.831  30.951  1.00  0.00     0.022 A 
BRANCH  66  69
ATOM     69  S   UNL A   1      35.718  31.210  28.750  1.00  0.00     0.127 S 
ATOM     70  O   UNL A   1      35.006  30.205  27.963  1.00  0.00    -0.237 OA
ATOM     71  O   UNL A   1      34.940  31.795  29.842  1.00  0.00    -0.237 OA
ATOM     72  O   UNL A   1      36.497  32.166  27.974  1.00  0.00    -0.744 OA
ENDBRANCH  66  69
ENDBRANCH  48  62
BRANCH  49  73
ATOM     73  C   UNL A   1      47.927  27.157  25.727  1.00  0.00     0.023 A 
ATOM     74  C   UNL A   1      49.034  26.719  26.483  1.00  0.00     0.012 A 
ATOM     75  C   UNL A   1      48.085  27.370  24.344  1.00  0.00     0.148 A 
ATOM     76  C   UNL A   1      50.284  26.552  25.886  1.00  0.00     0.002 A 
ATOM     77  C   UNL A   1      49.319  27.144  23.744  1.00  0.00     0.091 A 
ATOM     78  F   UNL A   1      47.026  27.795  23.640  1.00  0.00    -0.205 F 
ATOM     79  C   UNL A   1      50.426  26.758  24.516  1.00  0.00     0.022 A 
BRANCH  77  80
ATOM     80  S   UNL A   1      49.554  27.258  21.967  1.00  0.00     0.127 S 
ATOM     81  O   UNL A   1      49.167  28.640  21.701  1.00  0.00    -0.237 OA
ATOM     82  O   UNL A   1      50.984  26.979  21.829  1.00  0.00    -0.237 OA
ATOM     83  O   UNL A   1      48.690  26.234  21.392  1.00  0.00    -0.744 OA
ENDBRANCH  77  80
ENDBRANCH  49  73
BRANCH  61  84
ATOM     84  C   UNL A   1      45.202  32.716  28.946  1.00  0.00     0.023 A 
ATOM     85  C   UNL A   1      45.904  32.954  30.144  1.00  0.00     0.012 A 
ATOM     86  C   UNL A   1      45.087  33.750  27.994  1.00  0.00     0.148 A 
ATOM     87  C   UNL A   1      46.456  34.208  30.403  1.00  0.00     0.002 A 
ATOM     88  C   UNL A   1      45.686  34.978  28.234  1.00  0.00     0.091 A 
ATOM     89  F   UNL A   1      44.401  33.506  26.867  1.00  0.00    -0.205 F 
ATOM     90  C   UNL A   1      46.360  35.214  29.444  1.00  0.00     0.022 A 
BRANCH  88  91
ATOM     91  S   UNL A   1      45.705  36.296  27.014  1.00  0.00     0.127 S 
ATOM     92  O   UNL A   1      46.164  35.589  25.820  1.00  0.00    -0.237 OA
ATOM     93  O   UNL A   1      44.300  36.704  26.980  1.00  0.00    -0.237 OA
ATOM     94  O   UNL A   1      46.616  37.309  27.528  1.00  0.00    -0.744 OA
ENDBRANCH  88  91
ENDBRANCH  61  84
ENDBRANCH  35  36
ENDBRANCH  27  30
ENDBRANCH  25  26
ENDBRANCH  24  25
ENDBRANCH  23  24
ENDBRANCH   1  23
TORSDOF 21
ENDMDL
MODEL 2
REMARK VINA RESULT:     -10.7      5.962     10.961
REMARK SMILES CC(C)(O)CC[C@@H](C(=O)NCCCCCCNC(=O)c1ccc(-c2c3nc(c(-c4cccc(S(=O)(=O)[O-])c4F)c4ccc([nH]4)c(-c4cccc(S(=O)(=O)[O-])c4F)c4nc(c(-c5cccc(S(=O)(=O)[O-])c5F)c5ccc2[nH]5)C=C4)C=C3)cc1)[C@@H]1CCS(=O)(=O)C1
REMARK SMILES IDX 13 1 12 2 11 3 10 4 8 5 9 6 7 8 6 9 5 10 2 11 1 12 3 13 4 14
REMARK SMILES IDX 83 16 84 17 89 18 85 19 86 20 87 21 88 22 14 23 15 24 16 25
REMARK SMILES IDX 17 26 18 27 19 29 20 30 21 31 82 32 22 33 81 34 23 35 24 36
REMARK SMILES IDX 25 37 75 38 26 39 80 40 74 41 76 42 27 43 79 44 73 45 72 46
REMARK SMILES IDX 28 48 60 49 40 50 59 51 41 52 44 53 58 54 77 55 42 56 43 57
REMARK SMILES IDX 57 59 78 60 45 61 29 62 30 63 38 64 31 65 33 66 39 67 32 68
REMARK SMILES IDX 34 69 35 70 36 71 37 72 61 73 62 74 70 75 63 76 65 77 71 78
REMARK SMILES IDX 64 79 66 80 67 81 68 82 69 83 46 84 47 85 55 86 48 87 50 88
REMARK SMILES IDX 56 89 49 90 51 91 52 92 53 93 54 94
REMARK H PARENT 10 7 4 15 17 28 76 47 44 58
REMARK Flexibility Score: inf
ROOT
ATOM      1  C   UNL A   1      32.775  29.447  26.896  1.00  0.00     0.002 C 
ENDROOT
BRANCH   1   2
ATOM      2  C   UNL A   1      33.353  28.240  26.158  1.00  0.00     0.021 C 
BRANCH   2   3
ATOM      3  C   UNL A   1      32.786  26.920  26.661  1.00  0.00     0.116 C 
BRANCH   3   4
ATOM      4  N   UNL A   1      31.350  26.970  26.753  1.00  0.00    -0.356 N 
ATOM      5  C   UNL A   1      30.487  26.487  25.835  1.00  0.00     0.223 C 
ATOM      6  O   UNL A   1      29.772  25.567  26.248  1.00  0.00    -0.275 OA
ATOM      7  H   UNL A   1      30.965  27.393  27.555  1.00  0.00     0.163 HD
BRANCH   5   8
ATOM      8  C   UNL A   1      30.415  26.936  24.353  1.00  0.00     0.082 C 
BRANCH   8   9
ATOM      9  C   UNL A   1      29.236  27.773  23.786  1.00  0.00     0.017 C 
BRANCH   9  10
ATOM     10  C   UNL A   1      29.268  29.248  23.355  1.00  0.00     0.035 C 
BRANCH  10  11
ATOM     11  C   UNL A   1      28.024  29.947  22.747  1.00  0.00     0.059 C 
ATOM     12  C   UNL A   1      28.091  30.356  21.277  1.00  0.00     0.042 C 
ATOM     13  C   UNL A   1      27.684  31.175  23.609  1.00  0.00     0.042 C 
BRANCH  11  14
ATOM     14  O   UNL A   1      26.938  29.017  22.850  1.00  0.00    -0.390 OA
ATOM     15  H   UNL A   1      27.286  28.111  22.841  1.00  0.00     0.211 HD
ENDBRANCH  11  14
ENDBRANCH  10  11
ENDBRANCH   9  10
ENDBRANCH   8   9
BRANCH   8  16
ATOM     16  C   UNL A   1      30.759  25.710  23.347  1.00  0.00     0.017 C 
ATOM     17  C   UNL A   1      31.913  24.742  23.749  1.00  0.00     0.021 C 
ATOM     18  C   UNL A   1      31.153  26.002  21.879  1.00  0.00     0.141 C 
ATOM     19  C   UNL A   1      33.247  25.377  23.359  1.00  0.00     0.137 C 
ATOM     20  S   UNL A   1      32.906  26.340  21.901  1.00  0.00     0.150 S 
ATOM     21  O   UNL A   1      33.130  27.739  22.222  1.00  0.00    -0.229 OA
ATOM     22  O   UNL A   1      33.526  25.707  20.760  1.00  0.00    -0.229 OA
ENDBRANCH   8  16
ENDBRANCH   5   8
ENDBRANCH   3   4
ENDBRANCH   2   3
ENDBRANCH   1   2
BRANCH   1  23
ATOM     23  C   UNL A   1      31.783  30.278  26.071  1.00  0.00     0.002 C 
BRANCH  23  24
ATOM     24  C   UNL A   1      31.576  31.716  26.558  1.00  0.00     0.021 C 
BRANCH  24  25
ATOM     25  C   UNL A   1      32.776  32.307  27.291  1.00  0.00     0.116 C 
BRANCH  25  26
ATOM     26  N   UNL A   1      32.582  33.721  27.572  1.00  0.00    -0.352 N 
ATOM     27  C   UNL A   1      33.147  34.491  28.554  1.00  0.00     0.251 C 
ATOM     28  H   UNL A   1      31.958  34.191  26.972  1.00  0.00     0.163 HD
ATOM     29  O   UNL A   1      32.684  35.597  28.817  1.00  0.00    -0.269 OA
BRANCH  27  30
ATOM     30  C   UNL A   1      34.318  33.977  29.292  1.00  0.00     0.039 A 
ATOM     31  C   UNL A   1      34.122  33.090  30.352  1.00  0.00     0.014 A 
ATOM     32  C   UNL A   1      35.608  34.379  28.931  1.00  0.00     0.014 A 
ATOM     33  C   UNL A   1      35.228  32.569  31.026  1.00  0.00     0.010 A 
ATOM     34  C   UNL A   1      36.707  33.800  29.552  1.00  0.00     0.010 A 
ATOM     35  C   UNL A   1      36.530  32.901  30.614  1.00  0.00    -0.014 A 
BRANCH  35  36
ATOM     36  C   UNL A   1      37.725  32.329  31.284  1.00  0.00     0.031 A 
ATOM     37  C   UNL A   1      38.476  31.197  30.635  1.00  0.00     0.074 A 
ATOM     38  C   UNL A   1      38.070  32.758  32.514  1.00  0.00     0.049 A 
ATOM     39  N   UNL A   1      39.481  30.502  31.101  1.00  0.00    -0.248 NA
ATOM     40  C   UNL A   1      38.023  30.770  29.298  1.00  0.00     0.031 C 
ATOM     41  C   UNL A   1      37.378  33.802  33.274  1.00  0.00     0.029 A 
ATOM     42  N   UNL A   1      39.071  32.344  33.359  1.00  0.00    -0.354 N 
ATOM     43  C   UNL A   1      39.744  29.529  30.145  1.00  0.00     0.074 A 
ATOM     44  C   UNL A   1      38.786  29.709  29.078  1.00  0.00     0.031 C 
ATOM     45  C   UNL A   1      37.971  33.944  34.471  1.00  0.00     0.029 A 
ATOM     46  C   UNL A   1      39.059  32.979  34.581  1.00  0.00     0.049 A 
ATOM     47  H   UNL A   1      39.734  31.659  33.114  1.00  0.00     0.167 HD
ATOM     48  C   UNL A   1      40.711  28.581  30.148  1.00  0.00     0.034 A 
ATOM     49  C   UNL A   1      39.828  32.788  35.672  1.00  0.00     0.034 A 
ATOM     50  C   UNL A   1      41.697  28.445  31.183  1.00  0.00     0.049 A 
ATOM     51  C   UNL A   1      40.918  31.750  35.625  1.00  0.00     0.074 A 
ATOM     52  C   UNL A   1      42.785  27.592  31.222  1.00  0.00     0.029 A 
ATOM     53  N   UNL A   1      41.710  29.167  32.364  1.00  0.00    -0.354 N 
ATOM     54  N   UNL A   1      41.259  30.956  34.640  1.00  0.00    -0.248 NA
ATOM     55  C   UNL A   1      41.753  31.606  36.827  1.00  0.00     0.031 C 
ATOM     56  C   UNL A   1      43.434  27.769  32.446  1.00  0.00     0.029 A 
ATOM     57  C   UNL A   1      42.776  28.765  33.149  1.00  0.00     0.049 A 
ATOM     58  H   UNL A   1      41.059  29.863  32.609  1.00  0.00     0.167 HD
ATOM     59  C   UNL A   1      42.374  30.255  35.085  1.00  0.00     0.074 A 
ATOM     60  C   UNL A   1      42.661  30.729  36.421  1.00  0.00     0.031 C 
ATOM     61  C   UNL A   1      43.090  29.296  34.449  1.00  0.00     0.034 A 
BRANCH  48  62
ATOM     62  C   UNL A   1      40.783  27.630  28.983  1.00  0.00     0.023 A 
ATOM     63  C   UNL A   1      39.825  26.607  28.850  1.00  0.00     0.012 A 
ATOM     64  C   UNL A   1      41.739  27.824  27.966  1.00  0.00     0.148 A 
ATOM     65  C   UNL A   1      39.827  25.776  27.730  1.00  0.00     0.002 A 
ATOM     66  C   UNL A   1      41.705  27.023  26.831  1.00  0.00     0.091 A 
ATOM     67  F   UNL A   1      42.653  28.791  28.123  1.00  0.00    -0.205 F 
ATOM     68  C   UNL A   1      40.757  25.993  26.715  1.00  0.00     0.022 A 
BRANCH  66  69
ATOM     69  S   UNL A   1      42.801  27.278  25.431  1.00  0.00     0.127 S 
ATOM     70  O   UNL A   1      42.706  25.990  24.744  1.00  0.00    -0.237 OA
ATOM     71  O   UNL A   1      42.155  28.390  24.736  1.00  0.00    -0.237 OA
ATOM     72  O   UNL A   1      44.110  27.584  25.991  1.00  0.00    -0.744 OA
ENDBRANCH  66  69
ENDBRANCH  48  62
BRANCH  49  73
ATOM     73  C   UNL A   1      39.629  33.619  36.894  1.00  0.00     0.023 A 
ATOM     74  C   UNL A   1      40.179  34.917  36.947  1.00  0.00     0.012 A 
ATOM     75  C   UNL A   1      38.920  33.130  38.008  1.00  0.00     0.148 A 
ATOM     76  C   UNL A   1      40.073  35.688  38.105  1.00  0.00     0.002 A 
ATOM     77  C   UNL A   1      38.767  33.928  39.137  1.00  0.00     0.091 A 
ATOM     78  F   UNL A   1      38.413  31.891  37.946  1.00  0.00    -0.205 F 
ATOM     79  C   UNL A   1      39.362  35.197  39.197  1.00  0.00     0.022 A 
BRANCH  77  80
ATOM     80  S   UNL A   1      37.758  33.424  40.535  1.00  0.00     0.127 S 
ATOM     81  O   UNL A   1      38.538  32.321  41.087  1.00  0.00    -0.237 OA
ATOM     82  O   UNL A   1      37.740  34.638  41.352  1.00  0.00    -0.237 OA
ATOM     83  O   UNL A   1      36.461  33.067  39.972  1.00  0.00    -0.744 OA
ENDBRANCH  77  80
ENDBRANCH  49  73
BRANCH  61  84
ATOM     84  C   UNL A   1      44.297  28.734  35.151  1.00  0.00     0.023 A 
ATOM     85  C   UNL A   1      44.180  27.576  35.944  1.00  0.00     0.012 A 
ATOM     86  C   UNL A   1      45.568  29.307  34.944  1.00  0.00     0.148 A 
ATOM     87  C   UNL A   1      45.306  27.015  36.545  1.00  0.00     0.002 A 
ATOM     88  C   UNL A   1      46.691  28.711  35.500  1.00  0.00     0.091 A 
ATOM     89  F   UNL A   1      45.654  30.418  34.197  1.00  0.00    -0.205 F 
ATOM     90  C   UNL A   1      46.562  27.573  36.312  1.00  0.00     0.022 A 
BRANCH  88  91
ATOM     91  S   UNL A   1      48.357  29.297  35.168  1.00  0.00     0.127 S 
ATOM     92  O   UNL A   1      48.345  30.608  35.814  1.00  0.00    -0.237 OA
ATOM     93  O   UNL A   1      49.177  28.292  35.844  1.00  0.00    -0.237 OA
ATOM     94  O   UNL A   1      48.497  29.317  33.719  1.00  0.00    -0.744 OA
ENDBRANCH  88  91
ENDBRANCH  61  84
ENDBRANCH  35  36
ENDBRANCH  27  30
ENDBRANCH  25  26
ENDBRANCH  24  25
ENDBRANCH  23  24
ENDBRANCH   1  23
TORSDOF 21
ENDMDL
MODEL 3
REMARK VINA RESULT:     -10.5      2.981      8.461
REMARK SMILES CC(C)(O)CC[C@@H](C(=O)NCCCCCCNC(=O)c1ccc(-c2c3nc(c(-c4cccc(S(=O)(=O)[O-])c4F)c4ccc([nH]4)c(-c4cccc(S(=O)(=O)[O-])c4F)c4nc(c(-c5cccc(S(=O)(=O)[O-])c5F)c5ccc2[nH]5)C=C4)C=C3)cc1)[C@@H]1CCS(=O)(=O)C1
REMARK SMILES IDX 13 1 12 2 11 3 10 4 8 5 9 6 7 8 6 9 5 10 2 11 1 12 3 13 4 14
REMARK SMILES IDX 83 16 84 17 89 18 85 19 86 20 87 21 88 22 14 23 15 24 16 25
REMARK SMILES IDX 17 26 18 27 19 29 20 30 21 31 82 32 22 33 81 34 23 35 24 36
REMARK SMILES IDX 25 37 75 38 26 39 80 40 74 41 76 42 27 43 79 44 73 45 72 46
REMARK SMILES IDX 28 48 60 49 40 50 59 51 41 52 44 53 58 54 77 55 42 56 43 57
REMARK SMILES IDX 57 59 78 60 45 61 29 62 30 63 38 64 31 65 33 66 39 67 32 68
REMARK SMILES IDX 34 69 35 70 36 71 37 72 61 73 62 74 70 75 63 76 65 77 71 78
REMARK SMILES IDX 64 79 66 80 67 81 68 82 69 83 46 84 47 85 55 86 48 87 50 88
REMARK SMILES IDX 56 89 49 90 51 91 52 92 53 93 54 94
REMARK H PARENT 10 7 4 15 17 28 76 47 44 58
REMARK Flexibility Score: inf
ROOT
ATOM      1  C   UNL A   1      34.268  23.173  22.848  1.00  0.00     0.002 C 
ENDROOT
BRANCH   1   2
ATOM      2  C   UNL A   1      32.789  22.788  22.831  1.00  0.00     0.021 C 
BRANCH   2   3
ATOM      3  C   UNL A   1      31.915  23.789  23.573  1.00  0.00     0.116 C 
BRANCH   3   4
ATOM      4  N   UNL A   1      31.212  24.648  22.656  1.00  0.00    -0.356 N 
ATOM      5  C   UNL A   1      31.327  25.992  22.595  1.00  0.00     0.223 C 
ATOM      6  O   UNL A   1      31.785  26.412  21.526  1.00  0.00    -0.275 OA
ATOM      7  H   UNL A   1      30.596  24.219  22.020  1.00  0.00     0.163 HD
BRANCH   5   8
ATOM      8  C   UNL A   1      31.019  26.969  23.758  1.00  0.00     0.082 C 
BRANCH   8   9
ATOM      9  C   UNL A   1      29.706  27.796  23.835  1.00  0.00     0.017 C 
BRANCH   9  10
ATOM     10  C   UNL A   1      28.852  28.291  22.658  1.00  0.00     0.035 C 
BRANCH  10  11
ATOM     11  C   UNL A   1      28.328  29.749  22.588  1.00  0.00     0.059 C 
ATOM     12  C   UNL A   1      28.379  30.454  21.235  1.00  0.00     0.042 C 
ATOM     13  C   UNL A   1      29.078  30.589  23.636  1.00  0.00     0.042 C 
BRANCH  11  14
ATOM     14  O   UNL A   1      26.943  29.708  22.962  1.00  0.00    -0.390 OA
ATOM     15  H   UNL A   1      26.438  29.244  22.275  1.00  0.00     0.211 HD
ENDBRANCH  11  14
ENDBRANCH  10  11
ENDBRANCH   9  10
ENDBRANCH   8   9
BRANCH   8  16
ATOM     16  C   UNL A   1      32.293  27.921  24.082  1.00  0.00     0.017 C 
ATOM     17  C   UNL A   1      33.612  27.234  24.551  1.00  0.00     0.021 C 
ATOM     18  C   UNL A   1      32.175  29.033  25.152  1.00  0.00     0.141 C 
ATOM     19  C   UNL A   1      33.509  26.939  26.047  1.00  0.00     0.137 C 
ATOM     20  S   UNL A   1      32.497  28.240  26.719  1.00  0.00     0.150 S 
ATOM     21  O   UNL A   1      31.275  27.645  27.227  1.00  0.00    -0.229 OA
ATOM     22  O   UNL A   1      33.321  29.109  27.529  1.00  0.00    -0.229 OA
ENDBRANCH   8  16
ENDBRANCH   5   8
ENDBRANCH   3   4
ENDBRANCH   2   3
ENDBRANCH   1   2
BRANCH   1  23
ATOM     23  C   UNL A   1      35.000  22.814  24.148  1.00  0.00     0.002 C 
BRANCH  23  24
ATOM     24  C   UNL A   1      36.159  23.746  24.519  1.00  0.00     0.021 C 
BRANCH  24  25
ATOM     25  C   UNL A   1      36.580  23.669  25.983  1.00  0.00     0.116 C 
BRANCH  25  26
ATOM     26  N   UNL A   1      37.572  22.626  26.195  1.00  0.00    -0.352 N 
ATOM     27  C   UNL A   1      38.901  22.748  26.507  1.00  0.00     0.251 C 
ATOM     28  H   UNL A   1      37.242  21.702  26.102  1.00  0.00     0.163 HD
ATOM     29  O   UNL A   1      39.654  21.786  26.395  1.00  0.00    -0.269 OA
BRANCH  27  30
ATOM     30  C   UNL A   1      39.415  24.049  26.978  1.00  0.00     0.039 A 
ATOM     31  C   UNL A   1      40.012  24.920  26.064  1.00  0.00     0.014 A 
ATOM     32  C   UNL A   1      39.306  24.401  28.327  1.00  0.00     0.014 A 
ATOM     33  C   UNL A   1      40.462  26.168  26.497  1.00  0.00     0.010 A 
ATOM     34  C   UNL A   1      39.685  25.672  28.739  1.00  0.00     0.010 A 
ATOM     35  C   UNL A   1      40.279  26.564  27.833  1.00  0.00    -0.014 A 
BRANCH  35  36
ATOM     36  C   UNL A   1      40.709  27.901  28.312  1.00  0.00     0.031 A 
ATOM     37  C   UNL A   1      42.176  28.207  28.460  1.00  0.00     0.074 A 
ATOM     38  C   UNL A   1      39.784  28.798  28.709  1.00  0.00     0.049 A 
ATOM     39  N   UNL A   1      42.749  29.275  28.950  1.00  0.00    -0.248 NA
ATOM     40  C   UNL A   1      43.125  27.165  28.026  1.00  0.00     0.031 C 
ATOM     41  C   UNL A   1      38.333  28.591  28.678  1.00  0.00     0.029 A 
ATOM     42  N   UNL A   1      39.926  30.052  29.250  1.00  0.00    -0.354 N 
ATOM     43  C   UNL A   1      44.113  29.015  28.933  1.00  0.00     0.074 A 
ATOM     44  C   UNL A   1      44.287  27.683  28.399  1.00  0.00     0.031 C 
ATOM     45  C   UNL A   1      37.722  29.677  29.179  1.00  0.00     0.029 A 
ATOM     46  C   UNL A   1      38.732  30.640  29.603  1.00  0.00     0.049 A 
ATOM     47  H   UNL A   1      40.799  30.489  29.373  1.00  0.00     0.167 HD
ATOM     48  C   UNL A   1      45.132  29.821  29.311  1.00  0.00     0.034 A 
ATOM     49  C   UNL A   1      38.484  31.814  30.216  1.00  0.00     0.034 A 
ATOM     50  C   UNL A   1      44.957  31.166  29.785  1.00  0.00     0.049 A 
ATOM     51  C   UNL A   1      39.642  32.703  30.589  1.00  0.00     0.074 A 
ATOM     52  C   UNL A   1      45.931  32.102  30.084  1.00  0.00     0.029 A 
ATOM     53  N   UNL A   1      43.734  31.761  30.043  1.00  0.00    -0.354 N 
ATOM     54  N   UNL A   1      40.925  32.508  30.403  1.00  0.00    -0.248 NA
ATOM     55  C   UNL A   1      39.318  33.990  31.222  1.00  0.00     0.031 C 
ATOM     56  C   UNL A   1      45.297  33.252  30.562  1.00  0.00     0.029 A 
ATOM     57  C   UNL A   1      43.928  33.046  30.518  1.00  0.00     0.049 A 
ATOM     58  H   UNL A   1      42.858  31.334  29.908  1.00  0.00     0.167 HD
ATOM     59  C   UNL A   1      41.554  33.664  30.852  1.00  0.00     0.074 A 
ATOM     60  C   UNL A   1      40.512  34.560  31.303  1.00  0.00     0.031 C 
ATOM     61  C   UNL A   1      42.877  33.953  30.897  1.00  0.00     0.034 A 
BRANCH  48  62
ATOM     62  C   UNL A   1      46.539  29.298  29.198  1.00  0.00     0.023 A 
ATOM     63  C   UNL A   1      47.153  28.685  30.308  1.00  0.00     0.012 A 
ATOM     64  C   UNL A   1      47.208  29.317  27.958  1.00  0.00     0.148 A 
ATOM     65  C   UNL A   1      48.420  28.116  30.192  1.00  0.00     0.002 A 
ATOM     66  C   UNL A   1      48.450  28.706  27.839  1.00  0.00     0.091 A 
ATOM     67  F   UNL A   1      46.614  29.922  26.921  1.00  0.00    -0.205 F 
ATOM     68  C   UNL A   1      49.062  28.114  28.956  1.00  0.00     0.022 A 
BRANCH  66  69
ATOM     69  S   UNL A   1      49.319  28.572  26.272  1.00  0.00     0.127 S 
ATOM     70  O   UNL A   1      50.085  29.818  26.253  1.00  0.00    -0.237 OA
ATOM     71  O   UNL A   1      50.121  27.365  26.470  1.00  0.00    -0.237 OA
ATOM     72  O   UNL A   1      48.291  28.462  25.246  1.00  0.00    -0.744 OA
ENDBRANCH  66  69
ENDBRANCH  48  62
BRANCH  49  73
ATOM     73  C   UNL A   1      37.083  32.247  30.488  1.00  0.00     0.023 A 
ATOM     74  C   UNL A   1      36.560  32.122  31.792  1.00  0.00     0.012 A 
ATOM     75  C   UNL A   1      36.261  32.761  29.468  1.00  0.00     0.148 A 
ATOM     76  C   UNL A   1      35.230  32.448  32.060  1.00  0.00     0.002 A 
ATOM     77  C   UNL A   1      34.954  33.140  29.755  1.00  0.00     0.091 A 
ATOM     78  F   UNL A   1      36.769  32.864  28.231  1.00  0.00    -0.205 F 
ATOM     79  C   UNL A   1      34.429  32.963  31.044  1.00  0.00     0.022 A 
BRANCH  77  80
ATOM     80  S   UNL A   1      33.898  33.933  28.538  1.00  0.00     0.127 S 
ATOM     81  O   UNL A   1      32.862  34.525  29.379  1.00  0.00    -0.237 OA
ATOM     82  O   UNL A   1      34.813  34.892  27.918  1.00  0.00    -0.237 OA
ATOM     83  O   UNL A   1      33.460  32.866  27.645  1.00  0.00    -0.744 OA
ENDBRANCH  77  80
ENDBRANCH  49  73
BRANCH  61  84
ATOM     84  C   UNL A   1      43.286  35.316  31.388  1.00  0.00     0.023 A 
ATOM     85  C   UNL A   1      43.546  35.528  32.755  1.00  0.00     0.012 A 
ATOM     86  C   UNL A   1      43.500  36.364  30.470  1.00  0.00     0.148 A 
ATOM     87  C   UNL A   1      43.985  36.772  33.206  1.00  0.00     0.002 A 
ATOM     88  C   UNL A   1      43.990  37.583  30.919  1.00  0.00     0.091 A 
ATOM     89  F   UNL A   1      43.231  36.145  29.175  1.00  0.00    -0.205 F 
ATOM     90  C   UNL A   1      44.221  37.794  32.288  1.00  0.00     0.022 A 
BRANCH  88  91
ATOM     91  S   UNL A   1      44.423  38.919  29.798  1.00  0.00     0.127 S 
ATOM     92  O   UNL A   1      44.796  39.980  30.732  1.00  0.00    -0.237 OA
ATOM     93  O   UNL A   1      45.540  38.344  29.050  1.00  0.00    -0.237 OA
ATOM     94  O   UNL A   1      43.231  39.180  29.003  1.00  0.00    -0.744 OA
ENDBRANCH  88  91
ENDBRANCH  61  84
ENDBRANCH  35  36
ENDBRANCH  27  30
ENDBRANCH  25  26
ENDBRANCH  24  25
ENDBRANCH  23  24
ENDBRANCH   1  23
TORSDOF 21
ENDMDL
