MODEL 1
REMARK VINA RESULT:     -14.1      0.000      0.000
REMARK SMILES Cc1ccccc1[C@@H]1[NH2+][C@@H](C(=O)NCCCCCCNC(=O)c2ccc(-c3c4nc(c(-c5cccc(S(=O)(=O)[O-])c5F)c5ccc([nH]5)c(-c5cccc(S(=O)(=O)[O-])c5F)c5nc(c(-c6cccc(S(=O)(=O)[O-])c6F)c6ccc3[nH]6)C=C5)C=C4)cc2)CC2=c3ccccc3=N[C@@H]21
REMARK SMILES IDX 17 1 16 2 15 3 14 4 13 5 11 6 12 7 10 9 8 10 9 11 95 12
REMARK SMILES IDX 87 15 94 16 86 17 88 18 93 19 89 20 92 21 90 22 91 23 7 24
REMARK SMILES IDX 1 25 2 26 3 27 4 28 6 29 5 30 18 31 19 32 20 33 21 34 22 36
REMARK SMILES IDX 23 37 24 38 85 39 25 40 84 41 26 42 27 43 28 44 78 45 29 46
REMARK SMILES IDX 83 47 77 48 79 49 30 50 82 51 76 52 75 53 31 55 63 56 43 57
REMARK SMILES IDX 62 58 44 59 47 60 61 61 80 62 45 63 46 64 60 66 81 67 48 68
REMARK SMILES IDX 32 69 33 70 41 71 34 72 36 73 42 74 35 75 37 76 38 77 39 78
REMARK SMILES IDX 40 79 64 80 65 81 73 82 66 83 68 84 74 85 67 86 69 87 70 88
REMARK SMILES IDX 71 89 72 90 49 91 50 92 58 93 51 94 53 95 59 96 52 97 54 98
REMARK SMILES IDX 55 99 56 100 57 101
REMARK H PARENT 13 8 9 13 9 14 20 35 79 54 47 65
REMARK Flexibility Score: inf
ROOT
ATOM      1  C   UNL A   1      31.993  29.575  26.057  1.00  0.00     0.002 C 
ENDROOT
BRANCH   1   2
ATOM      2  C   UNL A   1      31.388  28.723  27.180  1.00  0.00     0.002 C 
BRANCH   2   3
ATOM      3  C   UNL A   1      31.669  27.212  27.148  1.00  0.00     0.021 C 
BRANCH   3   4
ATOM      4  C   UNL A   1      30.791  26.322  26.239  1.00  0.00     0.116 C 
BRANCH   4   5
ATOM      5  N   UNL A   1      30.627  24.878  26.502  1.00  0.00    -0.351 N 
ATOM      6  C   UNL A   1      31.656  23.941  26.769  1.00  0.00     0.278 C 
ATOM      7  O   UNL A   1      31.492  23.012  27.553  1.00  0.00    -0.268 OA
ATOM      8  H   UNL A   1      29.706  24.530  26.491  1.00  0.00     0.163 HD
BRANCH   6   9
ATOM      9  C   UNL A   1      32.820  24.066  25.782  1.00  0.00     0.277 C 
ATOM     10  C   UNL A   1      34.291  22.309  24.701  1.00  0.00     0.243 C 
ATOM     11  N   UNL A   1      33.142  22.662  25.553  1.00  0.00    -0.327 N 
ATOM     12  C   UNL A   1      34.727  23.479  23.715  1.00  0.00     0.196 C 
ATOM     13  H   UNL A   1      33.312  22.244  26.467  1.00  0.00     0.347 HD
ATOM     14  H   UNL A   1      32.341  22.317  25.025  1.00  0.00     0.347 HD
ATOM     15  C   UNL A   1      34.485  24.868  24.365  1.00  0.00    -0.024 C 
ATOM     16  N   UNL A   1      33.922  23.540  22.465  1.00  0.00    -0.270 NA
ATOM     17  C   UNL A   1      34.105  24.884  25.853  1.00  0.00     0.109 C 
ATOM     18  C   UNL A   1      33.866  25.697  23.507  1.00  0.00     0.002 A 
ATOM     19  C   UNL A   1      33.513  24.773  22.402  1.00  0.00     0.066 A 
ATOM     20  C   UNL A   1      33.053  26.864  23.759  1.00  0.00     0.010 A 
ATOM     21  C   UNL A   1      32.541  25.291  21.407  1.00  0.00     0.028 A 
ATOM     22  C   UNL A   1      32.060  27.172  22.909  1.00  0.00     0.001 A 
ATOM     23  C   UNL A   1      31.849  26.409  21.693  1.00  0.00     0.002 A 
BRANCH  10  24
ATOM     24  C   UNL A   1      34.084  20.805  24.332  1.00  0.00     0.015 A 
ATOM     25  C   UNL A   1      36.447  20.099  25.005  1.00  0.00     0.045 C 
ATOM     26  C   UNL A   1      35.028  19.802  24.624  1.00  0.00    -0.042 A 
ATOM     27  C   UNL A   1      34.616  18.444  24.683  1.00  0.00     0.004 A 
ATOM     28  C   UNL A   1      33.295  18.055  24.462  1.00  0.00     0.000 A 
ATOM     29  C   UNL A   1      32.783  20.338  23.994  1.00  0.00     0.010 A 
ATOM     30  C   UNL A   1      32.373  19.010  24.104  1.00  0.00     0.001 A 
ENDBRANCH  10  24
ENDBRANCH   6   9
ENDBRANCH   4   5
ENDBRANCH   3   4
ENDBRANCH   2   3
ENDBRANCH   1   2
BRANCH   1  31
ATOM     31  C   UNL A   1      33.506  29.806  26.101  1.00  0.00     0.021 C 
BRANCH  31  32
ATOM     32  C   UNL A   1      34.032  30.366  27.413  1.00  0.00     0.116 C 
BRANCH  32  33
ATOM     33  N   UNL A   1      35.192  31.224  27.259  1.00  0.00    -0.352 N 
ATOM     34  C   UNL A   1      36.113  31.370  28.298  1.00  0.00     0.251 C 
ATOM     35  H   UNL A   1      35.331  31.709  26.414  1.00  0.00     0.163 HD
ATOM     36  O   UNL A   1      36.195  32.363  28.988  1.00  0.00    -0.269 OA
BRANCH  34  37
ATOM     37  C   UNL A   1      37.043  30.219  28.438  1.00  0.00     0.039 A 
ATOM     38  C   UNL A   1      37.068  29.461  29.612  1.00  0.00     0.014 A 
ATOM     39  C   UNL A   1      37.997  30.015  27.441  1.00  0.00     0.014 A 
ATOM     40  C   UNL A   1      38.154  28.615  29.858  1.00  0.00     0.010 A 
ATOM     41  C   UNL A   1      39.092  29.226  27.703  1.00  0.00     0.010 A 
ATOM     42  C   UNL A   1      39.195  28.567  28.932  1.00  0.00    -0.014 A 
BRANCH  42  43
ATOM     43  C   UNL A   1      40.458  27.872  29.109  1.00  0.00     0.031 A 
ATOM     44  C   UNL A   1      40.568  26.434  28.817  1.00  0.00     0.074 A 
ATOM     45  C   UNL A   1      41.571  28.619  29.270  1.00  0.00     0.049 A 
ATOM     46  N   UNL A   1      41.608  25.721  29.081  1.00  0.00    -0.248 NA
ATOM     47  C   UNL A   1      39.481  25.678  28.215  1.00  0.00     0.031 C 
ATOM     48  C   UNL A   1      42.948  28.230  28.996  1.00  0.00     0.029 A 
ATOM     49  N   UNL A   1      41.684  29.847  29.924  1.00  0.00    -0.354 N 
ATOM     50  C   UNL A   1      41.455  24.507  28.450  1.00  0.00     0.074 A 
ATOM     51  C   UNL A   1      40.076  24.498  28.018  1.00  0.00     0.031 C 
ATOM     52  C   UNL A   1      43.764  29.018  29.711  1.00  0.00     0.029 A 
ATOM     53  C   UNL A   1      42.926  29.820  30.584  1.00  0.00     0.049 A 
ATOM     54  H   UNL A   1      41.029  30.582  29.924  1.00  0.00     0.167 HD
ATOM     55  C   UNL A   1      42.559  23.725  28.265  1.00  0.00     0.034 A 
ATOM     56  C   UNL A   1      43.042  29.902  31.942  1.00  0.00     0.034 A 
ATOM     57  C   UNL A   1      43.725  24.285  28.975  1.00  0.00     0.049 A 
ATOM     58  C   UNL A   1      43.657  28.657  32.568  1.00  0.00     0.074 A 
ATOM     59  C   UNL A   1      44.851  25.007  28.613  1.00  0.00     0.029 A 
ATOM     60  N   UNL A   1      43.678  24.332  30.355  1.00  0.00    -0.354 N 
ATOM     61  N   UNL A   1      44.178  27.661  31.902  1.00  0.00    -0.248 NA
ATOM     62  C   UNL A   1      43.642  28.402  34.011  1.00  0.00     0.031 C 
ATOM     63  C   UNL A   1      45.440  25.536  29.805  1.00  0.00     0.029 A 
ATOM     64  C   UNL A   1      44.688  25.113  30.888  1.00  0.00     0.049 A 
ATOM     65  H   UNL A   1      43.002  23.864  30.898  1.00  0.00     0.167 HD
ATOM     66  C   UNL A   1      44.380  26.603  32.751  1.00  0.00     0.074 A 
ATOM     67  C   UNL A   1      44.089  27.136  34.071  1.00  0.00     0.031 C 
ATOM     68  C   UNL A   1      44.691  25.341  32.328  1.00  0.00     0.034 A 
BRANCH  55  69
ATOM     69  C   UNL A   1      42.683  22.562  27.289  1.00  0.00     0.023 A 
ATOM     70  C   UNL A   1      41.893  21.417  27.547  1.00  0.00     0.012 A 
ATOM     71  C   UNL A   1      43.551  22.462  26.178  1.00  0.00     0.148 A 
ATOM     72  C   UNL A   1      42.020  20.228  26.816  1.00  0.00     0.002 A 
ATOM     73  C   UNL A   1      43.720  21.263  25.478  1.00  0.00     0.091 A 
ATOM     74  F   UNL A   1      44.185  23.539  25.723  1.00  0.00    -0.205 F 
ATOM     75  C   UNL A   1      42.957  20.140  25.798  1.00  0.00     0.022 A 
BRANCH  73  76
ATOM     76  S   UNL A   1      44.962  21.063  24.184  1.00  0.00     0.127 S 
ATOM     77  O   UNL A   1      44.724  19.686  23.746  1.00  0.00    -0.237 OA
ATOM     78  O   UNL A   1      44.572  22.085  23.215  1.00  0.00    -0.237 OA
ATOM     79  O   UNL A   1      46.259  21.270  24.819  1.00  0.00    -0.744 OA
ENDBRANCH  73  76
ENDBRANCH  55  69
BRANCH  56  80
ATOM     80  C   UNL A   1      41.999  30.772  32.560  1.00  0.00     0.023 A 
ATOM     81  C   UNL A   1      41.972  32.123  32.137  1.00  0.00     0.012 A 
ATOM     82  C   UNL A   1      40.860  30.232  33.184  1.00  0.00     0.148 A 
ATOM     83  C   UNL A   1      40.804  32.880  32.224  1.00  0.00     0.002 A 
ATOM     84  C   UNL A   1      39.696  30.994  33.262  1.00  0.00     0.091 A 
ATOM     85  F   UNL A   1      40.898  28.959  33.596  1.00  0.00    -0.205 F 
ATOM     86  C   UNL A   1      39.657  32.304  32.757  1.00  0.00     0.022 A 
BRANCH  84  87
ATOM     87  S   UNL A   1      38.144  30.305  33.849  1.00  0.00     0.127 S 
ATOM     88  O   UNL A   1      37.188  31.308  33.391  1.00  0.00    -0.237 OA
ATOM     89  O   UNL A   1      38.089  29.029  33.136  1.00  0.00    -0.237 OA
ATOM     90  O   UNL A   1      38.304  30.179  35.290  1.00  0.00    -0.744 OA
ENDBRANCH  84  87
ENDBRANCH  56  80
BRANCH  68  91
ATOM     91  C   UNL A   1      45.010  24.203  33.278  1.00  0.00     0.023 A 
ATOM     92  C   UNL A   1      43.993  23.314  33.680  1.00  0.00     0.012 A 
ATOM     93  C   UNL A   1      46.265  24.079  33.923  1.00  0.00     0.148 A 
ATOM     94  C   UNL A   1      44.220  22.325  34.644  1.00  0.00     0.002 A 
ATOM     95  C   UNL A   1      46.455  23.165  34.955  1.00  0.00     0.091 A 
ATOM     96  F   UNL A   1      47.305  24.810  33.505  1.00  0.00    -0.205 F 
ATOM     97  C   UNL A   1      45.442  22.267  35.299  1.00  0.00     0.022 A 
BRANCH  95  98
ATOM     98  S   UNL A   1      47.931  23.175  35.983  1.00  0.00     0.127 S 
ATOM     99  O   UNL A   1      47.876  24.515  36.575  1.00  0.00    -0.237 OA
ATOM    100  O   UNL A   1      47.653  22.086  36.917  1.00  0.00    -0.237 OA
ATOM    101  O   UNL A   1      49.050  22.968  35.076  1.00  0.00    -0.744 OA
ENDBRANCH  95  98
ENDBRANCH  68  91
ENDBRANCH  42  43
ENDBRANCH  34  37
ENDBRANCH  32  33
ENDBRANCH  31  32
ENDBRANCH   1  31
TORSDOF 17
ENDMDL
MODEL 2
REMARK VINA RESULT:     -13.7      1.247      2.317
REMARK SMILES Cc1ccccc1[C@@H]1[NH2+][C@@H](C(=O)NCCCCCCNC(=O)c2ccc(-c3c4nc(c(-c5cccc(S(=O)(=O)[O-])c5F)c5ccc([nH]5)c(-c5cccc(S(=O)(=O)[O-])c5F)c5nc(c(-c6cccc(S(=O)(=O)[O-])c6F)c6ccc3[nH]6)C=C5)C=C4)cc2)CC2=c3ccccc3=N[C@@H]21
REMARK SMILES IDX 17 1 16 2 15 3 14 4 13 5 11 6 12 7 10 9 8 10 9 11 95 12
REMARK SMILES IDX 87 15 94 16 86 17 88 18 93 19 89 20 92 21 90 22 91 23 7 24
REMARK SMILES IDX 1 25 2 26 3 27 4 28 6 29 5 30 18 31 19 32 20 33 21 34 22 36
REMARK SMILES IDX 23 37 24 38 85 39 25 40 84 41 26 42 27 43 28 44 78 45 29 46
REMARK SMILES IDX 83 47 77 48 79 49 30 50 82 51 76 52 75 53 31 55 63 56 43 57
REMARK SMILES IDX 62 58 44 59 47 60 61 61 80 62 45 63 46 64 60 66 81 67 48 68
REMARK SMILES IDX 32 69 33 70 41 71 34 72 36 73 42 74 35 75 37 76 38 77 39 78
REMARK SMILES IDX 40 79 64 80 65 81 73 82 66 83 68 84 74 85 67 86 69 87 70 88
REMARK SMILES IDX 71 89 72 90 49 91 50 92 58 93 51 94 53 95 59 96 52 97 54 98
REMARK SMILES IDX 55 99 56 100 57 101
REMARK H PARENT 13 8 9 13 9 14 20 35 79 54 47 65
REMARK Flexibility Score: inf
ROOT
ATOM      1  C   UNL A   1      34.031  28.661  26.004  1.00  0.00     0.002 C 
ENDROOT
BRANCH   1   2
ATOM      2  C   UNL A   1      33.723  28.397  24.524  1.00  0.00     0.002 C 
BRANCH   2   3
ATOM      3  C   UNL A   1      33.868  26.952  24.021  1.00  0.00     0.021 C 
BRANCH   3   4
ATOM      4  C   UNL A   1      33.315  26.605  22.620  1.00  0.00     0.116 C 
BRANCH   4   5
ATOM      5  N   UNL A   1      33.827  25.450  21.854  1.00  0.00    -0.351 N 
ATOM      6  C   UNL A   1      33.181  24.202  21.667  1.00  0.00     0.278 C 
ATOM      7  O   UNL A   1      33.279  23.580  20.615  1.00  0.00    -0.268 OA
ATOM      8  H   UNL A   1      34.709  25.559  21.430  1.00  0.00     0.163 HD
BRANCH   6   9
ATOM      9  C   UNL A   1      32.630  23.636  22.978  1.00  0.00     0.277 C 
ATOM     10  C   UNL A   1      33.705  22.186  24.755  1.00  0.00     0.243 C 
ATOM     11  N   UNL A   1      33.809  22.959  23.506  1.00  0.00    -0.327 N 
ATOM     12  C   UNL A   1      32.461  22.605  25.654  1.00  0.00     0.196 C 
ATOM     13  H   UNL A   1      34.129  22.315  22.784  1.00  0.00     0.347 HD
ATOM     14  H   UNL A   1      34.433  23.727  23.754  1.00  0.00     0.347 HD
ATOM     15  C   UNL A   1      31.264  23.044  24.769  1.00  0.00    -0.024 C 
ATOM     16  N   UNL A   1      32.713  23.797  26.508  1.00  0.00    -0.270 NA
ATOM     17  C   UNL A   1      31.387  22.797  23.258  1.00  0.00     0.109 C 
ATOM     18  C   UNL A   1      30.733  24.194  25.219  1.00  0.00     0.002 A 
ATOM     19  C   UNL A   1      31.726  24.601  26.242  1.00  0.00     0.066 A 
ATOM     20  C   UNL A   1      29.958  25.197  24.526  1.00  0.00     0.010 A 
ATOM     21  C   UNL A   1      31.615  25.996  26.735  1.00  0.00     0.028 A 
ATOM     22  C   UNL A   1      30.050  26.482  24.908  1.00  0.00     0.001 A 
ATOM     23  C   UNL A   1      30.840  26.867  26.063  1.00  0.00     0.002 A 
BRANCH  10  24
ATOM     24  C   UNL A   1      35.177  21.980  25.237  1.00  0.00     0.015 A 
ATOM     25  C   UNL A   1      35.168  19.452  24.860  1.00  0.00     0.045 C 
ATOM     26  C   UNL A   1      35.861  20.754  25.128  1.00  0.00    -0.042 A 
ATOM     27  C   UNL A   1      37.281  20.736  25.151  1.00  0.00     0.004 A 
ATOM     28  C   UNL A   1      38.039  21.899  25.279  1.00  0.00     0.000 A 
ATOM     29  C   UNL A   1      35.999  23.115  25.489  1.00  0.00     0.010 A 
ATOM     30  C   UNL A   1      37.392  23.098  25.460  1.00  0.00     0.001 A 
ENDBRANCH  10  24
ENDBRANCH   6   9
ENDBRANCH   4   5
ENDBRANCH   3   4
ENDBRANCH   2   3
ENDBRANCH   1   2
BRANCH   1  31
ATOM     31  C   UNL A   1      33.283  29.818  26.673  1.00  0.00     0.021 C 
BRANCH  31  32
ATOM     32  C   UNL A   1      34.034  30.499  27.805  1.00  0.00     0.116 C 
BRANCH  32  33
ATOM     33  N   UNL A   1      35.197  31.247  27.367  1.00  0.00    -0.352 N 
ATOM     34  C   UNL A   1      36.296  31.414  28.213  1.00  0.00     0.251 C 
ATOM     35  H   UNL A   1      35.212  31.642  26.466  1.00  0.00     0.163 HD
ATOM     36  O   UNL A   1      36.559  32.456  28.773  1.00  0.00    -0.269 OA
BRANCH  34  37
ATOM     37  C   UNL A   1      37.166  30.213  28.308  1.00  0.00     0.039 A 
ATOM     38  C   UNL A   1      37.130  29.395  29.440  1.00  0.00     0.014 A 
ATOM     39  C   UNL A   1      38.127  30.012  27.317  1.00  0.00     0.014 A 
ATOM     40  C   UNL A   1      38.167  28.484  29.660  1.00  0.00     0.010 A 
ATOM     41  C   UNL A   1      39.176  29.157  27.556  1.00  0.00     0.010 A 
ATOM     42  C   UNL A   1      39.222  28.431  28.751  1.00  0.00    -0.014 A 
BRANCH  42  43
ATOM     43  C   UNL A   1      40.447  27.665  28.913  1.00  0.00     0.031 A 
ATOM     44  C   UNL A   1      40.451  26.209  28.698  1.00  0.00     0.074 A 
ATOM     45  C   UNL A   1      41.611  28.345  28.983  1.00  0.00     0.049 A 
ATOM     46  N   UNL A   1      41.455  25.445  28.958  1.00  0.00    -0.248 NA
ATOM     47  C   UNL A   1      39.292  25.495  28.188  1.00  0.00     0.031 C 
ATOM     48  C   UNL A   1      42.946  27.852  28.673  1.00  0.00     0.029 A 
ATOM     49  N   UNL A   1      41.831  29.596  29.561  1.00  0.00    -0.354 N 
ATOM     50  C   UNL A   1      41.196  24.211  28.403  1.00  0.00     0.074 A 
ATOM     51  C   UNL A   1      39.802  24.270  28.032  1.00  0.00     0.031 C 
ATOM     52  C   UNL A   1      43.842  28.622  29.306  1.00  0.00     0.029 A 
ATOM     53  C   UNL A   1      43.098  29.523  30.167  1.00  0.00     0.049 A 
ATOM     54  H   UNL A   1      41.224  30.372  29.547  1.00  0.00     0.167 HD
ATOM     55  C   UNL A   1      42.239  23.350  28.216  1.00  0.00     0.034 A 
ATOM     56  C   UNL A   1      43.282  29.670  31.512  1.00  0.00     0.034 A 
ATOM     57  C   UNL A   1      43.470  23.869  28.843  1.00  0.00     0.049 A 
ATOM     58  C   UNL A   1      43.846  28.424  32.181  1.00  0.00     0.074 A 
ATOM     59  C   UNL A   1      44.621  24.495  28.392  1.00  0.00     0.029 A 
ATOM     60  N   UNL A   1      43.490  23.993  30.218  1.00  0.00    -0.354 N 
ATOM     61  N   UNL A   1      44.271  27.361  31.551  1.00  0.00    -0.248 NA
ATOM     62  C   UNL A   1      43.881  28.248  33.635  1.00  0.00     0.031 C 
ATOM     63  C   UNL A   1      45.298  25.047  29.526  1.00  0.00     0.029 A 
ATOM     64  C   UNL A   1      44.571  24.733  30.662  1.00  0.00     0.049 A 
ATOM     65  H   UNL A   1      42.812  23.600  30.815  1.00  0.00     0.167 HD
ATOM     66  C   UNL A   1      44.445  26.339  32.449  1.00  0.00     0.074 A 
ATOM     67  C   UNL A   1      44.250  26.961  33.748  1.00  0.00     0.031 C 
ATOM     68  C   UNL A   1      44.655  25.038  32.085  1.00  0.00     0.034 A 
BRANCH  55  69
ATOM     69  C   UNL A   1      42.243  22.130  27.303  1.00  0.00     0.023 A 
ATOM     70  C   UNL A   1      41.172  21.217  27.441  1.00  0.00     0.012 A 
ATOM     71  C   UNL A   1      43.236  21.762  26.366  1.00  0.00     0.148 A 
ATOM     72  C   UNL A   1      41.132  19.987  26.771  1.00  0.00     0.002 A 
ATOM     73  C   UNL A   1      43.229  20.515  25.734  1.00  0.00     0.091 A 
ATOM     74  F   UNL A   1      44.176  22.633  26.008  1.00  0.00    -0.205 F 
ATOM     75  C   UNL A   1      42.178  19.621  25.938  1.00  0.00     0.022 A 
BRANCH  73  76
ATOM     76  S   UNL A   1      44.586  19.952  24.686  1.00  0.00     0.127 S 
ATOM     77  O   UNL A   1      45.756  20.266  25.509  1.00  0.00    -0.237 OA
ATOM     78  O   UNL A   1      44.304  18.524  24.548  1.00  0.00    -0.237 OA
ATOM     79  O   UNL A   1      44.502  20.723  23.451  1.00  0.00    -0.744 OA
ENDBRANCH  73  76
ENDBRANCH  55  69
BRANCH  56  80
ATOM     80  C   UNL A   1      42.327  30.639  32.125  1.00  0.00     0.023 A 
ATOM     81  C   UNL A   1      42.501  32.001  31.780  1.00  0.00     0.012 A 
ATOM     82  C   UNL A   1      41.091  30.225  32.654  1.00  0.00     0.148 A 
ATOM     83  C   UNL A   1      41.439  32.903  31.850  1.00  0.00     0.002 A 
ATOM     84  C   UNL A   1      40.033  31.131  32.715  1.00  0.00     0.091 A 
ATOM     85  F   UNL A   1      40.938  28.939  32.992  1.00  0.00    -0.205 F 
ATOM     86  C   UNL A   1      40.197  32.458  32.287  1.00  0.00     0.022 A 
BRANCH  84  87
ATOM     87  S   UNL A   1      38.372  30.626  33.177  1.00  0.00     0.127 S 
ATOM     88  O   UNL A   1      37.616  30.982  31.981  1.00  0.00    -0.237 OA
ATOM     89  O   UNL A   1      38.541  29.190  33.395  1.00  0.00    -0.237 OA
ATOM     90  O   UNL A   1      38.066  31.383  34.381  1.00  0.00    -0.744 OA
ENDBRANCH  84  87
ENDBRANCH  56  80
BRANCH  68  91
ATOM     91  C   UNL A   1      44.946  23.935  33.084  1.00  0.00     0.023 A 
ATOM     92  C   UNL A   1      43.917  23.059  33.485  1.00  0.00     0.012 A 
ATOM     93  C   UNL A   1      46.181  23.835  33.771  1.00  0.00     0.148 A 
ATOM     94  C   UNL A   1      44.115  22.104  34.490  1.00  0.00     0.002 A 
ATOM     95  C   UNL A   1      46.339  22.958  34.839  1.00  0.00     0.091 A 
ATOM     96  F   UNL A   1      47.232  24.552  33.359  1.00  0.00    -0.205 F 
ATOM     97  C   UNL A   1      45.317  22.070  35.184  1.00  0.00     0.022 A 
BRANCH  95  98
ATOM     98  S   UNL A   1      47.784  23.005  35.911  1.00  0.00     0.127 S 
ATOM     99  O   UNL A   1      47.602  24.285  36.601  1.00  0.00    -0.237 OA
ATOM    100  O   UNL A   1      47.574  21.827  36.749  1.00  0.00    -0.237 OA
ATOM    101  O   UNL A   1      48.938  22.961  35.026  1.00  0.00    -0.744 OA
ENDBRANCH  95  98
ENDBRANCH  68  91
ENDBRANCH  42  43
ENDBRANCH  34  37
ENDBRANCH  32  33
ENDBRANCH  31  32
ENDBRANCH   1  31
TORSDOF 17
ENDMDL
MODEL 3
REMARK VINA RESULT:     -13.7      1.784      2.179
REMARK SMILES Cc1ccccc1[C@@H]1[NH2+][C@@H](C(=O)NCCCCCCNC(=O)c2ccc(-c3c4nc(c(-c5cccc(S(=O)(=O)[O-])c5F)c5ccc([nH]5)c(-c5cccc(S(=O)(=O)[O-])c5F)c5nc(c(-c6cccc(S(=O)(=O)[O-])c6F)c6ccc3[nH]6)C=C5)C=C4)cc2)CC2=c3ccccc3=N[C@@H]21
REMARK SMILES IDX 17 1 16 2 15 3 14 4 13 5 11 6 12 7 10 9 8 10 9 11 95 12
REMARK SMILES IDX 87 15 94 16 86 17 88 18 93 19 89 20 92 21 90 22 91 23 7 24
REMARK SMILES IDX 1 25 2 26 3 27 4 28 6 29 5 30 18 31 19 32 20 33 21 34 22 36
REMARK SMILES IDX 23 37 24 38 85 39 25 40 84 41 26 42 27 43 28 44 78 45 29 46
REMARK SMILES IDX 83 47 77 48 79 49 30 50 82 51 76 52 75 53 31 55 63 56 43 57
REMARK SMILES IDX 62 58 44 59 47 60 61 61 80 62 45 63 46 64 60 66 81 67 48 68
REMARK SMILES IDX 32 69 33 70 41 71 34 72 36 73 42 74 35 75 37 76 38 77 39 78
REMARK SMILES IDX 40 79 64 80 65 81 73 82 66 83 68 84 74 85 67 86 69 87 70 88
REMARK SMILES IDX 71 89 72 90 49 91 50 92 58 93 51 94 53 95 59 96 52 97 54 98
REMARK SMILES IDX 55 99 56 100 57 101
REMARK H PARENT 13 8 9 13 9 14 20 35 79 54 47 65
REMARK Flexibility Score: inf
ROOT
ATOM      1  C   UNL A   1      33.159  29.374  26.312  1.00  0.00     0.002 C 
ENDROOT
BRANCH   1   2
ATOM      2  C   UNL A   1      32.819  28.149  27.172  1.00  0.00     0.002 C 
BRANCH   2   3
ATOM      3  C   UNL A   1      31.344  27.720  27.236  1.00  0.00     0.021 C 
BRANCH   3   4
ATOM      4  C   UNL A   1      30.828  26.713  26.184  1.00  0.00     0.116 C 
BRANCH   4   5
ATOM      5  N   UNL A   1      30.677  25.278  26.501  1.00  0.00    -0.351 N 
ATOM      6  C   UNL A   1      31.719  24.347  26.741  1.00  0.00     0.278 C 
ATOM      7  O   UNL A   1      31.597  23.444  27.561  1.00  0.00    -0.268 OA
ATOM      8  H   UNL A   1      29.757  24.932  26.551  1.00  0.00     0.163 HD
BRANCH   6   9
ATOM      9  C   UNL A   1      32.828  24.438  25.688  1.00  0.00     0.277 C 
ATOM     10  C   UNL A   1      34.255  22.648  24.606  1.00  0.00     0.243 C 
ATOM     11  N   UNL A   1      33.150  23.029  25.501  1.00  0.00    -0.327 N 
ATOM     12  C   UNL A   1      34.627  23.778  23.549  1.00  0.00     0.196 C 
ATOM     13  H   UNL A   1      33.371  22.651  26.422  1.00  0.00     0.347 HD
ATOM     14  H   UNL A   1      32.325  22.656  25.032  1.00  0.00     0.347 HD
ATOM     15  C   UNL A   1      34.408  25.192  24.153  1.00  0.00    -0.024 C 
ATOM     16  N   UNL A   1      33.757  23.781  22.342  1.00  0.00    -0.270 NA
ATOM     17  C   UNL A   1      34.107  25.268  25.658  1.00  0.00     0.109 C 
ATOM     18  C   UNL A   1      33.736  25.979  23.295  1.00  0.00     0.002 A 
ATOM     19  C   UNL A   1      33.333  25.007  22.250  1.00  0.00     0.066 A 
ATOM     20  C   UNL A   1      32.927  27.150  23.542  1.00  0.00     0.010 A 
ATOM     21  C   UNL A   1      32.306  25.477  21.288  1.00  0.00     0.028 A 
ATOM     22  C   UNL A   1      31.888  27.415  22.733  1.00  0.00     0.001 A 
ATOM     23  C   UNL A   1      31.620  26.601  21.563  1.00  0.00     0.002 A 
BRANCH  10  24
ATOM     24  C   UNL A   1      34.043  21.128  24.311  1.00  0.00     0.015 A 
ATOM     25  C   UNL A   1      36.384  20.440  25.071  1.00  0.00     0.045 C 
ATOM     26  C   UNL A   1      34.971  20.134  24.675  1.00  0.00    -0.042 A 
ATOM     27  C   UNL A   1      34.545  18.785  24.796  1.00  0.00     0.004 A 
ATOM     28  C   UNL A   1      33.226  18.396  24.567  1.00  0.00     0.000 A 
ATOM     29  C   UNL A   1      32.745  20.654  23.969  1.00  0.00     0.010 A 
ATOM     30  C   UNL A   1      32.321  19.337  24.139  1.00  0.00     0.001 A 
ENDBRANCH  10  24
ENDBRANCH   6   9
ENDBRANCH   4   5
ENDBRANCH   3   4
ENDBRANCH   2   3
ENDBRANCH   1   2
BRANCH   1  31
ATOM     31  C   UNL A   1      34.117  30.403  26.919  1.00  0.00     0.021 C 
BRANCH  31  32
ATOM     32  C   UNL A   1      33.457  31.454  27.796  1.00  0.00     0.116 C 
BRANCH  32  33
ATOM     33  N   UNL A   1      34.396  32.356  28.436  1.00  0.00    -0.352 N 
ATOM     34  C   UNL A   1      35.002  32.012  29.646  1.00  0.00     0.251 C 
ATOM     35  H   UNL A   1      34.609  33.219  28.013  1.00  0.00     0.163 HD
ATOM     36  O   UNL A   1      34.699  32.504  30.712  1.00  0.00    -0.269 OA
BRANCH  34  37
ATOM     37  C   UNL A   1      36.112  31.035  29.503  1.00  0.00     0.039 A 
ATOM     38  C   UNL A   1      36.338  30.064  30.482  1.00  0.00     0.014 A 
ATOM     39  C   UNL A   1      37.016  31.209  28.455  1.00  0.00     0.014 A 
ATOM     40  C   UNL A   1      37.560  29.384  30.503  1.00  0.00     0.010 A 
ATOM     41  C   UNL A   1      38.238  30.583  28.504  1.00  0.00     0.010 A 
ATOM     42  C   UNL A   1      38.529  29.709  29.556  1.00  0.00    -0.014 A 
BRANCH  42  43
ATOM     43  C   UNL A   1      39.897  29.220  29.538  1.00  0.00     0.031 A 
ATOM     44  C   UNL A   1      40.183  27.814  29.210  1.00  0.00     0.074 A 
ATOM     45  C   UNL A   1      40.893  30.131  29.547  1.00  0.00     0.049 A 
ATOM     46  N   UNL A   1      41.348  27.273  29.310  1.00  0.00    -0.248 NA
ATOM     47  C   UNL A   1      39.151  26.895  28.760  1.00  0.00     0.031 C 
ATOM     48  C   UNL A   1      42.259  29.958  29.070  1.00  0.00     0.029 A 
ATOM     49  N   UNL A   1      40.909  31.366  30.197  1.00  0.00    -0.354 N 
ATOM     50  C   UNL A   1      41.294  26.045  28.688  1.00  0.00     0.074 A 
ATOM     51  C   UNL A   1      39.886  25.820  28.460  1.00  0.00     0.031 C 
ATOM     52  C   UNL A   1      43.038  30.868  29.671  1.00  0.00     0.029 A 
ATOM     53  C   UNL A   1      42.223  31.536  30.669  1.00  0.00     0.049 A 
ATOM     54  H   UNL A   1      40.155  31.991  30.303  1.00  0.00     0.167 HD
ATOM     55  C   UNL A   1      42.467  25.442  28.332  1.00  0.00     0.034 A 
ATOM     56  C   UNL A   1      42.522  31.645  31.997  1.00  0.00     0.034 A 
ATOM     57  C   UNL A   1      43.623  26.181  28.875  1.00  0.00     0.049 A 
ATOM     58  C   UNL A   1      43.406  30.515  32.508  1.00  0.00     0.074 A 
ATOM     59  C   UNL A   1      44.560  27.066  28.364  1.00  0.00     0.029 A 
ATOM     60  N   UNL A   1      43.771  26.230  30.247  1.00  0.00    -0.354 N 
ATOM     61  N   UNL A   1      43.971  29.608  31.758  1.00  0.00    -0.248 NA
ATOM     62  C   UNL A   1      43.640  30.271  33.933  1.00  0.00     0.031 C 
ATOM     63  C   UNL A   1      45.227  27.689  29.467  1.00  0.00     0.029 A 
ATOM     64  C   UNL A   1      44.715  27.161  30.640  1.00  0.00     0.049 A 
ATOM     65  H   UNL A   1      43.262  25.667  30.875  1.00  0.00     0.167 HD
ATOM     66  C   UNL A   1      44.456  28.599  32.552  1.00  0.00     0.074 A 
ATOM     67  C   UNL A   1      44.281  29.090  33.908  1.00  0.00     0.031 C 
ATOM     68  C   UNL A   1      44.893  27.397  32.068  1.00  0.00     0.034 A 
BRANCH  55  69
ATOM     69  C   UNL A   1      42.625  24.306  27.330  1.00  0.00     0.023 A 
ATOM     70  C   UNL A   1      43.212  24.623  26.083  1.00  0.00     0.012 A 
ATOM     71  C   UNL A   1      42.191  22.968  27.473  1.00  0.00     0.148 A 
ATOM     72  C   UNL A   1      43.282  23.710  25.023  1.00  0.00     0.002 A 
ATOM     73  C   UNL A   1      42.209  22.068  26.403  1.00  0.00     0.091 A 
ATOM     74  F   UNL A   1      41.813  22.509  28.663  1.00  0.00    -0.205 F 
ATOM     75  C   UNL A   1      42.752  22.437  25.172  1.00  0.00     0.022 A 
BRANCH  73  76
ATOM     76  S   UNL A   1      41.484  20.419  26.512  1.00  0.00     0.127 S 
ATOM     77  O   UNL A   1      40.054  20.707  26.379  1.00  0.00    -0.237 OA
ATOM     78  O   UNL A   1      42.076  19.739  25.362  1.00  0.00    -0.237 OA
ATOM     79  O   UNL A   1      41.864  19.884  27.815  1.00  0.00    -0.744 OA
ENDBRANCH  73  76
ENDBRANCH  55  69
BRANCH  56  80
ATOM     80  C   UNL A   1      41.459  32.348  32.774  1.00  0.00     0.023 A 
ATOM     81  C   UNL A   1      41.336  33.742  32.558  1.00  0.00     0.012 A 
ATOM     82  C   UNL A   1      40.380  31.651  33.349  1.00  0.00     0.148 A 
ATOM     83  C   UNL A   1      40.131  34.403  32.797  1.00  0.00     0.002 A 
ATOM     84  C   UNL A   1      39.178  32.318  33.580  1.00  0.00     0.091 A 
ATOM     85  F   UNL A   1      40.509  30.337  33.565  1.00  0.00    -0.205 F 
ATOM     86  C   UNL A   1      39.044  33.684  33.278  1.00  0.00     0.022 A 
BRANCH  84  87
ATOM     87  S   UNL A   1      37.695  31.454  34.110  1.00  0.00     0.127 S 
ATOM     88  O   UNL A   1      36.679  32.079  33.269  1.00  0.00    -0.237 OA
ATOM     89  O   UNL A   1      38.013  30.068  33.768  1.00  0.00    -0.237 OA
ATOM     90  O   UNL A   1      37.596  31.711  35.539  1.00  0.00    -0.744 OA
ENDBRANCH  84  87
ENDBRANCH  56  80
BRANCH  68  91
ATOM     91  C   UNL A   1      45.519  26.330  32.944  1.00  0.00     0.023 A 
ATOM     92  C   UNL A   1      46.906  26.087  32.876  1.00  0.00     0.012 A 
ATOM     93  C   UNL A   1      44.747  25.435  33.725  1.00  0.00     0.148 A 
ATOM     94  C   UNL A   1      47.504  25.035  33.579  1.00  0.00     0.002 A 
ATOM     95  C   UNL A   1      45.330  24.329  34.336  1.00  0.00     0.091 A 
ATOM     96  F   UNL A   1      43.447  25.679  33.928  1.00  0.00    -0.205 F 
ATOM     97  C   UNL A   1      46.713  24.141  34.288  1.00  0.00     0.022 A 
BRANCH  95  98
ATOM     98  S   UNL A   1      44.347  23.023  35.089  1.00  0.00     0.127 S 
ATOM     99  O   UNL A   1      43.592  22.516  33.941  1.00  0.00    -0.237 OA
ATOM    100  O   UNL A   1      45.382  22.119  35.585  1.00  0.00    -0.237 OA
ATOM    101  O   UNL A   1      43.530  23.674  36.102  1.00  0.00    -0.744 OA
ENDBRANCH  95  98
ENDBRANCH  68  91
ENDBRANCH  42  43
ENDBRANCH  34  37
ENDBRANCH  32  33
ENDBRANCH  31  32
ENDBRANCH   1  31
TORSDOF 17
ENDMDL
