MODEL 1
REMARK VINA RESULT:     -11.2      0.000      0.000
REMARK SMILES CC(C)(C)OC(=O)N1CCC[C@](Cc2ccccc2)(C(=O)NCCCCCCNC(=O)c2ccc(-c3c4nc(c(-c5cccc(S(=O)(=O)[O-])c5F)c5ccc([nH]5)c(-c5cccc(S(=O)(=O)[O-])c5F)c5nc(c(-c6cccc(S(=O)(=O)[O-])c6F)c6ccc3[nH]6)C=C5)C=C4)cc2)C1
REMARK SMILES IDX 25 1 24 2 23 3 22 4 20 5 21 6 12 8 8 9 9 10 95 11 10 12
REMARK SMILES IDX 11 13 6 14 7 15 5 16 2 17 1 18 3 19 4 20 13 21 14 22 15 23
REMARK SMILES IDX 19 24 16 25 18 26 17 27 26 28 27 29 28 30 29 31 30 32 31 34
REMARK SMILES IDX 32 35 33 36 94 37 34 38 93 39 35 40 36 41 37 42 87 43 38 44
REMARK SMILES IDX 92 45 86 46 88 47 39 48 91 49 85 50 84 51 40 53 72 54 52 55
REMARK SMILES IDX 71 56 53 57 56 58 70 59 89 60 54 61 55 62 69 64 90 65 57 66
REMARK SMILES IDX 41 67 42 68 50 69 43 70 45 71 51 72 44 73 46 74 47 75 48 76
REMARK SMILES IDX 49 77 73 78 74 79 82 80 75 81 77 82 83 83 76 84 78 85 79 86
REMARK SMILES IDX 80 87 81 88 58 89 59 90 67 91 60 92 62 93 68 94 61 95 63 96
REMARK SMILES IDX 64 97 65 98 66 99
REMARK H PARENT 22 7 29 33 88 52 56 63
REMARK Flexibility Score: inf
ROOT
ATOM      1  C   UNL A   1      38.562  22.558  25.960  1.00  0.00     0.002 C 
ENDROOT
BRANCH   1   2
ATOM      2  C   UNL A   1      37.640  23.775  26.104  1.00  0.00     0.021 C 
BRANCH   2   3
ATOM      3  C   UNL A   1      36.352  23.686  25.283  1.00  0.00     0.116 C 
BRANCH   3   4
ATOM      4  N   UNL A   1      35.199  23.623  26.164  1.00  0.00    -0.356 N 
ATOM      5  C   UNL A   1      33.953  23.098  26.018  1.00  0.00     0.228 C 
ATOM      6  O   UNL A   1      33.114  23.502  26.829  1.00  0.00    -0.274 OA
ATOM      7  H   UNL A   1      35.349  24.043  27.042  1.00  0.00     0.163 HD
BRANCH   5   8
ATOM      8  C   UNL A   1      33.602  22.065  24.920  1.00  0.00     0.071 C 
ATOM      9  N   UNL A   1      33.087  23.814  23.169  1.00  0.00    -0.307 N 
ATOM     10  C   UNL A   1      31.656  23.567  23.220  1.00  0.00     0.123 C 
ATOM     11  C   UNL A   1      33.961  22.695  23.535  1.00  0.00     0.140 C 
ATOM     12  C   UNL A   1      31.242  23.000  24.568  1.00  0.00     0.023 C 
ATOM     13  C   UNL A   1      32.078  21.764  24.920  1.00  0.00     0.021 C 
BRANCH   9  14
ATOM     14  C   UNL A   1      33.557  25.052  22.769  1.00  0.00     0.410 C 
ATOM     15  O   UNL A   1      33.584  25.415  21.599  1.00  0.00    -0.224 OA
BRANCH  14  16
ATOM     16  O   UNL A   1      34.047  25.778  23.808  1.00  0.00    -0.444 OA
BRANCH  16  17
ATOM     17  C   UNL A   1      33.322  26.906  24.360  1.00  0.00     0.106 C 
ATOM     18  C   UNL A   1      33.899  28.135  23.640  1.00  0.00     0.056 C 
ATOM     19  C   UNL A   1      33.618  27.012  25.857  1.00  0.00     0.056 C 
ATOM     20  C   UNL A   1      31.811  26.867  24.085  1.00  0.00     0.056 C 
ENDBRANCH  16  17
ENDBRANCH  14  16
ENDBRANCH   9  14
BRANCH   8  21
ATOM     21  C   UNL A   1      34.505  20.813  25.139  1.00  0.00     0.054 C 
BRANCH  21  22
ATOM     22  C   UNL A   1      34.055  19.522  24.493  1.00  0.00    -0.047 A 
ATOM     23  C   UNL A   1      34.854  18.372  24.574  1.00  0.00     0.004 A 
ATOM     24  C   UNL A   1      32.839  19.451  23.800  1.00  0.00     0.004 A 
ATOM     25  C   UNL A   1      34.436  17.173  23.994  1.00  0.00     0.000 A 
ATOM     26  C   UNL A   1      32.417  18.249  23.230  1.00  0.00     0.000 A 
ATOM     27  C   UNL A   1      33.215  17.111  23.328  1.00  0.00     0.000 A 
ENDBRANCH  21  22
ENDBRANCH   8  21
ENDBRANCH   5   8
ENDBRANCH   3   4
ENDBRANCH   2   3
ENDBRANCH   1   2
BRANCH   1  28
ATOM     28  C   UNL A   1      37.984  21.397  25.144  1.00  0.00     0.002 C 
BRANCH  28  29
ATOM     29  C   UNL A   1      38.742  20.072  25.273  1.00  0.00     0.021 C 
BRANCH  29  30
ATOM     30  C   UNL A   1      39.737  20.015  26.427  1.00  0.00     0.116 C 
BRANCH  30  31
ATOM     31  N   UNL A   1      40.919  19.239  26.089  1.00  0.00    -0.352 N 
ATOM     32  C   UNL A   1      42.210  19.666  25.903  1.00  0.00     0.251 C 
ATOM     33  H   UNL A   1      40.773  18.271  25.978  1.00  0.00     0.163 HD
ATOM     34  O   UNL A   1      43.045  18.900  25.430  1.00  0.00    -0.269 OA
BRANCH  32  35
ATOM     35  C   UNL A   1      42.592  21.050  26.259  1.00  0.00     0.039 A 
ATOM     36  C   UNL A   1      42.719  21.392  27.608  1.00  0.00     0.014 A 
ATOM     37  C   UNL A   1      42.788  22.020  25.269  1.00  0.00     0.014 A 
ATOM     38  C   UNL A   1      43.074  22.696  27.964  1.00  0.00     0.010 A 
ATOM     39  C   UNL A   1      43.203  23.301  25.624  1.00  0.00     0.010 A 
ATOM     40  C   UNL A   1      43.329  23.658  26.975  1.00  0.00    -0.014 A 
BRANCH  40  41
ATOM     41  C   UNL A   1      43.691  25.054  27.331  1.00  0.00     0.031 A 
ATOM     42  C   UNL A   1      45.137  25.479  27.322  1.00  0.00     0.074 A 
ATOM     43  C   UNL A   1      42.737  25.915  27.738  1.00  0.00     0.049 A 
ATOM     44  N   UNL A   1      45.662  26.626  27.666  1.00  0.00    -0.248 NA
ATOM     45  C   UNL A   1      46.126  24.473  26.899  1.00  0.00     0.031 C 
ATOM     46  C   UNL A   1      41.312  25.601  27.864  1.00  0.00     0.029 A 
ATOM     47  N   UNL A   1      42.826  27.220  28.151  1.00  0.00    -0.354 N 
ATOM     48  C   UNL A   1      47.038  26.467  27.545  1.00  0.00     0.074 A 
ATOM     49  C   UNL A   1      47.270  25.103  27.122  1.00  0.00     0.031 C 
ATOM     50  C   UNL A   1      40.662  26.683  28.326  1.00  0.00     0.029 A 
ATOM     51  C   UNL A   1      41.624  27.759  28.548  1.00  0.00     0.049 A 
ATOM     52  H   UNL A   1      43.672  27.725  28.161  1.00  0.00     0.167 HD
ATOM     53  C   UNL A   1      48.018  27.380  27.739  1.00  0.00     0.034 A 
ATOM     54  C   UNL A   1      41.331  28.981  29.037  1.00  0.00     0.034 A 
ATOM     55  C   UNL A   1      47.780  28.754  28.091  1.00  0.00     0.049 A 
ATOM     56  C   UNL A   1      42.434  30.000  29.165  1.00  0.00     0.074 A 
ATOM     57  C   UNL A   1      48.698  29.780  28.219  1.00  0.00     0.029 A 
ATOM     58  N   UNL A   1      46.534  29.294  28.363  1.00  0.00    -0.354 N 
ATOM     59  N   UNL A   1      43.709  29.874  28.890  1.00  0.00    -0.248 NA
ATOM     60  C   UNL A   1      42.049  31.342  29.626  1.00  0.00     0.031 C 
ATOM     61  C   UNL A   1      48.007  30.943  28.576  1.00  0.00     0.029 A 
ATOM     62  C   UNL A   1      46.657  30.642  28.655  1.00  0.00     0.049 A 
ATOM     63  H   UNL A   1      45.686  28.794  28.351  1.00  0.00     0.167 HD
ATOM     64  C   UNL A   1      44.270  31.129  29.102  1.00  0.00     0.074 A 
ATOM     65  C   UNL A   1      43.192  32.005  29.509  1.00  0.00     0.031 C 
ATOM     66  C   UNL A   1      45.563  31.517  28.984  1.00  0.00     0.034 A 
BRANCH  53  67
ATOM     67  C   UNL A   1      49.442  26.946  27.509  1.00  0.00     0.023 A 
ATOM     68  C   UNL A   1      50.131  26.263  28.532  1.00  0.00     0.012 A 
ATOM     69  C   UNL A   1      50.070  27.144  26.264  1.00  0.00     0.148 A 
ATOM     70  C   UNL A   1      51.432  25.807  28.329  1.00  0.00     0.002 A 
ATOM     71  C   UNL A   1      51.353  26.650  26.055  1.00  0.00     0.091 A 
ATOM     72  F   UNL A   1      49.406  27.813  25.312  1.00  0.00    -0.205 F 
ATOM     73  C   UNL A   1      52.038  25.990  27.089  1.00  0.00     0.022 A 
BRANCH  71  74
ATOM     74  S   UNL A   1      52.192  26.763  24.471  1.00  0.00     0.127 S 
ATOM     75  O   UNL A   1      52.986  27.980  24.645  1.00  0.00    -0.237 OA
ATOM     76  O   UNL A   1      52.971  25.525  24.445  1.00  0.00    -0.237 OA
ATOM     77  O   UNL A   1      51.142  26.843  23.465  1.00  0.00    -0.744 OA
ENDBRANCH  71  74
ENDBRANCH  53  67
BRANCH  54  78
ATOM     78  C   UNL A   1      39.922  29.337  29.364  1.00  0.00     0.023 A 
ATOM     79  C   UNL A   1      39.018  29.606  28.318  1.00  0.00     0.012 A 
ATOM     80  C   UNL A   1      39.468  29.401  30.695  1.00  0.00     0.148 A 
ATOM     81  C   UNL A   1      37.699  29.969  28.592  1.00  0.00     0.002 A 
ATOM     82  C   UNL A   1      38.139  29.711  30.959  1.00  0.00     0.091 A 
ATOM     83  F   UNL A   1      40.345  29.159  31.680  1.00  0.00    -0.205 F 
ATOM     84  C   UNL A   1      37.257  30.012  29.910  1.00  0.00     0.022 A 
BRANCH  82  85
ATOM     85  S   UNL A   1      37.460  29.659  32.622  1.00  0.00     0.127 S 
ATOM     86  O   UNL A   1      38.355  30.561  33.340  1.00  0.00    -0.237 OA
ATOM     87  O   UNL A   1      36.103  30.169  32.419  1.00  0.00    -0.237 OA
ATOM     88  O   UNL A   1      37.514  28.257  33.015  1.00  0.00    -0.744 OA
ENDBRANCH  82  85
ENDBRANCH  54  78
BRANCH  66  89
ATOM     89  C   UNL A   1      45.889  32.963  29.246  1.00  0.00     0.023 A 
ATOM     90  C   UNL A   1      46.312  33.365  30.527  1.00  0.00     0.012 A 
ATOM     91  C   UNL A   1      45.857  33.905  28.199  1.00  0.00     0.148 A 
ATOM     92  C   UNL A   1      46.670  34.690  30.771  1.00  0.00     0.002 A 
ATOM     93  C   UNL A   1      46.260  35.214  28.438  1.00  0.00     0.091 A 
ATOM     94  F   UNL A   1      45.431  33.508  26.991  1.00  0.00    -0.205 F 
ATOM     95  C   UNL A   1      46.657  35.611  29.725  1.00  0.00     0.022 A 
BRANCH  93  96
ATOM     96  S   UNL A   1      46.364  36.435  27.125  1.00  0.00     0.127 S 
ATOM     97  O   UNL A   1      47.141  37.496  27.765  1.00  0.00    -0.237 OA
ATOM     98  O   UNL A   1      47.078  35.707  26.075  1.00  0.00    -0.237 OA
ATOM     99  O   UNL A   1      44.988  36.777  26.789  1.00  0.00    -0.744 OA
ENDBRANCH  93  96
ENDBRANCH  66  89
ENDBRANCH  40  41
ENDBRANCH  32  35
ENDBRANCH  30  31
ENDBRANCH  29  30
ENDBRANCH  28  29
ENDBRANCH   1  28
TORSDOF 21
ENDMDL
MODEL 2
REMARK VINA RESULT:     -11.1      1.681      3.881
REMARK SMILES CC(C)(C)OC(=O)N1CCC[C@](Cc2ccccc2)(C(=O)NCCCCCCNC(=O)c2ccc(-c3c4nc(c(-c5cccc(S(=O)(=O)[O-])c5F)c5ccc([nH]5)c(-c5cccc(S(=O)(=O)[O-])c5F)c5nc(c(-c6cccc(S(=O)(=O)[O-])c6F)c6ccc3[nH]6)C=C5)C=C4)cc2)C1
REMARK SMILES IDX 25 1 24 2 23 3 22 4 20 5 21 6 12 8 8 9 9 10 95 11 10 12
REMARK SMILES IDX 11 13 6 14 7 15 5 16 2 17 1 18 3 19 4 20 13 21 14 22 15 23
REMARK SMILES IDX 19 24 16 25 18 26 17 27 26 28 27 29 28 30 29 31 30 32 31 34
REMARK SMILES IDX 32 35 33 36 94 37 34 38 93 39 35 40 36 41 37 42 87 43 38 44
REMARK SMILES IDX 92 45 86 46 88 47 39 48 91 49 85 50 84 51 40 53 72 54 52 55
REMARK SMILES IDX 71 56 53 57 56 58 70 59 89 60 54 61 55 62 69 64 90 65 57 66
REMARK SMILES IDX 41 67 42 68 50 69 43 70 45 71 51 72 44 73 46 74 47 75 48 76
REMARK SMILES IDX 49 77 73 78 74 79 82 80 75 81 77 82 83 83 76 84 78 85 79 86
REMARK SMILES IDX 80 87 81 88 58 89 59 90 67 91 60 92 62 93 68 94 61 95 63 96
REMARK SMILES IDX 64 97 65 98 66 99
REMARK H PARENT 22 7 29 33 88 52 56 63
REMARK Flexibility Score: inf
ROOT
ATOM      1  C   UNL A   1      38.867  22.693  26.479  1.00  0.00     0.002 C 
ENDROOT
BRANCH   1   2
ATOM      2  C   UNL A   1      37.937  23.890  26.246  1.00  0.00     0.021 C 
BRANCH   2   3
ATOM      3  C   UNL A   1      36.457  23.522  26.125  1.00  0.00     0.116 C 
BRANCH   3   4
ATOM      4  N   UNL A   1      36.029  23.610  24.740  1.00  0.00    -0.356 N 
ATOM      5  C   UNL A   1      34.854  23.970  24.158  1.00  0.00     0.228 C 
ATOM      6  O   UNL A   1      34.723  23.621  22.980  1.00  0.00    -0.274 OA
ATOM      7  H   UNL A   1      36.729  23.362  24.094  1.00  0.00     0.163 HD
BRANCH   5   8
ATOM      8  C   UNL A   1      33.755  24.761  24.906  1.00  0.00     0.071 C 
ATOM      9  N   UNL A   1      32.547  22.693  25.715  1.00  0.00    -0.307 N 
ATOM     10  C   UNL A   1      31.429  22.886  24.807  1.00  0.00     0.123 C 
ATOM     11  C   UNL A   1      33.281  23.896  26.119  1.00  0.00     0.140 C 
ATOM     12  C   UNL A   1      31.847  23.681  23.580  1.00  0.00     0.023 C 
ATOM     13  C   UNL A   1      32.526  24.994  23.985  1.00  0.00     0.021 C 
BRANCH   9  14
ATOM     14  C   UNL A   1      32.853  21.422  26.167  1.00  0.00     0.410 C 
ATOM     15  O   UNL A   1      33.645  21.204  27.076  1.00  0.00    -0.224 OA
BRANCH  14  16
ATOM     16  O   UNL A   1      32.233  20.454  25.443  1.00  0.00    -0.444 OA
BRANCH  16  17
ATOM     17  C   UNL A   1      32.978  19.387  24.800  1.00  0.00     0.106 C 
ATOM     18  C   UNL A   1      32.369  19.276  23.393  1.00  0.00     0.056 C 
ATOM     19  C   UNL A   1      32.740  18.079  25.558  1.00  0.00     0.056 C 
ATOM     20  C   UNL A   1      34.476  19.684  24.641  1.00  0.00     0.056 C 
ENDBRANCH  16  17
ENDBRANCH  14  16
ENDBRANCH   9  14
BRANCH   8  21
ATOM     21  C   UNL A   1      34.402  26.067  25.458  1.00  0.00     0.054 C 
BRANCH  21  22
ATOM     22  C   UNL A   1      33.518  27.292  25.531  1.00  0.00    -0.047 A 
ATOM     23  C   UNL A   1      32.666  27.488  26.628  1.00  0.00     0.004 A 
ATOM     24  C   UNL A   1      33.528  28.248  24.506  1.00  0.00     0.004 A 
ATOM     25  C   UNL A   1      31.861  28.626  26.708  1.00  0.00     0.000 A 
ATOM     26  C   UNL A   1      32.731  29.390  24.593  1.00  0.00     0.000 A 
ATOM     27  C   UNL A   1      31.898  29.579  25.694  1.00  0.00     0.000 A 
ENDBRANCH  21  22
ENDBRANCH   8  21
ENDBRANCH   5   8
ENDBRANCH   3   4
ENDBRANCH   2   3
ENDBRANCH   1   2
BRANCH   1  28
ATOM     28  C   UNL A   1      38.908  21.672  25.337  1.00  0.00     0.002 C 
BRANCH  28  29
ATOM     29  C   UNL A   1      38.976  20.207  25.779  1.00  0.00     0.021 C 
BRANCH  29  30
ATOM     30  C   UNL A   1      40.063  19.898  26.805  1.00  0.00     0.116 C 
BRANCH  30  31
ATOM     31  N   UNL A   1      41.271  19.385  26.180  1.00  0.00    -0.352 N 
ATOM     32  C   UNL A   1      42.409  20.059  25.817  1.00  0.00     0.251 C 
ATOM     33  H   UNL A   1      41.273  18.418  25.993  1.00  0.00     0.163 HD
ATOM     34  O   UNL A   1      43.256  19.500  25.124  1.00  0.00    -0.269 OA
BRANCH  32  35
ATOM     35  C   UNL A   1      42.613  21.460  26.249  1.00  0.00     0.039 A 
ATOM     36  C   UNL A   1      42.614  22.472  25.286  1.00  0.00     0.014 A 
ATOM     37  C   UNL A   1      42.840  21.772  27.593  1.00  0.00     0.014 A 
ATOM     38  C   UNL A   1      42.811  23.800  25.673  1.00  0.00     0.010 A 
ATOM     39  C   UNL A   1      42.973  23.102  27.985  1.00  0.00     0.010 A 
ATOM     40  C   UNL A   1      42.981  24.127  27.027  1.00  0.00    -0.014 A 
BRANCH  40  41
ATOM     41  C   UNL A   1      43.207  25.530  27.460  1.00  0.00     0.031 A 
ATOM     42  C   UNL A   1      44.604  26.095  27.472  1.00  0.00     0.074 A 
ATOM     43  C   UNL A   1      42.176  26.268  27.919  1.00  0.00     0.049 A 
ATOM     44  N   UNL A   1      45.016  27.267  27.880  1.00  0.00    -0.248 NA
ATOM     45  C   UNL A   1      45.684  25.217  26.990  1.00  0.00     0.031 C 
ATOM     46  C   UNL A   1      40.790  25.808  28.029  1.00  0.00     0.029 A 
ATOM     47  N   UNL A   1      42.141  27.550  28.404  1.00  0.00    -0.354 N 
ATOM     48  C   UNL A   1      46.400  27.251  27.747  1.00  0.00     0.074 A 
ATOM     49  C   UNL A   1      46.762  25.943  27.246  1.00  0.00     0.031 C 
ATOM     50  C   UNL A   1      40.041  26.793  28.554  1.00  0.00     0.029 A 
ATOM     51  C   UNL A   1      40.894  27.945  28.835  1.00  0.00     0.049 A 
ATOM     52  H   UNL A   1      42.932  28.135  28.441  1.00  0.00     0.167 HD
ATOM     53  C   UNL A   1      47.288  28.244  27.990  1.00  0.00     0.034 A 
ATOM     54  C   UNL A   1      40.487  29.102  29.393  1.00  0.00     0.034 A 
ATOM     55  C   UNL A   1      46.919  29.566  28.420  1.00  0.00     0.049 A 
ATOM     56  C   UNL A   1      41.485  30.216  29.575  1.00  0.00     0.074 A 
ATOM     57  C   UNL A   1      47.733  30.669  28.604  1.00  0.00     0.029 A 
ATOM     58  N   UNL A   1      45.628  29.964  28.725  1.00  0.00    -0.354 N 
ATOM     59  N   UNL A   1      42.764  30.233  29.291  1.00  0.00    -0.248 NA
ATOM     60  C   UNL A   1      40.974  31.486  30.113  1.00  0.00     0.031 C 
ATOM     61  C   UNL A   1      46.933  31.736  29.028  1.00  0.00     0.029 A 
ATOM     62  C   UNL A   1      45.620  31.299  29.092  1.00  0.00     0.049 A 
ATOM     63  H   UNL A   1      44.833  29.385  28.687  1.00  0.00     0.167 HD
ATOM     64  C   UNL A   1      43.200  31.522  29.572  1.00  0.00     0.074 A 
ATOM     65  C   UNL A   1      42.045  32.264  30.031  1.00  0.00     0.031 C 
ATOM     66  C   UNL A   1      44.448  32.042  29.474  1.00  0.00     0.034 A 
BRANCH  53  67
ATOM     67  C   UNL A   1      48.746  27.967  27.732  1.00  0.00     0.023 A 
ATOM     68  C   UNL A   1      49.566  27.536  28.794  1.00  0.00     0.012 A 
ATOM     69  C   UNL A   1      49.284  28.056  26.434  1.00  0.00     0.148 A 
ATOM     70  C   UNL A   1      50.907  27.226  28.574  1.00  0.00     0.002 A 
ATOM     71  C   UNL A   1      50.611  27.703  26.215  1.00  0.00     0.091 A 
ATOM     72  F   UNL A   1      48.493  28.485  25.441  1.00  0.00    -0.205 F 
ATOM     73  C   UNL A   1      51.426  27.297  27.285  1.00  0.00     0.022 A 
BRANCH  71  74
ATOM     74  S   UNL A   1      51.354  27.687  24.579  1.00  0.00     0.127 S 
ATOM     75  O   UNL A   1      51.396  29.114  24.260  1.00  0.00    -0.237 OA
ATOM     76  O   UNL A   1      52.661  27.081  24.841  1.00  0.00    -0.237 OA
ATOM     77  O   UNL A   1      50.470  26.887  23.743  1.00  0.00    -0.744 OA
ENDBRANCH  71  74
ENDBRANCH  53  67
BRANCH  54  78
ATOM     78  C   UNL A   1      39.052  29.300  29.743  1.00  0.00     0.023 A 
ATOM     79  C   UNL A   1      38.609  28.978  31.041  1.00  0.00     0.012 A 
ATOM     80  C   UNL A   1      38.129  29.812  28.811  1.00  0.00     0.148 A 
ATOM     81  C   UNL A   1      37.267  29.126  31.393  1.00  0.00     0.002 A 
ATOM     82  C   UNL A   1      36.804  30.006  29.185  1.00  0.00     0.091 A 
ATOM     83  F   UNL A   1      38.563  30.097  27.575  1.00  0.00    -0.205 F 
ATOM     84  C   UNL A   1      36.367  29.648  30.469  1.00  0.00     0.022 A 
BRANCH  82  85
ATOM     85  S   UNL A   1      35.614  30.797  28.095  1.00  0.00     0.127 S 
ATOM     86  O   UNL A   1      34.464  30.965  28.978  1.00  0.00    -0.237 OA
ATOM     87  O   UNL A   1      36.302  32.038  27.735  1.00  0.00    -0.237 OA
ATOM     88  O   UNL A   1      35.438  29.872  26.983  1.00  0.00    -0.744 OA
ENDBRANCH  82  85
ENDBRANCH  54  78
BRANCH  66  89
ATOM     89  C   UNL A   1      44.632  33.496  29.816  1.00  0.00     0.023 A 
ATOM     90  C   UNL A   1      44.976  33.869  31.130  1.00  0.00     0.012 A 
ATOM     91  C   UNL A   1      44.548  34.484  28.815  1.00  0.00     0.148 A 
ATOM     92  C   UNL A   1      45.204  35.206  31.451  1.00  0.00     0.002 A 
ATOM     93  C   UNL A   1      44.823  35.810  29.131  1.00  0.00     0.091 A 
ATOM     94  F   UNL A   1      44.199  34.113  27.575  1.00  0.00    -0.205 F 
ATOM     95  C   UNL A   1      45.140  36.174  30.450  1.00  0.00     0.022 A 
BRANCH  93  96
ATOM     96  S   UNL A   1      44.858  37.101  27.884  1.00  0.00     0.127 S 
ATOM     97  O   UNL A   1      45.207  38.276  28.680  1.00  0.00    -0.237 OA
ATOM     98  O   UNL A   1      45.915  36.639  26.983  1.00  0.00    -0.237 OA
ATOM     99  O   UNL A   1      43.527  37.116  27.289  1.00  0.00    -0.744 OA
ENDBRANCH  93  96
ENDBRANCH  66  89
ENDBRANCH  40  41
ENDBRANCH  32  35
ENDBRANCH  30  31
ENDBRANCH  29  30
ENDBRANCH  28  29
ENDBRANCH   1  28
TORSDOF 21
ENDMDL
MODEL 3
REMARK VINA RESULT:     -10.8      1.184      7.612
REMARK SMILES CC(C)(C)OC(=O)N1CCC[C@](Cc2ccccc2)(C(=O)NCCCCCCNC(=O)c2ccc(-c3c4nc(c(-c5cccc(S(=O)(=O)[O-])c5F)c5ccc([nH]5)c(-c5cccc(S(=O)(=O)[O-])c5F)c5nc(c(-c6cccc(S(=O)(=O)[O-])c6F)c6ccc3[nH]6)C=C5)C=C4)cc2)C1
REMARK SMILES IDX 25 1 24 2 23 3 22 4 20 5 21 6 12 8 8 9 9 10 95 11 10 12
REMARK SMILES IDX 11 13 6 14 7 15 5 16 2 17 1 18 3 19 4 20 13 21 14 22 15 23
REMARK SMILES IDX 19 24 16 25 18 26 17 27 26 28 27 29 28 30 29 31 30 32 31 34
REMARK SMILES IDX 32 35 33 36 94 37 34 38 93 39 35 40 36 41 37 42 87 43 38 44
REMARK SMILES IDX 92 45 86 46 88 47 39 48 91 49 85 50 84 51 40 53 72 54 52 55
REMARK SMILES IDX 71 56 53 57 56 58 70 59 89 60 54 61 55 62 69 64 90 65 57 66
REMARK SMILES IDX 41 67 42 68 50 69 43 70 45 71 51 72 44 73 46 74 47 75 48 76
REMARK SMILES IDX 49 77 73 78 74 79 82 80 75 81 77 82 83 83 76 84 78 85 79 86
REMARK SMILES IDX 80 87 81 88 58 89 59 90 67 91 60 92 62 93 68 94 61 95 63 96
REMARK SMILES IDX 64 97 65 98 66 99
REMARK H PARENT 22 7 29 33 88 52 56 63
REMARK Flexibility Score: inf
ROOT
ATOM      1  C   UNL A   1      37.359  22.187  25.423  1.00  0.00     0.002 C 
ENDROOT
BRANCH   1   2
ATOM      2  C   UNL A   1      36.927  23.330  24.497  1.00  0.00     0.021 C 
BRANCH   2   3
ATOM      3  C   UNL A   1      35.846  24.241  25.086  1.00  0.00     0.116 C 
BRANCH   3   4
ATOM      4  N   UNL A   1      35.091  23.531  26.103  1.00  0.00    -0.356 N 
ATOM      5  C   UNL A   1      33.824  23.040  26.138  1.00  0.00     0.228 C 
ATOM      6  O   UNL A   1      33.390  22.785  27.266  1.00  0.00    -0.274 OA
ATOM      7  H   UNL A   1      35.598  23.373  26.933  1.00  0.00     0.163 HD
BRANCH   5   8
ATOM      8  C   UNL A   1      32.978  22.810  24.862  1.00  0.00     0.071 C 
ATOM      9  N   UNL A   1      32.298  25.234  24.644  1.00  0.00    -0.307 N 
ATOM     10  C   UNL A   1      30.927  24.976  25.049  1.00  0.00     0.123 C 
ATOM     11  C   UNL A   1      33.019  24.124  24.015  1.00  0.00     0.140 C 
ATOM     12  C   UNL A   1      30.835  23.734  25.921  1.00  0.00     0.023 C 
ATOM     13  C   UNL A   1      31.495  22.534  25.232  1.00  0.00     0.021 C 
BRANCH   9  14
ATOM     14  C   UNL A   1      32.847  26.489  24.841  1.00  0.00     0.410 C 
ATOM     15  O   UNL A   1      33.466  27.096  23.974  1.00  0.00    -0.224 OA
BRANCH  14  16
ATOM     16  O   UNL A   1      32.684  26.929  26.116  1.00  0.00    -0.444 OA
BRANCH  16  17
ATOM     17  C   UNL A   1      32.334  28.306  26.409  1.00  0.00     0.106 C 
ATOM     18  C   UNL A   1      31.509  28.235  27.704  1.00  0.00     0.056 C 
ATOM     19  C   UNL A   1      31.458  28.855  25.281  1.00  0.00     0.056 C 
ATOM     20  C   UNL A   1      33.546  29.212  26.674  1.00  0.00     0.056 C 
ENDBRANCH  16  17
ENDBRANCH  14  16
ENDBRANCH   9  14
BRANCH   8  21
ATOM     21  C   UNL A   1      33.659  21.674  24.040  1.00  0.00     0.054 C 
BRANCH  21  22
ATOM     22  C   UNL A   1      33.164  20.265  24.277  1.00  0.00    -0.047 A 
ATOM     23  C   UNL A   1      33.326  19.659  25.532  1.00  0.00     0.004 A 
ATOM     24  C   UNL A   1      32.544  19.539  23.253  1.00  0.00     0.004 A 
ATOM     25  C   UNL A   1      32.856  18.364  25.762  1.00  0.00     0.000 A 
ATOM     26  C   UNL A   1      32.065  18.249  23.487  1.00  0.00     0.000 A 
ATOM     27  C   UNL A   1      32.221  17.663  24.741  1.00  0.00     0.000 A 
ENDBRANCH  21  22
ENDBRANCH   8  21
ENDBRANCH   5   8
ENDBRANCH   3   4
ENDBRANCH   2   3
ENDBRANCH   1   2
BRANCH   1  28
ATOM     28  C   UNL A   1      38.763  22.330  26.019  1.00  0.00     0.002 C 
BRANCH  28  29
ATOM     29  C   UNL A   1      39.385  21.028  26.535  1.00  0.00     0.021 C 
BRANCH  29  30
ATOM     30  C   UNL A   1      39.631  19.969  25.466  1.00  0.00     0.116 C 
BRANCH  30  31
ATOM     31  N   UNL A   1      40.637  19.004  25.877  1.00  0.00    -0.352 N 
ATOM     32  C   UNL A   1      41.938  19.220  26.257  1.00  0.00     0.251 C 
ATOM     33  H   UNL A   1      40.344  18.064  25.885  1.00  0.00     0.163 HD
ATOM     34  O   UNL A   1      42.703  18.268  26.386  1.00  0.00    -0.269 OA
BRANCH  32  35
ATOM     35  C   UNL A   1      42.422  20.597  26.499  1.00  0.00     0.039 A 
ATOM     36  C   UNL A   1      42.501  21.066  27.813  1.00  0.00     0.014 A 
ATOM     37  C   UNL A   1      42.761  21.438  25.434  1.00  0.00     0.014 A 
ATOM     38  C   UNL A   1      42.949  22.366  28.062  1.00  0.00     0.010 A 
ATOM     39  C   UNL A   1      43.268  22.711  25.687  1.00  0.00     0.010 A 
ATOM     40  C   UNL A   1      43.347  23.195  27.002  1.00  0.00    -0.014 A 
BRANCH  40  41
ATOM     41  C   UNL A   1      43.812  24.585  27.241  1.00  0.00     0.031 A 
ATOM     42  C   UNL A   1      42.846  25.621  27.756  1.00  0.00     0.074 A 
ATOM     43  C   UNL A   1      45.074  24.937  26.922  1.00  0.00     0.049 A 
ATOM     44  N   UNL A   1      43.039  26.898  27.962  1.00  0.00    -0.248 NA
ATOM     45  C   UNL A   1      41.475  25.169  28.048  1.00  0.00     0.031 C 
ATOM     46  C   UNL A   1      46.081  24.045  26.344  1.00  0.00     0.029 A 
ATOM     47  N   UNL A   1      45.714  26.147  27.010  1.00  0.00    -0.354 N 
ATOM     48  C   UNL A   1      41.809  27.408  28.363  1.00  0.00     0.074 A 
ATOM     49  C   UNL A   1      40.869  26.309  28.346  1.00  0.00     0.031 C 
ATOM     50  C   UNL A   1      47.211  24.739  26.126  1.00  0.00     0.029 A 
ATOM     51  C   UNL A   1      47.004  26.128  26.530  1.00  0.00     0.049 A 
ATOM     52  H   UNL A   1      45.291  26.955  27.384  1.00  0.00     0.167 HD
ATOM     53  C   UNL A   1      41.497  28.670  28.742  1.00  0.00     0.034 A 
ATOM     54  C   UNL A   1      47.914  27.116  26.425  1.00  0.00     0.034 A 
ATOM     55  C   UNL A   1      42.449  29.744  28.826  1.00  0.00     0.049 A 
ATOM     56  C   UNL A   1      47.560  28.491  26.929  1.00  0.00     0.074 A 
ATOM     57  C   UNL A   1      42.252  31.033  29.286  1.00  0.00     0.029 A 
ATOM     58  N   UNL A   1      43.778  29.651  28.448  1.00  0.00    -0.354 N 
ATOM     59  N   UNL A   1      46.436  28.913  27.456  1.00  0.00    -0.248 NA
ATOM     60  C   UNL A   1      48.614  29.514  26.867  1.00  0.00     0.031 C 
ATOM     61  C   UNL A   1      43.464  31.724  29.181  1.00  0.00     0.029 A 
ATOM     62  C   UNL A   1      44.417  30.859  28.669  1.00  0.00     0.049 A 
ATOM     63  H   UNL A   1      44.206  28.846  28.077  1.00  0.00     0.167 HD
ATOM     64  C   UNL A   1      46.662  30.233  27.828  1.00  0.00     0.074 A 
ATOM     65  C   UNL A   1      48.035  30.537  27.483  1.00  0.00     0.031 C 
ATOM     66  C   UNL A   1      45.805  31.120  28.390  1.00  0.00     0.034 A 
BRANCH  53  67
ATOM     67  C   UNL A   1      40.078  28.949  29.162  1.00  0.00     0.023 A 
ATOM     68  C   UNL A   1      39.079  29.085  28.177  1.00  0.00     0.012 A 
ATOM     69  C   UNL A   1      39.719  29.001  30.523  1.00  0.00     0.148 A 
ATOM     70  C   UNL A   1      37.749  29.296  28.538  1.00  0.00     0.002 A 
ATOM     71  C   UNL A   1      38.385  29.169  30.876  1.00  0.00     0.091 A 
ATOM     72  F   UNL A   1      40.686  28.889  31.444  1.00  0.00    -0.205 F 
ATOM     73  C   UNL A   1      37.401  29.326  29.886  1.00  0.00     0.022 A 
BRANCH  71  74
ATOM     74  S   UNL A   1      37.821  29.144  32.581  1.00  0.00     0.127 S 
ATOM     75  O   UNL A   1      36.506  29.775  32.466  1.00  0.00    -0.237 OA
ATOM     76  O   UNL A   1      37.786  27.710  32.873  1.00  0.00    -0.237 OA
ATOM     77  O   UNL A   1      38.808  29.896  33.343  1.00  0.00    -0.744 OA
ENDBRANCH  71  74
ENDBRANCH  53  67
BRANCH  54  78
ATOM     78  C   UNL A   1      49.276  26.826  25.894  1.00  0.00     0.023 A 
ATOM     79  C   UNL A   1      50.211  26.170  26.717  1.00  0.00     0.012 A 
ATOM     80  C   UNL A   1      49.648  27.182  24.584  1.00  0.00     0.148 A 
ATOM     81  C   UNL A   1      51.503  25.907  26.260  1.00  0.00     0.002 A 
ATOM     82  C   UNL A   1      50.919  26.871  24.116  1.00  0.00     0.091 A 
ATOM     83  F   UNL A   1      48.751  27.822  23.818  1.00  0.00    -0.205 F 
ATOM     84  C   UNL A   1      51.854  26.249  24.958  1.00  0.00     0.022 A 
BRANCH  82  85
ATOM     85  S   UNL A   1      51.404  27.159  22.410  1.00  0.00     0.127 S 
ATOM     86  O   UNL A   1      50.277  26.589  21.677  1.00  0.00    -0.237 OA
ATOM     87  O   UNL A   1      51.498  28.619  22.358  1.00  0.00    -0.237 OA
ATOM     88  O   UNL A   1      52.681  26.476  22.252  1.00  0.00    -0.744 OA
ENDBRANCH  82  85
ENDBRANCH  54  78
BRANCH  66  89
ATOM     89  C   UNL A   1      46.331  32.491  28.723  1.00  0.00     0.023 A 
ATOM     90  C   UNL A   1      46.823  32.758  30.015  1.00  0.00     0.012 A 
ATOM     91  C   UNL A   1      46.417  33.486  27.729  1.00  0.00     0.148 A 
ATOM     92  C   UNL A   1      47.365  34.005  30.323  1.00  0.00     0.002 A 
ATOM     93  C   UNL A   1      47.001  34.711  28.030  1.00  0.00     0.091 A 
ATOM     94  F   UNL A   1      45.924  33.220  26.511  1.00  0.00    -0.205 F 
ATOM     95  C   UNL A   1      47.465  34.976  29.328  1.00  0.00     0.022 A 
BRANCH  93  96
ATOM     96  S   UNL A   1      47.257  35.978  26.783  1.00  0.00     0.127 S 
ATOM     97  O   UNL A   1      47.286  37.194  27.594  1.00  0.00    -0.237 OA
ATOM     98  O   UNL A   1      48.548  35.598  26.209  1.00  0.00    -0.237 OA
ATOM     99  O   UNL A   1      46.134  35.863  25.862  1.00  0.00    -0.744 OA
ENDBRANCH  93  96
ENDBRANCH  66  89
ENDBRANCH  40  41
ENDBRANCH  32  35
ENDBRANCH  30  31
ENDBRANCH  29  30
ENDBRANCH  28  29
ENDBRANCH   1  28
TORSDOF 21
ENDMDL
