MODEL 1
REMARK VINA RESULT:     -11.7      0.000      0.000
REMARK SMILES Cc1ccc(-n2cnnn2)cc1OCC(=O)NCCCCCCNC(=O)c1ccc(-c2c3nc(c(-c4cccc(S(=O)(=O)[O-])c4F)c4ccc([nH]4)c(-c4cccc(S(=O)(=O)[O-])c4F)c4nc(c(-c5cccc(S(=O)(=O)[O-])c5F)c5ccc2[nH]5)C=C4)C=C3)cc1
REMARK SMILES IDX 20 1 19 2 18 3 17 4 15 5 16 6 14 8 13 9 12 10 1 11 2 12 3 13
REMARK SMILES IDX 4 14 11 15 5 16 6 17 7 18 10 19 8 20 9 21 21 22 22 23 23 24
REMARK SMILES IDX 24 25 25 26 26 28 27 29 28 30 89 31 29 32 88 33 30 34 31 35
REMARK SMILES IDX 32 36 82 37 33 38 87 39 81 40 83 41 34 42 86 43 80 44 79 45
REMARK SMILES IDX 35 47 67 48 47 49 66 50 48 51 51 52 65 53 84 54 49 55 50 56
REMARK SMILES IDX 64 58 85 59 52 60 36 61 37 62 45 63 38 64 40 65 46 66 39 67
REMARK SMILES IDX 41 68 42 69 43 70 44 71 68 72 69 73 77 74 70 75 72 76 78 77
REMARK SMILES IDX 71 78 73 79 74 80 75 81 76 82 53 83 54 84 62 85 55 86 57 87
REMARK SMILES IDX 63 88 56 89 58 90 59 91 60 92 61 93
REMARK H PARENT 17 7 24 27 83 46 51 57
REMARK Flexibility Score: inf
ROOT
ATOM      1  C   UNL A   1      36.047  22.722  23.544  1.00  0.00     0.002 C 
ENDROOT
BRANCH   1   2
ATOM      2  C   UNL A   1      35.006  23.838  23.698  1.00  0.00     0.021 C 
BRANCH   2   3
ATOM      3  C   UNL A   1      35.064  24.631  24.994  1.00  0.00     0.116 C 
BRANCH   3   4
ATOM      4  N   UNL A   1      33.883  25.430  25.214  1.00  0.00    -0.353 N 
ATOM      5  C   UNL A   1      32.860  25.168  26.072  1.00  0.00     0.257 C 
ATOM      6  O   UNL A   1      32.069  26.075  26.344  1.00  0.00    -0.271 OA
ATOM      7  H   UNL A   1      33.809  26.256  24.683  1.00  0.00     0.163 HD
BRANCH   5   8
ATOM      8  C   UNL A   1      32.761  23.784  26.731  1.00  0.00     0.329 C 
BRANCH   8   9
ATOM      9  O   UNL A   1      31.829  22.819  26.291  1.00  0.00    -0.483 OA
BRANCH   9  10
ATOM     10  C   UNL A   1      31.962  22.103  25.138  1.00  0.00     0.125 A 
ATOM     11  C   UNL A   1      30.941  23.685  23.346  1.00  0.00     0.048 C 
ATOM     12  C   UNL A   1      31.642  22.445  23.818  1.00  0.00    -0.009 A 
ATOM     13  C   UNL A   1      31.997  21.549  22.784  1.00  0.00     0.009 A 
ATOM     14  C   UNL A   1      32.562  20.304  23.046  1.00  0.00     0.029 A 
ATOM     15  C   UNL A   1      32.478  20.813  25.400  1.00  0.00     0.075 A 
ATOM     16  C   UNL A   1      32.754  19.908  24.366  1.00  0.00     0.072 A 
BRANCH  16  17
ATOM     17  N   UNL A   1      33.182  18.589  24.630  1.00  0.00    -0.200 N 
ATOM     18  C   UNL A   1      32.448  17.504  25.034  1.00  0.00     0.252 A 
ATOM     19  N   UNL A   1      34.446  18.172  24.393  1.00  0.00    -0.040 NA
ATOM     20  N   UNL A   1      33.228  16.450  25.089  1.00  0.00    -0.117 NA
ATOM     21  N   UNL A   1      34.471  16.887  24.716  1.00  0.00    -0.024 NA
ENDBRANCH  16  17
ENDBRANCH   9  10
ENDBRANCH   8   9
ENDBRANCH   5   8
ENDBRANCH   3   4
ENDBRANCH   2   3
ENDBRANCH   1   2
BRANCH   1  22
ATOM     22  C   UNL A   1      36.059  21.573  24.576  1.00  0.00     0.002 C 
BRANCH  22  23
ATOM     23  C   UNL A   1      36.957  21.685  25.821  1.00  0.00     0.021 C 
BRANCH  23  24
ATOM     24  C   UNL A   1      38.349  22.178  25.519  1.00  0.00     0.116 C 
BRANCH  24  25
ATOM     25  N   UNL A   1      39.251  22.052  26.646  1.00  0.00    -0.352 N 
ATOM     26  C   UNL A   1      40.254  22.934  26.986  1.00  0.00     0.251 C 
ATOM     27  H   UNL A   1      39.137  21.261  27.222  1.00  0.00     0.163 HD
ATOM     28  O   UNL A   1      41.364  22.458  27.259  1.00  0.00    -0.269 OA
BRANCH  26  29
ATOM     29  C   UNL A   1      39.967  24.379  27.139  1.00  0.00     0.039 A 
ATOM     30  C   UNL A   1      40.580  25.312  26.292  1.00  0.00     0.014 A 
ATOM     31  C   UNL A   1      39.287  24.844  28.257  1.00  0.00     0.014 A 
ATOM     32  C   UNL A   1      40.741  26.625  26.729  1.00  0.00     0.010 A 
ATOM     33  C   UNL A   1      39.270  26.154  28.589  1.00  0.00     0.010 A 
ATOM     34  C   UNL A   1      40.175  26.972  27.945  1.00  0.00    -0.014 A 
BRANCH  34  35
ATOM     35  C   UNL A   1      40.453  28.123  28.764  1.00  0.00     0.031 A 
ATOM     36  C   UNL A   1      39.514  29.235  28.692  1.00  0.00     0.074 A 
ATOM     37  C   UNL A   1      41.271  27.876  29.818  1.00  0.00     0.049 A 
ATOM     38  N   UNL A   1      39.723  30.379  29.225  1.00  0.00    -0.248 NA
ATOM     39  C   UNL A   1      38.233  29.127  27.997  1.00  0.00     0.031 C 
ATOM     40  C   UNL A   1      41.275  28.476  31.144  1.00  0.00     0.029 A 
ATOM     41  N   UNL A   1      42.282  26.934  29.921  1.00  0.00    -0.354 N 
ATOM     42  C   UNL A   1      38.513  31.035  29.227  1.00  0.00     0.074 A 
ATOM     43  C   UNL A   1      37.656  30.278  28.346  1.00  0.00     0.031 C 
ATOM     44  C   UNL A   1      42.386  28.085  31.802  1.00  0.00     0.029 A 
ATOM     45  C   UNL A   1      43.219  27.349  30.861  1.00  0.00     0.049 A 
ATOM     46  H   UNL A   1      42.330  26.096  29.407  1.00  0.00     0.167 HD
ATOM     47  C   UNL A   1      38.322  32.027  30.139  1.00  0.00     0.034 A 
ATOM     48  C   UNL A   1      44.455  27.758  30.425  1.00  0.00     0.034 A 
ATOM     49  C   UNL A   1      39.526  32.164  30.982  1.00  0.00     0.049 A 
ATOM     50  C   UNL A   1      44.606  29.275  30.480  1.00  0.00     0.074 A 
ATOM     51  C   UNL A   1      39.861  31.632  32.219  1.00  0.00     0.029 A 
ATOM     52  N   UNL A   1      40.723  32.571  30.402  1.00  0.00    -0.354 N 
ATOM     53  N   UNL A   1      43.638  30.097  30.786  1.00  0.00    -0.248 NA
ATOM     54  C   UNL A   1      45.856  29.985  30.224  1.00  0.00     0.031 C 
ATOM     55  C   UNL A   1      41.282  31.628  32.325  1.00  0.00     0.029 A 
ATOM     56  C   UNL A   1      41.814  32.175  31.169  1.00  0.00     0.049 A 
ATOM     57  H   UNL A   1      40.789  33.075  29.558  1.00  0.00     0.167 HD
ATOM     58  C   UNL A   1      44.045  31.392  30.644  1.00  0.00     0.074 A 
ATOM     59  C   UNL A   1      45.470  31.266  30.373  1.00  0.00     0.031 C 
ATOM     60  C   UNL A   1      43.175  32.449  30.706  1.00  0.00     0.034 A 
BRANCH  47  61
ATOM     61  C   UNL A   1      36.969  32.607  30.491  1.00  0.00     0.023 A 
ATOM     62  C   UNL A   1      36.467  32.321  31.779  1.00  0.00     0.012 A 
ATOM     63  C   UNL A   1      36.138  33.399  29.659  1.00  0.00     0.148 A 
ATOM     64  C   UNL A   1      35.197  32.723  32.199  1.00  0.00     0.002 A 
ATOM     65  C   UNL A   1      34.843  33.753  30.056  1.00  0.00     0.091 A 
ATOM     66  F   UNL A   1      36.617  33.882  28.508  1.00  0.00    -0.205 F 
ATOM     67  C   UNL A   1      34.372  33.416  31.328  1.00  0.00     0.022 A 
BRANCH  65  68
ATOM     68  S   UNL A   1      33.680  34.600  28.968  1.00  0.00     0.127 S 
ATOM     69  O   UNL A   1      33.335  33.549  28.005  1.00  0.00    -0.237 OA
ATOM     70  O   UNL A   1      32.598  34.958  29.882  1.00  0.00    -0.237 OA
ATOM     71  O   UNL A   1      34.411  35.718  28.386  1.00  0.00    -0.744 OA
ENDBRANCH  65  68
ENDBRANCH  47  61
BRANCH  48  72
ATOM     72  C   UNL A   1      44.973  26.850  29.342  1.00  0.00     0.023 A 
ATOM     73  C   UNL A   1      45.055  25.474  29.680  1.00  0.00     0.012 A 
ATOM     74  C   UNL A   1      44.876  27.202  27.984  1.00  0.00     0.148 A 
ATOM     75  C   UNL A   1      44.808  24.486  28.724  1.00  0.00     0.002 A 
ATOM     76  C   UNL A   1      44.648  26.207  27.031  1.00  0.00     0.091 A 
ATOM     77  F   UNL A   1      44.940  28.497  27.646  1.00  0.00    -0.205 F 
ATOM     78  C   UNL A   1      44.548  24.857  27.409  1.00  0.00     0.022 A 
BRANCH  76  79
ATOM     79  S   UNL A   1      44.359  26.623  25.305  1.00  0.00     0.127 S 
ATOM     80  O   UNL A   1      43.609  25.458  24.843  1.00  0.00    -0.237 OA
ATOM     81  O   UNL A   1      43.570  27.851  25.390  1.00  0.00    -0.237 OA
ATOM     82  O   UNL A   1      45.685  26.804  24.734  1.00  0.00    -0.744 OA
ENDBRANCH  76  79
ENDBRANCH  48  72
BRANCH  60  83
ATOM     83  C   UNL A   1      43.534  33.869  30.321  1.00  0.00     0.023 A 
ATOM     84  C   UNL A   1      43.908  34.832  31.275  1.00  0.00     0.012 A 
ATOM     85  C   UNL A   1      43.659  34.237  28.955  1.00  0.00     0.148 A 
ATOM     86  C   UNL A   1      44.297  36.123  30.905  1.00  0.00     0.002 A 
ATOM     87  C   UNL A   1      44.184  35.471  28.593  1.00  0.00     0.091 A 
ATOM     88  F   UNL A   1      43.251  33.396  27.994  1.00  0.00    -0.205 F 
ATOM     89  C   UNL A   1      44.459  36.435  29.563  1.00  0.00     0.022 A 
BRANCH  87  90
ATOM     90  S   UNL A   1      44.689  35.802  26.900  1.00  0.00     0.127 S 
ATOM     91  O   UNL A   1      43.410  35.792  26.195  1.00  0.00    -0.237 OA
ATOM     92  O   UNL A   1      45.314  37.121  27.014  1.00  0.00    -0.237 OA
ATOM     93  O   UNL A   1      45.617  34.731  26.561  1.00  0.00    -0.744 OA
ENDBRANCH  87  90
ENDBRANCH  60  83
ENDBRANCH  34  35
ENDBRANCH  26  29
ENDBRANCH  24  25
ENDBRANCH  23  24
ENDBRANCH  22  23
ENDBRANCH   1  22
TORSDOF 19
ENDMDL
MODEL 2
REMARK VINA RESULT:     -11.5      1.606      2.942
REMARK SMILES Cc1ccc(-n2cnnn2)cc1OCC(=O)NCCCCCCNC(=O)c1ccc(-c2c3nc(c(-c4cccc(S(=O)(=O)[O-])c4F)c4ccc([nH]4)c(-c4cccc(S(=O)(=O)[O-])c4F)c4nc(c(-c5cccc(S(=O)(=O)[O-])c5F)c5ccc2[nH]5)C=C4)C=C3)cc1
REMARK SMILES IDX 20 1 19 2 18 3 17 4 15 5 16 6 14 8 13 9 12 10 1 11 2 12 3 13
REMARK SMILES IDX 4 14 11 15 5 16 6 17 7 18 10 19 8 20 9 21 21 22 22 23 23 24
REMARK SMILES IDX 24 25 25 26 26 28 27 29 28 30 89 31 29 32 88 33 30 34 31 35
REMARK SMILES IDX 32 36 82 37 33 38 87 39 81 40 83 41 34 42 86 43 80 44 79 45
REMARK SMILES IDX 35 47 67 48 47 49 66 50 48 51 51 52 65 53 84 54 49 55 50 56
REMARK SMILES IDX 64 58 85 59 52 60 36 61 37 62 45 63 38 64 40 65 46 66 39 67
REMARK SMILES IDX 41 68 42 69 43 70 44 71 68 72 69 73 77 74 70 75 72 76 78 77
REMARK SMILES IDX 71 78 73 79 74 80 75 81 76 82 53 83 54 84 62 85 55 86 57 87
REMARK SMILES IDX 63 88 56 89 58 90 59 91 60 92 61 93
REMARK H PARENT 17 7 24 27 83 46 51 57
REMARK Flexibility Score: inf
ROOT
ATOM      1  C   UNL A   1      34.497  21.249  24.463  1.00  0.00     0.002 C 
ENDROOT
BRANCH   1   2
ATOM      2  C   UNL A   1      33.211  21.074  25.281  1.00  0.00     0.021 C 
BRANCH   2   3
ATOM      3  C   UNL A   1      32.353  22.318  25.451  1.00  0.00     0.116 C 
BRANCH   3   4
ATOM      4  N   UNL A   1      31.456  22.228  26.579  1.00  0.00    -0.353 N 
ATOM      5  C   UNL A   1      30.500  23.126  26.942  1.00  0.00     0.257 C 
ATOM      6  O   UNL A   1      29.642  22.779  27.756  1.00  0.00    -0.271 OA
ATOM      7  H   UNL A   1      31.547  21.430  27.147  1.00  0.00     0.163 HD
BRANCH   5   8
ATOM      8  C   UNL A   1      30.473  24.512  26.280  1.00  0.00     0.329 C 
BRANCH   8   9
ATOM      9  O   UNL A   1      31.307  25.562  26.724  1.00  0.00    -0.483 OA
BRANCH   9  10
ATOM     10  C   UNL A   1      32.113  26.292  25.901  1.00  0.00     0.125 A 
ATOM     11  C   UNL A   1      32.564  28.447  27.284  1.00  0.00     0.048 C 
ATOM     12  C   UNL A   1      32.734  27.531  26.107  1.00  0.00    -0.009 A 
ATOM     13  C   UNL A   1      33.623  28.012  25.120  1.00  0.00     0.009 A 
ATOM     14  C   UNL A   1      33.823  27.344  23.915  1.00  0.00     0.029 A 
ATOM     15  C   UNL A   1      32.272  25.652  24.650  1.00  0.00     0.075 A 
ATOM     16  C   UNL A   1      33.101  26.184  23.654  1.00  0.00     0.072 A 
BRANCH  16  17
ATOM     17  N   UNL A   1      33.191  25.595  22.373  1.00  0.00    -0.200 N 
ATOM     18  C   UNL A   1      33.168  24.269  22.026  1.00  0.00     0.252 A 
ATOM     19  N   UNL A   1      33.201  26.324  21.235  1.00  0.00    -0.040 NA
ATOM     20  N   UNL A   1      33.202  24.164  20.718  1.00  0.00    -0.117 NA
ATOM     21  N   UNL A   1      33.251  25.448  20.242  1.00  0.00    -0.024 NA
ENDBRANCH  16  17
ENDBRANCH   9  10
ENDBRANCH   8   9
ENDBRANCH   5   8
ENDBRANCH   3   4
ENDBRANCH   2   3
ENDBRANCH   1   2
BRANCH   1  22
ATOM     22  C   UNL A   1      35.524  22.310  24.915  1.00  0.00     0.002 C 
BRANCH  22  23
ATOM     23  C   UNL A   1      36.675  21.897  25.849  1.00  0.00     0.021 C 
BRANCH  23  24
ATOM     24  C   UNL A   1      37.934  22.702  25.647  1.00  0.00     0.116 C 
BRANCH  24  25
ATOM     25  N   UNL A   1      38.879  22.555  26.735  1.00  0.00    -0.352 N 
ATOM     26  C   UNL A   1      39.921  23.410  27.026  1.00  0.00     0.251 C 
ATOM     27  H   UNL A   1      38.767  21.771  27.322  1.00  0.00     0.163 HD
ATOM     28  O   UNL A   1      41.028  22.904  27.255  1.00  0.00    -0.269 OA
BRANCH  26  29
ATOM     29  C   UNL A   1      39.683  24.863  27.182  1.00  0.00     0.039 A 
ATOM     30  C   UNL A   1      40.384  25.780  26.387  1.00  0.00     0.014 A 
ATOM     31  C   UNL A   1      38.954  25.343  28.262  1.00  0.00     0.014 A 
ATOM     32  C   UNL A   1      40.570  27.081  26.853  1.00  0.00     0.010 A 
ATOM     33  C   UNL A   1      38.968  26.649  28.611  1.00  0.00     0.010 A 
ATOM     34  C   UNL A   1      39.943  27.437  28.036  1.00  0.00    -0.014 A 
BRANCH  34  35
ATOM     35  C   UNL A   1      40.216  28.566  28.887  1.00  0.00     0.031 A 
ATOM     36  C   UNL A   1      39.263  29.668  28.857  1.00  0.00     0.074 A 
ATOM     37  C   UNL A   1      41.045  28.296  29.926  1.00  0.00     0.049 A 
ATOM     38  N   UNL A   1      39.464  30.798  29.422  1.00  0.00    -0.248 NA
ATOM     39  C   UNL A   1      37.978  29.566  28.170  1.00  0.00     0.031 C 
ATOM     40  C   UNL A   1      41.054  28.857  31.270  1.00  0.00     0.029 A 
ATOM     41  N   UNL A   1      42.068  27.364  29.993  1.00  0.00    -0.354 N 
ATOM     42  C   UNL A   1      38.246  31.439  29.454  1.00  0.00     0.074 A 
ATOM     43  C   UNL A   1      37.390  30.699  28.558  1.00  0.00     0.031 C 
ATOM     44  C   UNL A   1      42.175  28.459  31.906  1.00  0.00     0.029 A 
ATOM     45  C   UNL A   1      43.009  27.761  30.936  1.00  0.00     0.049 A 
ATOM     46  H   UNL A   1      42.121  26.542  29.453  1.00  0.00     0.167 HD
ATOM     47  C   UNL A   1      38.052  32.401  30.397  1.00  0.00     0.034 A 
ATOM     48  C   UNL A   1      44.235  28.198  30.502  1.00  0.00     0.034 A 
ATOM     49  C   UNL A   1      39.261  32.526  31.234  1.00  0.00     0.049 A 
ATOM     50  C   UNL A   1      44.370  29.715  30.602  1.00  0.00     0.074 A 
ATOM     51  C   UNL A   1      39.614  31.961  32.451  1.00  0.00     0.029 A 
ATOM     52  N   UNL A   1      40.449  32.965  30.656  1.00  0.00    -0.354 N 
ATOM     53  N   UNL A   1      43.396  30.515  30.941  1.00  0.00    -0.248 NA
ATOM     54  C   UNL A   1      45.610  30.447  30.357  1.00  0.00     0.031 C 
ATOM     55  C   UNL A   1      41.036  31.971  32.545  1.00  0.00     0.029 A 
ATOM     56  C   UNL A   1      41.551  32.559  31.402  1.00  0.00     0.049 A 
ATOM     57  H   UNL A   1      40.502  33.495  29.827  1.00  0.00     0.167 HD
ATOM     58  C   UNL A   1      43.786  31.818  30.834  1.00  0.00     0.074 A 
ATOM     59  C   UNL A   1      45.209  31.718  30.548  1.00  0.00     0.031 C 
ATOM     60  C   UNL A   1      42.904  32.863  30.935  1.00  0.00     0.034 A 
BRANCH  47  61
ATOM     61  C   UNL A   1      36.695  32.954  30.778  1.00  0.00     0.023 A 
ATOM     62  C   UNL A   1      36.173  32.560  32.029  1.00  0.00     0.012 A 
ATOM     63  C   UNL A   1      35.879  33.818  30.005  1.00  0.00     0.148 A 
ATOM     64  C   UNL A   1      34.898  32.931  32.464  1.00  0.00     0.002 A 
ATOM     65  C   UNL A   1      34.579  34.142  30.412  1.00  0.00     0.091 A 
ATOM     66  F   UNL A   1      36.377  34.396  28.907  1.00  0.00    -0.205 F 
ATOM     67  C   UNL A   1      34.088  33.699  31.644  1.00  0.00     0.022 A 
BRANCH  65  68
ATOM     68  S   UNL A   1      33.435  35.084  29.384  1.00  0.00     0.127 S 
ATOM     69  O   UNL A   1      32.712  34.024  28.673  1.00  0.00    -0.237 OA
ATOM     70  O   UNL A   1      32.636  35.798  30.376  1.00  0.00    -0.237 OA
ATOM     71  O   UNL A   1      34.261  35.918  28.519  1.00  0.00    -0.744 OA
ENDBRANCH  65  68
ENDBRANCH  47  61
BRANCH  48  72
ATOM     72  C   UNL A   1      44.755  27.329  29.388  1.00  0.00     0.023 A 
ATOM     73  C   UNL A   1      44.879  25.948  29.691  1.00  0.00     0.012 A 
ATOM     74  C   UNL A   1      44.622  27.710  28.041  1.00  0.00     0.148 A 
ATOM     75  C   UNL A   1      44.637  24.976  28.717  1.00  0.00     0.002 A 
ATOM     76  C   UNL A   1      44.400  26.732  27.069  1.00  0.00     0.091 A 
ATOM     77  F   UNL A   1      44.646  29.014  27.733  1.00  0.00    -0.205 F 
ATOM     78  C   UNL A   1      44.342  25.371  27.417  1.00  0.00     0.022 A 
BRANCH  76  79
ATOM     79  S   UNL A   1      44.065  27.181  25.360  1.00  0.00     0.127 S 
ATOM     80  O   UNL A   1      43.140  28.299  25.525  1.00  0.00    -0.237 OA
ATOM     81  O   UNL A   1      45.384  27.560  24.854  1.00  0.00    -0.237 OA
ATOM     82  O   UNL A   1      43.518  25.976  24.754  1.00  0.00    -0.744 OA
ENDBRANCH  76  79
ENDBRANCH  48  72
BRANCH  60  83
ATOM     83  C   UNL A   1      43.244  34.298  30.590  1.00  0.00     0.023 A 
ATOM     84  C   UNL A   1      43.664  35.223  31.562  1.00  0.00     0.012 A 
ATOM     85  C   UNL A   1      43.302  34.720  29.236  1.00  0.00     0.148 A 
ATOM     86  C   UNL A   1      44.034  36.529  31.226  1.00  0.00     0.002 A 
ATOM     87  C   UNL A   1      43.808  35.969  28.898  1.00  0.00     0.091 A 
ATOM     88  F   UNL A   1      42.847  33.917  28.263  1.00  0.00    -0.205 F 
ATOM     89  C   UNL A   1      44.129  36.894  29.891  1.00  0.00     0.022 A 
BRANCH  87  90
ATOM     90  S   UNL A   1      44.229  36.368  27.197  1.00  0.00     0.127 S 
ATOM     91  O   UNL A   1      44.869  37.674  27.341  1.00  0.00    -0.237 OA
ATOM     92  O   UNL A   1      45.139  35.278  26.838  1.00  0.00    -0.237 OA
ATOM     93  O   UNL A   1      42.964  36.349  26.475  1.00  0.00    -0.744 OA
ENDBRANCH  87  90
ENDBRANCH  60  83
ENDBRANCH  34  35
ENDBRANCH  26  29
ENDBRANCH  24  25
ENDBRANCH  23  24
ENDBRANCH  22  23
ENDBRANCH   1  22
TORSDOF 19
ENDMDL
MODEL 3
REMARK VINA RESULT:     -11.4      4.172      9.245
REMARK SMILES Cc1ccc(-n2cnnn2)cc1OCC(=O)NCCCCCCNC(=O)c1ccc(-c2c3nc(c(-c4cccc(S(=O)(=O)[O-])c4F)c4ccc([nH]4)c(-c4cccc(S(=O)(=O)[O-])c4F)c4nc(c(-c5cccc(S(=O)(=O)[O-])c5F)c5ccc2[nH]5)C=C4)C=C3)cc1
REMARK SMILES IDX 20 1 19 2 18 3 17 4 15 5 16 6 14 8 13 9 12 10 1 11 2 12 3 13
REMARK SMILES IDX 4 14 11 15 5 16 6 17 7 18 10 19 8 20 9 21 21 22 22 23 23 24
REMARK SMILES IDX 24 25 25 26 26 28 27 29 28 30 89 31 29 32 88 33 30 34 31 35
REMARK SMILES IDX 32 36 82 37 33 38 87 39 81 40 83 41 34 42 86 43 80 44 79 45
REMARK SMILES IDX 35 47 67 48 47 49 66 50 48 51 51 52 65 53 84 54 49 55 50 56
REMARK SMILES IDX 64 58 85 59 52 60 36 61 37 62 45 63 38 64 40 65 46 66 39 67
REMARK SMILES IDX 41 68 42 69 43 70 44 71 68 72 69 73 77 74 70 75 72 76 78 77
REMARK SMILES IDX 71 78 73 79 74 80 75 81 76 82 53 83 54 84 62 85 55 86 57 87
REMARK SMILES IDX 63 88 56 89 58 90 59 91 60 92 61 93
REMARK H PARENT 17 7 24 27 83 46 51 57
REMARK Flexibility Score: inf
ROOT
ATOM      1  C   UNL A   1      31.504  29.547  25.220  1.00  0.00     0.002 C 
ENDROOT
BRANCH   1   2
ATOM      2  C   UNL A   1      30.615  29.581  23.971  1.00  0.00     0.021 C 
BRANCH   2   3
ATOM      3  C   UNL A   1      31.058  28.704  22.811  1.00  0.00     0.116 C 
BRANCH   3   4
ATOM      4  N   UNL A   1      32.424  28.951  22.413  1.00  0.00    -0.353 N 
ATOM      5  C   UNL A   1      33.437  28.045  22.345  1.00  0.00     0.257 C 
ATOM      6  O   UNL A   1      34.461  28.348  21.731  1.00  0.00    -0.271 OA
ATOM      7  H   UNL A   1      32.646  29.877  22.165  1.00  0.00     0.163 HD
BRANCH   5   8
ATOM      8  C   UNL A   1      33.249  26.653  22.968  1.00  0.00     0.329 C 
BRANCH   8   9
ATOM      9  O   UNL A   1      34.269  26.037  23.727  1.00  0.00    -0.483 OA
BRANCH   9  10
ATOM     10  C   UNL A   1      34.105  24.870  24.414  1.00  0.00     0.125 A 
ATOM     11  C   UNL A   1      36.239  23.521  23.795  1.00  0.00     0.048 C 
ATOM     12  C   UNL A   1      34.950  23.758  24.525  1.00  0.00    -0.009 A 
ATOM     13  C   UNL A   1      34.583  22.718  25.409  1.00  0.00     0.009 A 
ATOM     14  C   UNL A   1      33.370  22.722  26.092  1.00  0.00     0.029 A 
ATOM     15  C   UNL A   1      32.848  24.836  25.061  1.00  0.00     0.075 A 
ATOM     16  C   UNL A   1      32.470  23.760  25.875  1.00  0.00     0.072 A 
BRANCH  16  17
ATOM     17  N   UNL A   1      31.182  23.682  26.448  1.00  0.00    -0.200 N 
ATOM     18  C   UNL A   1      30.579  22.627  27.083  1.00  0.00     0.252 A 
ATOM     19  N   UNL A   1      30.363  24.753  26.549  1.00  0.00    -0.040 NA
ATOM     20  N   UNL A   1      29.405  23.006  27.532  1.00  0.00    -0.117 NA
ATOM     21  N   UNL A   1      29.274  24.320  27.168  1.00  0.00    -0.024 NA
ENDBRANCH  16  17
ENDBRANCH   9  10
ENDBRANCH   8   9
ENDBRANCH   5   8
ENDBRANCH   3   4
ENDBRANCH   2   3
ENDBRANCH   1   2
BRANCH   1  22
ATOM     22  C   UNL A   1      31.605  30.818  26.092  1.00  0.00     0.002 C 
BRANCH  22  23
ATOM     23  C   UNL A   1      32.551  30.828  27.307  1.00  0.00     0.021 C 
BRANCH  23  24
ATOM     24  C   UNL A   1      33.967  30.434  26.972  1.00  0.00     0.116 C 
BRANCH  24  25
ATOM     25  N   UNL A   1      34.941  31.424  27.384  1.00  0.00    -0.352 N 
ATOM     26  C   UNL A   1      35.832  31.300  28.429  1.00  0.00     0.251 C 
ATOM     27  H   UNL A   1      34.970  32.264  26.870  1.00  0.00     0.163 HD
ATOM     28  O   UNL A   1      35.935  32.258  29.207  1.00  0.00    -0.269 OA
BRANCH  26  29
ATOM     29  C   UNL A   1      36.716  30.117  28.530  1.00  0.00     0.039 A 
ATOM     30  C   UNL A   1      36.768  29.377  29.719  1.00  0.00     0.014 A 
ATOM     31  C   UNL A   1      37.669  29.867  27.551  1.00  0.00     0.014 A 
ATOM     32  C   UNL A   1      37.912  28.635  30.009  1.00  0.00     0.010 A 
ATOM     33  C   UNL A   1      38.683  28.995  27.747  1.00  0.00     0.010 A 
ATOM     34  C   UNL A   1      38.902  28.573  29.041  1.00  0.00    -0.014 A 
BRANCH  34  35
ATOM     35  C   UNL A   1      40.275  28.169  29.192  1.00  0.00     0.031 A 
ATOM     36  C   UNL A   1      40.595  26.777  28.903  1.00  0.00     0.074 A 
ATOM     37  C   UNL A   1      41.167  29.188  29.141  1.00  0.00     0.049 A 
ATOM     38  N   UNL A   1      41.727  26.239  29.158  1.00  0.00    -0.248 NA
ATOM     39  C   UNL A   1      39.632  25.871  28.282  1.00  0.00     0.031 C 
ATOM     40  C   UNL A   1      42.524  29.202  28.614  1.00  0.00     0.029 A 
ATOM     41  N   UNL A   1      40.991  30.508  29.526  1.00  0.00    -0.354 N 
ATOM     42  C   UNL A   1      41.759  25.049  28.466  1.00  0.00     0.074 A 
ATOM     43  C   UNL A   1      40.400  24.805  28.046  1.00  0.00     0.031 C 
ATOM     44  C   UNL A   1      43.119  30.364  28.955  1.00  0.00     0.029 A 
ATOM     45  C   UNL A   1      42.219  31.071  29.856  1.00  0.00     0.049 A 
ATOM     46  H   UNL A   1      40.127  30.977  29.560  1.00  0.00     0.167 HD
ATOM     47  C   UNL A   1      42.973  24.520  28.156  1.00  0.00     0.034 A 
ATOM     48  C   UNL A   1      42.487  31.343  31.175  1.00  0.00     0.034 A 
ATOM     49  C   UNL A   1      44.043  25.411  28.645  1.00  0.00     0.049 A 
ATOM     50  C   UNL A   1      43.459  30.334  31.780  1.00  0.00     0.074 A 
ATOM     51  C   UNL A   1      44.768  26.421  28.030  1.00  0.00     0.029 A 
ATOM     52  N   UNL A   1      44.190  25.613  30.014  1.00  0.00    -0.354 N 
ATOM     53  N   UNL A   1      43.888  29.268  31.159  1.00  0.00    -0.248 NA
ATOM     54  C   UNL A   1      44.043  30.455  33.113  1.00  0.00     0.031 C 
ATOM     55  C   UNL A   1      45.260  27.291  29.046  1.00  0.00     0.029 A 
ATOM     56  C   UNL A   1      44.859  26.803  30.278  1.00  0.00     0.049 A 
ATOM     57  H   UNL A   1      43.863  24.992  30.707  1.00  0.00     0.167 HD
ATOM     58  C   UNL A   1      44.654  28.505  31.991  1.00  0.00     0.074 A 
ATOM     59  C   UNL A   1      44.791  29.337  33.177  1.00  0.00     0.031 C 
ATOM     60  C   UNL A   1      45.064  27.239  31.660  1.00  0.00     0.034 A 
BRANCH  47  61
ATOM     61  C   UNL A   1      43.184  23.422  27.134  1.00  0.00     0.023 A 
ATOM     62  C   UNL A   1      43.863  23.775  25.948  1.00  0.00     0.012 A 
ATOM     63  C   UNL A   1      42.759  22.073  27.232  1.00  0.00     0.148 A 
ATOM     64  C   UNL A   1      44.048  22.881  24.891  1.00  0.00     0.002 A 
ATOM     65  C   UNL A   1      42.892  21.192  26.152  1.00  0.00     0.091 A 
ATOM     66  F   UNL A   1      42.291  21.607  28.395  1.00  0.00    -0.205 F 
ATOM     67  C   UNL A   1      43.538  21.596  24.980  1.00  0.00     0.022 A 
BRANCH  65  68
ATOM     68  S   UNL A   1      42.206  19.525  26.156  1.00  0.00     0.127 S 
ATOM     69  O   UNL A   1      40.766  19.781  26.043  1.00  0.00    -0.237 OA
ATOM     70  O   UNL A   1      42.809  18.934  24.964  1.00  0.00    -0.237 OA
ATOM     71  O   UNL A   1      42.601  18.927  27.426  1.00  0.00    -0.744 OA
ENDBRANCH  65  68
ENDBRANCH  47  61
BRANCH  48  72
ATOM     72  C   UNL A   1      41.288  31.945  31.857  1.00  0.00     0.023 A 
ATOM     73  C   UNL A   1      40.753  33.111  31.248  1.00  0.00     0.012 A 
ATOM     74  C   UNL A   1      40.445  31.169  32.673  1.00  0.00     0.148 A 
ATOM     75  C   UNL A   1      39.378  33.357  31.258  1.00  0.00     0.002 A 
ATOM     76  C   UNL A   1      39.074  31.434  32.693  1.00  0.00     0.091 A 
ATOM     77  F   UNL A   1      40.975  30.149  33.362  1.00  0.00    -0.205 F 
ATOM     78  C   UNL A   1      38.533  32.485  31.934  1.00  0.00     0.022 A 
BRANCH  76  79
ATOM     79  S   UNL A   1      37.937  30.371  33.595  1.00  0.00     0.127 S 
ATOM     80  O   UNL A   1      36.662  30.702  32.963  1.00  0.00    -0.237 OA
ATOM     81  O   UNL A   1      38.429  29.028  33.290  1.00  0.00    -0.237 OA
ATOM     82  O   UNL A   1      38.085  30.759  34.990  1.00  0.00    -0.744 OA
ENDBRANCH  76  79
ENDBRANCH  48  72
BRANCH  60  83
ATOM     83  C   UNL A   1      45.705  26.273  32.634  1.00  0.00     0.023 A 
ATOM     84  C   UNL A   1      47.096  26.229  32.841  1.00  0.00     0.012 A 
ATOM     85  C   UNL A   1      44.904  25.478  33.495  1.00  0.00     0.148 A 
ATOM     86  C   UNL A   1      47.673  25.376  33.786  1.00  0.00     0.002 A 
ATOM     87  C   UNL A   1      45.476  24.744  34.527  1.00  0.00     0.091 A 
ATOM     88  F   UNL A   1      43.578  25.413  33.307  1.00  0.00    -0.205 F 
ATOM     89  C   UNL A   1      46.862  24.652  34.646  1.00  0.00     0.022 A 
BRANCH  87  90
ATOM     90  S   UNL A   1      44.462  24.041  35.835  1.00  0.00     0.127 S 
ATOM     91  O   UNL A   1      43.743  22.984  35.127  1.00  0.00    -0.237 OA
ATOM     92  O   UNL A   1      45.469  23.563  36.785  1.00  0.00    -0.237 OA
ATOM     93  O   UNL A   1      43.654  25.147  36.330  1.00  0.00    -0.744 OA
ENDBRANCH  87  90
ENDBRANCH  60  83
ENDBRANCH  34  35
ENDBRANCH  26  29
ENDBRANCH  24  25
ENDBRANCH  23  24
ENDBRANCH  22  23
ENDBRANCH   1  22
TORSDOF 19
ENDMDL
