MODEL 1
REMARK VINA RESULT:     -11.9      0.000      0.000
REMARK SMILES Nc1ccc2[nH]cc(C(=O)NCCCCCCNC(=O)c3ccc(-c4c5nc(c(-c6cccc(S(=O)(=O)[O-])c6F)c6ccc([nH]6)c(-c6cccc(S(=O)(=O)[O-])c6F)c6nc(c(-c7cccc(S(=O)(=O)[O-])c7F)c7ccc4[nH]7)C=C6)C=C5)cc3)c2c1
REMARK SMILES IDX 15 1 14 2 13 3 12 4 11 5 9 6 10 7 8 9 2 10 3 11 85 12 4 13
REMARK SMILES IDX 84 14 5 15 6 16 7 17 1 19 16 22 17 23 18 24 19 25 20 27
REMARK SMILES IDX 21 28 22 29 83 30 23 31 82 32 24 33 25 34 26 35 76 36 27 37
REMARK SMILES IDX 81 38 75 39 77 40 28 41 80 42 74 43 73 44 29 46 61 47 41 48
REMARK SMILES IDX 60 49 42 50 45 51 59 52 78 53 43 54 44 55 58 57 79 58 46 59
REMARK SMILES IDX 30 60 31 61 39 62 32 63 34 64 40 65 33 66 35 67 36 68 37 69
REMARK SMILES IDX 38 70 62 71 63 72 71 73 64 74 66 75 72 76 65 77 67 78 68 79
REMARK SMILES IDX 69 80 70 81 47 82 48 83 56 84 49 85 51 86 57 87 50 88 52 89
REMARK SMILES IDX 53 90 54 91 55 92
REMARK H PARENT 11 8 6 18 1 20 1 21 18 26 77 45 45 56
REMARK Flexibility Score: inf
ROOT
ATOM      1  C   UNL A   1      36.229  23.292  23.644  1.00  0.00     0.002 C 
ENDROOT
BRANCH   1   2
ATOM      2  C   UNL A   1      34.842  23.847  23.303  1.00  0.00     0.002 C 
BRANCH   2   3
ATOM      3  C   UNL A   1      34.361  25.066  24.085  1.00  0.00     0.021 C 
BRANCH   3   4
ATOM      4  C   UNL A   1      34.353  24.954  25.602  1.00  0.00     0.116 C 
BRANCH   4   5
ATOM      5  N   UNL A   1      33.053  24.848  26.217  1.00  0.00    -0.352 N 
ATOM      6  C   UNL A   1      32.329  23.732  26.570  1.00  0.00     0.253 C 
ATOM      7  O   UNL A   1      31.224  23.940  27.079  1.00  0.00    -0.269 OA
ATOM      8  H   UNL A   1      32.617  25.707  26.415  1.00  0.00     0.163 HD
BRANCH   6   9
ATOM      9  C   UNL A   1      32.767  22.359  26.268  1.00  0.00     0.065 A 
ATOM     10  C   UNL A   1      32.153  20.539  22.919  1.00  0.00     0.032 A 
ATOM     11  C   UNL A   1      32.534  19.284  23.377  1.00  0.00     0.027 A 
ATOM     12  C   UNL A   1      32.365  21.654  23.739  1.00  0.00     0.036 A 
ATOM     13  C   UNL A   1      33.069  19.109  24.657  1.00  0.00     0.029 A 
ATOM     14  C   UNL A   1      32.728  21.506  25.100  1.00  0.00     0.014 A 
ATOM     15  C   UNL A   1      33.132  20.227  25.496  1.00  0.00     0.046 A 
ATOM     16  N   UNL A   1      33.590  20.328  26.784  1.00  0.00    -0.360 N 
ATOM     17  C   UNL A   1      33.369  21.587  27.258  1.00  0.00     0.097 A 
ATOM     18  H   UNL A   1      34.017  19.600  27.292  1.00  0.00     0.166 HD
BRANCH  10  19
ATOM     19  N   UNL A   1      31.648  20.702  21.639  1.00  0.00    -0.399 N 
ATOM     20  H   UNL A   1      31.036  20.029  21.263  1.00  0.00     0.156 HD
ATOM     21  H   UNL A   1      31.900  21.490  21.107  1.00  0.00     0.156 HD
ENDBRANCH  10  19
ENDBRANCH   6   9
ENDBRANCH   4   5
ENDBRANCH   3   4
ENDBRANCH   2   3
ENDBRANCH   1   2
BRANCH   1  22
ATOM     22  C   UNL A   1      36.295  21.951  24.386  1.00  0.00     0.021 C 
BRANCH  22  23
ATOM     23  C   UNL A   1      36.998  21.960  25.743  1.00  0.00     0.116 C 
BRANCH  23  24
ATOM     24  N   UNL A   1      38.371  21.511  25.717  1.00  0.00    -0.352 N 
ATOM     25  C   UNL A   1      39.551  21.961  26.241  1.00  0.00     0.251 C 
ATOM     26  H   UNL A   1      38.484  20.682  25.199  1.00  0.00     0.163 HD
ATOM     27  O   UNL A   1      40.520  21.212  26.090  1.00  0.00    -0.269 OA
BRANCH  25  28
ATOM     28  C   UNL A   1      39.749  23.275  26.911  1.00  0.00     0.039 A 
ATOM     29  C   UNL A   1      38.955  24.407  26.730  1.00  0.00     0.014 A 
ATOM     30  C   UNL A   1      40.861  23.366  27.772  1.00  0.00     0.014 A 
ATOM     31  C   UNL A   1      39.310  25.619  27.314  1.00  0.00     0.010 A 
ATOM     32  C   UNL A   1      41.206  24.569  28.377  1.00  0.00     0.010 A 
ATOM     33  C   UNL A   1      40.452  25.708  28.108  1.00  0.00    -0.014 A 
BRANCH  33  34
ATOM     34  C   UNL A   1      40.794  27.015  28.658  1.00  0.00     0.031 A 
ATOM     35  C   UNL A   1      42.027  27.661  28.128  1.00  0.00     0.074 A 
ATOM     36  C   UNL A   1      40.012  27.665  29.542  1.00  0.00     0.049 A 
ATOM     37  N   UNL A   1      43.101  27.978  28.779  1.00  0.00    -0.248 NA
ATOM     38  C   UNL A   1      42.102  27.924  26.684  1.00  0.00     0.031 C 
ATOM     39  C   UNL A   1      38.654  27.317  29.967  1.00  0.00     0.029 A 
ATOM     40  N   UNL A   1      40.230  28.872  30.139  1.00  0.00    -0.354 N 
ATOM     41  C   UNL A   1      43.918  28.649  27.870  1.00  0.00     0.074 A 
ATOM     42  C   UNL A   1      43.308  28.483  26.573  1.00  0.00     0.031 C 
ATOM     43  C   UNL A   1      38.082  28.403  30.527  1.00  0.00     0.029 A 
ATOM     44  C   UNL A   1      39.068  29.466  30.613  1.00  0.00     0.049 A 
ATOM     45  H   UNL A   1      41.121  29.280  30.225  1.00  0.00     0.167 HD
ATOM     46  C   UNL A   1      44.951  29.447  28.259  1.00  0.00     0.034 A 
ATOM     47  C   UNL A   1      38.915  30.768  30.951  1.00  0.00     0.034 A 
ATOM     48  C   UNL A   1      45.292  29.277  29.642  1.00  0.00     0.049 A 
ATOM     49  C   UNL A   1      40.262  31.299  31.271  1.00  0.00     0.074 A 
ATOM     50  C   UNL A   1      45.736  28.231  30.424  1.00  0.00     0.029 A 
ATOM     51  N   UNL A   1      44.887  30.257  30.513  1.00  0.00    -0.354 N 
ATOM     52  N   UNL A   1      40.970  30.912  32.297  1.00  0.00    -0.248 NA
ATOM     53  C   UNL A   1      41.001  32.001  30.233  1.00  0.00     0.031 C 
ATOM     54  C   UNL A   1      45.134  28.446  31.696  1.00  0.00     0.029 A 
ATOM     55  C   UNL A   1      44.377  29.617  31.610  1.00  0.00     0.049 A 
ATOM     56  H   UNL A   1      44.949  31.230  30.376  1.00  0.00     0.167 HD
ATOM     57  C   UNL A   1      42.282  30.933  31.846  1.00  0.00     0.074 A 
ATOM     58  C   UNL A   1      42.250  31.727  30.622  1.00  0.00     0.031 C 
ATOM     59  C   UNL A   1      43.216  30.069  32.343  1.00  0.00     0.034 A 
BRANCH  46  60
ATOM     60  C   UNL A   1      45.482  30.620  27.480  1.00  0.00     0.023 A 
ATOM     61  C   UNL A   1      46.882  30.727  27.313  1.00  0.00     0.012 A 
ATOM     62  C   UNL A   1      44.702  31.751  27.158  1.00  0.00     0.148 A 
ATOM     63  C   UNL A   1      47.478  31.914  26.874  1.00  0.00     0.002 A 
ATOM     64  C   UNL A   1      45.295  32.906  26.658  1.00  0.00     0.091 A 
ATOM     65  F   UNL A   1      43.399  31.765  27.462  1.00  0.00    -0.205 F 
ATOM     66  C   UNL A   1      46.683  33.001  26.536  1.00  0.00     0.022 A 
BRANCH  64  67
ATOM     67  S   UNL A   1      44.295  34.315  26.171  1.00  0.00     0.127 S 
ATOM     68  O   UNL A   1      43.552  34.584  27.406  1.00  0.00    -0.237 OA
ATOM     69  O   UNL A   1      45.317  35.315  25.842  1.00  0.00    -0.237 OA
ATOM     70  O   UNL A   1      43.522  33.858  25.036  1.00  0.00    -0.744 OA
ENDBRANCH  64  67
ENDBRANCH  46  60
BRANCH  47  71
ATOM     71  C   UNL A   1      37.721  31.634  30.792  1.00  0.00     0.023 A 
ATOM     72  C   UNL A   1      37.032  31.652  29.564  1.00  0.00     0.012 A 
ATOM     73  C   UNL A   1      37.106  32.260  31.901  1.00  0.00     0.148 A 
ATOM     74  C   UNL A   1      35.769  32.249  29.450  1.00  0.00     0.002 A 
ATOM     75  C   UNL A   1      35.864  32.879  31.777  1.00  0.00     0.091 A 
ATOM     76  F   UNL A   1      37.679  32.170  33.108  1.00  0.00    -0.205 F 
ATOM     77  C   UNL A   1      35.186  32.864  30.555  1.00  0.00     0.022 A 
BRANCH  75  78
ATOM     78  S   UNL A   1      35.083  33.702  33.172  1.00  0.00     0.127 S 
ATOM     79  O   UNL A   1      35.557  35.080  33.028  1.00  0.00    -0.237 OA
ATOM     80  O   UNL A   1      33.666  33.510  32.886  1.00  0.00    -0.237 OA
ATOM     81  O   UNL A   1      35.595  33.023  34.356  1.00  0.00    -0.744 OA
ENDBRANCH  75  78
ENDBRANCH  47  71
BRANCH  59  82
ATOM     82  C   UNL A   1      42.872  29.260  33.566  1.00  0.00     0.023 A 
ATOM     83  C   UNL A   1      42.043  28.122  33.477  1.00  0.00     0.012 A 
ATOM     84  C   UNL A   1      43.587  29.495  34.752  1.00  0.00     0.148 A 
ATOM     85  C   UNL A   1      41.924  27.241  34.551  1.00  0.00     0.002 A 
ATOM     86  C   UNL A   1      43.498  28.592  35.805  1.00  0.00     0.091 A 
ATOM     87  F   UNL A   1      44.388  30.571  34.807  1.00  0.00    -0.205 F 
ATOM     88  C   UNL A   1      42.663  27.466  35.710  1.00  0.00     0.022 A 
BRANCH  86  89
ATOM     89  S   UNL A   1      44.520  28.738  37.274  1.00  0.00     0.127 S 
ATOM     90  O   UNL A   1      44.040  29.989  37.856  1.00  0.00    -0.237 OA
ATOM     91  O   UNL A   1      44.155  27.535  38.025  1.00  0.00    -0.237 OA
ATOM     92  O   UNL A   1      45.901  28.757  36.810  1.00  0.00    -0.744 OA
ENDBRANCH  86  89
ENDBRANCH  59  82
ENDBRANCH  33  34
ENDBRANCH  25  28
ENDBRANCH  23  24
ENDBRANCH  22  23
ENDBRANCH   1  22
TORSDOF 17
ENDMDL
MODEL 2
REMARK VINA RESULT:     -11.8      3.455      8.684
REMARK SMILES Nc1ccc2[nH]cc(C(=O)NCCCCCCNC(=O)c3ccc(-c4c5nc(c(-c6cccc(S(=O)(=O)[O-])c6F)c6ccc([nH]6)c(-c6cccc(S(=O)(=O)[O-])c6F)c6nc(c(-c7cccc(S(=O)(=O)[O-])c7F)c7ccc4[nH]7)C=C6)C=C5)cc3)c2c1
REMARK SMILES IDX 15 1 14 2 13 3 12 4 11 5 9 6 10 7 8 9 2 10 3 11 85 12 4 13
REMARK SMILES IDX 84 14 5 15 6 16 7 17 1 19 16 22 17 23 18 24 19 25 20 27
REMARK SMILES IDX 21 28 22 29 83 30 23 31 82 32 24 33 25 34 26 35 76 36 27 37
REMARK SMILES IDX 81 38 75 39 77 40 28 41 80 42 74 43 73 44 29 46 61 47 41 48
REMARK SMILES IDX 60 49 42 50 45 51 59 52 78 53 43 54 44 55 58 57 79 58 46 59
REMARK SMILES IDX 30 60 31 61 39 62 32 63 34 64 40 65 33 66 35 67 36 68 37 69
REMARK SMILES IDX 38 70 62 71 63 72 71 73 64 74 66 75 72 76 65 77 67 78 68 79
REMARK SMILES IDX 69 80 70 81 47 82 48 83 56 84 49 85 51 86 57 87 50 88 52 89
REMARK SMILES IDX 53 90 54 91 55 92
REMARK H PARENT 11 8 6 18 1 20 1 21 18 26 77 45 45 56
REMARK Flexibility Score: inf
ROOT
ATOM      1  C   UNL A   1      32.708  28.190  26.075  1.00  0.00     0.002 C 
ENDROOT
BRANCH   1   2
ATOM      2  C   UNL A   1      32.961  26.680  26.025  1.00  0.00     0.002 C 
BRANCH   2   3
ATOM      3  C   UNL A   1      34.162  26.194  25.216  1.00  0.00     0.021 C 
BRANCH   3   4
ATOM      4  C   UNL A   1      34.301  24.693  25.020  1.00  0.00     0.116 C 
BRANCH   4   5
ATOM      5  N   UNL A   1      34.260  24.232  23.655  1.00  0.00    -0.352 N 
ATOM      6  C   UNL A   1      33.248  24.308  22.724  1.00  0.00     0.253 C 
ATOM      7  O   UNL A   1      33.489  23.816  21.618  1.00  0.00    -0.269 OA
ATOM      8  H   UNL A   1      35.083  23.797  23.338  1.00  0.00     0.163 HD
BRANCH   6   9
ATOM      9  C   UNL A   1      31.908  24.834  23.033  1.00  0.00     0.065 A 
ATOM     10  C   UNL A   1      30.786  28.481  22.445  1.00  0.00     0.032 A 
ATOM     11  C   UNL A   1      29.604  28.375  23.167  1.00  0.00     0.027 A 
ATOM     12  C   UNL A   1      31.530  27.324  22.187  1.00  0.00     0.036 A 
ATOM     13  C   UNL A   1      29.175  27.149  23.684  1.00  0.00     0.029 A 
ATOM     14  C   UNL A   1      31.237  26.102  22.841  1.00  0.00     0.014 A 
ATOM     15  C   UNL A   1      30.018  26.044  23.525  1.00  0.00     0.046 A 
ATOM     16  N   UNL A   1      29.851  24.749  23.943  1.00  0.00    -0.360 N 
ATOM     17  C   UNL A   1      30.971  24.023  23.666  1.00  0.00     0.097 A 
ATOM     18  H   UNL A   1      29.041  24.396  24.378  1.00  0.00     0.166 HD
BRANCH  10  19
ATOM     19  N   UNL A   1      31.186  29.698  21.917  1.00  0.00    -0.399 N 
ATOM     20  H   UNL A   1      31.517  30.409  22.513  1.00  0.00     0.156 HD
ATOM     21  H   UNL A   1      31.140  29.852  20.946  1.00  0.00     0.156 HD
ENDBRANCH  10  19
ENDBRANCH   6   9
ENDBRANCH   4   5
ENDBRANCH   3   4
ENDBRANCH   2   3
ENDBRANCH   1   2
BRANCH   1  22
ATOM     22  C   UNL A   1      33.242  28.959  27.290  1.00  0.00     0.021 C 
BRANCH  22  23
ATOM     23  C   UNL A   1      33.922  30.298  27.000  1.00  0.00     0.116 C 
BRANCH  23  24
ATOM     24  N   UNL A   1      33.892  31.242  28.094  1.00  0.00    -0.352 N 
ATOM     25  C   UNL A   1      34.797  31.691  29.014  1.00  0.00     0.251 C 
ATOM     26  H   UNL A   1      33.009  31.663  28.200  1.00  0.00     0.163 HD
ATOM     27  O   UNL A   1      34.409  32.617  29.732  1.00  0.00    -0.269 OA
BRANCH  25  28
ATOM     28  C   UNL A   1      36.154  31.122  29.236  1.00  0.00     0.039 A 
ATOM     29  C   UNL A   1      37.352  31.834  29.185  1.00  0.00     0.014 A 
ATOM     30  C   UNL A   1      36.207  29.735  29.480  1.00  0.00     0.014 A 
ATOM     31  C   UNL A   1      38.572  31.172  29.283  1.00  0.00     0.010 A 
ATOM     32  C   UNL A   1      37.423  29.073  29.602  1.00  0.00     0.010 A 
ATOM     33  C   UNL A   1      38.608  29.789  29.457  1.00  0.00    -0.014 A 
BRANCH  33  34
ATOM     34  C   UNL A   1      39.917  29.148  29.510  1.00  0.00     0.031 A 
ATOM     35  C   UNL A   1      40.535  29.002  30.858  1.00  0.00     0.074 A 
ATOM     36  C   UNL A   1      40.524  28.633  28.424  1.00  0.00     0.049 A 
ATOM     37  N   UNL A   1      41.642  29.521  31.284  1.00  0.00    -0.248 NA
ATOM     38  C   UNL A   1      39.797  28.242  31.876  1.00  0.00     0.031 C 
ATOM     39  C   UNL A   1      39.962  28.443  27.085  1.00  0.00     0.029 A 
ATOM     40  N   UNL A   1      41.745  28.031  28.341  1.00  0.00    -0.354 N 
ATOM     41  C   UNL A   1      41.840  29.006  32.565  1.00  0.00     0.074 A 
ATOM     42  C   UNL A   1      40.622  28.323  32.922  1.00  0.00     0.031 C 
ATOM     43  C   UNL A   1      40.723  27.551  26.415  1.00  0.00     0.029 A 
ATOM     44  C   UNL A   1      41.879  27.214  27.226  1.00  0.00     0.049 A 
ATOM     45  H   UNL A   1      42.460  28.162  29.005  1.00  0.00     0.167 HD
ATOM     46  C   UNL A   1      43.053  29.022  33.184  1.00  0.00     0.034 A 
ATOM     47  C   UNL A   1      42.821  26.259  27.042  1.00  0.00     0.034 A 
ATOM     48  C   UNL A   1      43.999  29.879  32.530  1.00  0.00     0.049 A 
ATOM     49  C   UNL A   1      43.971  26.604  27.913  1.00  0.00     0.074 A 
ATOM     50  C   UNL A   1      44.070  31.225  32.239  1.00  0.00     0.029 A 
ATOM     51  N   UNL A   1      44.972  29.275  31.773  1.00  0.00    -0.354 N 
ATOM     52  N   UNL A   1      44.723  27.657  27.739  1.00  0.00    -0.248 NA
ATOM     53  C   UNL A   1      44.069  25.976  29.221  1.00  0.00     0.031 C 
ATOM     54  C   UNL A   1      44.746  31.294  30.988  1.00  0.00     0.029 A 
ATOM     55  C   UNL A   1      45.056  29.986  30.607  1.00  0.00     0.049 A 
ATOM     56  H   UNL A   1      45.506  28.486  32.021  1.00  0.00     0.167 HD
ATOM     57  C   UNL A   1      45.048  28.070  29.024  1.00  0.00     0.074 A 
ATOM     58  C   UNL A   1      44.727  26.933  29.881  1.00  0.00     0.031 C 
ATOM     59  C   UNL A   1      45.272  29.387  29.309  1.00  0.00     0.034 A 
BRANCH  46  60
ATOM     60  C   UNL A   1      43.509  28.033  34.223  1.00  0.00     0.023 A 
ATOM     61  C   UNL A   1      44.000  28.537  35.449  1.00  0.00     0.012 A 
ATOM     62  C   UNL A   1      43.742  26.671  33.943  1.00  0.00     0.148 A 
ATOM     63  C   UNL A   1      44.714  27.728  36.340  1.00  0.00     0.002 A 
ATOM     64  C   UNL A   1      44.392  25.855  34.863  1.00  0.00     0.091 A 
ATOM     65  F   UNL A   1      43.456  26.186  32.728  1.00  0.00    -0.205 F 
ATOM     66  C   UNL A   1      44.901  26.383  36.052  1.00  0.00     0.022 A 
BRANCH  64  67
ATOM     67  S   UNL A   1      44.615  24.102  34.542  1.00  0.00     0.127 S 
ATOM     68  O   UNL A   1      45.200  23.648  35.807  1.00  0.00    -0.237 OA
ATOM     69  O   UNL A   1      43.236  23.657  34.311  1.00  0.00    -0.237 OA
ATOM     70  O   UNL A   1      45.465  24.036  33.373  1.00  0.00    -0.744 OA
ENDBRANCH  64  67
ENDBRANCH  46  60
BRANCH  47  71
ATOM     71  C   UNL A   1      42.698  24.957  26.342  1.00  0.00     0.023 A 
ATOM     72  C   UNL A   1      43.680  24.573  25.409  1.00  0.00     0.012 A 
ATOM     73  C   UNL A   1      41.761  23.979  26.752  1.00  0.00     0.148 A 
ATOM     74  C   UNL A   1      43.742  23.260  24.920  1.00  0.00     0.002 A 
ATOM     75  C   UNL A   1      41.808  22.685  26.241  1.00  0.00     0.091 A 
ATOM     76  F   UNL A   1      40.882  24.277  27.717  1.00  0.00    -0.205 F 
ATOM     77  C   UNL A   1      42.806  22.317  25.335  1.00  0.00     0.022 A 
BRANCH  75  78
ATOM     78  S   UNL A   1      40.606  21.440  26.733  1.00  0.00     0.127 S 
ATOM     79  O   UNL A   1      40.766  21.410  28.189  1.00  0.00    -0.237 OA
ATOM     80  O   UNL A   1      39.353  22.024  26.268  1.00  0.00    -0.237 OA
ATOM     81  O   UNL A   1      41.027  20.213  26.068  1.00  0.00    -0.744 OA
ENDBRANCH  75  78
ENDBRANCH  47  71
BRANCH  59  82
ATOM     82  C   UNL A   1      45.410  30.359  28.167  1.00  0.00     0.023 A 
ATOM     83  C   UNL A   1      44.274  30.900  27.530  1.00  0.00     0.012 A 
ATOM     84  C   UNL A   1      46.672  30.919  27.907  1.00  0.00     0.148 A 
ATOM     85  C   UNL A   1      44.394  31.974  26.647  1.00  0.00     0.002 A 
ATOM     86  C   UNL A   1      46.782  32.014  27.059  1.00  0.00     0.091 A 
ATOM     87  F   UNL A   1      47.736  30.403  28.542  1.00  0.00    -0.205 F 
ATOM     88  C   UNL A   1      45.646  32.542  26.422  1.00  0.00     0.022 A 
BRANCH  86  89
ATOM     89  S   UNL A   1      48.335  32.886  26.826  1.00  0.00     0.127 S 
ATOM     90  O   UNL A   1      47.983  33.868  25.803  1.00  0.00    -0.237 OA
ATOM     91  O   UNL A   1      48.575  33.448  28.156  1.00  0.00    -0.237 OA
ATOM     92  O   UNL A   1      49.308  31.882  26.416  1.00  0.00    -0.744 OA
ENDBRANCH  86  89
ENDBRANCH  59  82
ENDBRANCH  33  34
ENDBRANCH  25  28
ENDBRANCH  23  24
ENDBRANCH  22  23
ENDBRANCH   1  22
TORSDOF 17
ENDMDL
MODEL 3
REMARK VINA RESULT:     -11.5      1.991      2.387
REMARK SMILES Nc1ccc2[nH]cc(C(=O)NCCCCCCNC(=O)c3ccc(-c4c5nc(c(-c6cccc(S(=O)(=O)[O-])c6F)c6ccc([nH]6)c(-c6cccc(S(=O)(=O)[O-])c6F)c6nc(c(-c7cccc(S(=O)(=O)[O-])c7F)c7ccc4[nH]7)C=C6)C=C5)cc3)c2c1
REMARK SMILES IDX 15 1 14 2 13 3 12 4 11 5 9 6 10 7 8 9 2 10 3 11 85 12 4 13
REMARK SMILES IDX 84 14 5 15 6 16 7 17 1 19 16 22 17 23 18 24 19 25 20 27
REMARK SMILES IDX 21 28 22 29 83 30 23 31 82 32 24 33 25 34 26 35 76 36 27 37
REMARK SMILES IDX 81 38 75 39 77 40 28 41 80 42 74 43 73 44 29 46 61 47 41 48
REMARK SMILES IDX 60 49 42 50 45 51 59 52 78 53 43 54 44 55 58 57 79 58 46 59
REMARK SMILES IDX 30 60 31 61 39 62 32 63 34 64 40 65 33 66 35 67 36 68 37 69
REMARK SMILES IDX 38 70 62 71 63 72 71 73 64 74 66 75 72 76 65 77 67 78 68 79
REMARK SMILES IDX 69 80 70 81 47 82 48 83 56 84 49 85 51 86 57 87 50 88 52 89
REMARK SMILES IDX 53 90 54 91 55 92
REMARK H PARENT 11 8 6 18 1 20 1 21 18 26 77 45 45 56
REMARK Flexibility Score: inf
ROOT
ATOM      1  C   UNL A   1      36.486  21.491  24.749  1.00  0.00     0.002 C 
ENDROOT
BRANCH   1   2
ATOM      2  C   UNL A   1      36.258  22.575  23.690  1.00  0.00     0.002 C 
BRANCH   2   3
ATOM      3  C   UNL A   1      35.532  23.845  24.129  1.00  0.00     0.021 C 
BRANCH   3   4
ATOM      4  C   UNL A   1      35.418  24.093  25.625  1.00  0.00     0.116 C 
BRANCH   4   5
ATOM      5  N   UNL A   1      34.087  24.344  26.119  1.00  0.00    -0.352 N 
ATOM      6  C   UNL A   1      33.051  23.469  26.360  1.00  0.00     0.253 C 
ATOM      7  O   UNL A   1      32.004  23.970  26.780  1.00  0.00    -0.269 OA
ATOM      8  H   UNL A   1      33.888  25.287  26.315  1.00  0.00     0.163 HD
BRANCH   6   9
ATOM      9  C   UNL A   1      33.119  22.034  26.039  1.00  0.00     0.065 A 
ATOM     10  C   UNL A   1      32.083  20.484  22.658  1.00  0.00     0.032 A 
ATOM     11  C   UNL A   1      32.118  19.167  23.098  1.00  0.00     0.027 A 
ATOM     12  C   UNL A   1      32.570  21.493  23.497  1.00  0.00     0.036 A 
ATOM     13  C   UNL A   1      32.578  18.840  24.378  1.00  0.00     0.029 A 
ATOM     14  C   UNL A   1      32.870  21.237  24.857  1.00  0.00     0.014 A 
ATOM     15  C   UNL A   1      32.923  19.891  25.235  1.00  0.00     0.046 A 
ATOM     16  N   UNL A   1      33.380  19.852  26.527  1.00  0.00    -0.360 N 
ATOM     17  C   UNL A   1      33.491  21.118  27.019  1.00  0.00     0.097 A 
ATOM     18  H   UNL A   1      33.598  19.030  27.025  1.00  0.00     0.166 HD
BRANCH  10  19
ATOM     19  N   UNL A   1      31.648  20.790  21.379  1.00  0.00    -0.399 N 
ATOM     20  H   UNL A   1      32.251  20.662  20.611  1.00  0.00     0.156 HD
ATOM     21  H   UNL A   1      30.738  21.136  21.238  1.00  0.00     0.156 HD
ENDBRANCH  10  19
ENDBRANCH   6   9
ENDBRANCH   4   5
ENDBRANCH   3   4
ENDBRANCH   2   3
ENDBRANCH   1   2
BRANCH   1  22
ATOM     22  C   UNL A   1      37.935  21.176  25.141  1.00  0.00     0.021 C 
BRANCH  22  23
ATOM     23  C   UNL A   1      38.663  22.242  25.961  1.00  0.00     0.116 C 
BRANCH  23  24
ATOM     24  N   UNL A   1      40.068  21.984  26.179  1.00  0.00    -0.352 N 
ATOM     25  C   UNL A   1      41.071  22.596  26.877  1.00  0.00     0.251 C 
ATOM     26  H   UNL A   1      40.376  21.173  25.714  1.00  0.00     0.163 HD
ATOM     27  O   UNL A   1      42.142  21.985  26.914  1.00  0.00    -0.269 OA
BRANCH  25  28
ATOM     28  C   UNL A   1      40.976  23.931  27.528  1.00  0.00     0.039 A 
ATOM     29  C   UNL A   1      39.873  24.783  27.478  1.00  0.00     0.014 A 
ATOM     30  C   UNL A   1      42.125  24.362  28.220  1.00  0.00     0.014 A 
ATOM     31  C   UNL A   1      39.942  26.062  28.019  1.00  0.00     0.010 A 
ATOM     32  C   UNL A   1      42.191  25.631  28.783  1.00  0.00     0.010 A 
ATOM     33  C   UNL A   1      41.112  26.498  28.641  1.00  0.00    -0.014 A 
BRANCH  33  34
ATOM     34  C   UNL A   1      41.138  27.864  29.151  1.00  0.00     0.031 A 
ATOM     35  C   UNL A   1      42.140  28.785  28.546  1.00  0.00     0.074 A 
ATOM     36  C   UNL A   1      40.260  28.320  30.065  1.00  0.00     0.049 A 
ATOM     37  N   UNL A   1      43.129  29.380  29.134  1.00  0.00    -0.248 NA
ATOM     38  C   UNL A   1      42.077  29.017  27.097  1.00  0.00     0.031 C 
ATOM     39  C   UNL A   1      39.056  27.654  30.567  1.00  0.00     0.029 A 
ATOM     40  N   UNL A   1      40.193  29.560  30.631  1.00  0.00    -0.354 N 
ATOM     41  C   UNL A   1      43.705  30.210  28.172  1.00  0.00     0.074 A 
ATOM     42  C   UNL A   1      43.095  29.859  26.913  1.00  0.00     0.031 C 
ATOM     43  C   UNL A   1      38.254  28.576  31.141  1.00  0.00     0.029 A 
ATOM     44  C   UNL A   1      38.942  29.855  31.158  1.00  0.00     0.049 A 
ATOM     45  H   UNL A   1      40.955  30.182  30.664  1.00  0.00     0.167 HD
ATOM     46  C   UNL A   1      44.519  31.253  28.494  1.00  0.00     0.034 A 
ATOM     47  C   UNL A   1      38.481  31.086  31.483  1.00  0.00     0.034 A 
ATOM     48  C   UNL A   1      44.958  31.213  29.859  1.00  0.00     0.049 A 
ATOM     49  C   UNL A   1      39.664  31.947  31.723  1.00  0.00     0.074 A 
ATOM     50  C   UNL A   1      45.689  30.336  30.632  1.00  0.00     0.029 A 
ATOM     51  N   UNL A   1      44.360  32.084  30.735  1.00  0.00    -0.354 N 
ATOM     52  N   UNL A   1      40.495  31.781  32.716  1.00  0.00    -0.248 NA
ATOM     53  C   UNL A   1      40.151  32.784  30.637  1.00  0.00     0.031 C 
ATOM     54  C   UNL A   1      45.114  30.428  31.931  1.00  0.00     0.029 A 
ATOM     55  C   UNL A   1      44.082  31.367  31.867  1.00  0.00     0.049 A 
ATOM     56  H   UNL A   1      44.167  33.037  30.580  1.00  0.00     0.167 HD
ATOM     57  C   UNL A   1      41.735  32.120  32.195  1.00  0.00     0.074 A 
ATOM     58  C   UNL A   1      41.445  32.845  30.962  1.00  0.00     0.031 C 
ATOM     59  C   UNL A   1      42.881  31.533  32.655  1.00  0.00     0.034 A 
BRANCH  46  60
ATOM     60  C   UNL A   1      44.698  32.500  27.669  1.00  0.00     0.023 A 
ATOM     61  C   UNL A   1      45.850  32.597  26.855  1.00  0.00     0.012 A 
ATOM     62  C   UNL A   1      43.948  33.676  27.876  1.00  0.00     0.148 A 
ATOM     63  C   UNL A   1      46.250  33.816  26.296  1.00  0.00     0.002 A 
ATOM     64  C   UNL A   1      44.313  34.870  27.262  1.00  0.00     0.091 A 
ATOM     65  F   UNL A   1      42.955  33.680  28.774  1.00  0.00    -0.205 F 
ATOM     66  C   UNL A   1      45.475  34.951  26.491  1.00  0.00     0.022 A 
BRANCH  64  67
ATOM     67  S   UNL A   1      43.312  36.348  27.458  1.00  0.00     0.127 S 
ATOM     68  O   UNL A   1      44.328  37.401  27.366  1.00  0.00    -0.237 OA
ATOM     69  O   UNL A   1      42.413  36.263  26.301  1.00  0.00    -0.237 OA
ATOM     70  O   UNL A   1      42.653  36.192  28.737  1.00  0.00    -0.744 OA
ENDBRANCH  64  67
ENDBRANCH  46  60
BRANCH  47  71
ATOM     71  C   UNL A   1      37.101  31.618  31.376  1.00  0.00     0.023 A 
ATOM     72  C   UNL A   1      36.417  32.019  32.539  1.00  0.00     0.012 A 
ATOM     73  C   UNL A   1      36.533  31.963  30.127  1.00  0.00     0.148 A 
ATOM     74  C   UNL A   1      35.227  32.756  32.463  1.00  0.00     0.002 A 
ATOM     75  C   UNL A   1      35.334  32.669  30.056  1.00  0.00     0.091 A 
ATOM     76  F   UNL A   1      37.208  31.695  29.002  1.00  0.00    -0.205 F 
ATOM     77  C   UNL A   1      34.685  33.080  31.223  1.00  0.00     0.022 A 
BRANCH  75  78
ATOM     78  S   UNL A   1      34.588  33.091  28.474  1.00  0.00     0.127 S 
ATOM     79  O   UNL A   1      33.757  34.246  28.819  1.00  0.00    -0.237 OA
ATOM     80  O   UNL A   1      35.757  33.400  27.658  1.00  0.00    -0.237 OA
ATOM     81  O   UNL A   1      33.826  31.912  28.081  1.00  0.00    -0.744 OA
ENDBRANCH  75  78
ENDBRANCH  47  71
BRANCH  59  82
ATOM     82  C   UNL A   1      42.812  30.698  33.906  1.00  0.00     0.023 A 
ATOM     83  C   UNL A   1      42.835  31.296  35.183  1.00  0.00     0.012 A 
ATOM     84  C   UNL A   1      42.468  29.341  33.792  1.00  0.00     0.148 A 
ATOM     85  C   UNL A   1      42.528  30.555  36.324  1.00  0.00     0.002 A 
ATOM     86  C   UNL A   1      42.122  28.616  34.927  1.00  0.00     0.091 A 
ATOM     87  F   UNL A   1      42.430  28.798  32.565  1.00  0.00    -0.205 F 
ATOM     88  C   UNL A   1      42.156  29.219  36.196  1.00  0.00     0.022 A 
BRANCH  86  89
ATOM     89  S   UNL A   1      41.502  26.934  34.830  1.00  0.00     0.127 S 
ATOM     90  O   UNL A   1      41.147  26.659  36.221  1.00  0.00    -0.237 OA
ATOM     91  O   UNL A   1      40.360  27.078  33.925  1.00  0.00    -0.237 OA
ATOM     92  O   UNL A   1      42.591  26.128  34.296  1.00  0.00    -0.744 OA
ENDBRANCH  86  89
ENDBRANCH  59  82
ENDBRANCH  33  34
ENDBRANCH  25  28
ENDBRANCH  23  24
ENDBRANCH  22  23
ENDBRANCH   1  22
TORSDOF 17
ENDMDL
