MODEL 1
REMARK VINA RESULT:     -12.1      0.000      0.000
REMARK SMILES O=C(NCCCCCCNC(=O)c1c(F)cccc1NC(=O)C1CCCCC1)c1ccc(-c2c3nc(c(-c4cccc(S(=O)(=O)[O-])c4F)c4ccc([nH]4)c(-c4cccc(S(=O)(=O)[O-])c4F)c4nc(c(-c5cccc(S(=O)(=O)[O-])c5F)c5ccc2[nH]5)C=C4)C=C3)cc1
REMARK SMILES IDX 6 1 5 2 4 3 3 4 1 5 2 6 29 8 30 9 91 10 31 11 90 12 32 13
REMARK SMILES IDX 33 14 34 15 84 16 35 17 89 18 83 19 85 20 36 21 88 22 82 23
REMARK SMILES IDX 81 24 37 26 69 27 49 28 68 29 50 30 53 31 67 32 86 33 51 34
REMARK SMILES IDX 52 35 66 37 87 38 54 39 38 40 39 41 47 42 40 43 42 44 48 45
REMARK SMILES IDX 41 46 43 47 44 48 45 49 46 50 70 51 71 52 79 53 72 54 74 55
REMARK SMILES IDX 80 56 73 57 75 58 76 59 77 60 78 61 55 62 56 63 64 64 57 65
REMARK SMILES IDX 59 66 65 67 58 68 60 69 61 70 62 71 63 72 7 73 8 74 9 75
REMARK SMILES IDX 10 76 11 77 12 79 13 80 14 81 19 82 15 83 16 84 18 85 17 86
REMARK SMILES IDX 20 87 21 88 22 90 23 91 24 92 28 93 25 94 27 95 26 96
REMARK H PARENT 3 7 85 25 53 36 10 78 20 89
REMARK Flexibility Score: inf
ROOT
ATOM      1  C   UNL A   1      36.113  22.979  23.581  1.00  0.00     0.002 C 
ENDROOT
BRANCH   1   2
ATOM      2  C   UNL A   1      36.045  22.048  24.793  1.00  0.00     0.021 C 
BRANCH   2   3
ATOM      3  C   UNL A   1      37.063  22.336  25.890  1.00  0.00     0.116 C 
BRANCH   3   4
ATOM      4  N   UNL A   1      38.049  21.279  26.035  1.00  0.00    -0.352 N 
ATOM      5  O   UNL A   1      40.103  20.388  26.277  1.00  0.00    -0.269 OA
ATOM      6  C   UNL A   1      39.383  21.380  26.347  1.00  0.00     0.251 C 
ATOM      7  H   UNL A   1      37.715  20.365  25.889  1.00  0.00     0.163 HD
BRANCH   6   8
ATOM      8  C   UNL A   1      39.950  22.691  26.737  1.00  0.00     0.039 A 
ATOM      9  C   UNL A   1      40.886  22.787  27.770  1.00  0.00     0.014 A 
ATOM     10  C   UNL A   1      39.542  23.841  26.054  1.00  0.00     0.014 A 
ATOM     11  C   UNL A   1      41.312  24.037  28.205  1.00  0.00     0.010 A 
ATOM     12  C   UNL A   1      40.034  25.092  26.441  1.00  0.00     0.010 A 
ATOM     13  C   UNL A   1      40.903  25.203  27.536  1.00  0.00    -0.014 A 
BRANCH  13  14
ATOM     14  C   UNL A   1      41.478  26.511  27.940  1.00  0.00     0.031 A 
ATOM     15  C   UNL A   1      42.891  26.891  27.601  1.00  0.00     0.074 A 
ATOM     16  C   UNL A   1      40.693  27.367  28.625  1.00  0.00     0.049 A 
ATOM     17  N   UNL A   1      43.518  28.012  27.850  1.00  0.00    -0.248 NA
ATOM     18  C   UNL A   1      43.712  25.890  26.902  1.00  0.00     0.031 C 
ATOM     19  C   UNL A   1      39.319  27.085  29.049  1.00  0.00     0.029 A 
ATOM     20  N   UNL A   1      40.926  28.639  29.080  1.00  0.00    -0.354 N 
ATOM     21  C   UNL A   1      44.811  27.844  27.371  1.00  0.00     0.074 A 
ATOM     22  C   UNL A   1      44.884  26.508  26.821  1.00  0.00     0.031 C 
ATOM     23  C   UNL A   1      38.820  28.162  29.669  1.00  0.00     0.029 A 
ATOM     24  C   UNL A   1      39.850  29.193  29.735  1.00  0.00     0.049 A 
ATOM     25  H   UNL A   1      41.780  29.111  28.951  1.00  0.00     0.167 HD
ATOM     26  C   UNL A   1      45.835  28.730  27.375  1.00  0.00     0.034 A 
ATOM     27  C   UNL A   1      39.705  30.392  30.330  1.00  0.00     0.034 A 
ATOM     28  C   UNL A   1      45.741  30.071  27.891  1.00  0.00     0.049 A 
ATOM     29  C   UNL A   1      40.847  31.364  30.294  1.00  0.00     0.074 A 
ATOM     30  C   UNL A   1      46.706  31.063  27.881  1.00  0.00     0.029 A 
ATOM     31  N   UNL A   1      44.624  30.608  28.514  1.00  0.00    -0.354 N 
ATOM     32  N   UNL A   1      42.021  31.229  29.726  1.00  0.00    -0.248 NA
ATOM     33  C   UNL A   1      40.643  32.659  30.956  1.00  0.00     0.031 C 
ATOM     34  C   UNL A   1      46.181  32.193  28.513  1.00  0.00     0.029 A 
ATOM     35  C   UNL A   1      44.879  31.913  28.900  1.00  0.00     0.049 A 
ATOM     36  H   UNL A   1      43.776  30.131  28.661  1.00  0.00     0.167 HD
ATOM     37  C   UNL A   1      42.689  32.426  29.946  1.00  0.00     0.074 A 
ATOM     38  C   UNL A   1      41.779  33.285  30.677  1.00  0.00     0.031 C 
ATOM     39  C   UNL A   1      43.950  32.774  29.588  1.00  0.00     0.034 A 
BRANCH  26  40
ATOM     40  C   UNL A   1      47.143  28.312  26.756  1.00  0.00     0.023 A 
ATOM     41  C   UNL A   1      48.230  27.987  27.592  1.00  0.00     0.012 A 
ATOM     42  C   UNL A   1      47.265  28.133  25.363  1.00  0.00     0.148 A 
ATOM     43  C   UNL A   1      49.423  27.506  27.052  1.00  0.00     0.002 A 
ATOM     44  C   UNL A   1      48.443  27.617  24.835  1.00  0.00     0.091 A 
ATOM     45  F   UNL A   1      46.227  28.466  24.583  1.00  0.00    -0.205 F 
ATOM     46  C   UNL A   1      49.526  27.311  25.677  1.00  0.00     0.022 A 
BRANCH  44  47
ATOM     47  S   UNL A   1      48.646  27.253  23.087  1.00  0.00     0.127 S 
ATOM     48  O   UNL A   1      50.061  27.558  22.884  1.00  0.00    -0.237 OA
ATOM     49  O   UNL A   1      48.315  25.829  23.027  1.00  0.00    -0.237 OA
ATOM     50  O   UNL A   1      47.710  28.122  22.386  1.00  0.00    -0.744 OA
ENDBRANCH  44  47
ENDBRANCH  26  40
BRANCH  27  51
ATOM     51  C   UNL A   1      38.393  30.741  30.942  1.00  0.00     0.023 A 
ATOM     52  C   UNL A   1      38.190  30.513  32.317  1.00  0.00     0.012 A 
ATOM     53  C   UNL A   1      37.391  31.395  30.198  1.00  0.00     0.148 A 
ATOM     54  C   UNL A   1      37.012  30.927  32.938  1.00  0.00     0.002 A 
ATOM     55  C   UNL A   1      36.248  31.860  30.835  1.00  0.00     0.091 A 
ATOM     56  F   UNL A   1      37.599  31.587  28.887  1.00  0.00    -0.205 F 
ATOM     57  C   UNL A   1      36.050  31.616  32.203  1.00  0.00     0.022 A 
BRANCH  55  58
ATOM     58  S   UNL A   1      35.037  32.895  30.003  1.00  0.00     0.127 S 
ATOM     59  O   UNL A   1      35.879  33.955  29.453  1.00  0.00    -0.237 OA
ATOM     60  O   UNL A   1      34.481  31.972  29.012  1.00  0.00    -0.237 OA
ATOM     61  O   UNL A   1      34.095  33.306  31.036  1.00  0.00    -0.744 OA
ENDBRANCH  55  58
ENDBRANCH  27  51
BRANCH  39  62
ATOM     62  C   UNL A   1      44.436  34.146  29.969  1.00  0.00     0.023 A 
ATOM     63  C   UNL A   1      45.162  34.317  31.164  1.00  0.00     0.012 A 
ATOM     64  C   UNL A   1      44.274  35.237  29.093  1.00  0.00     0.148 A 
ATOM     65  C   UNL A   1      45.706  35.557  31.489  1.00  0.00     0.002 A 
ATOM     66  C   UNL A   1      44.859  36.459  29.401  1.00  0.00     0.091 A 
ATOM     67  F   UNL A   1      43.564  35.056  27.970  1.00  0.00    -0.205 F 
ATOM     68  C   UNL A   1      45.568  36.624  30.603  1.00  0.00     0.022 A 
BRANCH  66  69
ATOM     69  S   UNL A   1      44.816  37.860  28.276  1.00  0.00     0.127 S 
ATOM     70  O   UNL A   1      45.572  38.864  29.023  1.00  0.00    -0.237 OA
ATOM     71  O   UNL A   1      45.502  37.332  27.097  1.00  0.00    -0.237 OA
ATOM     72  O   UNL A   1      43.407  38.165  28.069  1.00  0.00    -0.744 OA
ENDBRANCH  66  69
ENDBRANCH  39  62
ENDBRANCH  13  14
ENDBRANCH   6   8
ENDBRANCH   3   4
ENDBRANCH   2   3
ENDBRANCH   1   2
BRANCH   1  73
ATOM     73  C   UNL A   1      35.038  24.068  23.520  1.00  0.00     0.002 C 
BRANCH  73  74
ATOM     74  C   UNL A   1      34.576  24.629  24.870  1.00  0.00     0.021 C 
BRANCH  74  75
ATOM     75  C   UNL A   1      33.865  25.979  24.807  1.00  0.00     0.116 C 
BRANCH  75  76
ATOM     76  N   UNL A   1      33.324  26.371  26.097  1.00  0.00    -0.352 N 
ATOM     77  C   UNL A   1      32.097  26.907  26.390  1.00  0.00     0.256 C 
ATOM     78  H   UNL A   1      33.921  26.234  26.867  1.00  0.00     0.163 HD
ATOM     79  O   UNL A   1      31.860  27.319  27.523  1.00  0.00    -0.269 OA
BRANCH  77  80
ATOM     80  C   UNL A   1      31.071  27.075  25.342  1.00  0.00     0.099 A 
ATOM     81  C   UNL A   1      31.220  28.116  24.418  1.00  0.00     0.138 A 
ATOM     82  C   UNL A   1      29.978  26.180  25.254  1.00  0.00     0.057 A 
ATOM     83  F   UNL A   1      32.281  28.934  24.464  1.00  0.00    -0.206 F 
ATOM     84  C   UNL A   1      30.272  28.334  23.429  1.00  0.00     0.040 A 
ATOM     85  C   UNL A   1      29.057  26.401  24.224  1.00  0.00     0.027 A 
ATOM     86  C   UNL A   1      29.187  27.476  23.333  1.00  0.00     0.005 A 
BRANCH  82  87
ATOM     87  N   UNL A   1      29.889  25.120  26.197  1.00  0.00    -0.325 N 
ATOM     88  C   UNL A   1      30.443  23.878  26.342  1.00  0.00     0.227 C 
ATOM     89  H   UNL A   1      29.272  25.335  26.933  1.00  0.00     0.169 HD
ATOM     90  O   UNL A   1      30.153  23.241  27.360  1.00  0.00    -0.274 OA
BRANCH  88  91
ATOM     91  C   UNL A   1      31.359  23.274  25.292  1.00  0.00     0.079 C 
ATOM     92  C   UNL A   1      31.634  21.777  25.517  1.00  0.00     0.013 C 
ATOM     93  C   UNL A   1      30.793  23.450  23.878  1.00  0.00     0.013 C 
ATOM     94  C   UNL A   1      32.666  21.275  24.502  1.00  0.00     0.001 C 
ATOM     95  C   UNL A   1      31.824  23.011  22.842  1.00  0.00     0.001 C 
ATOM     96  C   UNL A   1      32.251  21.560  23.059  1.00  0.00     0.000 C 
ENDBRANCH  88  91
ENDBRANCH  82  87
ENDBRANCH  77  80
ENDBRANCH  75  76
ENDBRANCH  74  75
ENDBRANCH  73  74
ENDBRANCH   1  73
TORSDOF 18
ENDMDL
MODEL 2
REMARK VINA RESULT:     -12.0      1.536      2.725
REMARK SMILES O=C(NCCCCCCNC(=O)c1c(F)cccc1NC(=O)C1CCCCC1)c1ccc(-c2c3nc(c(-c4cccc(S(=O)(=O)[O-])c4F)c4ccc([nH]4)c(-c4cccc(S(=O)(=O)[O-])c4F)c4nc(c(-c5cccc(S(=O)(=O)[O-])c5F)c5ccc2[nH]5)C=C4)C=C3)cc1
REMARK SMILES IDX 6 1 5 2 4 3 3 4 1 5 2 6 29 8 30 9 91 10 31 11 90 12 32 13
REMARK SMILES IDX 33 14 34 15 84 16 35 17 89 18 83 19 85 20 36 21 88 22 82 23
REMARK SMILES IDX 81 24 37 26 69 27 49 28 68 29 50 30 53 31 67 32 86 33 51 34
REMARK SMILES IDX 52 35 66 37 87 38 54 39 38 40 39 41 47 42 40 43 42 44 48 45
REMARK SMILES IDX 41 46 43 47 44 48 45 49 46 50 70 51 71 52 79 53 72 54 74 55
REMARK SMILES IDX 80 56 73 57 75 58 76 59 77 60 78 61 55 62 56 63 64 64 57 65
REMARK SMILES IDX 59 66 65 67 58 68 60 69 61 70 62 71 63 72 7 73 8 74 9 75
REMARK SMILES IDX 10 76 11 77 12 79 13 80 14 81 19 82 15 83 16 84 18 85 17 86
REMARK SMILES IDX 20 87 21 88 22 90 23 91 24 92 28 93 25 94 27 95 26 96
REMARK H PARENT 3 7 85 25 53 36 10 78 20 89
REMARK Flexibility Score: inf
ROOT
ATOM      1  C   UNL A   1      35.000  23.458  24.158  1.00  0.00     0.002 C 
ENDROOT
BRANCH   1   2
ATOM      2  C   UNL A   1      35.789  22.164  24.365  1.00  0.00     0.021 C 
BRANCH   2   3
ATOM      3  C   UNL A   1      36.515  22.053  25.700  1.00  0.00     0.116 C 
BRANCH   3   4
ATOM      4  N   UNL A   1      37.449  20.942  25.741  1.00  0.00    -0.352 N 
ATOM      5  O   UNL A   1      39.464  19.935  25.798  1.00  0.00    -0.269 OA
ATOM      6  C   UNL A   1      38.808  20.963  25.946  1.00  0.00     0.251 C 
ATOM      7  H   UNL A   1      37.055  20.050  25.605  1.00  0.00     0.163 HD
BRANCH   6   8
ATOM      8  C   UNL A   1      39.476  22.231  26.316  1.00  0.00     0.039 A 
ATOM      9  C   UNL A   1      40.550  22.239  27.211  1.00  0.00     0.014 A 
ATOM     10  C   UNL A   1      39.025  23.429  25.754  1.00  0.00     0.014 A 
ATOM     11  C   UNL A   1      41.082  23.449  27.643  1.00  0.00     0.010 A 
ATOM     12  C   UNL A   1      39.617  24.640  26.128  1.00  0.00     0.010 A 
ATOM     13  C   UNL A   1      40.633  24.662  27.094  1.00  0.00    -0.014 A 
BRANCH  13  14
ATOM     14  C   UNL A   1      41.310  25.927  27.478  1.00  0.00     0.031 A 
ATOM     15  C   UNL A   1      42.716  26.232  27.043  1.00  0.00     0.074 A 
ATOM     16  C   UNL A   1      40.629  26.812  28.232  1.00  0.00     0.049 A 
ATOM     17  N   UNL A   1      43.424  27.310  27.264  1.00  0.00    -0.248 NA
ATOM     18  C   UNL A   1      43.424  25.200  26.269  1.00  0.00     0.031 C 
ATOM     19  C   UNL A   1      39.274  26.601  28.750  1.00  0.00     0.029 A 
ATOM     20  N   UNL A   1      40.967  28.059  28.689  1.00  0.00    -0.354 N 
ATOM     21  C   UNL A   1      44.667  27.078  26.689  1.00  0.00     0.074 A 
ATOM     22  C   UNL A   1      44.622  25.751  26.113  1.00  0.00     0.031 C 
ATOM     23  C   UNL A   1      38.885  27.691  29.423  1.00  0.00     0.029 A 
ATOM     24  C   UNL A   1      39.976  28.660  29.430  1.00  0.00     0.049 A 
ATOM     25  H   UNL A   1      41.837  28.484  28.506  1.00  0.00     0.167 HD
ATOM     26  C   UNL A   1      45.739  27.904  26.633  1.00  0.00     0.034 A 
ATOM     27  C   UNL A   1      39.944  29.852  30.054  1.00  0.00     0.034 A 
ATOM     28  C   UNL A   1      45.761  29.237  27.176  1.00  0.00     0.049 A 
ATOM     29  C   UNL A   1      41.136  30.758  29.951  1.00  0.00     0.074 A 
ATOM     30  C   UNL A   1      46.779  30.172  27.113  1.00  0.00     0.029 A 
ATOM     31  N   UNL A   1      44.725  29.824  27.888  1.00  0.00    -0.354 N 
ATOM     32  N   UNL A   1      42.256  30.568  29.296  1.00  0.00    -0.248 NA
ATOM     33  C   UNL A   1      41.056  32.049  30.648  1.00  0.00     0.031 C 
ATOM     34  C   UNL A   1      46.368  31.317  27.800  1.00  0.00     0.029 A 
ATOM     35  C   UNL A   1      45.083  31.104  28.276  1.00  0.00     0.049 A 
ATOM     36  H   UNL A   1      43.863  29.394  28.089  1.00  0.00     0.167 HD
ATOM     37  C   UNL A   1      43.008  31.720  29.487  1.00  0.00     0.074 A 
ATOM     38  C   UNL A   1      42.205  32.614  30.297  1.00  0.00     0.031 C 
ATOM     39  C   UNL A   1      44.258  32.002  29.044  1.00  0.00     0.034 A 
BRANCH  26  40
ATOM     40  C   UNL A   1      46.972  27.424  25.913  1.00  0.00     0.023 A 
ATOM     41  C   UNL A   1      47.855  26.542  26.568  1.00  0.00     0.012 A 
ATOM     42  C   UNL A   1      47.200  27.752  24.561  1.00  0.00     0.148 A 
ATOM     43  C   UNL A   1      48.954  26.007  25.896  1.00  0.00     0.002 A 
ATOM     44  C   UNL A   1      48.276  27.186  23.887  1.00  0.00     0.091 A 
ATOM     45  F   UNL A   1      46.360  28.608  23.962  1.00  0.00    -0.205 F 
ATOM     46  C   UNL A   1      49.157  26.319  24.555  1.00  0.00     0.022 A 
BRANCH  44  47
ATOM     47  S   UNL A   1      48.577  27.461  22.137  1.00  0.00     0.127 S 
ATOM     48  O   UNL A   1      48.652  26.091  21.632  1.00  0.00    -0.237 OA
ATOM     49  O   UNL A   1      47.379  28.195  21.728  1.00  0.00    -0.237 OA
ATOM     50  O   UNL A   1      49.813  28.227  22.059  1.00  0.00    -0.744 OA
ENDBRANCH  44  47
ENDBRANCH  26  40
BRANCH  27  51
ATOM     51  C   UNL A   1      38.703  30.264  30.766  1.00  0.00     0.023 A 
ATOM     52  C   UNL A   1      38.589  30.025  32.149  1.00  0.00     0.012 A 
ATOM     53  C   UNL A   1      37.687  30.984  30.106  1.00  0.00     0.148 A 
ATOM     54  C   UNL A   1      37.485  30.493  32.861  1.00  0.00     0.002 A 
ATOM     55  C   UNL A   1      36.622  31.501  30.832  1.00  0.00     0.091 A 
ATOM     56  F   UNL A   1      37.809  31.186  28.786  1.00  0.00    -0.205 F 
ATOM     57  C   UNL A   1      36.512  31.246  32.207  1.00  0.00     0.022 A 
BRANCH  55  58
ATOM     58  S   UNL A   1      35.414  32.615  30.104  1.00  0.00     0.127 S 
ATOM     59  O   UNL A   1      34.395  32.674  31.149  1.00  0.00    -0.237 OA
ATOM     60  O   UNL A   1      36.198  33.841  29.936  1.00  0.00    -0.237 OA
ATOM     61  O   UNL A   1      35.006  31.989  28.854  1.00  0.00    -0.744 OA
ENDBRANCH  55  58
ENDBRANCH  27  51
BRANCH  39  62
ATOM     62  C   UNL A   1      44.850  33.336  29.411  1.00  0.00     0.023 A 
ATOM     63  C   UNL A   1      45.653  33.444  30.563  1.00  0.00     0.012 A 
ATOM     64  C   UNL A   1      44.705  34.448  28.558  1.00  0.00     0.148 A 
ATOM     65  C   UNL A   1      46.292  34.644  30.869  1.00  0.00     0.002 A 
ATOM     66  C   UNL A   1      45.382  35.627  28.846  1.00  0.00     0.091 A 
ATOM     67  F   UNL A   1      43.920  34.327  27.478  1.00  0.00    -0.205 F 
ATOM     68  C   UNL A   1      46.169  35.730  30.005  1.00  0.00     0.022 A 
BRANCH  66  69
ATOM     69  S   UNL A   1      45.361  37.044  27.741  1.00  0.00     0.127 S 
ATOM     70  O   UNL A   1      46.211  37.993  28.458  1.00  0.00    -0.237 OA
ATOM     71  O   UNL A   1      45.952  36.496  26.521  1.00  0.00    -0.237 OA
ATOM     72  O   UNL A   1      43.962  37.433  27.613  1.00  0.00    -0.744 OA
ENDBRANCH  66  69
ENDBRANCH  39  62
ENDBRANCH  13  14
ENDBRANCH   6   8
ENDBRANCH   3   4
ENDBRANCH   2   3
ENDBRANCH   1   2
BRANCH   1  73
ATOM     73  C   UNL A   1      34.997  24.430  25.341  1.00  0.00     0.002 C 
BRANCH  73  74
ATOM     74  C   UNL A   1      33.712  24.465  26.176  1.00  0.00     0.021 C 
BRANCH  74  75
ATOM     75  C   UNL A   1      33.486  23.256  27.080  1.00  0.00     0.116 C 
BRANCH  75  76
ATOM     76  N   UNL A   1      32.075  23.007  27.317  1.00  0.00    -0.352 N 
ATOM     77  C   UNL A   1      31.111  22.597  26.434  1.00  0.00     0.256 C 
ATOM     78  H   UNL A   1      31.768  23.154  28.242  1.00  0.00     0.163 HD
ATOM     79  O   UNL A   1      29.931  22.579  26.774  1.00  0.00    -0.269 OA
BRANCH  77  80
ATOM     80  C   UNL A   1      31.456  22.248  25.041  1.00  0.00     0.099 A 
ATOM     81  C   UNL A   1      32.153  21.058  24.801  1.00  0.00     0.138 A 
ATOM     82  C   UNL A   1      31.061  23.084  23.970  1.00  0.00     0.057 A 
ATOM     83  F   UNL A   1      32.483  20.235  25.808  1.00  0.00    -0.206 F 
ATOM     84  C   UNL A   1      32.525  20.695  23.515  1.00  0.00     0.040 A 
ATOM     85  C   UNL A   1      31.418  22.674  22.680  1.00  0.00     0.027 A 
ATOM     86  C   UNL A   1      32.158  21.506  22.453  1.00  0.00     0.005 A 
BRANCH  82  87
ATOM     87  N   UNL A   1      30.328  24.266  24.264  1.00  0.00    -0.325 N 
ATOM     88  C   UNL A   1      30.572  25.611  24.236  1.00  0.00     0.227 C 
ATOM     89  H   UNL A   1      29.412  24.064  24.563  1.00  0.00     0.169 HD
ATOM     90  O   UNL A   1      29.635  26.364  24.522  1.00  0.00    -0.274 OA
BRANCH  88  91
ATOM     91  C   UNL A   1      31.939  26.179  23.896  1.00  0.00     0.079 C 
ATOM     92  C   UNL A   1      32.168  26.344  22.384  1.00  0.00     0.013 C 
ATOM     93  C   UNL A   1      32.170  27.539  24.566  1.00  0.00     0.013 C 
ATOM     94  C   UNL A   1      33.608  26.791  22.117  1.00  0.00     0.001 C 
ATOM     95  C   UNL A   1      33.615  27.984  24.365  1.00  0.00     0.001 C 
ATOM     96  C   UNL A   1      33.974  28.063  22.883  1.00  0.00     0.000 C 
ENDBRANCH  88  91
ENDBRANCH  82  87
ENDBRANCH  77  80
ENDBRANCH  75  76
ENDBRANCH  74  75
ENDBRANCH  73  74
ENDBRANCH   1  73
TORSDOF 18
ENDMDL
MODEL 3
REMARK VINA RESULT:     -12.0      1.053      1.631
REMARK SMILES O=C(NCCCCCCNC(=O)c1c(F)cccc1NC(=O)C1CCCCC1)c1ccc(-c2c3nc(c(-c4cccc(S(=O)(=O)[O-])c4F)c4ccc([nH]4)c(-c4cccc(S(=O)(=O)[O-])c4F)c4nc(c(-c5cccc(S(=O)(=O)[O-])c5F)c5ccc2[nH]5)C=C4)C=C3)cc1
REMARK SMILES IDX 6 1 5 2 4 3 3 4 1 5 2 6 29 8 30 9 91 10 31 11 90 12 32 13
REMARK SMILES IDX 33 14 34 15 84 16 35 17 89 18 83 19 85 20 36 21 88 22 82 23
REMARK SMILES IDX 81 24 37 26 69 27 49 28 68 29 50 30 53 31 67 32 86 33 51 34
REMARK SMILES IDX 52 35 66 37 87 38 54 39 38 40 39 41 47 42 40 43 42 44 48 45
REMARK SMILES IDX 41 46 43 47 44 48 45 49 46 50 70 51 71 52 79 53 72 54 74 55
REMARK SMILES IDX 80 56 73 57 75 58 76 59 77 60 78 61 55 62 56 63 64 64 57 65
REMARK SMILES IDX 59 66 65 67 58 68 60 69 61 70 62 71 63 72 7 73 8 74 9 75
REMARK SMILES IDX 10 76 11 77 12 79 13 80 14 81 19 82 15 83 16 84 18 85 17 86
REMARK SMILES IDX 20 87 21 88 22 90 23 91 24 92 28 93 25 94 27 95 26 96
REMARK H PARENT 3 7 85 25 53 36 10 78 20 89
REMARK Flexibility Score: inf
ROOT
ATOM      1  C   UNL A   1      36.023  23.294  23.306  1.00  0.00     0.002 C 
ENDROOT
BRANCH   1   2
ATOM      2  C   UNL A   1      36.624  22.070  23.997  1.00  0.00     0.021 C 
BRANCH   2   3
ATOM      3  C   UNL A   1      37.323  22.350  25.322  1.00  0.00     0.116 C 
BRANCH   3   4
ATOM      4  N   UNL A   1      38.212  21.276  25.728  1.00  0.00    -0.352 N 
ATOM      5  O   UNL A   1      40.131  20.341  26.446  1.00  0.00    -0.269 OA
ATOM      6  C   UNL A   1      39.455  21.356  26.308  1.00  0.00     0.251 C 
ATOM      7  H   UNL A   1      37.877  20.364  25.566  1.00  0.00     0.163 HD
BRANCH   6   8
ATOM      8  C   UNL A   1      39.983  22.672  26.736  1.00  0.00     0.039 A 
ATOM      9  C   UNL A   1      39.635  23.839  26.051  1.00  0.00     0.014 A 
ATOM     10  C   UNL A   1      40.835  22.737  27.843  1.00  0.00     0.014 A 
ATOM     11  C   UNL A   1      40.239  25.046  26.389  1.00  0.00     0.010 A 
ATOM     12  C   UNL A   1      41.378  23.966  28.232  1.00  0.00     0.010 A 
ATOM     13  C   UNL A   1      41.104  25.126  27.493  1.00  0.00    -0.014 A 
BRANCH  13  14
ATOM     14  C   UNL A   1      41.630  26.452  27.908  1.00  0.00     0.031 A 
ATOM     15  C   UNL A   1      43.046  26.864  27.622  1.00  0.00     0.074 A 
ATOM     16  C   UNL A   1      40.798  27.293  28.554  1.00  0.00     0.049 A 
ATOM     17  N   UNL A   1      43.634  28.002  27.885  1.00  0.00    -0.248 NA
ATOM     18  C   UNL A   1      43.918  25.878  26.964  1.00  0.00     0.031 C 
ATOM     19  C   UNL A   1      39.415  26.980  28.926  1.00  0.00     0.029 A 
ATOM     20  N   UNL A   1      40.981  28.575  29.006  1.00  0.00    -0.354 N 
ATOM     21  C   UNL A   1      44.949  27.862  27.459  1.00  0.00     0.074 A 
ATOM     22  C   UNL A   1      45.077  26.524  26.924  1.00  0.00     0.031 C 
ATOM     23  C   UNL A   1      38.866  28.049  29.516  1.00  0.00     0.029 A 
ATOM     24  C   UNL A   1      39.866  29.106  29.613  1.00  0.00     0.049 A 
ATOM     25  H   UNL A   1      41.828  29.066  28.906  1.00  0.00     0.167 HD
ATOM     26  C   UNL A   1      45.950  28.774  27.495  1.00  0.00     0.034 A 
ATOM     27  C   UNL A   1      39.668  30.306  30.191  1.00  0.00     0.034 A 
ATOM     28  C   UNL A   1      45.803  30.116  27.995  1.00  0.00     0.049 A 
ATOM     29  C   UNL A   1      40.787  31.306  30.191  1.00  0.00     0.074 A 
ATOM     30  C   UNL A   1      46.743  31.132  28.014  1.00  0.00     0.029 A 
ATOM     31  N   UNL A   1      44.649  30.630  28.569  1.00  0.00    -0.354 N 
ATOM     32  N   UNL A   1      41.985  31.196  29.671  1.00  0.00    -0.248 NA
ATOM     33  C   UNL A   1      40.525  32.601  30.833  1.00  0.00     0.031 C 
ATOM     34  C   UNL A   1      46.165  32.254  28.615  1.00  0.00     0.029 A 
ATOM     35  C   UNL A   1      44.856  31.945  28.952  1.00  0.00     0.049 A 
ATOM     36  H   UNL A   1      43.808  30.134  28.686  1.00  0.00     0.167 HD
ATOM     37  C   UNL A   1      42.615  32.411  29.906  1.00  0.00     0.074 A 
ATOM     38  C   UNL A   1      41.656  33.253  30.594  1.00  0.00     0.031 C 
ATOM     39  C   UNL A   1      43.880  32.787  29.595  1.00  0.00     0.034 A 
BRANCH  26  40
ATOM     40  C   UNL A   1      47.292  28.383  26.932  1.00  0.00     0.023 A 
ATOM     41  C   UNL A   1      48.364  28.136  27.811  1.00  0.00     0.012 A 
ATOM     42  C   UNL A   1      47.462  28.153  25.551  1.00  0.00     0.148 A 
ATOM     43  C   UNL A   1      49.591  27.682  27.326  1.00  0.00     0.002 A 
ATOM     44  C   UNL A   1      48.675  27.664  25.080  1.00  0.00     0.091 A 
ATOM     45  F   UNL A   1      46.436  28.412  24.729  1.00  0.00    -0.205 F 
ATOM     46  C   UNL A   1      49.743  27.435  25.965  1.00  0.00     0.022 A 
BRANCH  44  47
ATOM     47  S   UNL A   1      48.945  27.238  23.355  1.00  0.00     0.127 S 
ATOM     48  O   UNL A   1      50.400  27.113  23.306  1.00  0.00    -0.237 OA
ATOM     49  O   UNL A   1      48.220  25.972  23.232  1.00  0.00    -0.237 OA
ATOM     50  O   UNL A   1      48.383  28.335  22.579  1.00  0.00    -0.744 OA
ENDBRANCH  44  47
ENDBRANCH  26  40
BRANCH  27  51
ATOM     51  C   UNL A   1      38.325  30.628  30.748  1.00  0.00     0.023 A 
ATOM     52  C   UNL A   1      38.044  30.319  32.093  1.00  0.00     0.012 A 
ATOM     53  C   UNL A   1      37.370  31.332  29.988  1.00  0.00     0.148 A 
ATOM     54  C   UNL A   1      36.834  30.704  32.670  1.00  0.00     0.002 A 
ATOM     55  C   UNL A   1      36.193  31.766  30.587  1.00  0.00     0.091 A 
ATOM     56  F   UNL A   1      37.652  31.600  28.705  1.00  0.00    -0.205 F 
ATOM     57  C   UNL A   1      35.918  31.442  31.924  1.00  0.00     0.022 A 
BRANCH  55  58
ATOM     58  S   UNL A   1      35.036  32.858  29.751  1.00  0.00     0.127 S 
ATOM     59  O   UNL A   1      35.936  33.817  29.116  1.00  0.00    -0.237 OA
ATOM     60  O   UNL A   1      34.366  31.937  28.830  1.00  0.00    -0.237 OA
ATOM     61  O   UNL A   1      34.175  33.392  30.797  1.00  0.00    -0.744 OA
ENDBRANCH  55  58
ENDBRANCH  27  51
BRANCH  39  62
ATOM     62  C   UNL A   1      44.316  34.174  29.983  1.00  0.00     0.023 A 
ATOM     63  C   UNL A   1      45.022  34.367  31.186  1.00  0.00     0.012 A 
ATOM     64  C   UNL A   1      44.130  35.260  29.105  1.00  0.00     0.148 A 
ATOM     65  C   UNL A   1      45.522  35.625  31.519  1.00  0.00     0.002 A 
ATOM     66  C   UNL A   1      44.671  36.500  29.421  1.00  0.00     0.091 A 
ATOM     67  F   UNL A   1      43.440  35.056  27.974  1.00  0.00    -0.205 F 
ATOM     68  C   UNL A   1      45.360  36.687  30.631  1.00  0.00     0.022 A 
BRANCH  66  69
ATOM     69  S   UNL A   1      44.597  37.899  28.296  1.00  0.00     0.127 S 
ATOM     70  O   UNL A   1      43.159  38.155  28.234  1.00  0.00    -0.237 OA
ATOM     71  O   UNL A   1      45.367  38.916  29.013  1.00  0.00    -0.237 OA
ATOM     72  O   UNL A   1      45.204  37.447  27.052  1.00  0.00    -0.744 OA
ENDBRANCH  66  69
ENDBRANCH  39  62
ENDBRANCH  13  14
ENDBRANCH   6   8
ENDBRANCH   3   4
ENDBRANCH   2   3
ENDBRANCH   1   2
BRANCH   1  73
ATOM     73  C   UNL A   1      34.679  23.777  23.859  1.00  0.00     0.002 C 
BRANCH  73  74
ATOM     74  C   UNL A   1      33.445  23.420  23.022  1.00  0.00     0.021 C 
BRANCH  74  75
ATOM     75  C   UNL A   1      32.915  24.540  22.130  1.00  0.00     0.116 C 
BRANCH  75  76
ATOM     76  N   UNL A   1      31.537  24.880  22.440  1.00  0.00    -0.352 N 
ATOM     77  C   UNL A   1      31.052  25.690  23.433  1.00  0.00     0.256 C 
ATOM     78  H   UNL A   1      30.858  24.473  21.855  1.00  0.00     0.163 HD
ATOM     79  O   UNL A   1      29.843  25.750  23.643  1.00  0.00    -0.269 OA
BRANCH  77  80
ATOM     80  C   UNL A   1      31.967  26.439  24.317  1.00  0.00     0.099 A 
ATOM     81  C   UNL A   1      32.880  27.329  23.738  1.00  0.00     0.138 A 
ATOM     82  C   UNL A   1      31.898  26.285  25.722  1.00  0.00     0.057 A 
ATOM     83  F   UNL A   1      32.913  27.518  22.411  1.00  0.00    -0.206 F 
ATOM     84  C   UNL A   1      33.779  28.038  24.520  1.00  0.00     0.040 A 
ATOM     85  C   UNL A   1      32.793  27.041  26.489  1.00  0.00     0.027 A 
ATOM     86  C   UNL A   1      33.737  27.893  25.898  1.00  0.00     0.005 A 
BRANCH  82  87
ATOM     87  N   UNL A   1      30.932  25.393  26.263  1.00  0.00    -0.325 N 
ATOM     88  C   UNL A   1      30.880  24.061  26.568  1.00  0.00     0.227 C 
ATOM     89  H   UNL A   1      30.086  25.851  26.470  1.00  0.00     0.169 HD
ATOM     90  O   UNL A   1      29.845  23.638  27.093  1.00  0.00    -0.274 OA
BRANCH  88  91
ATOM     91  C   UNL A   1      32.027  23.115  26.258  1.00  0.00     0.079 C 
ATOM     92  C   UNL A   1      32.916  22.820  27.478  1.00  0.00     0.013 C 
ATOM     93  C   UNL A   1      31.523  21.779  25.698  1.00  0.00     0.013 C 
ATOM     94  C   UNL A   1      34.120  21.972  27.058  1.00  0.00     0.001 C 
ATOM     95  C   UNL A   1      32.700  20.935  25.217  1.00  0.00     0.001 C 
ATOM     96  C   UNL A   1      33.705  20.687  26.340  1.00  0.00     0.000 C 
ENDBRANCH  88  91
ENDBRANCH  82  87
ENDBRANCH  77  80
ENDBRANCH  75  76
ENDBRANCH  74  75
ENDBRANCH  73  74
ENDBRANCH   1  73
TORSDOF 18
ENDMDL
