MODEL 1
REMARK VINA RESULT:     -12.4      0.000      0.000
REMARK SMILES O=C(NCCCCCCNC(=O)[C@@H]1CCCC[C@H]1C(=O)Nc1ccccc1C(=O)N1CCOCC1)c1ccc(-c2c3nc(c(-c4cccc(S(=O)(=O)[O-])c4F)c4ccc([nH]4)c(-c4cccc(S(=O)(=O)[O-])c4F)c4nc(c(-c5cccc(S(=O)(=O)[O-])c5F)c5ccc2[nH]5)C=C4)C=C3)cc1
REMARK SMILES IDX 6 1 5 2 4 3 3 4 1 5 2 6 36 8 37 9 98 10 38 11 97 12 39 13
REMARK SMILES IDX 40 14 41 15 91 16 42 17 96 18 90 19 92 20 43 21 95 22 89 23
REMARK SMILES IDX 88 24 44 26 76 27 56 28 75 29 57 30 60 31 74 32 93 33 58 34
REMARK SMILES IDX 59 35 73 37 94 38 61 39 45 40 46 41 54 42 47 43 49 44 55 45
REMARK SMILES IDX 48 46 50 47 51 48 52 49 53 50 77 51 78 52 86 53 79 54 81 55
REMARK SMILES IDX 87 56 80 57 82 58 83 59 84 60 85 61 62 62 63 63 71 64 64 65
REMARK SMILES IDX 66 66 72 67 65 68 67 69 68 70 69 71 70 72 7 73 8 74 9 75
REMARK SMILES IDX 10 76 11 77 12 79 13 80 14 81 18 82 15 83 17 84 16 85 19 86
REMARK SMILES IDX 20 87 21 88 22 90 23 91 27 92 24 93 26 94 25 95 28 96 29 97
REMARK SMILES IDX 30 98 31 99 35 100 32 101 34 102 33 103
REMARK H PARENT 3 7 92 25 60 36 10 78 21 89
REMARK Flexibility Score: inf
ROOT
ATOM      1  C   UNL A   1      31.509  30.277  25.837  1.00  0.00     0.002 C 
ENDROOT
BRANCH   1   2
ATOM      2  C   UNL A   1      31.355  31.655  26.482  1.00  0.00     0.021 C 
BRANCH   2   3
ATOM      3  C   UNL A   1      32.659  32.338  26.879  1.00  0.00     0.116 C 
BRANCH   3   4
ATOM      4  N   UNL A   1      32.458  33.704  27.348  1.00  0.00    -0.352 N 
ATOM      5  O   UNL A   1      32.678  35.467  28.737  1.00  0.00    -0.269 OA
ATOM      6  C   UNL A   1      33.103  34.376  28.353  1.00  0.00     0.251 C 
ATOM      7  H   UNL A   1      31.761  34.214  26.875  1.00  0.00     0.163 HD
BRANCH   6   8
ATOM      8  C   UNL A   1      34.296  33.774  28.977  1.00  0.00     0.039 A 
ATOM      9  C   UNL A   1      34.155  32.701  29.860  1.00  0.00     0.014 A 
ATOM     10  C   UNL A   1      35.563  34.284  28.680  1.00  0.00     0.014 A 
ATOM     11  C   UNL A   1      35.261  32.221  30.546  1.00  0.00     0.010 A 
ATOM     12  C   UNL A   1      36.688  33.735  29.301  1.00  0.00     0.010 A 
ATOM     13  C   UNL A   1      36.543  32.711  30.251  1.00  0.00    -0.014 A 
BRANCH  13  14
ATOM     14  C   UNL A   1      37.723  32.053  30.858  1.00  0.00     0.031 A 
ATOM     15  C   UNL A   1      38.534  31.043  30.100  1.00  0.00     0.074 A 
ATOM     16  C   UNL A   1      38.037  32.370  32.131  1.00  0.00     0.049 A 
ATOM     17  N   UNL A   1      39.578  30.366  30.502  1.00  0.00    -0.248 NA
ATOM     18  C   UNL A   1      38.120  30.746  28.720  1.00  0.00     0.031 C 
ATOM     19  C   UNL A   1      37.288  33.310  32.971  1.00  0.00     0.029 A 
ATOM     20  N   UNL A   1      39.050  31.935  32.944  1.00  0.00    -0.354 N 
ATOM     21  C   UNL A   1      39.922  29.531  29.446  1.00  0.00     0.074 A 
ATOM     22  C   UNL A   1      38.974  29.787  28.381  1.00  0.00     0.031 C 
ATOM     23  C   UNL A   1      37.872  33.391  34.173  1.00  0.00     0.029 A 
ATOM     24  C   UNL A   1      38.992  32.461  34.214  1.00  0.00     0.049 A 
ATOM     25  H   UNL A   1      39.749  31.308  32.649  1.00  0.00     0.167 HD
ATOM     26  C   UNL A   1      40.939  28.639  29.374  1.00  0.00     0.034 A 
ATOM     27  C   UNL A   1      39.733  32.197  35.305  1.00  0.00     0.034 A 
ATOM     28  C   UNL A   1      41.884  28.410  30.435  1.00  0.00     0.049 A 
ATOM     29  C   UNL A   1      40.850  31.203  35.192  1.00  0.00     0.074 A 
ATOM     30  C   UNL A   1      42.994  27.584  30.435  1.00  0.00     0.029 A 
ATOM     31  N   UNL A   1      41.821  28.991  31.694  1.00  0.00    -0.354 N 
ATOM     32  N   UNL A   1      41.244  30.524  34.142  1.00  0.00    -0.248 NA
ATOM     33  C   UNL A   1      41.640  30.953  36.404  1.00  0.00     0.031 C 
ATOM     34  C   UNL A   1      43.576  27.632  31.705  1.00  0.00     0.029 A 
ATOM     35  C   UNL A   1      42.856  28.523  32.485  1.00  0.00     0.049 A 
ATOM     36  H   UNL A   1      41.139  29.640  31.982  1.00  0.00     0.167 HD
ATOM     37  C   UNL A   1      42.344  29.787  34.558  1.00  0.00     0.074 A 
ATOM     38  C   UNL A   1      42.569  30.123  35.949  1.00  0.00     0.031 C 
ATOM     39  C   UNL A   1      43.091  28.900  33.856  1.00  0.00     0.034 A 
BRANCH  26  40
ATOM     40  C   UNL A   1      41.099  27.847  28.101  1.00  0.00     0.023 A 
ATOM     41  C   UNL A   1      41.613  28.469  26.945  1.00  0.00     0.012 A 
ATOM     42  C   UNL A   1      40.813  26.467  28.073  1.00  0.00     0.148 A 
ATOM     43  C   UNL A   1      41.814  27.737  25.775  1.00  0.00     0.002 A 
ATOM     44  C   UNL A   1      41.057  25.735  26.916  1.00  0.00     0.091 A 
ATOM     45  F   UNL A   1      40.308  25.896  29.176  1.00  0.00    -0.205 F 
ATOM     46  C   UNL A   1      41.546  26.371  25.763  1.00  0.00     0.022 A 
BRANCH  44  47
ATOM     47  S   UNL A   1      40.821  23.957  26.822  1.00  0.00     0.127 S 
ATOM     48  O   UNL A   1      39.398  23.866  26.502  1.00  0.00    -0.237 OA
ATOM     49  O   UNL A   1      41.717  23.587  25.726  1.00  0.00    -0.237 OA
ATOM     50  O   UNL A   1      41.202  23.431  28.125  1.00  0.00    -0.744 OA
ENDBRANCH  44  47
ENDBRANCH  26  40
BRANCH  27  51
ATOM     51  C   UNL A   1      39.442  32.898  36.586  1.00  0.00     0.023 A 
ATOM     52  C   UNL A   1      40.038  34.144  36.849  1.00  0.00     0.012 A 
ATOM     53  C   UNL A   1      38.543  32.352  37.524  1.00  0.00     0.148 A 
ATOM     54  C   UNL A   1      39.770  34.821  38.040  1.00  0.00     0.002 A 
ATOM     55  C   UNL A   1      38.233  33.059  38.678  1.00  0.00     0.091 A 
ATOM     56  F   UNL A   1      37.992  31.159  37.256  1.00  0.00    -0.205 F 
ATOM     57  C   UNL A   1      38.860  34.285  38.948  1.00  0.00     0.022 A 
BRANCH  55  58
ATOM     58  S   UNL A   1      36.969  32.511  39.830  1.00  0.00     0.127 S 
ATOM     59  O   UNL A   1      37.490  31.212  40.248  1.00  0.00    -0.237 OA
ATOM     60  O   UNL A   1      37.021  33.555  40.854  1.00  0.00    -0.237 OA
ATOM     61  O   UNL A   1      35.729  32.480  39.068  1.00  0.00    -0.744 OA
ENDBRANCH  55  58
ENDBRANCH  27  51
BRANCH  39  62
ATOM     62  C   UNL A   1      44.248  28.254  34.570  1.00  0.00     0.023 A 
ATOM     63  C   UNL A   1      45.497  28.903  34.617  1.00  0.00     0.012 A 
ATOM     64  C   UNL A   1      44.075  27.035  35.254  1.00  0.00     0.148 A 
ATOM     65  C   UNL A   1      46.567  28.333  35.305  1.00  0.00     0.002 A 
ATOM     66  C   UNL A   1      45.128  26.500  35.983  1.00  0.00     0.091 A 
ATOM     67  F   UNL A   1      42.883  26.426  35.181  1.00  0.00    -0.205 F 
ATOM     68  C   UNL A   1      46.379  27.138  35.999  1.00  0.00     0.022 A 
BRANCH  66  69
ATOM     69  S   UNL A   1      44.953  25.020  36.986  1.00  0.00     0.127 S 
ATOM     70  O   UNL A   1      46.329  24.793  37.424  1.00  0.00    -0.237 OA
ATOM     71  O   UNL A   1      44.042  25.469  38.039  1.00  0.00    -0.237 OA
ATOM     72  O   UNL A   1      44.404  23.998  36.105  1.00  0.00    -0.744 OA
ENDBRANCH  66  69
ENDBRANCH  39  62
ENDBRANCH  13  14
ENDBRANCH   6   8
ENDBRANCH   3   4
ENDBRANCH   2   3
ENDBRANCH   1   2
BRANCH   1  73
ATOM     73  C   UNL A   1      31.437  29.074  26.788  1.00  0.00     0.002 C 
BRANCH  73  74
ATOM     74  C   UNL A   1      32.769  28.575  27.382  1.00  0.00     0.021 C 
BRANCH  74  75
ATOM     75  C   UNL A   1      33.978  28.888  26.485  1.00  0.00     0.116 C 
BRANCH  75  76
ATOM     76  N   UNL A   1      34.233  27.847  25.417  1.00  0.00    -0.356 N 
ATOM     77  C   UNL A   1      33.641  27.570  24.195  1.00  0.00     0.223 C 
ATOM     78  H   UNL A   1      34.976  27.239  25.636  1.00  0.00     0.163 HD
ATOM     79  O   UNL A   1      34.326  27.916  23.216  1.00  0.00    -0.275 OA
BRANCH  77  80
ATOM     80  C   UNL A   1      32.394  26.583  23.937  1.00  0.00     0.091 C 
ATOM     81  C   UNL A   1      31.357  27.614  23.346  1.00  0.00     0.014 C 
ATOM     82  C   UNL A   1      31.628  25.867  25.176  1.00  0.00     0.091 C 
ATOM     83  C   UNL A   1      29.998  27.031  22.978  1.00  0.00     0.001 C 
ATOM     84  C   UNL A   1      30.242  25.318  24.738  1.00  0.00     0.014 C 
ATOM     85  C   UNL A   1      29.339  26.394  24.184  1.00  0.00     0.001 C 
BRANCH  82  86
ATOM     86  C   UNL A   1      32.023  24.783  26.265  1.00  0.00     0.228 C 
ATOM     87  O   UNL A   1      31.291  24.678  27.263  1.00  0.00    -0.274 OA
ATOM     88  N   UNL A   1      32.896  23.733  26.098  1.00  0.00    -0.325 N 
ATOM     89  H   UNL A   1      32.704  22.946  26.657  1.00  0.00     0.169 HD
BRANCH  88  90
ATOM     90  C   UNL A   1      34.009  23.602  25.266  1.00  0.00     0.054 A 
ATOM     91  C   UNL A   1      35.124  24.424  25.478  1.00  0.00     0.027 A 
ATOM     92  C   UNL A   1      34.072  22.648  24.273  1.00  0.00     0.063 A 
ATOM     93  C   UNL A   1      36.364  24.079  24.923  1.00  0.00     0.002 A 
ATOM     94  C   UNL A   1      35.329  22.252  23.776  1.00  0.00     0.016 A 
ATOM     95  C   UNL A   1      36.481  22.940  24.135  1.00  0.00     0.001 A 
BRANCH  92  96
ATOM     96  C   UNL A   1      32.881  21.923  23.818  1.00  0.00     0.256 C 
ATOM     97  O   UNL A   1      32.135  22.673  23.210  1.00  0.00    -0.269 OA
ATOM     98  N   UNL A   1      32.719  20.534  23.991  1.00  0.00    -0.334 N 
ATOM     99  C   UNL A   1      32.380  20.037  25.315  1.00  0.00     0.148 C 
ATOM    100  C   UNL A   1      32.199  19.632  22.938  1.00  0.00     0.148 C 
ATOM    101  C   UNL A   1      32.732  18.550  25.460  1.00  0.00     0.181 C 
ATOM    102  C   UNL A   1      32.492  18.146  23.168  1.00  0.00     0.181 C 
ATOM    103  O   UNL A   1      32.059  17.751  24.470  1.00  0.00    -0.378 OA
ENDBRANCH  92  96
ENDBRANCH  88  90
ENDBRANCH  82  86
ENDBRANCH  77  80
ENDBRANCH  75  76
ENDBRANCH  74  75
ENDBRANCH  73  74
ENDBRANCH   1  73
TORSDOF 19
ENDMDL
MODEL 2
REMARK VINA RESULT:     -11.6      1.668      2.082
REMARK SMILES O=C(NCCCCCCNC(=O)[C@@H]1CCCC[C@H]1C(=O)Nc1ccccc1C(=O)N1CCOCC1)c1ccc(-c2c3nc(c(-c4cccc(S(=O)(=O)[O-])c4F)c4ccc([nH]4)c(-c4cccc(S(=O)(=O)[O-])c4F)c4nc(c(-c5cccc(S(=O)(=O)[O-])c5F)c5ccc2[nH]5)C=C4)C=C3)cc1
REMARK SMILES IDX 6 1 5 2 4 3 3 4 1 5 2 6 36 8 37 9 98 10 38 11 97 12 39 13
REMARK SMILES IDX 40 14 41 15 91 16 42 17 96 18 90 19 92 20 43 21 95 22 89 23
REMARK SMILES IDX 88 24 44 26 76 27 56 28 75 29 57 30 60 31 74 32 93 33 58 34
REMARK SMILES IDX 59 35 73 37 94 38 61 39 45 40 46 41 54 42 47 43 49 44 55 45
REMARK SMILES IDX 48 46 50 47 51 48 52 49 53 50 77 51 78 52 86 53 79 54 81 55
REMARK SMILES IDX 87 56 80 57 82 58 83 59 84 60 85 61 62 62 63 63 71 64 64 65
REMARK SMILES IDX 66 66 72 67 65 68 67 69 68 70 69 71 70 72 7 73 8 74 9 75
REMARK SMILES IDX 10 76 11 77 12 79 13 80 14 81 18 82 15 83 17 84 16 85 19 86
REMARK SMILES IDX 20 87 21 88 22 90 23 91 27 92 24 93 26 94 25 95 28 96 29 97
REMARK SMILES IDX 30 98 31 99 35 100 32 101 34 102 33 103
REMARK H PARENT 3 7 92 25 60 36 10 78 21 89
REMARK Flexibility Score: inf
ROOT
ATOM      1  C   UNL A   1      33.286  31.365  28.039  1.00  0.00     0.002 C 
ENDROOT
BRANCH   1   2
ATOM      2  C   UNL A   1      32.593  32.510  27.299  1.00  0.00     0.021 C 
BRANCH   2   3
ATOM      3  C   UNL A   1      33.366  33.823  27.261  1.00  0.00     0.116 C 
BRANCH   3   4
ATOM      4  N   UNL A   1      32.821  34.822  28.171  1.00  0.00    -0.352 N 
ATOM      5  O   UNL A   1      32.443  35.824  30.157  1.00  0.00    -0.269 OA
ATOM      6  C   UNL A   1      33.134  35.057  29.485  1.00  0.00     0.251 C 
ATOM      7  H   UNL A   1      32.132  35.411  27.788  1.00  0.00     0.163 HD
BRANCH   6   8
ATOM      8  C   UNL A   1      34.294  34.372  30.087  1.00  0.00     0.039 A 
ATOM      9  C   UNL A   1      35.583  34.647  29.623  1.00  0.00     0.014 A 
ATOM     10  C   UNL A   1      34.095  33.452  31.119  1.00  0.00     0.014 A 
ATOM     11  C   UNL A   1      36.659  33.911  30.097  1.00  0.00     0.010 A 
ATOM     12  C   UNL A   1      35.192  32.779  31.662  1.00  0.00     0.010 A 
ATOM     13  C   UNL A   1      36.480  32.992  31.143  1.00  0.00    -0.014 A 
BRANCH  13  14
ATOM     14  C   UNL A   1      37.671  32.358  31.757  1.00  0.00     0.031 A 
ATOM     15  C   UNL A   1      38.409  31.247  31.068  1.00  0.00     0.074 A 
ATOM     16  C   UNL A   1      38.060  32.792  32.972  1.00  0.00     0.049 A 
ATOM     17  N   UNL A   1      39.452  30.578  31.485  1.00  0.00    -0.248 NA
ATOM     18  C   UNL A   1      37.914  30.825  29.748  1.00  0.00     0.031 C 
ATOM     19  C   UNL A   1      37.386  33.839  33.746  1.00  0.00     0.029 A 
ATOM     20  N   UNL A   1      39.102  32.407  33.775  1.00  0.00    -0.354 N 
ATOM     21  C   UNL A   1      39.714  29.628  30.506  1.00  0.00     0.074 A 
ATOM     22  C   UNL A   1      38.719  29.808  29.469  1.00  0.00     0.031 C 
ATOM     23  C   UNL A   1      38.035  34.021  34.903  1.00  0.00     0.029 A 
ATOM     24  C   UNL A   1      39.127  33.062  34.984  1.00  0.00     0.049 A 
ATOM     25  H   UNL A   1      39.765  31.728  33.512  1.00  0.00     0.167 HD
ATOM     26  C   UNL A   1      40.698  28.698  30.477  1.00  0.00     0.034 A 
ATOM     27  C   UNL A   1      39.917  32.884  36.058  1.00  0.00     0.034 A 
ATOM     28  C   UNL A   1      41.691  28.546  31.508  1.00  0.00     0.049 A 
ATOM     29  C   UNL A   1      40.996  31.845  35.994  1.00  0.00     0.074 A 
ATOM     30  C   UNL A   1      42.774  27.685  31.538  1.00  0.00     0.029 A 
ATOM     31  N   UNL A   1      41.713  29.253  32.701  1.00  0.00    -0.354 N 
ATOM     32  N   UNL A   1      41.313  31.048  35.002  1.00  0.00    -0.248 NA
ATOM     33  C   UNL A   1      41.841  31.693  37.184  1.00  0.00     0.031 C 
ATOM     34  C   UNL A   1      43.424  27.842  32.766  1.00  0.00     0.029 A 
ATOM     35  C   UNL A   1      42.774  28.832  33.484  1.00  0.00     0.049 A 
ATOM     36  H   UNL A   1      41.067  29.953  32.954  1.00  0.00     0.167 HD
ATOM     37  C   UNL A   1      42.411  30.319  35.437  1.00  0.00     0.074 A 
ATOM     38  C   UNL A   1      42.720  30.788  36.773  1.00  0.00     0.031 C 
ATOM     39  C   UNL A   1      43.092  29.339  34.795  1.00  0.00     0.034 A 
BRANCH  26  40
ATOM     40  C   UNL A   1      40.767  27.775  29.287  1.00  0.00     0.023 A 
ATOM     41  C   UNL A   1      39.926  26.645  29.224  1.00  0.00     0.012 A 
ATOM     42  C   UNL A   1      41.608  28.071  28.196  1.00  0.00     0.148 A 
ATOM     43  C   UNL A   1      39.943  25.809  28.107  1.00  0.00     0.002 A 
ATOM     44  C   UNL A   1      41.587  27.257  27.068  1.00  0.00     0.091 A 
ATOM     45  F   UNL A   1      42.414  29.139  28.281  1.00  0.00    -0.205 F 
ATOM     46  C   UNL A   1      40.764  26.120  27.027  1.00  0.00     0.022 A 
BRANCH  44  47
ATOM     47  S   UNL A   1      42.547  27.617  25.592  1.00  0.00     0.127 S 
ATOM     48  O   UNL A   1      43.897  27.730  26.141  1.00  0.00    -0.237 OA
ATOM     49  O   UNL A   1      42.318  26.421  24.780  1.00  0.00    -0.237 OA
ATOM     50  O   UNL A   1      41.993  28.844  25.041  1.00  0.00    -0.744 OA
ENDBRANCH  44  47
ENDBRANCH  26  40
BRANCH  27  51
ATOM     51  C   UNL A   1      39.715  33.723  37.272  1.00  0.00     0.023 A 
ATOM     52  C   UNL A   1      40.255  35.021  37.321  1.00  0.00     0.012 A 
ATOM     53  C   UNL A   1      38.955  33.252  38.362  1.00  0.00     0.148 A 
ATOM     54  C   UNL A   1      40.068  35.825  38.446  1.00  0.00     0.002 A 
ATOM     55  C   UNL A   1      38.721  34.079  39.452  1.00  0.00     0.091 A 
ATOM     56  F   UNL A   1      38.457  32.008  38.298  1.00  0.00    -0.205 F 
ATOM     57  C   UNL A   1      39.293  35.360  39.505  1.00  0.00     0.022 A 
BRANCH  55  58
ATOM     58  S   UNL A   1      37.621  33.615  40.793  1.00  0.00     0.127 S 
ATOM     59  O   UNL A   1      38.417  32.614  41.498  1.00  0.00    -0.237 OA
ATOM     60  O   UNL A   1      37.457  34.884  41.502  1.00  0.00    -0.237 OA
ATOM     61  O   UNL A   1      36.409  33.123  40.154  1.00  0.00    -0.744 OA
ENDBRANCH  55  58
ENDBRANCH  27  51
BRANCH  39  62
ATOM     62  C   UNL A   1      44.266  28.730  35.514  1.00  0.00     0.023 A 
ATOM     63  C   UNL A   1      45.565  29.225  35.288  1.00  0.00     0.012 A 
ATOM     64  C   UNL A   1      44.069  27.711  36.466  1.00  0.00     0.148 A 
ATOM     65  C   UNL A   1      46.655  28.693  35.974  1.00  0.00     0.002 A 
ATOM     66  C   UNL A   1      45.151  27.223  37.186  1.00  0.00     0.091 A 
ATOM     67  F   UNL A   1      42.826  27.242  36.653  1.00  0.00    -0.205 F 
ATOM     68  C   UNL A   1      46.447  27.701  36.932  1.00  0.00     0.022 A 
BRANCH  66  69
ATOM     69  S   UNL A   1      44.968  26.019  38.507  1.00  0.00     0.127 S 
ATOM     70  O   UNL A   1      44.549  24.829  37.769  1.00  0.00    -0.237 OA
ATOM     71  O   UNL A   1      46.323  25.954  39.053  1.00  0.00    -0.237 OA
ATOM     72  O   UNL A   1      43.973  26.568  39.418  1.00  0.00    -0.744 OA
ENDBRANCH  66  69
ENDBRANCH  39  62
ENDBRANCH  13  14
ENDBRANCH   6   8
ENDBRANCH   3   4
ENDBRANCH   2   3
ENDBRANCH   1   2
BRANCH   1  73
ATOM     73  C   UNL A   1      34.714  31.032  27.587  1.00  0.00     0.002 C 
BRANCH  73  74
ATOM     74  C   UNL A   1      34.889  29.793  26.685  1.00  0.00     0.021 C 
BRANCH  74  75
ATOM     75  C   UNL A   1      34.221  28.535  27.263  1.00  0.00     0.116 C 
BRANCH  75  76
ATOM     76  N   UNL A   1      32.855  28.247  26.681  1.00  0.00    -0.356 N 
ATOM     77  C   UNL A   1      32.058  27.113  26.634  1.00  0.00     0.223 C 
ATOM     78  H   UNL A   1      32.445  29.028  26.244  1.00  0.00     0.163 HD
ATOM     79  O   UNL A   1      31.089  27.149  27.414  1.00  0.00    -0.275 OA
BRANCH  77  80
ATOM     80  C   UNL A   1      32.065  25.984  25.485  1.00  0.00     0.091 C 
ATOM     81  C   UNL A   1      31.336  26.774  24.331  1.00  0.00     0.014 C 
ATOM     82  C   UNL A   1      31.221  24.609  25.663  1.00  0.00     0.091 C 
ATOM     83  C   UNL A   1      31.140  25.998  23.036  1.00  0.00     0.001 C 
ATOM     84  C   UNL A   1      31.037  23.882  24.303  1.00  0.00     0.014 C 
ATOM     85  C   UNL A   1      30.333  24.738  23.276  1.00  0.00     0.001 C 
BRANCH  82  86
ATOM     86  C   UNL A   1      31.304  23.359  26.636  1.00  0.00     0.228 C 
ATOM     87  O   UNL A   1      30.333  23.145  27.382  1.00  0.00    -0.274 OA
ATOM     88  N   UNL A   1      32.180  22.303  26.542  1.00  0.00    -0.325 N 
ATOM     89  H   UNL A   1      31.839  21.452  26.903  1.00  0.00     0.169 HD
BRANCH  88  90
ATOM     90  C   UNL A   1      33.472  22.240  26.018  1.00  0.00     0.054 A 
ATOM     91  C   UNL A   1      34.419  23.193  26.413  1.00  0.00     0.027 A 
ATOM     92  C   UNL A   1      33.866  21.231  25.164  1.00  0.00     0.063 A 
ATOM     93  C   UNL A   1      35.784  22.952  26.206  1.00  0.00     0.002 A 
ATOM     94  C   UNL A   1      35.238  20.945  25.024  1.00  0.00     0.016 A 
ATOM     95  C   UNL A   1      36.197  21.781  25.582  1.00  0.00     0.001 A 
BRANCH  92  96
ATOM     96  C   UNL A   1      32.898  20.347  24.507  1.00  0.00     0.256 C 
ATOM     97  O   UNL A   1      32.058  21.005  23.916  1.00  0.00    -0.269 OA
ATOM     98  N   UNL A   1      33.025  18.944  24.501  1.00  0.00    -0.334 N 
ATOM     99  C   UNL A   1      32.700  18.215  25.717  1.00  0.00     0.148 C 
ATOM    100  C   UNL A   1      32.794  18.105  23.303  1.00  0.00     0.148 C 
ATOM    101  C   UNL A   1      33.351  16.825  25.725  1.00  0.00     0.181 C 
ATOM    102  C   UNL A   1      33.381  16.692  23.389  1.00  0.00     0.181 C 
ATOM    103  O   UNL A   1      32.943  16.046  24.585  1.00  0.00    -0.378 OA
ENDBRANCH  92  96
ENDBRANCH  88  90
ENDBRANCH  82  86
ENDBRANCH  77  80
ENDBRANCH  75  76
ENDBRANCH  74  75
ENDBRANCH  73  74
ENDBRANCH   1  73
TORSDOF 19
ENDMDL
MODEL 3
REMARK VINA RESULT:     -11.5      5.611     11.210
REMARK SMILES O=C(NCCCCCCNC(=O)[C@@H]1CCCC[C@H]1C(=O)Nc1ccccc1C(=O)N1CCOCC1)c1ccc(-c2c3nc(c(-c4cccc(S(=O)(=O)[O-])c4F)c4ccc([nH]4)c(-c4cccc(S(=O)(=O)[O-])c4F)c4nc(c(-c5cccc(S(=O)(=O)[O-])c5F)c5ccc2[nH]5)C=C4)C=C3)cc1
REMARK SMILES IDX 6 1 5 2 4 3 3 4 1 5 2 6 36 8 37 9 98 10 38 11 97 12 39 13
REMARK SMILES IDX 40 14 41 15 91 16 42 17 96 18 90 19 92 20 43 21 95 22 89 23
REMARK SMILES IDX 88 24 44 26 76 27 56 28 75 29 57 30 60 31 74 32 93 33 58 34
REMARK SMILES IDX 59 35 73 37 94 38 61 39 45 40 46 41 54 42 47 43 49 44 55 45
REMARK SMILES IDX 48 46 50 47 51 48 52 49 53 50 77 51 78 52 86 53 79 54 81 55
REMARK SMILES IDX 87 56 80 57 82 58 83 59 84 60 85 61 62 62 63 63 71 64 64 65
REMARK SMILES IDX 66 66 72 67 65 68 67 69 68 70 69 71 70 72 7 73 8 74 9 75
REMARK SMILES IDX 10 76 11 77 12 79 13 80 14 81 18 82 15 83 17 84 16 85 19 86
REMARK SMILES IDX 20 87 21 88 22 90 23 91 27 92 24 93 26 94 25 95 28 96 29 97
REMARK SMILES IDX 30 98 31 99 35 100 32 101 34 102 33 103
REMARK H PARENT 3 7 92 25 60 36 10 78 21 89
REMARK Flexibility Score: inf
ROOT
ATOM      1  C   UNL A   1      36.893  20.637  24.905  1.00  0.00     0.002 C 
ENDROOT
BRANCH   1   2
ATOM      2  C   UNL A   1      38.035  19.634  25.077  1.00  0.00     0.021 C 
BRANCH   2   3
ATOM      3  C   UNL A   1      39.150  20.073  26.019  1.00  0.00     0.116 C 
BRANCH   3   4
ATOM      4  N   UNL A   1      40.309  19.191  25.966  1.00  0.00    -0.352 N 
ATOM      5  O   UNL A   1      42.494  18.654  25.794  1.00  0.00    -0.269 OA
ATOM      6  C   UNL A   1      41.641  19.508  26.041  1.00  0.00     0.251 C 
ATOM      7  H   UNL A   1      40.107  18.233  25.862  1.00  0.00     0.163 HD
BRANCH   6   8
ATOM      8  C   UNL A   1      42.040  20.881  26.404  1.00  0.00     0.039 A 
ATOM      9  C   UNL A   1      42.134  21.863  25.415  1.00  0.00     0.014 A 
ATOM     10  C   UNL A   1      42.320  21.190  27.737  1.00  0.00     0.014 A 
ATOM     11  C   UNL A   1      42.633  23.118  25.734  1.00  0.00     0.010 A 
ATOM     12  C   UNL A   1      42.732  22.482  28.073  1.00  0.00     0.010 A 
ATOM     13  C   UNL A   1      42.907  23.450  27.071  1.00  0.00    -0.014 A 
BRANCH  13  14
ATOM     14  C   UNL A   1      43.259  24.850  27.407  1.00  0.00     0.031 A 
ATOM     15  C   UNL A   1      42.262  25.778  28.037  1.00  0.00     0.074 A 
ATOM     16  C   UNL A   1      44.501  25.278  27.106  1.00  0.00     0.049 A 
ATOM     17  N   UNL A   1      42.411  27.034  28.369  1.00  0.00    -0.248 NA
ATOM     18  C   UNL A   1      40.925  25.236  28.325  1.00  0.00     0.031 C 
ATOM     19  C   UNL A   1      45.534  24.467  26.454  1.00  0.00     0.029 A 
ATOM     20  N   UNL A   1      45.105  26.494  27.293  1.00  0.00    -0.354 N 
ATOM     21  C   UNL A   1      41.181  27.448  28.864  1.00  0.00     0.074 A 
ATOM     22  C   UNL A   1      40.292  26.307  28.789  1.00  0.00     0.031 C 
ATOM     23  C   UNL A   1      46.645  25.200  26.307  1.00  0.00     0.029 A 
ATOM     24  C   UNL A   1      46.383  26.549  26.788  1.00  0.00     0.049 A 
ATOM     25  H   UNL A   1      44.667  27.252  27.742  1.00  0.00     0.167 HD
ATOM     26  C   UNL A   1      40.831  28.667  29.339  1.00  0.00     0.034 A 
ATOM     27  C   UNL A   1      47.240  27.582  26.688  1.00  0.00     0.034 A 
ATOM     28  C   UNL A   1      41.733  29.786  29.423  1.00  0.00     0.049 A 
ATOM     29  C   UNL A   1      46.821  28.918  27.222  1.00  0.00     0.074 A 
ATOM     30  C   UNL A   1      41.499  31.041  29.958  1.00  0.00     0.029 A 
ATOM     31  N   UNL A   1      43.034  29.796  28.942  1.00  0.00    -0.354 N 
ATOM     32  N   UNL A   1      45.699  29.254  27.812  1.00  0.00    -0.248 NA
ATOM     33  C   UNL A   1      47.791  30.013  27.102  1.00  0.00     0.031 C 
ATOM     34  C   UNL A   1      42.642  31.821  29.762  1.00  0.00     0.029 A 
ATOM     35  C   UNL A   1      43.606  31.040  29.144  1.00  0.00     0.049 A 
ATOM     36  H   UNL A   1      43.484  29.029  28.517  1.00  0.00     0.167 HD
ATOM     37  C   UNL A   1      45.837  30.591  28.156  1.00  0.00     0.074 A 
ATOM     38  C   UNL A   1      47.163  30.996  27.733  1.00  0.00     0.031 C 
ATOM     39  C   UNL A   1      44.942  31.415  28.755  1.00  0.00     0.034 A 
BRANCH  26  40
ATOM     40  C   UNL A   1      39.416  28.861  29.822  1.00  0.00     0.023 A 
ATOM     41  C   UNL A   1      39.072  28.524  31.147  1.00  0.00     0.012 A 
ATOM     42  C   UNL A   1      38.446  29.451  28.986  1.00  0.00     0.148 A 
ATOM     43  C   UNL A   1      37.779  28.744  31.623  1.00  0.00     0.002 A 
ATOM     44  C   UNL A   1      37.172  29.707  29.481  1.00  0.00     0.091 A 
ATOM     45  F   UNL A   1      38.786  29.748  27.724  1.00  0.00    -0.205 F 
ATOM     46  C   UNL A   1      36.834  29.344  30.795  1.00  0.00     0.022 A 
BRANCH  44  47
ATOM     47  S   UNL A   1      35.908  30.548  28.522  1.00  0.00     0.127 S 
ATOM     48  O   UNL A   1      35.155  29.420  27.976  1.00  0.00    -0.237 OA
ATOM     49  O   UNL A   1      35.200  31.311  29.552  1.00  0.00    -0.237 OA
ATOM     50  O   UNL A   1      36.617  31.358  27.543  1.00  0.00    -0.744 OA
ENDBRANCH  44  47
ENDBRANCH  26  40
BRANCH  27  51
ATOM     51  C   UNL A   1      48.577  27.376  26.066  1.00  0.00     0.023 A 
ATOM     52  C   UNL A   1      49.652  26.928  26.855  1.00  0.00     0.012 A 
ATOM     53  C   UNL A   1      48.776  27.584  24.686  1.00  0.00     0.148 A 
ATOM     54  C   UNL A   1      50.910  26.721  26.288  1.00  0.00     0.002 A 
ATOM     55  C   UNL A   1      50.014  27.317  24.117  1.00  0.00     0.091 A 
ATOM     56  F   UNL A   1      47.741  28.019  23.954  1.00  0.00    -0.205 F 
ATOM     57  C   UNL A   1      51.088  26.904  24.919  1.00  0.00     0.022 A 
BRANCH  55  58
ATOM     58  S   UNL A   1      50.293  27.390  22.344  1.00  0.00     0.127 S 
ATOM     59  O   UNL A   1      50.147  28.819  22.079  1.00  0.00    -0.237 OA
ATOM     60  O   UNL A   1      51.659  26.877  22.232  1.00  0.00    -0.237 OA
ATOM     61  O   UNL A   1      49.279  26.529  21.751  1.00  0.00    -0.744 OA
ENDBRANCH  55  58
ENDBRANCH  27  51
BRANCH  39  62
ATOM     62  C   UNL A   1      45.378  32.830  29.023  1.00  0.00     0.023 A 
ATOM     63  C   UNL A   1      45.996  33.157  30.245  1.00  0.00     0.012 A 
ATOM     64  C   UNL A   1      45.235  33.821  28.032  1.00  0.00     0.148 A 
ATOM     65  C   UNL A   1      46.436  34.456  30.491  1.00  0.00     0.002 A 
ATOM     66  C   UNL A   1      45.725  35.099  28.262  1.00  0.00     0.091 A 
ATOM     67  F   UNL A   1      44.627  33.492  26.883  1.00  0.00    -0.205 F 
ATOM     68  C   UNL A   1      46.312  35.424  29.496  1.00  0.00     0.022 A 
BRANCH  66  69
ATOM     69  S   UNL A   1      45.699  36.383  27.006  1.00  0.00     0.127 S 
ATOM     70  O   UNL A   1      44.290  36.770  27.004  1.00  0.00    -0.237 OA
ATOM     71  O   UNL A   1      46.607  37.381  27.568  1.00  0.00    -0.237 OA
ATOM     72  O   UNL A   1      46.172  35.756  25.779  1.00  0.00    -0.744 OA
ENDBRANCH  66  69
ENDBRANCH  39  62
ENDBRANCH  13  14
ENDBRANCH   6   8
ENDBRANCH   3   4
ENDBRANCH   2   3
ENDBRANCH   1   2
BRANCH   1  73
ATOM     73  C   UNL A   1      35.471  20.060  24.967  1.00  0.00     0.002 C 
BRANCH  73  74
ATOM     74  C   UNL A   1      34.378  20.967  25.567  1.00  0.00     0.021 C 
BRANCH  74  75
ATOM     75  C   UNL A   1      34.889  22.377  25.906  1.00  0.00     0.116 C 
BRANCH  75  76
ATOM     76  N   UNL A   1      33.907  23.209  26.700  1.00  0.00    -0.356 N 
ATOM     77  C   UNL A   1      32.533  23.152  26.877  1.00  0.00     0.223 C 
ATOM     78  H   UNL A   1      34.332  23.946  27.195  1.00  0.00     0.163 HD
ATOM     79  O   UNL A   1      32.189  22.716  27.990  1.00  0.00    -0.275 OA
BRANCH  77  80
ATOM     80  C   UNL A   1      31.419  23.884  25.972  1.00  0.00     0.091 C 
ATOM     81  C   UNL A   1      31.588  23.068  24.632  1.00  0.00     0.014 C 
ATOM     82  C   UNL A   1      31.582  25.442  25.549  1.00  0.00     0.091 C 
ATOM     83  C   UNL A   1      30.674  23.497  23.491  1.00  0.00     0.001 C 
ATOM     84  C   UNL A   1      30.642  25.805  24.366  1.00  0.00     0.014 C 
ATOM     85  C   UNL A   1      30.891  24.955  23.143  1.00  0.00     0.001 C 
BRANCH  82  86
ATOM     86  C   UNL A   1      31.589  26.822  26.331  1.00  0.00     0.228 C 
ATOM     87  O   UNL A   1      31.108  26.836  27.477  1.00  0.00    -0.274 OA
ATOM     88  N   UNL A   1      32.337  27.935  26.024  1.00  0.00    -0.325 N 
ATOM     89  H   UNL A   1      32.568  28.501  26.796  1.00  0.00     0.169 HD
BRANCH  88  90
ATOM     90  C   UNL A   1      32.822  28.392  24.798  1.00  0.00     0.054 A 
ATOM     91  C   UNL A   1      34.053  27.916  24.328  1.00  0.00     0.027 A 
ATOM     92  C   UNL A   1      32.101  29.258  24.003  1.00  0.00     0.063 A 
ATOM     93  C   UNL A   1      34.387  28.059  22.974  1.00  0.00     0.002 A 
ATOM     94  C   UNL A   1      32.394  29.336  22.628  1.00  0.00     0.016 A 
ATOM     95  C   UNL A   1      33.513  28.701  22.105  1.00  0.00     0.001 A 
BRANCH  92  96
ATOM     96  C   UNL A   1      30.939  29.995  24.513  1.00  0.00     0.256 C 
ATOM     97  O   UNL A   1      31.184  30.461  25.613  1.00  0.00    -0.269 OA
ATOM     98  N   UNL A   1      29.769  30.196  23.754  1.00  0.00    -0.334 N 
ATOM     99  C   UNL A   1      28.851  29.079  23.591  1.00  0.00     0.148 C 
ATOM    100  C   UNL A   1      29.049  31.488  23.685  1.00  0.00     0.148 C 
ATOM    101  C   UNL A   1      27.936  29.283  22.375  1.00  0.00     0.181 C 
ATOM    102  C   UNL A   1      28.077  31.615  22.509  1.00  0.00     0.181 C 
ATOM    103  O   UNL A   1      27.181  30.503  22.484  1.00  0.00    -0.378 OA
ENDBRANCH  92  96
ENDBRANCH  88  90
ENDBRANCH  82  86
ENDBRANCH  77  80
ENDBRANCH  75  76
ENDBRANCH  74  75
ENDBRANCH  73  74
ENDBRANCH   1  73
TORSDOF 19
ENDMDL
