MODEL 1
REMARK VINA RESULT:     -10.6      0.000      0.000
REMARK SMILES CC[NH+](CC)[C@@H](C(=O)NCCCCCCNC(=O)c1ccc(-c2c3nc(c(-c4cccc(S(=O)(=O)[O-])c4F)c4ccc([nH]4)c(-c4cccc(S(=O)(=O)[O-])c4F)c4nc(c(-c5cccc(S(=O)(=O)[O-])c5F)c5ccc2[nH]5)C=C4)C=C3)cc1)c1ccc(C2CC2)cc1
REMARK SMILES IDX 13 1 12 2 11 3 10 4 9 5 7 6 8 7 6 9 3 10 2 12 1 13 4 14 5 15
REMARK SMILES IDX 82 16 83 17 90 18 84 19 89 20 85 21 86 22 87 23 88 24 14 25
REMARK SMILES IDX 15 26 16 27 17 28 18 30 19 31 20 32 81 33 21 34 80 35 22 36
REMARK SMILES IDX 23 37 24 38 74 39 25 40 79 41 73 42 75 43 26 44 78 45 72 46
REMARK SMILES IDX 71 47 27 49 59 50 39 51 58 52 40 53 43 54 57 55 76 56 41 57
REMARK SMILES IDX 42 58 56 60 77 61 44 62 28 63 29 64 37 65 30 66 32 67 38 68
REMARK SMILES IDX 31 69 33 70 34 71 35 72 36 73 60 74 61 75 69 76 62 77 64 78
REMARK SMILES IDX 70 79 63 80 65 81 66 82 67 83 68 84 45 85 46 86 54 87 47 88
REMARK SMILES IDX 49 89 55 90 48 91 50 92 51 93 52 94 53 95
REMARK H PARENT 9 8 3 11 16 29 75 48 43 59
REMARK Flexibility Score: inf
ROOT
ATOM      1  C   UNL A   1      31.791  27.531  24.518  1.00  0.00     0.002 C 
ENDROOT
BRANCH   1   2
ATOM      2  C   UNL A   1      31.692  26.779  25.843  1.00  0.00     0.002 C 
BRANCH   2   3
ATOM      3  C   UNL A   1      30.352  26.060  26.063  1.00  0.00     0.021 C 
BRANCH   3   4
ATOM      4  C   UNL A   1      30.428  24.537  26.278  1.00  0.00     0.116 C 
BRANCH   4   5
ATOM      5  N   UNL A   1      30.334  23.778  25.039  1.00  0.00    -0.351 N 
ATOM      6  C   UNL A   1      31.232  23.162  24.211  1.00  0.00     0.283 C 
ATOM      7  O   UNL A   1      30.736  22.778  23.143  1.00  0.00    -0.268 OA
ATOM      8  H   UNL A   1      29.405  23.686  24.723  1.00  0.00     0.163 HD
BRANCH   6   9
ATOM      9  C   UNL A   1      32.746  22.966  24.578  1.00  0.00     0.305 C 
BRANCH   9  10
ATOM     10  N   UNL A   1      33.708  23.597  23.599  1.00  0.00    -0.321 N 
ATOM     11  H   UNL A   1      34.380  22.831  23.543  1.00  0.00     0.349 HD
BRANCH  10  12
ATOM     12  C   UNL A   1      33.285  23.782  22.205  1.00  0.00     0.259 C 
ATOM     13  C   UNL A   1      33.105  25.233  21.770  1.00  0.00     0.071 C 
ENDBRANCH  10  12
BRANCH  10  14
ATOM     14  C   UNL A   1      34.385  24.796  24.096  1.00  0.00     0.259 C 
ATOM     15  C   UNL A   1      35.232  24.596  25.362  1.00  0.00     0.071 C 
ENDBRANCH  10  14
ENDBRANCH   9  10
BRANCH   9  16
ATOM     16  C   UNL A   1      33.144  21.499  24.866  1.00  0.00     0.019 A 
ATOM     17  C   UNL A   1      34.503  21.145  24.882  1.00  0.00     0.011 A 
ATOM     18  C   UNL A   1      32.211  20.451  24.872  1.00  0.00     0.011 A 
ATOM     19  C   UNL A   1      34.896  19.802  24.743  1.00  0.00     0.004 A 
ATOM     20  C   UNL A   1      32.613  19.114  24.755  1.00  0.00     0.004 A 
ATOM     21  C   UNL A   1      33.958  18.764  24.601  1.00  0.00    -0.045 A 
BRANCH  21  22
ATOM     22  C   UNL A   1      34.404  17.373  24.190  1.00  0.00     0.019 C 
ATOM     23  C   UNL A   1      33.454  16.221  23.953  1.00  0.00     0.009 C 
ATOM     24  C   UNL A   1      34.057  16.925  22.780  1.00  0.00     0.009 C 
ENDBRANCH  21  22
ENDBRANCH   9  16
ENDBRANCH   6   9
ENDBRANCH   4   5
ENDBRANCH   3   4
ENDBRANCH   2   3
ENDBRANCH   1   2
BRANCH   1  25
ATOM     25  C   UNL A   1      33.193  28.048  24.185  1.00  0.00     0.021 C 
BRANCH  25  26
ATOM     26  C   UNL A   1      33.852  28.842  25.307  1.00  0.00     0.116 C 
BRANCH  26  27
ATOM     27  N   UNL A   1      33.135  30.083  25.566  1.00  0.00    -0.352 N 
ATOM     28  C   UNL A   1      33.260  30.892  26.669  1.00  0.00     0.251 C 
ATOM     29  H   UNL A   1      32.492  30.371  24.879  1.00  0.00     0.163 HD
ATOM     30  O   UNL A   1      32.426  31.755  26.925  1.00  0.00    -0.269 OA
BRANCH  28  31
ATOM     31  C   UNL A   1      34.431  30.690  27.543  1.00  0.00     0.039 A 
ATOM     32  C   UNL A   1      34.588  29.483  28.226  1.00  0.00     0.014 A 
ATOM     33  C   UNL A   1      35.412  31.684  27.607  1.00  0.00     0.014 A 
ATOM     34  C   UNL A   1      35.761  29.255  28.949  1.00  0.00     0.010 A 
ATOM     35  C   UNL A   1      36.606  31.424  28.264  1.00  0.00     0.010 A 
ATOM     36  C   UNL A   1      36.787  30.215  28.955  1.00  0.00    -0.014 A 
BRANCH  36  37
ATOM     37  C   UNL A   1      38.055  30.002  29.698  1.00  0.00     0.031 A 
ATOM     38  C   UNL A   1      39.099  29.083  29.125  1.00  0.00     0.074 A 
ATOM     39  C   UNL A   1      38.224  30.544  30.920  1.00  0.00     0.049 A 
ATOM     40  N   UNL A   1      40.215  28.666  29.659  1.00  0.00    -0.248 NA
ATOM     41  C   UNL A   1      38.835  28.535  27.782  1.00  0.00     0.031 C 
ATOM     42  C   UNL A   1      37.260  31.406  31.607  1.00  0.00     0.029 A 
ATOM     43  N   UNL A   1      39.258  30.423  31.816  1.00  0.00    -0.354 N 
ATOM     44  C   UNL A   1      40.765  27.777  28.741  1.00  0.00     0.074 A 
ATOM     45  C   UNL A   1      39.841  27.687  27.634  1.00  0.00     0.031 C 
ATOM     46  C   UNL A   1      37.746  31.734  32.815  1.00  0.00     0.029 A 
ATOM     47  C   UNL A   1      39.035  31.076  33.006  1.00  0.00     0.049 A 
ATOM     48  H   UNL A   1      40.080  29.917  31.625  1.00  0.00     0.167 HD
ATOM     49  C   UNL A   1      41.945  27.117  28.802  1.00  0.00     0.034 A 
ATOM     50  C   UNL A   1      39.778  31.123  34.130  1.00  0.00     0.034 A 
ATOM     51  C   UNL A   1      42.876  27.240  29.889  1.00  0.00     0.049 A 
ATOM     52  C   UNL A   1      41.091  30.388  34.170  1.00  0.00     0.074 A 
ATOM     53  C   UNL A   1      44.131  26.675  30.013  1.00  0.00     0.029 A 
ATOM     54  N   UNL A   1      42.648  27.973  31.044  1.00  0.00    -0.354 N 
ATOM     55  N   UNL A   1      41.657  29.658  33.238  1.00  0.00    -0.248 NA
ATOM     56  C   UNL A   1      41.887  30.508  35.400  1.00  0.00     0.031 C 
ATOM     57  C   UNL A   1      44.650  27.038  31.260  1.00  0.00     0.029 A 
ATOM     58  C   UNL A   1      43.736  27.865  31.892  1.00  0.00     0.049 A 
ATOM     59  H   UNL A   1      41.834  28.492  31.233  1.00  0.00     0.167 HD
ATOM     60  C   UNL A   1      42.891  29.273  33.750  1.00  0.00     0.074 A 
ATOM     61  C   UNL A   1      42.995  29.856  35.072  1.00  0.00     0.031 C 
ATOM     62  C   UNL A   1      43.850  28.503  33.179  1.00  0.00     0.034 A 
BRANCH  49  63
ATOM     63  C   UNL A   1      42.310  26.231  27.639  1.00  0.00     0.023 A 
ATOM     64  C   UNL A   1      43.072  26.752  26.573  1.00  0.00     0.012 A 
ATOM     65  C   UNL A   1      41.939  24.873  27.622  1.00  0.00     0.148 A 
ATOM     66  C   UNL A   1      43.421  25.949  25.488  1.00  0.00     0.002 A 
ATOM     67  C   UNL A   1      42.333  24.066  26.561  1.00  0.00     0.091 A 
ATOM     68  F   UNL A   1      41.197  24.398  28.633  1.00  0.00    -0.205 F 
ATOM     69  C   UNL A   1      43.060  24.604  25.488  1.00  0.00     0.022 A 
BRANCH  67  70
ATOM     70  S   UNL A   1      41.992  22.303  26.507  1.00  0.00     0.127 S 
ATOM     71  O   UNL A   1      42.646  21.839  27.730  1.00  0.00    -0.237 OA
ATOM     72  O   UNL A   1      40.529  22.273  26.548  1.00  0.00    -0.237 OA
ATOM     73  O   UNL A   1      42.575  21.817  25.264  1.00  0.00    -0.744 OA
ENDBRANCH  67  70
ENDBRANCH  49  63
BRANCH  50  74
ATOM     74  C   UNL A   1      39.324  31.938  35.293  1.00  0.00     0.023 A 
ATOM     75  C   UNL A   1      38.446  31.368  36.236  1.00  0.00     0.012 A 
ATOM     76  C   UNL A   1      39.769  33.261  35.482  1.00  0.00     0.148 A 
ATOM     77  C   UNL A   1      37.992  32.111  37.325  1.00  0.00     0.002 A 
ATOM     78  C   UNL A   1      39.356  33.977  36.599  1.00  0.00     0.091 A 
ATOM     79  F   UNL A   1      40.599  33.787  34.570  1.00  0.00    -0.205 F 
ATOM     80  C   UNL A   1      38.454  33.411  37.513  1.00  0.00     0.022 A 
BRANCH  78  81
ATOM     81  S   UNL A   1      39.997  35.610  36.990  1.00  0.00     0.127 S 
ATOM     82  O   UNL A   1      39.316  35.904  38.249  1.00  0.00    -0.237 OA
ATOM     83  O   UNL A   1      41.431  35.348  37.111  1.00  0.00    -0.237 OA
ATOM     84  O   UNL A   1      39.633  36.458  35.863  1.00  0.00    -0.744 OA
ENDBRANCH  78  81
ENDBRANCH  50  74
BRANCH  62  85
ATOM     85  C   UNL A   1      45.132  28.290  33.938  1.00  0.00     0.023 A 
ATOM     86  C   UNL A   1      46.181  29.224  33.835  1.00  0.00     0.012 A 
ATOM     87  C   UNL A   1      45.246  27.214  34.841  1.00  0.00     0.148 A 
ATOM     88  C   UNL A   1      47.335  29.076  34.604  1.00  0.00     0.002 A 
ATOM     89  C   UNL A   1      46.375  27.104  35.642  1.00  0.00     0.091 A 
ATOM     90  F   UNL A   1      44.241  26.329  34.910  1.00  0.00    -0.205 F 
ATOM     91  C   UNL A   1      47.425  28.026  35.517  1.00  0.00     0.022 A 
BRANCH  89  92
ATOM     92  S   UNL A   1      46.534  25.848  36.917  1.00  0.00     0.127 S 
ATOM     93  O   UNL A   1      47.607  26.399  37.745  1.00  0.00    -0.237 OA
ATOM     94  O   UNL A   1      45.210  25.871  37.538  1.00  0.00    -0.237 OA
ATOM     95  O   UNL A   1      46.860  24.608  36.226  1.00  0.00    -0.744 OA
ENDBRANCH  89  92
ENDBRANCH  62  85
ENDBRANCH  36  37
ENDBRANCH  28  31
ENDBRANCH  26  27
ENDBRANCH  25  26
ENDBRANCH   1  25
TORSDOF 21
ENDMDL
MODEL 2
REMARK VINA RESULT:     -10.5      2.001      7.899
REMARK SMILES CC[NH+](CC)[C@@H](C(=O)NCCCCCCNC(=O)c1ccc(-c2c3nc(c(-c4cccc(S(=O)(=O)[O-])c4F)c4ccc([nH]4)c(-c4cccc(S(=O)(=O)[O-])c4F)c4nc(c(-c5cccc(S(=O)(=O)[O-])c5F)c5ccc2[nH]5)C=C4)C=C3)cc1)c1ccc(C2CC2)cc1
REMARK SMILES IDX 13 1 12 2 11 3 10 4 9 5 7 6 8 7 6 9 3 10 2 12 1 13 4 14 5 15
REMARK SMILES IDX 82 16 83 17 90 18 84 19 89 20 85 21 86 22 87 23 88 24 14 25
REMARK SMILES IDX 15 26 16 27 17 28 18 30 19 31 20 32 81 33 21 34 80 35 22 36
REMARK SMILES IDX 23 37 24 38 74 39 25 40 79 41 73 42 75 43 26 44 78 45 72 46
REMARK SMILES IDX 71 47 27 49 59 50 39 51 58 52 40 53 43 54 57 55 76 56 41 57
REMARK SMILES IDX 42 58 56 60 77 61 44 62 28 63 29 64 37 65 30 66 32 67 38 68
REMARK SMILES IDX 31 69 33 70 34 71 35 72 36 73 60 74 61 75 69 76 62 77 64 78
REMARK SMILES IDX 70 79 63 80 65 81 66 82 67 83 68 84 45 85 46 86 54 87 47 88
REMARK SMILES IDX 49 89 55 90 48 91 50 92 51 93 52 94 53 95
REMARK H PARENT 9 8 3 11 16 29 75 48 43 59
REMARK Flexibility Score: inf
ROOT
ATOM      1  C   UNL A   1      32.430  28.336  24.446  1.00  0.00     0.002 C 
ENDROOT
BRANCH   1   2
ATOM      2  C   UNL A   1      31.378  27.845  25.437  1.00  0.00     0.002 C 
BRANCH   2   3
ATOM      3  C   UNL A   1      30.497  26.702  24.909  1.00  0.00     0.021 C 
BRANCH   3   4
ATOM      4  C   UNL A   1      30.683  25.334  25.592  1.00  0.00     0.116 C 
BRANCH   4   5
ATOM      5  N   UNL A   1      30.495  24.210  24.685  1.00  0.00    -0.351 N 
ATOM      6  C   UNL A   1      31.316  23.268  24.131  1.00  0.00     0.283 C 
ATOM      7  O   UNL A   1      30.767  22.591  23.250  1.00  0.00    -0.268 OA
ATOM      8  H   UNL A   1      29.556  24.104  24.406  1.00  0.00     0.163 HD
BRANCH   6   9
ATOM      9  C   UNL A   1      32.813  23.068  24.563  1.00  0.00     0.305 C 
BRANCH   9  10
ATOM     10  N   UNL A   1      33.819  23.683  23.620  1.00  0.00    -0.321 N 
ATOM     11  H   UNL A   1      34.267  22.822  23.305  1.00  0.00     0.349 HD
BRANCH  10  12
ATOM     12  C   UNL A   1      33.343  24.296  22.374  1.00  0.00     0.259 C 
ATOM     13  C   UNL A   1      33.617  25.791  22.241  1.00  0.00     0.071 C 
ENDBRANCH  10  12
BRANCH  10  14
ATOM     14  C   UNL A   1      34.818  24.536  24.266  1.00  0.00     0.259 C 
ATOM     15  C   UNL A   1      34.413  25.103  25.635  1.00  0.00     0.071 C 
ENDBRANCH  10  14
ENDBRANCH   9  10
BRANCH   9  16
ATOM     16  C   UNL A   1      33.189  21.602  24.883  1.00  0.00     0.019 A 
ATOM     17  C   UNL A   1      34.542  21.228  24.907  1.00  0.00     0.011 A 
ATOM     18  C   UNL A   1      32.241  20.568  24.913  1.00  0.00     0.011 A 
ATOM     19  C   UNL A   1      34.915  19.877  24.798  1.00  0.00     0.004 A 
ATOM     20  C   UNL A   1      32.622  19.223  24.825  1.00  0.00     0.004 A 
ATOM     21  C   UNL A   1      33.962  18.850  24.679  1.00  0.00    -0.045 A 
BRANCH  21  22
ATOM     22  C   UNL A   1      34.387  17.444  24.298  1.00  0.00     0.019 C 
ATOM     23  C   UNL A   1      33.418  16.314  24.035  1.00  0.00     0.009 C 
ATOM     24  C   UNL A   1      34.084  16.991  22.880  1.00  0.00     0.009 C 
ENDBRANCH  21  22
ENDBRANCH   9  16
ENDBRANCH   6   9
ENDBRANCH   4   5
ENDBRANCH   3   4
ENDBRANCH   2   3
ENDBRANCH   1   2
BRANCH   1  25
ATOM     25  C   UNL A   1      33.810  28.588  25.059  1.00  0.00     0.021 C 
BRANCH  25  26
ATOM     26  C   UNL A   1      33.793  28.833  26.563  1.00  0.00     0.116 C 
BRANCH  26  27
ATOM     27  N   UNL A   1      33.782  30.258  26.865  1.00  0.00    -0.352 N 
ATOM     28  C   UNL A   1      34.637  30.929  27.706  1.00  0.00     0.251 C 
ATOM     29  H   UNL A   1      33.089  30.796  26.420  1.00  0.00     0.163 HD
ATOM     30  O   UNL A   1      34.379  32.060  28.106  1.00  0.00    -0.269 OA
BRANCH  28  31
ATOM     31  C   UNL A   1      35.876  30.245  28.118  1.00  0.00     0.039 A 
ATOM     32  C   UNL A   1      36.995  30.271  27.284  1.00  0.00     0.014 A 
ATOM     33  C   UNL A   1      35.936  29.648  29.381  1.00  0.00     0.014 A 
ATOM     34  C   UNL A   1      38.199  29.729  27.740  1.00  0.00     0.010 A 
ATOM     35  C   UNL A   1      37.151  29.177  29.858  1.00  0.00     0.010 A 
ATOM     36  C   UNL A   1      38.291  29.198  29.038  1.00  0.00    -0.014 A 
BRANCH  36  37
ATOM     37  C   UNL A   1      39.557  28.627  29.563  1.00  0.00     0.031 A 
ATOM     38  C   UNL A   1      40.291  29.350  30.660  1.00  0.00     0.074 A 
ATOM     39  C   UNL A   1      40.094  27.531  28.994  1.00  0.00     0.049 A 
ATOM     40  N   UNL A   1      41.463  29.095  31.177  1.00  0.00    -0.248 NA
ATOM     41  C   UNL A   1      39.631  30.539  31.228  1.00  0.00     0.031 C 
ATOM     42  C   UNL A   1      39.506  26.774  27.887  1.00  0.00     0.029 A 
ATOM     43  N   UNL A   1      41.276  26.880  29.250  1.00  0.00    -0.354 N 
ATOM     44  C   UNL A   1      41.699  30.110  32.097  1.00  0.00     0.074 A 
ATOM     45  C   UNL A   1      40.567  31.006  32.040  1.00  0.00     0.031 C 
ATOM     46  C   UNL A   1      40.328  25.766  27.557  1.00  0.00     0.029 A 
ATOM     47  C   UNL A   1      41.519  25.825  28.400  1.00  0.00     0.049 A 
ATOM     48  H   UNL A   1      41.891  27.143  29.971  1.00  0.00     0.167 HD
ATOM     49  C   UNL A   1      42.751  30.268  32.934  1.00  0.00     0.034 A 
ATOM     50  C   UNL A   1      42.589  25.010  28.302  1.00  0.00     0.034 A 
ATOM     51  C   UNL A   1      43.856  29.353  33.012  1.00  0.00     0.049 A 
ATOM     52  C   UNL A   1      43.742  25.200  29.250  1.00  0.00     0.074 A 
ATOM     53  C   UNL A   1      44.934  29.380  33.876  1.00  0.00     0.029 A 
ATOM     54  N   UNL A   1      44.030  28.252  32.187  1.00  0.00    -0.354 N 
ATOM     55  N   UNL A   1      43.888  26.088  30.205  1.00  0.00    -0.248 NA
ATOM     56  C   UNL A   1      44.865  24.257  29.134  1.00  0.00     0.031 C 
ATOM     57  C   UNL A   1      45.778  28.314  33.553  1.00  0.00     0.029 A 
ATOM     58  C   UNL A   1      45.202  27.598  32.515  1.00  0.00     0.049 A 
ATOM     59  H   UNL A   1      43.409  27.977  31.474  1.00  0.00     0.167 HD
ATOM     60  C   UNL A   1      45.091  25.782  30.831  1.00  0.00     0.074 A 
ATOM     61  C   UNL A   1      45.632  24.622  30.152  1.00  0.00     0.031 C 
ATOM     62  C   UNL A   1      45.696  26.407  31.871  1.00  0.00     0.034 A 
BRANCH  49  63
ATOM     63  C   UNL A   1      42.736  31.457  33.859  1.00  0.00     0.023 A 
ATOM     64  C   UNL A   1      43.206  32.706  33.402  1.00  0.00     0.012 A 
ATOM     65  C   UNL A   1      42.217  31.351  35.164  1.00  0.00     0.148 A 
ATOM     66  C   UNL A   1      43.200  33.819  34.241  1.00  0.00     0.002 A 
ATOM     67  C   UNL A   1      42.168  32.477  35.978  1.00  0.00     0.091 A 
ATOM     68  F   UNL A   1      41.794  30.152  35.589  1.00  0.00    -0.205 F 
ATOM     69  C   UNL A   1      42.672  33.707  35.525  1.00  0.00     0.022 A 
BRANCH  67  70
ATOM     70  S   UNL A   1      41.430  32.456  37.615  1.00  0.00     0.127 S 
ATOM     71  O   UNL A   1      41.538  33.861  38.005  1.00  0.00    -0.237 OA
ATOM     72  O   UNL A   1      40.067  32.005  37.331  1.00  0.00    -0.237 OA
ATOM     73  O   UNL A   1      42.226  31.526  38.404  1.00  0.00    -0.744 OA
ENDBRANCH  67  70
ENDBRANCH  49  63
BRANCH  50  74
ATOM     74  C   UNL A   1      42.597  23.905  27.300  1.00  0.00     0.023 A 
ATOM     75  C   UNL A   1      43.159  24.129  26.029  1.00  0.00     0.012 A 
ATOM     76  C   UNL A   1      42.072  22.634  27.604  1.00  0.00     0.148 A 
ATOM     77  C   UNL A   1      43.168  23.119  25.066  1.00  0.00     0.002 A 
ATOM     78  C   UNL A   1      42.133  21.616  26.660  1.00  0.00     0.091 A 
ATOM     79  F   UNL A   1      41.535  22.444  28.818  1.00  0.00    -0.205 F 
ATOM     80  C   UNL A   1      42.664  21.861  25.384  1.00  0.00     0.022 A 
BRANCH  78  81
ATOM     81  S   UNL A   1      41.625  19.931  27.022  1.00  0.00     0.127 S 
ATOM     82  O   UNL A   1      40.642  20.137  28.083  1.00  0.00    -0.237 OA
ATOM     83  O   UNL A   1      41.068  19.503  25.739  1.00  0.00    -0.237 OA
ATOM     84  O   UNL A   1      42.839  19.228  27.415  1.00  0.00    -0.744 OA
ENDBRANCH  78  81
ENDBRANCH  50  74
BRANCH  62  85
ATOM     85  C   UNL A   1      46.980  25.824  32.398  1.00  0.00     0.023 A 
ATOM     86  C   UNL A   1      48.220  26.301  31.932  1.00  0.00     0.012 A 
ATOM     87  C   UNL A   1      46.948  24.877  33.441  1.00  0.00     0.148 A 
ATOM     88  C   UNL A   1      49.410  25.827  32.482  1.00  0.00     0.002 A 
ATOM     89  C   UNL A   1      48.135  24.449  34.020  1.00  0.00     0.091 A 
ATOM     90  F   UNL A   1      45.755  24.425  33.857  1.00  0.00    -0.205 F 
ATOM     91  C   UNL A   1      49.367  24.913  33.535  1.00  0.00     0.022 A 
BRANCH  89  92
ATOM     92  S   UNL A   1      48.175  23.357  35.446  1.00  0.00     0.127 S 
ATOM     93  O   UNL A   1      47.658  24.227  36.502  1.00  0.00    -0.237 OA
ATOM     94  O   UNL A   1      47.267  22.285  35.037  1.00  0.00    -0.237 OA
ATOM     95  O   UNL A   1      49.565  22.949  35.604  1.00  0.00    -0.744 OA
ENDBRANCH  89  92
ENDBRANCH  62  85
ENDBRANCH  36  37
ENDBRANCH  28  31
ENDBRANCH  26  27
ENDBRANCH  25  26
ENDBRANCH   1  25
TORSDOF 21
ENDMDL
MODEL 3
REMARK VINA RESULT:     -10.4      2.520      8.207
REMARK SMILES CC[NH+](CC)[C@@H](C(=O)NCCCCCCNC(=O)c1ccc(-c2c3nc(c(-c4cccc(S(=O)(=O)[O-])c4F)c4ccc([nH]4)c(-c4cccc(S(=O)(=O)[O-])c4F)c4nc(c(-c5cccc(S(=O)(=O)[O-])c5F)c5ccc2[nH]5)C=C4)C=C3)cc1)c1ccc(C2CC2)cc1
REMARK SMILES IDX 13 1 12 2 11 3 10 4 9 5 7 6 8 7 6 9 3 10 2 12 1 13 4 14 5 15
REMARK SMILES IDX 82 16 83 17 90 18 84 19 89 20 85 21 86 22 87 23 88 24 14 25
REMARK SMILES IDX 15 26 16 27 17 28 18 30 19 31 20 32 81 33 21 34 80 35 22 36
REMARK SMILES IDX 23 37 24 38 74 39 25 40 79 41 73 42 75 43 26 44 78 45 72 46
REMARK SMILES IDX 71 47 27 49 59 50 39 51 58 52 40 53 43 54 57 55 76 56 41 57
REMARK SMILES IDX 42 58 56 60 77 61 44 62 28 63 29 64 37 65 30 66 32 67 38 68
REMARK SMILES IDX 31 69 33 70 34 71 35 72 36 73 60 74 61 75 69 76 62 77 64 78
REMARK SMILES IDX 70 79 63 80 65 81 66 82 67 83 68 84 45 85 46 86 54 87 47 88
REMARK SMILES IDX 49 89 55 90 48 91 50 92 51 93 52 94 53 95
REMARK H PARENT 9 8 3 11 16 29 75 48 43 59
REMARK Flexibility Score: inf
ROOT
ATOM      1  C   UNL A   1      32.266  27.837  25.452  1.00  0.00     0.002 C 
ENDROOT
BRANCH   1   2
ATOM      2  C   UNL A   1      31.542  27.309  26.688  1.00  0.00     0.002 C 
BRANCH   2   3
ATOM      3  C   UNL A   1      30.604  26.123  26.411  1.00  0.00     0.021 C 
BRANCH   3   4
ATOM      4  C   UNL A   1      29.970  26.075  25.009  1.00  0.00     0.116 C 
BRANCH   4   5
ATOM      5  N   UNL A   1      30.279  24.852  24.281  1.00  0.00    -0.351 N 
ATOM      6  C   UNL A   1      31.343  24.406  23.547  1.00  0.00     0.283 C 
ATOM      7  O   UNL A   1      31.114  23.353  22.935  1.00  0.00    -0.268 OA
ATOM      8  H   UNL A   1      29.550  24.191  24.329  1.00  0.00     0.163 HD
BRANCH   6   9
ATOM      9  C   UNL A   1      32.719  25.159  23.482  1.00  0.00     0.305 C 
BRANCH   9  10
ATOM     10  N   UNL A   1      33.061  25.710  22.118  1.00  0.00    -0.321 N 
ATOM     11  H   UNL A   1      33.588  24.910  21.767  1.00  0.00     0.349 HD
BRANCH  10  12
ATOM     12  C   UNL A   1      31.989  25.873  21.128  1.00  0.00     0.259 C 
ATOM     13  C   UNL A   1      32.360  25.485  19.700  1.00  0.00     0.071 C 
ENDBRANCH  10  12
BRANCH  10  14
ATOM     14  C   UNL A   1      33.930  26.888  22.137  1.00  0.00     0.259 C 
ATOM     15  C   UNL A   1      33.206  28.241  22.063  1.00  0.00     0.071 C 
ENDBRANCH  10  14
ENDBRANCH   9  10
BRANCH   9  16
ATOM     16  C   UNL A   1      33.908  24.356  24.060  1.00  0.00     0.019 A 
ATOM     17  C   UNL A   1      34.427  24.704  25.318  1.00  0.00     0.011 A 
ATOM     18  C   UNL A   1      34.656  23.453  23.290  1.00  0.00     0.011 A 
ATOM     19  C   UNL A   1      35.714  24.289  25.703  1.00  0.00     0.004 A 
ATOM     20  C   UNL A   1      35.929  23.028  23.691  1.00  0.00     0.004 A 
ATOM     21  C   UNL A   1      36.523  23.503  24.865  1.00  0.00    -0.045 A 
BRANCH  21  22
ATOM     22  C   UNL A   1      37.992  23.294  25.186  1.00  0.00     0.019 C 
ATOM     23  C   UNL A   1      38.514  22.975  26.568  1.00  0.00     0.009 C 
ATOM     24  C   UNL A   1      38.426  21.884  25.549  1.00  0.00     0.009 C 
ENDBRANCH  21  22
ENDBRANCH   9  16
ENDBRANCH   6   9
ENDBRANCH   4   5
ENDBRANCH   3   4
ENDBRANCH   2   3
ENDBRANCH   1   2
BRANCH   1  25
ATOM     25  C   UNL A   1      33.724  28.235  25.694  1.00  0.00     0.021 C 
BRANCH  25  26
ATOM     26  C   UNL A   1      33.989  28.844  27.066  1.00  0.00     0.116 C 
BRANCH  26  27
ATOM     27  N   UNL A   1      33.957  30.299  27.013  1.00  0.00    -0.352 N 
ATOM     28  C   UNL A   1      34.748  31.168  27.724  1.00  0.00     0.251 C 
ATOM     29  H   UNL A   1      33.298  30.702  26.403  1.00  0.00     0.163 HD
ATOM     30  O   UNL A   1      34.463  32.357  27.820  1.00  0.00    -0.269 OA
BRANCH  28  31
ATOM     31  C   UNL A   1      35.955  30.624  28.377  1.00  0.00     0.039 A 
ATOM     32  C   UNL A   1      35.838  29.915  29.573  1.00  0.00     0.014 A 
ATOM     33  C   UNL A   1      37.192  30.758  27.739  1.00  0.00     0.014 A 
ATOM     34  C   UNL A   1      36.968  29.298  30.114  1.00  0.00     0.010 A 
ATOM     35  C   UNL A   1      38.295  30.083  28.240  1.00  0.00     0.010 A 
ATOM     36  C   UNL A   1      38.200  29.360  29.440  1.00  0.00    -0.014 A 
BRANCH  36  37
ATOM     37  C   UNL A   1      39.420  28.703  29.975  1.00  0.00     0.031 A 
ATOM     38  C   UNL A   1      40.109  29.296  31.174  1.00  0.00     0.074 A 
ATOM     39  C   UNL A   1      39.960  27.650  29.332  1.00  0.00     0.049 A 
ATOM     40  N   UNL A   1      41.243  28.956  31.726  1.00  0.00    -0.248 NA
ATOM     41  C   UNL A   1      39.448  30.445  31.819  1.00  0.00     0.031 C 
ATOM     42  C   UNL A   1      39.417  27.021  28.127  1.00  0.00     0.029 A 
ATOM     43  N   UNL A   1      41.109  26.942  29.586  1.00  0.00    -0.354 N 
ATOM     44  C   UNL A   1      41.452  29.872  32.752  1.00  0.00     0.074 A 
ATOM     45  C   UNL A   1      40.348  30.803  32.721  1.00  0.00     0.031 C 
ATOM     46  C   UNL A   1      40.231  26.024  27.746  1.00  0.00     0.029 A 
ATOM     47  C   UNL A   1      41.373  25.966  28.653  1.00  0.00     0.049 A 
ATOM     48  H   UNL A   1      41.689  27.116  30.362  1.00  0.00     0.167 HD
ATOM     49  C   UNL A   1      42.459  29.917  33.656  1.00  0.00     0.034 A 
ATOM     50  C   UNL A   1      42.426  25.132  28.534  1.00  0.00     0.034 A 
ATOM     51  C   UNL A   1      43.535  28.965  33.704  1.00  0.00     0.049 A 
ATOM     52  C   UNL A   1      43.528  25.195  29.557  1.00  0.00     0.074 A 
ATOM     53  C   UNL A   1      44.562  28.877  34.624  1.00  0.00     0.029 A 
ATOM     54  N   UNL A   1      43.726  27.943  32.786  1.00  0.00    -0.354 N 
ATOM     55  N   UNL A   1      43.643  25.983  30.599  1.00  0.00    -0.248 NA
ATOM     56  C   UNL A   1      44.631  24.234  29.410  1.00  0.00     0.031 C 
ATOM     57  C   UNL A   1      45.396  27.821  34.244  1.00  0.00     0.029 A 
ATOM     58  C   UNL A   1      44.862  27.225  33.112  1.00  0.00     0.049 A 
ATOM     59  H   UNL A   1      43.140  27.757  32.018  1.00  0.00     0.167 HD
ATOM     60  C   UNL A   1      44.800  25.582  31.256  1.00  0.00     0.074 A 
ATOM     61  C   UNL A   1      45.349  24.476  30.498  1.00  0.00     0.031 C 
ATOM     62  C   UNL A   1      45.360  26.086  32.383  1.00  0.00     0.034 A 
BRANCH  49  63
ATOM     63  C   UNL A   1      42.422  31.012  34.689  1.00  0.00     0.023 A 
ATOM     64  C   UNL A   1      41.831  30.769  35.947  1.00  0.00     0.012 A 
ATOM     65  C   UNL A   1      43.009  32.267  34.435  1.00  0.00     0.148 A 
ATOM     66  C   UNL A   1      41.786  31.768  36.917  1.00  0.00     0.002 A 
ATOM     67  C   UNL A   1      43.005  33.242  35.426  1.00  0.00     0.091 A 
ATOM     68  F   UNL A   1      43.548  32.488  33.227  1.00  0.00    -0.205 F 
ATOM     69  C   UNL A   1      42.382  33.000  36.660  1.00  0.00     0.022 A 
BRANCH  67  70
ATOM     70  S   UNL A   1      43.819  34.830  35.224  1.00  0.00     0.127 S 
ATOM     71  O   UNL A   1      43.547  35.466  36.512  1.00  0.00    -0.237 OA
ATOM     72  O   UNL A   1      45.214  34.435  35.021  1.00  0.00    -0.237 OA
ATOM     73  O   UNL A   1      43.192  35.461  34.071  1.00  0.00    -0.744 OA
ENDBRANCH  67  70
ENDBRANCH  49  63
BRANCH  50  74
ATOM     74  C   UNL A   1      42.463  24.128  27.432  1.00  0.00     0.023 A 
ATOM     75  C   UNL A   1      42.945  24.510  26.165  1.00  0.00     0.012 A 
ATOM     76  C   UNL A   1      42.044  22.798  27.635  1.00  0.00     0.148 A 
ATOM     77  C   UNL A   1      42.977  23.596  25.111  1.00  0.00     0.002 A 
ATOM     78  C   UNL A   1      42.130  21.879  26.596  1.00  0.00     0.091 A 
ATOM     79  F   UNL A   1      41.582  22.457  28.846  1.00  0.00    -0.205 F 
ATOM     80  C   UNL A   1      42.579  22.280  25.328  1.00  0.00     0.022 A 
BRANCH  78  81
ATOM     81  S   UNL A   1      41.761  20.135  26.817  1.00  0.00     0.127 S 
ATOM     82  O   UNL A   1      42.822  19.718  27.730  1.00  0.00    -0.237 OA
ATOM     83  O   UNL A   1      40.422  20.184  27.407  1.00  0.00    -0.237 OA
ATOM     84  O   UNL A   1      41.809  19.548  25.484  1.00  0.00    -0.744 OA
ENDBRANCH  78  81
ENDBRANCH  50  74
BRANCH  62  85
ATOM     85  C   UNL A   1      46.598  25.417  32.920  1.00  0.00     0.023 A 
ATOM     86  C   UNL A   1      47.873  25.923  32.603  1.00  0.00     0.012 A 
ATOM     87  C   UNL A   1      46.482  24.348  33.831  1.00  0.00     0.148 A 
ATOM     88  C   UNL A   1      49.016  25.360  33.169  1.00  0.00     0.002 A 
ATOM     89  C   UNL A   1      47.620  23.828  34.432  1.00  0.00     0.091 A 
ATOM     90  F   UNL A   1      45.257  23.872  34.105  1.00  0.00    -0.205 F 
ATOM     91  C   UNL A   1      48.889  24.324  34.094  1.00  0.00     0.022 A 
BRANCH  89  92
ATOM     92  S   UNL A   1      47.548  22.567  35.709  1.00  0.00     0.127 S 
ATOM     93  O   UNL A   1      46.999  21.429  34.973  1.00  0.00    -0.237 OA
ATOM     94  O   UNL A   1      48.955  22.431  36.086  1.00  0.00    -0.237 OA
ATOM     95  O   UNL A   1      46.687  23.101  36.756  1.00  0.00    -0.744 OA
ENDBRANCH  89  92
ENDBRANCH  62  85
ENDBRANCH  36  37
ENDBRANCH  28  31
ENDBRANCH  26  27
ENDBRANCH  25  26
ENDBRANCH   1  25
TORSDOF 21
ENDMDL
