MODEL 1
REMARK VINA RESULT:     -11.1      0.000      0.000
REMARK SMILES Cc1cc(Cl)ccc1OCC(=O)Nc1ccc(CC(=O)NCCCCCCNC(=O)c2ccc(-c3c4nc(c(-c5cccc(S(=O)(=O)[O-])c5F)c5ccc([nH]5)c(-c5cccc(S(=O)(=O)[O-])c5F)c5nc(c(-c6cccc(S(=O)(=O)[O-])c6F)c6ccc3[nH]6)C=C5)C=C4)cc2)cc1
REMARK SMILES IDX 23 1 22 2 21 3 19 4 20 5 18 7 17 8 14 9 15 10 95 11 16 12
REMARK SMILES IDX 94 13 13 14 11 15 12 16 10 18 9 19 8 20 1 21 2 22 3 23 4 24
REMARK SMILES IDX 7 25 5 26 6 27 24 28 25 29 26 30 27 31 28 32 29 33 30 35
REMARK SMILES IDX 31 36 32 37 93 38 33 39 92 40 34 41 35 42 36 43 86 44 37 45
REMARK SMILES IDX 91 46 85 47 87 48 38 49 90 50 84 51 83 52 39 54 71 55 51 56
REMARK SMILES IDX 70 57 52 58 55 59 69 60 88 61 53 62 54 63 68 65 89 66 56 67
REMARK SMILES IDX 40 68 41 69 49 70 42 71 44 72 50 73 43 74 45 75 46 76 47 77
REMARK SMILES IDX 48 78 72 79 73 80 81 81 74 82 76 83 82 84 75 85 77 86 78 87
REMARK SMILES IDX 79 88 80 89 57 90 58 91 66 92 59 93 61 94 67 95 60 96 62 97
REMARK SMILES IDX 63 98 64 99 65 100
REMARK H PARENT 21 6 13 17 28 34 87 53 55 64
REMARK Flexibility Score: inf
ROOT
ATOM      1  C   UNL A   1      35.533  31.327  28.121  1.00  0.00     0.021 C 
ENDROOT
BRANCH   1   2
ATOM      2  C   UNL A   1      34.493  30.318  27.627  1.00  0.00     0.116 C 
BRANCH   2   3
ATOM      3  N   UNL A   1      33.237  30.974  27.312  1.00  0.00    -0.356 N 
ATOM      4  C   UNL A   1      32.089  30.440  26.804  1.00  0.00     0.224 C 
ATOM      5  O   UNL A   1      31.172  31.201  26.489  1.00  0.00    -0.275 OA
ATOM      6  H   UNL A   1      33.209  31.942  27.490  1.00  0.00     0.163 HD
BRANCH   4   7
ATOM      7  C   UNL A   1      31.932  28.935  26.695  1.00  0.00     0.135 C 
BRANCH   7   8
ATOM      8  C   UNL A   1      32.054  28.383  25.298  1.00  0.00    -0.039 A 
ATOM      9  C   UNL A   1      32.352  27.358  22.689  1.00  0.00     0.041 A 
ATOM     10  C   UNL A   1      31.079  27.535  23.244  1.00  0.00     0.026 A 
ATOM     11  C   UNL A   1      33.462  27.732  23.434  1.00  0.00     0.026 A 
ATOM     12  C   UNL A   1      30.930  28.028  24.545  1.00  0.00     0.006 A 
ATOM     13  C   UNL A   1      33.321  28.221  24.729  1.00  0.00     0.006 A 
BRANCH   9  14
ATOM     14  N   UNL A   1      32.432  26.845  21.389  1.00  0.00    -0.323 N 
ATOM     15  C   UNL A   1      32.863  25.643  20.901  1.00  0.00     0.262 C 
ATOM     16  O   UNL A   1      32.844  25.507  19.671  1.00  0.00    -0.271 OA
ATOM     17  H   UNL A   1      32.118  27.469  20.695  1.00  0.00     0.170 HD
BRANCH  15  18
ATOM     18  C   UNL A   1      33.151  24.434  21.820  1.00  0.00     0.329 C 
BRANCH  18  19
ATOM     19  O   UNL A   1      34.375  24.106  22.440  1.00  0.00    -0.483 OA
BRANCH  19  20
ATOM     20  C   UNL A   1      34.412  23.711  23.744  1.00  0.00     0.123 A 
ATOM     21  C   UNL A   1      36.696  22.523  23.739  1.00  0.00     0.048 C 
ATOM     22  C   UNL A   1      35.439  23.017  24.393  1.00  0.00    -0.007 A 
ATOM     23  C   UNL A   1      35.276  22.698  25.759  1.00  0.00     0.027 A 
ATOM     24  C   UNL A   1      34.093  22.990  26.437  1.00  0.00     0.041 A 
ATOM     25  C   UNL A   1      33.204  23.948  24.426  1.00  0.00     0.048 A 
ATOM     26  Cl  UNL A   1      33.928  22.583  28.098  1.00  0.00    -0.084 Cl
ATOM     27  C   UNL A   1      33.042  23.595  25.766  1.00  0.00     0.024 A 
ENDBRANCH  19  20
ENDBRANCH  18  19
ENDBRANCH  15  18
ENDBRANCH   9  14
ENDBRANCH   7   8
ENDBRANCH   4   7
ENDBRANCH   2   3
ENDBRANCH   1   2
BRANCH   1  28
ATOM     28  C   UNL A   1      34.988  32.321  29.158  1.00  0.00     0.002 C 
BRANCH  28  29
ATOM     29  C   UNL A   1      34.884  33.772  28.674  1.00  0.00     0.002 C 
BRANCH  29  30
ATOM     30  C   UNL A   1      33.554  34.463  28.985  1.00  0.00     0.021 C 
BRANCH  30  31
ATOM     31  C   UNL A   1      33.688  35.909  29.452  1.00  0.00     0.116 C 
BRANCH  31  32
ATOM     32  N   UNL A   1      32.694  36.250  30.461  1.00  0.00    -0.352 N 
ATOM     33  C   UNL A   1      32.615  35.829  31.766  1.00  0.00     0.251 C 
ATOM     34  H   UNL A   1      31.984  36.864  30.168  1.00  0.00     0.163 HD
ATOM     35  O   UNL A   1      31.606  36.057  32.431  1.00  0.00    -0.269 OA
BRANCH  33  36
ATOM     36  C   UNL A   1      33.744  35.085  32.359  1.00  0.00     0.039 A 
ATOM     37  C   UNL A   1      33.499  33.871  33.005  1.00  0.00     0.014 A 
ATOM     38  C   UNL A   1      35.046  35.584  32.258  1.00  0.00     0.014 A 
ATOM     39  C   UNL A   1      34.572  33.122  33.497  1.00  0.00     0.010 A 
ATOM     40  C   UNL A   1      36.115  34.808  32.689  1.00  0.00     0.010 A 
ATOM     41  C   UNL A   1      35.889  33.571  33.316  1.00  0.00    -0.014 A 
BRANCH  41  42
ATOM     42  C   UNL A   1      37.060  32.777  33.765  1.00  0.00     0.031 A 
ATOM     43  C   UNL A   1      37.836  33.217  34.976  1.00  0.00     0.074 A 
ATOM     44  C   UNL A   1      37.495  31.744  33.018  1.00  0.00     0.049 A 
ATOM     45  N   UNL A   1      38.967  32.760  35.444  1.00  0.00    -0.248 NA
ATOM     46  C   UNL A   1      37.276  34.341  35.748  1.00  0.00     0.031 C 
ATOM     47  C   UNL A   1      36.864  31.266  31.787  1.00  0.00     0.029 A 
ATOM     48  N   UNL A   1      38.598  30.940  33.161  1.00  0.00    -0.354 N 
ATOM     49  C   UNL A   1      39.281  33.567  36.531  1.00  0.00     0.074 A 
ATOM     50  C   UNL A   1      38.232  34.556  36.641  1.00  0.00     0.031 C 
ATOM     51  C   UNL A   1      37.600  30.265  31.277  1.00  0.00     0.029 A 
ATOM     52  C   UNL A   1      38.771  30.054  32.122  1.00  0.00     0.049 A 
ATOM     53  H   UNL A   1      39.209  30.993  33.932  1.00  0.00     0.167 HD
ATOM     54  C   UNL A   1      40.333  33.475  37.377  1.00  0.00     0.034 A 
ATOM     55  C   UNL A   1      39.769  29.185  31.870  1.00  0.00     0.034 A 
ATOM     56  C   UNL A   1      41.346  32.460  37.291  1.00  0.00     0.049 A 
ATOM     57  C   UNL A   1      40.907  29.073  32.849  1.00  0.00     0.074 A 
ATOM     58  C   UNL A   1      42.408  32.230  38.146  1.00  0.00     0.029 A 
ATOM     59  N   UNL A   1      41.423  31.505  36.289  1.00  0.00    -0.354 N 
ATOM     60  N   UNL A   1      41.111  29.748  33.955  1.00  0.00    -0.248 NA
ATOM     61  C   UNL A   1      41.935  28.060  32.569  1.00  0.00     0.031 C 
ATOM     62  C   UNL A   1      43.136  31.141  37.655  1.00  0.00     0.029 A 
ATOM     63  C   UNL A   1      42.514  30.682  36.505  1.00  0.00     0.049 A 
ATOM     64  H   UNL A   1      40.795  31.425  35.535  1.00  0.00     0.167 HD
ATOM     65  C   UNL A   1      42.263  29.215  34.521  1.00  0.00     0.074 A 
ATOM     66  C   UNL A   1      42.708  28.153  33.643  1.00  0.00     0.031 C 
ATOM     67  C   UNL A   1      42.901  29.582  35.659  1.00  0.00     0.034 A 
BRANCH  54  68
ATOM     68  C   UNL A   1      40.406  34.465  38.510  1.00  0.00     0.023 A 
ATOM     69  C   UNL A   1      41.167  35.642  38.352  1.00  0.00     0.012 A 
ATOM     70  C   UNL A   1      39.688  34.263  39.704  1.00  0.00     0.148 A 
ATOM     71  C   UNL A   1      41.242  36.584  39.375  1.00  0.00     0.002 A 
ATOM     72  C   UNL A   1      39.732  35.228  40.705  1.00  0.00     0.091 A 
ATOM     73  F   UNL A   1      38.987  33.129  39.847  1.00  0.00    -0.205 F 
ATOM     74  C   UNL A   1      40.518  36.382  40.546  1.00  0.00     0.022 A 
BRANCH  72  75
ATOM     75  S   UNL A   1      38.772  35.097  42.218  1.00  0.00     0.127 S 
ATOM     76  O   UNL A   1      39.353  33.905  42.834  1.00  0.00    -0.237 OA
ATOM     77  O   UNL A   1      39.094  36.351  42.898  1.00  0.00    -0.237 OA
ATOM     78  O   UNL A   1      37.382  34.975  41.800  1.00  0.00    -0.744 OA
ENDBRANCH  72  75
ENDBRANCH  54  68
BRANCH  55  79
ATOM     79  C   UNL A   1      39.700  28.307  30.666  1.00  0.00     0.023 A 
ATOM     80  C   UNL A   1      38.889  27.157  30.699  1.00  0.00     0.012 A 
ATOM     81  C   UNL A   1      40.391  28.627  29.481  1.00  0.00     0.148 A 
ATOM     82  C   UNL A   1      38.789  26.324  29.584  1.00  0.00     0.002 A 
ATOM     83  C   UNL A   1      40.244  27.823  28.355  1.00  0.00     0.091 A 
ATOM     84  F   UNL A   1      41.167  29.720  29.472  1.00  0.00    -0.205 F 
ATOM     85  C   UNL A   1      39.456  26.662  28.409  1.00  0.00     0.022 A 
BRANCH  83  86
ATOM     86  S   UNL A   1      40.957  28.258  26.764  1.00  0.00     0.127 S 
ATOM     87  O   UNL A   1      40.831  27.005  26.025  1.00  0.00    -0.237 OA
ATOM     88  O   UNL A   1      40.068  29.331  26.315  1.00  0.00    -0.237 OA
ATOM     89  O   UNL A   1      42.318  28.694  27.049  1.00  0.00    -0.744 OA
ENDBRANCH  83  86
ENDBRANCH  55  79
BRANCH  67  90
ATOM     90  C   UNL A   1      44.126  28.807  36.065  1.00  0.00     0.023 A 
ATOM     91  C   UNL A   1      45.405  29.301  35.746  1.00  0.00     0.012 A 
ATOM     92  C   UNL A   1      44.006  27.652  36.866  1.00  0.00     0.148 A 
ATOM     93  C   UNL A   1      46.549  28.650  36.206  1.00  0.00     0.002 A 
ATOM     94  C   UNL A   1      45.149  27.035  37.357  1.00  0.00     0.091 A 
ATOM     95  F   UNL A   1      42.778  27.192  37.142  1.00  0.00    -0.205 F 
ATOM     96  C   UNL A   1      46.421  27.527  37.021  1.00  0.00     0.022 A 
BRANCH  94  97
ATOM     97  S   UNL A   1      45.083  25.644  38.492  1.00  0.00     0.127 S 
ATOM     98  O   UNL A   1      44.062  24.801  37.872  1.00  0.00    -0.237 OA
ATOM     99  O   UNL A   1      46.444  25.113  38.411  1.00  0.00    -0.237 OA
ATOM    100  O   UNL A   1      44.726  26.199  39.791  1.00  0.00    -0.744 OA
ENDBRANCH  94  97
ENDBRANCH  67  90
ENDBRANCH  41  42
ENDBRANCH  33  36
ENDBRANCH  31  32
ENDBRANCH  30  31
ENDBRANCH  29  30
ENDBRANCH  28  29
ENDBRANCH   1  28
TORSDOF 21
ENDMDL
MODEL 2
REMARK VINA RESULT:     -10.6      6.957     12.776
REMARK SMILES Cc1cc(Cl)ccc1OCC(=O)Nc1ccc(CC(=O)NCCCCCCNC(=O)c2ccc(-c3c4nc(c(-c5cccc(S(=O)(=O)[O-])c5F)c5ccc([nH]5)c(-c5cccc(S(=O)(=O)[O-])c5F)c5nc(c(-c6cccc(S(=O)(=O)[O-])c6F)c6ccc3[nH]6)C=C5)C=C4)cc2)cc1
REMARK SMILES IDX 23 1 22 2 21 3 19 4 20 5 18 7 17 8 14 9 15 10 95 11 16 12
REMARK SMILES IDX 94 13 13 14 11 15 12 16 10 18 9 19 8 20 1 21 2 22 3 23 4 24
REMARK SMILES IDX 7 25 5 26 6 27 24 28 25 29 26 30 27 31 28 32 29 33 30 35
REMARK SMILES IDX 31 36 32 37 93 38 33 39 92 40 34 41 35 42 36 43 86 44 37 45
REMARK SMILES IDX 91 46 85 47 87 48 38 49 90 50 84 51 83 52 39 54 71 55 51 56
REMARK SMILES IDX 70 57 52 58 55 59 69 60 88 61 53 62 54 63 68 65 89 66 56 67
REMARK SMILES IDX 40 68 41 69 49 70 42 71 44 72 50 73 43 74 45 75 46 76 47 77
REMARK SMILES IDX 48 78 72 79 73 80 81 81 74 82 76 83 82 84 75 85 77 86 78 87
REMARK SMILES IDX 79 88 80 89 57 90 58 91 66 92 59 93 61 94 67 95 60 96 62 97
REMARK SMILES IDX 63 98 64 99 65 100
REMARK H PARENT 21 6 13 17 28 34 87 53 55 64
REMARK Flexibility Score: inf
ROOT
ATOM      1  C   UNL A   1      38.614  23.975  26.772  1.00  0.00     0.021 C 
ENDROOT
BRANCH   1   2
ATOM      2  C   UNL A   1      37.197  23.741  26.242  1.00  0.00     0.116 C 
BRANCH   2   3
ATOM      3  N   UNL A   1      37.164  23.810  24.792  1.00  0.00    -0.356 N 
ATOM      4  C   UNL A   1      36.836  22.840  23.891  1.00  0.00     0.224 C 
ATOM      5  O   UNL A   1      36.997  23.071  22.690  1.00  0.00    -0.275 OA
ATOM      6  H   UNL A   1      37.413  24.680  24.404  1.00  0.00     0.163 HD
BRANCH   4   7
ATOM      7  C   UNL A   1      36.227  21.534  24.364  1.00  0.00     0.135 C 
BRANCH   7   8
ATOM      8  C   UNL A   1      34.800  21.633  24.838  1.00  0.00    -0.039 A 
ATOM      9  C   UNL A   1      32.110  21.836  25.657  1.00  0.00     0.041 A 
ATOM     10  C   UNL A   1      33.117  21.535  26.583  1.00  0.00     0.026 A 
ATOM     11  C   UNL A   1      32.468  22.069  24.337  1.00  0.00     0.026 A 
ATOM     12  C   UNL A   1      34.450  21.418  26.175  1.00  0.00     0.006 A 
ATOM     13  C   UNL A   1      33.792  21.952  23.924  1.00  0.00     0.006 A 
BRANCH   9  14
ATOM     14  N   UNL A   1      30.795  21.923  26.129  1.00  0.00    -0.323 N 
ATOM     15  C   UNL A   1      30.122  22.909  26.795  1.00  0.00     0.262 C 
ATOM     16  O   UNL A   1      28.953  22.661  27.115  1.00  0.00    -0.271 OA
ATOM     17  H   UNL A   1      30.253  21.121  25.947  1.00  0.00     0.170 HD
BRANCH  15  18
ATOM     18  C   UNL A   1      30.692  24.337  26.952  1.00  0.00     0.329 C 
BRANCH  18  19
ATOM     19  O   UNL A   1      31.067  25.225  25.921  1.00  0.00    -0.483 OA
BRANCH  19  20
ATOM     20  C   UNL A   1      31.862  26.301  26.183  1.00  0.00     0.123 A 
ATOM     21  C   UNL A   1      34.072  25.415  25.204  1.00  0.00     0.048 C 
ATOM     22  C   UNL A   1      33.215  26.456  25.863  1.00  0.00    -0.007 A 
ATOM     23  C   UNL A   1      33.859  27.658  26.229  1.00  0.00     0.027 A 
ATOM     24  C   UNL A   1      33.196  28.643  26.962  1.00  0.00     0.041 A 
ATOM     25  C   UNL A   1      31.225  27.278  26.970  1.00  0.00     0.048 A 
ATOM     26  Cl  UNL A   1      34.013  30.092  27.394  1.00  0.00    -0.084 Cl
ATOM     27  C   UNL A   1      31.882  28.445  27.357  1.00  0.00     0.024 A 
ENDBRANCH  19  20
ENDBRANCH  18  19
ENDBRANCH  15  18
ENDBRANCH   9  14
ENDBRANCH   7   8
ENDBRANCH   4   7
ENDBRANCH   2   3
ENDBRANCH   1   2
BRANCH   1  28
ATOM     28  C   UNL A   1      39.690  23.152  26.050  1.00  0.00     0.002 C 
BRANCH  28  29
ATOM     29  C   UNL A   1      40.500  22.210  26.948  1.00  0.00     0.002 C 
BRANCH  29  30
ATOM     30  C   UNL A   1      40.500  20.743  26.513  1.00  0.00     0.021 C 
BRANCH  30  31
ATOM     31  C   UNL A   1      41.593  19.894  27.155  1.00  0.00     0.116 C 
BRANCH  31  32
ATOM     32  N   UNL A   1      42.435  19.246  26.159  1.00  0.00    -0.352 N 
ATOM     33  C   UNL A   1      43.379  19.807  25.334  1.00  0.00     0.251 C 
ATOM     34  H   UNL A   1      42.310  18.274  26.064  1.00  0.00     0.163 HD
ATOM     35  O   UNL A   1      43.866  19.153  24.414  1.00  0.00    -0.269 OA
BRANCH  33  36
ATOM     36  C   UNL A   1      43.790  21.208  25.550  1.00  0.00     0.039 A 
ATOM     37  C   UNL A   1      43.552  22.153  24.548  1.00  0.00     0.014 A 
ATOM     38  C   UNL A   1      44.395  21.587  26.751  1.00  0.00     0.014 A 
ATOM     39  C   UNL A   1      43.865  23.496  24.777  1.00  0.00     0.010 A 
ATOM     40  C   UNL A   1      44.644  22.931  27.002  1.00  0.00     0.010 A 
ATOM     41  C   UNL A   1      44.385  23.899  26.017  1.00  0.00    -0.014 A 
BRANCH  41  42
ATOM     42  C   UNL A   1      44.671  25.321  26.326  1.00  0.00     0.031 A 
ATOM     43  C   UNL A   1      46.075  25.844  26.190  1.00  0.00     0.074 A 
ATOM     44  C   UNL A   1      43.703  26.102  26.843  1.00  0.00     0.049 A 
ATOM     45  N   UNL A   1      46.565  27.001  26.551  1.00  0.00    -0.248 NA
ATOM     46  C   UNL A   1      47.066  24.931  25.594  1.00  0.00     0.031 C 
ATOM     47  C   UNL A   1      42.320  25.688  27.083  1.00  0.00     0.029 A 
ATOM     48  N   UNL A   1      43.747  27.395  27.304  1.00  0.00    -0.354 N 
ATOM     49  C   UNL A   1      47.924  26.940  26.273  1.00  0.00     0.074 A 
ATOM     50  C   UNL A   1      48.188  25.623  25.733  1.00  0.00     0.031 C 
ATOM     51  C   UNL A   1      41.652  26.698  27.663  1.00  0.00     0.029 A 
ATOM     52  C   UNL A   1      42.566  27.818  27.869  1.00  0.00     0.049 A 
ATOM     53  H   UNL A   1      44.547  27.964  27.238  1.00  0.00     0.167 HD
ATOM     54  C   UNL A   1      48.865  27.901  26.427  1.00  0.00     0.034 A 
ATOM     55  C   UNL A   1      42.260  28.969  28.499  1.00  0.00     0.034 A 
ATOM     56  C   UNL A   1      48.587  29.222  26.918  1.00  0.00     0.049 A 
ATOM     57  C   UNL A   1      43.312  30.038  28.621  1.00  0.00     0.074 A 
ATOM     58  C   UNL A   1      49.453  30.295  27.036  1.00  0.00     0.029 A 
ATOM     59  N   UNL A   1      47.351  29.652  27.374  1.00  0.00    -0.354 N 
ATOM     60  N   UNL A   1      44.559  30.016  28.218  1.00  0.00    -0.248 NA
ATOM     61  C   UNL A   1      42.910  31.305  29.251  1.00  0.00     0.031 C 
ATOM     62  C   UNL A   1      48.741  31.372  27.574  1.00  0.00     0.029 A 
ATOM     63  C   UNL A   1      47.428  30.974  27.772  1.00  0.00     0.049 A 
ATOM     64  H   UNL A   1      46.538  29.097  27.409  1.00  0.00     0.167 HD
ATOM     65  C   UNL A   1      45.078  31.272  28.507  1.00  0.00     0.074 A 
ATOM     66  C   UNL A   1      44.007  32.038  29.109  1.00  0.00     0.031 C 
ATOM     67  C   UNL A   1      46.332  31.744  28.303  1.00  0.00     0.034 A 
BRANCH  54  68
ATOM     68  C   UNL A   1      50.272  27.576  26.000  1.00  0.00     0.023 A 
ATOM     69  C   UNL A   1      51.213  27.172  26.969  1.00  0.00     0.012 A 
ATOM     70  C   UNL A   1      50.652  27.619  24.645  1.00  0.00     0.148 A 
ATOM     71  C   UNL A   1      52.518  26.850  26.603  1.00  0.00     0.002 A 
ATOM     72  C   UNL A   1      51.944  27.255  24.282  1.00  0.00     0.091 A 
ATOM     73  F   UNL A   1      49.752  28.026  23.738  1.00  0.00    -0.205 F 
ATOM     74  C   UNL A   1      52.880  26.882  25.260  1.00  0.00     0.022 A 
BRANCH  72  75
ATOM     75  S   UNL A   1      52.485  27.189  22.569  1.00  0.00     0.127 S 
ATOM     76  O   UNL A   1      53.581  26.224  22.642  1.00  0.00    -0.237 OA
ATOM     77  O   UNL A   1      51.288  26.699  21.885  1.00  0.00    -0.237 OA
ATOM     78  O   UNL A   1      52.867  28.550  22.218  1.00  0.00    -0.744 OA
ENDBRANCH  72  75
ENDBRANCH  54  68
BRANCH  55  79
ATOM     79  C   UNL A   1      40.875  29.190  29.007  1.00  0.00     0.023 A 
ATOM     80  C   UNL A   1      39.839  29.444  28.089  1.00  0.00     0.012 A 
ATOM     81  C   UNL A   1      40.571  29.103  30.380  1.00  0.00     0.148 A 
ATOM     82  C   UNL A   1      38.529  29.638  28.530  1.00  0.00     0.002 A 
ATOM     83  C   UNL A   1      39.255  29.243  30.807  1.00  0.00     0.091 A 
ATOM     84  F   UNL A   1      41.573  28.871  31.240  1.00  0.00    -0.205 F 
ATOM     85  C   UNL A   1      38.235  29.527  29.886  1.00  0.00     0.022 A 
BRANCH  83  86
ATOM     86  S   UNL A   1      38.767  28.979  32.517  1.00  0.00     0.127 S 
ATOM     87  O   UNL A   1      39.125  30.254  33.132  1.00  0.00    -0.237 OA
ATOM     88  O   UNL A   1      37.329  28.738  32.390  1.00  0.00    -0.237 OA
ATOM     89  O   UNL A   1      39.527  27.820  32.968  1.00  0.00    -0.744 OA
ENDBRANCH  83  86
ENDBRANCH  55  79
BRANCH  67  90
ATOM     90  C   UNL A   1      46.622  33.172  28.683  1.00  0.00     0.023 A 
ATOM     91  C   UNL A   1      47.162  33.463  29.950  1.00  0.00     0.012 A 
ATOM     92  C   UNL A   1      46.469  34.206  27.737  1.00  0.00     0.148 A 
ATOM     93  C   UNL A   1      47.534  34.767  30.277  1.00  0.00     0.002 A 
ATOM     94  C   UNL A   1      46.882  35.494  28.055  1.00  0.00     0.091 A 
ATOM     95  F   UNL A   1      45.936  33.907  26.544  1.00  0.00    -0.205 F 
ATOM     96  C   UNL A   1      47.407  35.778  29.327  1.00  0.00     0.022 A 
BRANCH  94  97
ATOM     97  S   UNL A   1      46.849  36.839  26.865  1.00  0.00     0.127 S 
ATOM     98  O   UNL A   1      47.507  36.231  25.709  1.00  0.00    -0.237 OA
ATOM     99  O   UNL A   1      45.413  37.069  26.697  1.00  0.00    -0.237 OA
ATOM    100  O   UNL A   1      47.571  37.943  27.482  1.00  0.00    -0.744 OA
ENDBRANCH  94  97
ENDBRANCH  67  90
ENDBRANCH  41  42
ENDBRANCH  33  36
ENDBRANCH  31  32
ENDBRANCH  30  31
ENDBRANCH  29  30
ENDBRANCH  28  29
ENDBRANCH   1  28
TORSDOF 21
ENDMDL
MODEL 3
REMARK VINA RESULT:     -10.6      7.082     12.138
REMARK SMILES Cc1cc(Cl)ccc1OCC(=O)Nc1ccc(CC(=O)NCCCCCCNC(=O)c2ccc(-c3c4nc(c(-c5cccc(S(=O)(=O)[O-])c5F)c5ccc([nH]5)c(-c5cccc(S(=O)(=O)[O-])c5F)c5nc(c(-c6cccc(S(=O)(=O)[O-])c6F)c6ccc3[nH]6)C=C5)C=C4)cc2)cc1
REMARK SMILES IDX 23 1 22 2 21 3 19 4 20 5 18 7 17 8 14 9 15 10 95 11 16 12
REMARK SMILES IDX 94 13 13 14 11 15 12 16 10 18 9 19 8 20 1 21 2 22 3 23 4 24
REMARK SMILES IDX 7 25 5 26 6 27 24 28 25 29 26 30 27 31 28 32 29 33 30 35
REMARK SMILES IDX 31 36 32 37 93 38 33 39 92 40 34 41 35 42 36 43 86 44 37 45
REMARK SMILES IDX 91 46 85 47 87 48 38 49 90 50 84 51 83 52 39 54 71 55 51 56
REMARK SMILES IDX 70 57 52 58 55 59 69 60 88 61 53 62 54 63 68 65 89 66 56 67
REMARK SMILES IDX 40 68 41 69 49 70 42 71 44 72 50 73 43 74 45 75 46 76 47 77
REMARK SMILES IDX 48 78 72 79 73 80 81 81 74 82 76 83 82 84 75 85 77 86 78 87
REMARK SMILES IDX 79 88 80 89 57 90 58 91 66 92 59 93 61 94 67 95 60 96 62 97
REMARK SMILES IDX 63 98 64 99 65 100
REMARK H PARENT 21 6 13 17 28 34 87 53 55 64
REMARK Flexibility Score: inf
ROOT
ATOM      1  C   UNL A   1      38.583  23.366  26.418  1.00  0.00     0.021 C 
ENDROOT
BRANCH   1   2
ATOM      2  C   UNL A   1      37.219  23.581  25.759  1.00  0.00     0.116 C 
BRANCH   2   3
ATOM      3  N   UNL A   1      37.302  23.420  24.319  1.00  0.00    -0.356 N 
ATOM      4  C   UNL A   1      36.325  23.076  23.431  1.00  0.00     0.224 C 
ATOM      5  O   UNL A   1      36.639  22.870  22.257  1.00  0.00    -0.275 OA
ATOM      6  H   UNL A   1      38.191  23.583  23.926  1.00  0.00     0.163 HD
BRANCH   4   7
ATOM      7  C   UNL A   1      34.877  23.016  23.878  1.00  0.00     0.135 C 
BRANCH   7   8
ATOM      8  C   UNL A   1      34.007  24.136  23.367  1.00  0.00    -0.039 A 
ATOM      9  C   UNL A   1      32.330  26.183  22.395  1.00  0.00     0.041 A 
ATOM     10  C   UNL A   1      33.626  26.474  22.837  1.00  0.00     0.026 A 
ATOM     11  C   UNL A   1      31.901  24.863  22.410  1.00  0.00     0.026 A 
ATOM     12  C   UNL A   1      34.454  25.461  23.335  1.00  0.00     0.006 A 
ATOM     13  C   UNL A   1      32.718  23.852  22.906  1.00  0.00     0.006 A 
BRANCH   9  14
ATOM     14  N   UNL A   1      31.548  27.245  21.925  1.00  0.00    -0.323 N 
ATOM     15  C   UNL A   1      30.433  27.856  22.426  1.00  0.00     0.262 C 
ATOM     16  O   UNL A   1      29.941  28.760  21.739  1.00  0.00    -0.271 OA
ATOM     17  H   UNL A   1      31.860  27.621  21.071  1.00  0.00     0.170 HD
BRANCH  15  18
ATOM     18  C   UNL A   1      29.928  27.602  23.865  1.00  0.00     0.329 C 
BRANCH  18  19
ATOM     19  O   UNL A   1      30.673  27.696  25.059  1.00  0.00    -0.483 OA
BRANCH  19  20
ATOM     20  C   UNL A   1      31.198  26.581  25.642  1.00  0.00     0.123 A 
ATOM     21  C   UNL A   1      33.549  27.481  26.183  1.00  0.00     0.048 C 
ATOM     22  C   UNL A   1      32.477  26.431  26.189  1.00  0.00    -0.007 A 
ATOM     23  C   UNL A   1      32.827  25.182  26.746  1.00  0.00     0.027 A 
ATOM     24  C   UNL A   1      31.959  24.092  26.690  1.00  0.00     0.041 A 
ATOM     25  C   UNL A   1      30.356  25.458  25.543  1.00  0.00     0.048 A 
ATOM     26  Cl  UNL A   1      32.420  22.585  27.375  1.00  0.00    -0.084 Cl
ATOM     27  C   UNL A   1      30.728  24.219  26.065  1.00  0.00     0.024 A 
ENDBRANCH  19  20
ENDBRANCH  18  19
ENDBRANCH  15  18
ENDBRANCH   9  14
ENDBRANCH   7   8
ENDBRANCH   4   7
ENDBRANCH   2   3
ENDBRANCH   1   2
BRANCH   1  28
ATOM     28  C   UNL A   1      39.332  22.128  25.904  1.00  0.00     0.002 C 
BRANCH  28  29
ATOM     29  C   UNL A   1      40.268  21.466  26.920  1.00  0.00     0.002 C 
BRANCH  29  30
ATOM     30  C   UNL A   1      40.561  19.986  26.662  1.00  0.00     0.021 C 
BRANCH  30  31
ATOM     31  C   UNL A   1      41.909  19.508  27.190  1.00  0.00     0.116 C 
BRANCH  31  32
ATOM     32  N   UNL A   1      42.754  18.978  26.128  1.00  0.00    -0.352 N 
ATOM     33  C   UNL A   1      43.580  19.656  25.267  1.00  0.00     0.251 C 
ATOM     34  H   UNL A   1      42.727  18.001  26.011  1.00  0.00     0.163 HD
ATOM     35  O   UNL A   1      44.078  19.081  24.301  1.00  0.00    -0.269 OA
BRANCH  33  36
ATOM     36  C   UNL A   1      43.853  21.089  25.501  1.00  0.00     0.039 A 
ATOM     37  C   UNL A   1      43.222  22.045  24.700  1.00  0.00     0.014 A 
ATOM     38  C   UNL A   1      44.720  21.482  26.524  1.00  0.00     0.014 A 
ATOM     39  C   UNL A   1      43.412  23.404  24.968  1.00  0.00     0.010 A 
ATOM     40  C   UNL A   1      44.855  22.831  26.830  1.00  0.00     0.010 A 
ATOM     41  C   UNL A   1      44.206  23.805  26.054  1.00  0.00    -0.014 A 
BRANCH  41  42
ATOM     42  C   UNL A   1      44.384  25.234  26.412  1.00  0.00     0.031 A 
ATOM     43  C   UNL A   1      45.731  25.881  26.246  1.00  0.00     0.074 A 
ATOM     44  C   UNL A   1      43.375  25.907  27.000  1.00  0.00     0.049 A 
ATOM     45  N   UNL A   1      46.136  27.061  26.637  1.00  0.00    -0.248 NA
ATOM     46  C   UNL A   1      46.770  25.082  25.573  1.00  0.00     0.031 C 
ATOM     47  C   UNL A   1      42.044  25.365  27.275  1.00  0.00     0.029 A 
ATOM     48  N   UNL A   1      43.329  27.179  27.514  1.00  0.00    -0.354 N 
ATOM     49  C   UNL A   1      47.483  27.128  26.304  1.00  0.00     0.074 A 
ATOM     50  C   UNL A   1      47.834  25.862  25.698  1.00  0.00     0.031 C 
ATOM     51  C   UNL A   1      41.318  26.290  27.923  1.00  0.00     0.029 A 
ATOM     52  C   UNL A   1      42.141  27.475  28.142  1.00  0.00     0.049 A 
ATOM     53  H   UNL A   1      44.075  27.818  27.442  1.00  0.00     0.167 HD
ATOM     54  C   UNL A   1      48.344  28.160  26.464  1.00  0.00     0.034 A 
ATOM     55  C   UNL A   1      41.765  28.570  28.833  1.00  0.00     0.034 A 
ATOM     56  C   UNL A   1      47.976  29.432  27.022  1.00  0.00     0.049 A 
ATOM     57  C   UNL A   1      42.727  29.720  28.960  1.00  0.00     0.074 A 
ATOM     58  C   UNL A   1      48.752  30.570  27.153  1.00  0.00     0.029 A 
ATOM     59  N   UNL A   1      46.728  29.735  27.543  1.00  0.00    -0.354 N 
ATOM     60  N   UNL A   1      43.954  29.822  28.509  1.00  0.00    -0.248 NA
ATOM     61  C   UNL A   1      42.246  30.921  29.660  1.00  0.00     0.031 C 
ATOM     62  C   UNL A   1      47.975  31.559  27.764  1.00  0.00     0.029 A 
ATOM     63  C   UNL A   1      46.710  31.042  27.996  1.00  0.00     0.049 A 
ATOM     64  H   UNL A   1      45.967  29.111  27.586  1.00  0.00     0.167 HD
ATOM     65  C   UNL A   1      44.376  31.106  28.832  1.00  0.00     0.074 A 
ATOM     66  C   UNL A   1      43.269  31.751  29.508  1.00  0.00     0.031 C 
ATOM     67  C   UNL A   1      45.576  31.692  28.601  1.00  0.00     0.034 A 
BRANCH  54  68
ATOM     68  C   UNL A   1      49.754  27.976  25.970  1.00  0.00     0.023 A 
ATOM     69  C   UNL A   1      50.046  28.206  24.610  1.00  0.00     0.012 A 
ATOM     70  C   UNL A   1      50.797  27.629  26.851  1.00  0.00     0.148 A 
ATOM     71  C   UNL A   1      51.345  28.059  24.126  1.00  0.00     0.002 A 
ATOM     72  C   UNL A   1      52.098  27.527  26.369  1.00  0.00     0.091 A 
ATOM     73  F   UNL A   1      50.499  27.394  28.136  1.00  0.00    -0.205 F 
ATOM     74  C   UNL A   1      52.370  27.729  25.006  1.00  0.00     0.022 A 
BRANCH  72  75
ATOM     75  S   UNL A   1      53.501  27.183  27.438  1.00  0.00     0.127 S 
ATOM     76  O   UNL A   1      52.890  26.342  28.466  1.00  0.00    -0.237 OA
ATOM     77  O   UNL A   1      54.412  26.478  26.537  1.00  0.00    -0.237 OA
ATOM     78  O   UNL A   1      53.984  28.480  27.892  1.00  0.00    -0.744 OA
ENDBRANCH  72  75
ENDBRANCH  54  68
BRANCH  55  79
ATOM     79  C   UNL A   1      40.389  28.649  29.403  1.00  0.00     0.023 A 
ATOM     80  C   UNL A   1      40.152  28.156  30.699  1.00  0.00     0.012 A 
ATOM     81  C   UNL A   1      39.332  29.250  28.692  1.00  0.00     0.148 A 
ATOM     82  C   UNL A   1      38.880  28.231  31.268  1.00  0.00     0.002 A 
ATOM     83  C   UNL A   1      38.080  29.371  29.285  1.00  0.00     0.091 A 
ATOM     84  F   UNL A   1      39.574  29.704  27.454  1.00  0.00    -0.205 F 
ATOM     85  C   UNL A   1      37.847  28.847  30.566  1.00  0.00     0.022 A 
BRANCH  83  86
ATOM     86  S   UNL A   1      36.731  30.271  28.508  1.00  0.00     0.127 S 
ATOM     87  O   UNL A   1      35.659  30.109  29.486  1.00  0.00    -0.237 OA
ATOM     88  O   UNL A   1      37.283  31.624  28.415  1.00  0.00    -0.237 OA
ATOM     89  O   UNL A   1      36.519  29.626  27.219  1.00  0.00    -0.744 OA
ENDBRANCH  83  86
ENDBRANCH  55  79
BRANCH  67  90
ATOM     90  C   UNL A   1      45.759  33.123  29.031  1.00  0.00     0.023 A 
ATOM     91  C   UNL A   1      46.364  33.410  30.270  1.00  0.00     0.012 A 
ATOM     92  C   UNL A   1      45.439  34.178  28.152  1.00  0.00     0.148 A 
ATOM     93  C   UNL A   1      46.636  34.728  30.635  1.00  0.00     0.002 A 
ATOM     94  C   UNL A   1      45.754  35.485  28.504  1.00  0.00     0.091 A 
ATOM     95  F   UNL A   1      44.848  33.881  26.986  1.00  0.00    -0.205 F 
ATOM     96  C   UNL A   1      46.344  35.762  29.748  1.00  0.00     0.022 A 
BRANCH  94  97
ATOM     97  S   UNL A   1      45.505  36.871  27.389  1.00  0.00     0.127 S 
ATOM     98  O   UNL A   1      44.254  36.502  26.728  1.00  0.00    -0.237 OA
ATOM     99  O   UNL A   1      45.395  37.998  28.316  1.00  0.00    -0.237 OA
ATOM    100  O   UNL A   1      46.676  36.910  26.525  1.00  0.00    -0.744 OA
ENDBRANCH  94  97
ENDBRANCH  67  90
ENDBRANCH  41  42
ENDBRANCH  33  36
ENDBRANCH  31  32
ENDBRANCH  30  31
ENDBRANCH  29  30
ENDBRANCH  28  29
ENDBRANCH   1  28
TORSDOF 21
ENDMDL
