MODEL 1
REMARK VINA RESULT:     -11.8      0.000      0.000
REMARK SMILES Cc1cnc(N2CCO[C@H](CC(=O)NCCCCCCNC(=O)c3ccc(-c4c5nc(c(-c6cccc(S(=O)(=O)[O-])c6F)c6ccc([nH]6)c(-c6cccc(S(=O)(=O)[O-])c6F)c6nc(c(-c7cccc(S(=O)(=O)[O-])c7F)c7ccc4[nH]7)C=C6)C=C5)cc3)C2)c([N+](=O)[O-])c1
REMARK SMILES IDX 17 1 16 2 15 3 14 4 12 5 13 6 11 8 10 9 6 10 7 11 87 12 8 13
REMARK SMILES IDX 9 14 5 15 1 16 2 17 3 18 92 19 4 20 88 21 89 22 90 23 91 24
REMARK SMILES IDX 18 25 19 26 20 27 21 28 22 29 23 31 24 32 25 33 86 34 26 35
REMARK SMILES IDX 85 36 27 37 28 38 29 39 79 40 30 41 84 42 78 43 80 44 31 45
REMARK SMILES IDX 83 46 77 47 76 48 32 50 64 51 44 52 63 53 45 54 48 55 62 56
REMARK SMILES IDX 81 57 46 58 47 59 61 61 82 62 49 63 33 64 34 65 42 66 35 67
REMARK SMILES IDX 37 68 43 69 36 70 38 71 39 72 40 73 41 74 65 75 66 76 74 77
REMARK SMILES IDX 67 78 69 79 75 80 68 81 70 82 71 83 72 84 73 85 50 86 51 87
REMARK SMILES IDX 59 88 52 89 54 90 60 91 53 92 55 93 56 94 57 95 58 96
REMARK H PARENT 14 7 21 30 80 49 48 60
REMARK Flexibility Score: inf
ROOT
ATOM      1  C   UNL A   1      32.638  29.697  26.795  1.00  0.00     0.002 C 
ENDROOT
BRANCH   1   2
ATOM      2  C   UNL A   1      31.920  28.469  27.367  1.00  0.00     0.021 C 
BRANCH   2   3
ATOM      3  C   UNL A   1      32.122  27.216  26.520  1.00  0.00     0.116 C 
BRANCH   3   4
ATOM      4  N   UNL A   1      31.155  26.205  26.897  1.00  0.00    -0.356 N 
ATOM      5  C   UNL A   1      31.032  24.944  26.408  1.00  0.00     0.222 C 
ATOM      6  O   UNL A   1      30.015  24.295  26.657  1.00  0.00    -0.275 OA
ATOM      7  H   UNL A   1      30.509  26.463  27.593  1.00  0.00     0.163 HD
BRANCH   5   8
ATOM      8  C   UNL A   1      32.166  24.350  25.617  1.00  0.00     0.133 C 
BRANCH   8   9
ATOM      9  C   UNL A   1      31.991  24.506  24.097  1.00  0.00     0.147 C 
ATOM     10  N   UNL A   1      33.114  22.419  23.706  1.00  0.00    -0.346 N 
ATOM     11  C   UNL A   1      34.250  23.040  23.023  1.00  0.00     0.147 C 
ATOM     12  C   UNL A   1      31.849  23.111  23.456  1.00  0.00     0.151 C 
ATOM     13  C   UNL A   1      34.347  24.512  23.472  1.00  0.00     0.182 C 
ATOM     14  O   UNL A   1      33.081  25.215  23.455  1.00  0.00    -0.374 OA
BRANCH  10  15
ATOM     15  C   UNL A   1      33.092  21.106  24.083  1.00  0.00     0.208 A 
ATOM     16  C   UNL A   1      32.390  17.021  25.188  1.00  0.00     0.046 C 
ATOM     17  C   UNL A   1      32.678  18.442  24.827  1.00  0.00    -0.026 A 
ATOM     18  C   UNL A   1      32.220  18.984  23.636  1.00  0.00     0.117 A 
ATOM     19  C   UNL A   1      33.387  19.286  25.672  1.00  0.00     0.094 A 
ATOM     20  N   UNL A   1      32.407  20.271  23.263  1.00  0.00    -0.233 NA
ATOM     21  C   UNL A   1      33.591  20.624  25.297  1.00  0.00     0.311 A 
BRANCH  21  22
ATOM     22  N   UNL A   1      34.170  21.505  26.297  1.00  0.00     0.066 N 
ATOM     23  O   UNL A   1      35.319  21.931  26.126  1.00  0.00    -0.258 OA
ATOM     24  O   UNL A   1      33.487  21.724  27.310  1.00  0.00    -0.258 OA
ENDBRANCH  21  22
ENDBRANCH  10  15
ENDBRANCH   8   9
ENDBRANCH   5   8
ENDBRANCH   3   4
ENDBRANCH   2   3
ENDBRANCH   1   2
BRANCH   1  25
ATOM     25  C   UNL A   1      31.716  30.697  26.087  1.00  0.00     0.002 C 
BRANCH  25  26
ATOM     26  C   UNL A   1      31.459  31.987  26.869  1.00  0.00     0.021 C 
BRANCH  26  27
ATOM     27  C   UNL A   1      32.727  32.675  27.365  1.00  0.00     0.116 C 
BRANCH  27  28
ATOM     28  N   UNL A   1      32.497  34.084  27.649  1.00  0.00    -0.352 N 
ATOM     29  C   UNL A   1      33.060  34.872  28.621  1.00  0.00     0.251 C 
ATOM     30  H   UNL A   1      31.847  34.535  27.063  1.00  0.00     0.163 HD
ATOM     31  O   UNL A   1      32.597  35.982  28.863  1.00  0.00    -0.269 OA
BRANCH  29  32
ATOM     32  C   UNL A   1      34.222  34.366  29.382  1.00  0.00     0.039 A 
ATOM     33  C   UNL A   1      34.005  33.710  30.596  1.00  0.00     0.014 A 
ATOM     34  C   UNL A   1      35.520  34.536  28.892  1.00  0.00     0.014 A 
ATOM     35  C   UNL A   1      35.090  33.177  31.293  1.00  0.00     0.010 A 
ATOM     36  C   UNL A   1      36.589  33.941  29.551  1.00  0.00     0.010 A 
ATOM     37  C   UNL A   1      36.388  33.262  30.763  1.00  0.00    -0.014 A 
BRANCH  37  38
ATOM     38  C   UNL A   1      37.547  32.642  31.451  1.00  0.00     0.031 A 
ATOM     39  C   UNL A   1      38.278  31.491  30.813  1.00  0.00     0.074 A 
ATOM     40  C   UNL A   1      37.882  33.053  32.689  1.00  0.00     0.049 A 
ATOM     41  N   UNL A   1      39.263  30.774  31.291  1.00  0.00    -0.248 NA
ATOM     42  C   UNL A   1      37.825  31.070  29.477  1.00  0.00     0.031 C 
ATOM     43  C   UNL A   1      37.201  34.107  33.444  1.00  0.00     0.029 A 
ATOM     44  N   UNL A   1      38.861  32.613  33.545  1.00  0.00    -0.354 N 
ATOM     45  C   UNL A   1      39.521  29.800  30.335  1.00  0.00     0.074 A 
ATOM     46  C   UNL A   1      38.569  29.994  29.264  1.00  0.00     0.031 C 
ATOM     47  C   UNL A   1      37.783  34.233  34.648  1.00  0.00     0.029 A 
ATOM     48  C   UNL A   1      38.853  33.248  34.765  1.00  0.00     0.049 A 
ATOM     49  H   UNL A   1      39.508  31.910  33.308  1.00  0.00     0.167 HD
ATOM     50  C   UNL A   1      40.483  28.845  30.335  1.00  0.00     0.034 A 
ATOM     51  C   UNL A   1      39.614  33.051  35.860  1.00  0.00     0.034 A 
ATOM     52  C   UNL A   1      41.454  28.683  31.383  1.00  0.00     0.049 A 
ATOM     53  C   UNL A   1      40.696  32.008  35.820  1.00  0.00     0.074 A 
ATOM     54  C   UNL A   1      42.523  27.806  31.435  1.00  0.00     0.029 A 
ATOM     55  N   UNL A   1      41.469  29.403  32.567  1.00  0.00    -0.354 N 
ATOM     56  N   UNL A   1      41.027  31.199  34.842  1.00  0.00    -0.248 NA
ATOM     57  C   UNL A   1      41.536  31.873  37.020  1.00  0.00     0.031 C 
ATOM     58  C   UNL A   1      43.168  27.977  32.664  1.00  0.00     0.029 A 
ATOM     59  C   UNL A   1      42.521  28.985  33.362  1.00  0.00     0.049 A 
ATOM     60  H   UNL A   1      40.826  30.110  32.806  1.00  0.00     0.167 HD
ATOM     61  C   UNL A   1      42.134  30.490  35.293  1.00  0.00     0.074 A 
ATOM     62  C   UNL A   1      42.428  30.975  36.624  1.00  0.00     0.031 C 
ATOM     63  C   UNL A   1      42.836  29.515  34.664  1.00  0.00     0.034 A 
BRANCH  50  64
ATOM     64  C   UNL A   1      40.563  27.931  29.140  1.00  0.00     0.023 A 
ATOM     65  C   UNL A   1      39.691  26.828  29.045  1.00  0.00     0.012 A 
ATOM     66  C   UNL A   1      41.458  28.196  28.084  1.00  0.00     0.148 A 
ATOM     67  C   UNL A   1      39.730  25.982  27.937  1.00  0.00     0.002 A 
ATOM     68  C   UNL A   1      41.459  27.376  26.962  1.00  0.00     0.091 A 
ATOM     69  F   UNL A   1      42.295  29.236  28.200  1.00  0.00    -0.205 F 
ATOM     70  C   UNL A   1      40.605  26.262  26.892  1.00  0.00     0.022 A 
BRANCH  68  71
ATOM     71  S   UNL A   1      42.489  27.698  25.526  1.00  0.00     0.127 S 
ATOM     72  O   UNL A   1      42.224  26.519  24.702  1.00  0.00    -0.237 OA
ATOM     73  O   UNL A   1      41.918  28.943  25.010  1.00  0.00    -0.237 OA
ATOM     74  O   UNL A   1      43.851  27.816  26.027  1.00  0.00    -0.744 OA
ENDBRANCH  68  71
ENDBRANCH  50  64
BRANCH  51  75
ATOM     75  C   UNL A   1      39.415  33.903  37.067  1.00  0.00     0.023 A 
ATOM     76  C   UNL A   1      39.834  35.247  37.043  1.00  0.00     0.012 A 
ATOM     77  C   UNL A   1      38.793  33.398  38.226  1.00  0.00     0.148 A 
ATOM     78  C   UNL A   1      39.670  36.064  38.161  1.00  0.00     0.002 A 
ATOM     79  C   UNL A   1      38.581  34.234  39.317  1.00  0.00     0.091 A 
ATOM     80  F   UNL A   1      38.409  32.115  38.233  1.00  0.00    -0.205 F 
ATOM     81  C   UNL A   1      39.034  35.562  39.294  1.00  0.00     0.022 A 
BRANCH  79  82
ATOM     82  S   UNL A   1      37.657  33.710  40.765  1.00  0.00     0.127 S 
ATOM     83  O   UNL A   1      37.494  34.970  41.487  1.00  0.00    -0.237 OA
ATOM     84  O   UNL A   1      36.431  33.181  40.166  1.00  0.00    -0.237 OA
ATOM     85  O   UNL A   1      38.486  32.709  41.421  1.00  0.00    -0.744 OA
ENDBRANCH  79  82
ENDBRANCH  51  75
BRANCH  63  86
ATOM     86  C   UNL A   1      44.025  28.931  35.382  1.00  0.00     0.023 A 
ATOM     87  C   UNL A   1      45.294  29.526  35.243  1.00  0.00     0.012 A 
ATOM     88  C   UNL A   1      43.864  27.841  36.261  1.00  0.00     0.148 A 
ATOM     89  C   UNL A   1      46.391  29.026  35.944  1.00  0.00     0.002 A 
ATOM     90  C   UNL A   1      44.950  27.382  36.995  1.00  0.00     0.091 A 
ATOM     91  F   UNL A   1      42.651  27.278  36.366  1.00  0.00    -0.205 F 
ATOM     92  C   UNL A   1      46.216  27.964  36.829  1.00  0.00     0.022 A 
BRANCH  90  93
ATOM     93  S   UNL A   1      44.799  26.086  38.231  1.00  0.00     0.127 S 
ATOM     94  O   UNL A   1      46.152  25.532  38.247  1.00  0.00    -0.237 OA
ATOM     95  O   UNL A   1      44.436  26.843  39.429  1.00  0.00    -0.237 OA
ATOM     96  O   UNL A   1      43.763  25.185  37.747  1.00  0.00    -0.744 OA
ENDBRANCH  90  93
ENDBRANCH  63  86
ENDBRANCH  37  38
ENDBRANCH  29  32
ENDBRANCH  27  28
ENDBRANCH  26  27
ENDBRANCH  25  26
ENDBRANCH   1  25
TORSDOF 19
ENDMDL
MODEL 2
REMARK VINA RESULT:     -11.6      5.786      8.850
REMARK SMILES Cc1cnc(N2CCO[C@H](CC(=O)NCCCCCCNC(=O)c3ccc(-c4c5nc(c(-c6cccc(S(=O)(=O)[O-])c6F)c6ccc([nH]6)c(-c6cccc(S(=O)(=O)[O-])c6F)c6nc(c(-c7cccc(S(=O)(=O)[O-])c7F)c7ccc4[nH]7)C=C6)C=C5)cc3)C2)c([N+](=O)[O-])c1
REMARK SMILES IDX 17 1 16 2 15 3 14 4 12 5 13 6 11 8 10 9 6 10 7 11 87 12 8 13
REMARK SMILES IDX 9 14 5 15 1 16 2 17 3 18 92 19 4 20 88 21 89 22 90 23 91 24
REMARK SMILES IDX 18 25 19 26 20 27 21 28 22 29 23 31 24 32 25 33 86 34 26 35
REMARK SMILES IDX 85 36 27 37 28 38 29 39 79 40 30 41 84 42 78 43 80 44 31 45
REMARK SMILES IDX 83 46 77 47 76 48 32 50 64 51 44 52 63 53 45 54 48 55 62 56
REMARK SMILES IDX 81 57 46 58 47 59 61 61 82 62 49 63 33 64 34 65 42 66 35 67
REMARK SMILES IDX 37 68 43 69 36 70 38 71 39 72 40 73 41 74 65 75 66 76 74 77
REMARK SMILES IDX 67 78 69 79 75 80 68 81 70 82 71 83 72 84 73 85 50 86 51 87
REMARK SMILES IDX 59 88 52 89 54 90 60 91 53 92 55 93 56 94 57 95 58 96
REMARK H PARENT 14 7 21 30 80 49 48 60
REMARK Flexibility Score: inf
ROOT
ATOM      1  C   UNL A   1      35.251  23.262  24.085  1.00  0.00     0.002 C 
ENDROOT
BRANCH   1   2
ATOM      2  C   UNL A   1      35.166  24.298  25.213  1.00  0.00     0.021 C 
BRANCH   2   3
ATOM      3  C   UNL A   1      34.387  25.547  24.813  1.00  0.00     0.116 C 
BRANCH   3   4
ATOM      4  N   UNL A   1      34.061  26.323  25.993  1.00  0.00    -0.356 N 
ATOM      5  C   UNL A   1      33.591  27.596  26.051  1.00  0.00     0.222 C 
ATOM      6  O   UNL A   1      33.593  28.193  27.128  1.00  0.00    -0.275 OA
ATOM      7  H   UNL A   1      34.196  25.873  26.857  1.00  0.00     0.163 HD
BRANCH   5   8
ATOM      8  C   UNL A   1      33.028  28.228  24.807  1.00  0.00     0.133 C 
BRANCH   8   9
ATOM      9  C   UNL A   1      31.517  28.504  24.898  1.00  0.00     0.147 C 
ATOM     10  N   UNL A   1      31.050  26.705  23.377  1.00  0.00    -0.346 N 
ATOM     11  C   UNL A   1      30.527  27.587  22.332  1.00  0.00     0.147 C 
ATOM     12  C   UNL A   1      30.747  27.178  24.729  1.00  0.00     0.151 C 
ATOM     13  C   UNL A   1      31.109  28.999  22.547  1.00  0.00     0.182 C 
ATOM     14  O   UNL A   1      31.040  29.460  23.918  1.00  0.00    -0.374 OA
BRANCH  10  15
ATOM     15  C   UNL A   1      31.307  25.378  23.178  1.00  0.00     0.208 A 
ATOM     16  C   UNL A   1      32.322  21.210  23.159  1.00  0.00     0.046 C 
ATOM     17  C   UNL A   1      31.970  22.661  23.116  1.00  0.00    -0.026 A 
ATOM     18  C   UNL A   1      31.132  23.223  24.067  1.00  0.00     0.117 A 
ATOM     19  C   UNL A   1      32.486  23.514  22.148  1.00  0.00     0.094 A 
ATOM     20  N   UNL A   1      30.805  24.535  24.114  1.00  0.00    -0.233 NA
ATOM     21  C   UNL A   1      32.153  24.878  22.183  1.00  0.00     0.311 A 
BRANCH  21  22
ATOM     22  N   UNL A   1      32.866  25.752  21.267  1.00  0.00     0.066 N 
ATOM     23  O   UNL A   1      33.761  26.481  21.711  1.00  0.00    -0.258 OA
ATOM     24  O   UNL A   1      32.479  25.759  20.088  1.00  0.00    -0.258 OA
ENDBRANCH  21  22
ENDBRANCH  10  15
ENDBRANCH   8   9
ENDBRANCH   5   8
ENDBRANCH   3   4
ENDBRANCH   2   3
ENDBRANCH   1   2
BRANCH   1  25
ATOM     25  C   UNL A   1      36.681  22.893  23.673  1.00  0.00     0.002 C 
BRANCH  25  26
ATOM     26  C   UNL A   1      37.204  21.594  24.290  1.00  0.00     0.021 C 
BRANCH  26  27
ATOM     27  C   UNL A   1      37.630  21.727  25.748  1.00  0.00     0.116 C 
BRANCH  27  28
ATOM     28  N   UNL A   1      38.689  20.788  26.086  1.00  0.00    -0.352 N 
ATOM     29  C   UNL A   1      39.975  21.044  26.492  1.00  0.00     0.251 C 
ATOM     30  H   UNL A   1      38.450  19.835  26.014  1.00  0.00     0.163 HD
ATOM     31  O   UNL A   1      40.803  20.140  26.527  1.00  0.00    -0.269 OA
BRANCH  29  32
ATOM     32  C   UNL A   1      40.354  22.420  26.874  1.00  0.00     0.039 A 
ATOM     33  C   UNL A   1      41.237  22.610  27.939  1.00  0.00     0.014 A 
ATOM     34  C   UNL A   1      39.840  23.517  26.177  1.00  0.00     0.014 A 
ATOM     35  C   UNL A   1      41.647  23.903  28.271  1.00  0.00     0.010 A 
ATOM     36  C   UNL A   1      40.307  24.795  26.461  1.00  0.00     0.010 A 
ATOM     37  C   UNL A   1      41.209  25.003  27.516  1.00  0.00    -0.014 A 
BRANCH  37  38
ATOM     38  C   UNL A   1      41.686  26.378  27.806  1.00  0.00     0.031 A 
ATOM     39  C   UNL A   1      43.096  26.777  27.462  1.00  0.00     0.074 A 
ATOM     40  C   UNL A   1      40.881  27.237  28.461  1.00  0.00     0.049 A 
ATOM     41  N   UNL A   1      43.716  27.904  27.702  1.00  0.00    -0.248 NA
ATOM     42  C   UNL A   1      43.929  25.769  26.786  1.00  0.00     0.031 C 
ATOM     43  C   UNL A   1      39.521  26.941  28.916  1.00  0.00     0.029 A 
ATOM     44  N   UNL A   1      41.100  28.523  28.887  1.00  0.00    -0.354 N 
ATOM     45  C   UNL A   1      45.015  27.728  27.243  1.00  0.00     0.074 A 
ATOM     46  C   UNL A   1      45.107  26.376  26.740  1.00  0.00     0.031 C 
ATOM     47  C   UNL A   1      39.027  28.015  29.555  1.00  0.00     0.029 A 
ATOM     48  C   UNL A   1      40.045  29.060  29.586  1.00  0.00     0.049 A 
ATOM     49  H   UNL A   1      41.935  29.015  28.708  1.00  0.00     0.167 HD
ATOM     50  C   UNL A   1      46.034  28.621  27.218  1.00  0.00     0.034 A 
ATOM     51  C   UNL A   1      39.915  30.255  30.196  1.00  0.00     0.034 A 
ATOM     52  C   UNL A   1      45.925  29.977  27.682  1.00  0.00     0.049 A 
ATOM     53  C   UNL A   1      41.050  31.240  30.122  1.00  0.00     0.074 A 
ATOM     54  C   UNL A   1      46.871  30.986  27.617  1.00  0.00     0.029 A 
ATOM     55  N   UNL A   1      44.810  30.514  28.307  1.00  0.00    -0.354 N 
ATOM     56  N   UNL A   1      42.219  31.110  29.543  1.00  0.00    -0.248 NA
ATOM     57  C   UNL A   1      40.835  32.551  30.753  1.00  0.00     0.031 C 
ATOM     58  C   UNL A   1      46.336  32.124  28.229  1.00  0.00     0.029 A 
ATOM     59  C   UNL A   1      45.046  31.835  28.643  1.00  0.00     0.049 A 
ATOM     60  H   UNL A   1      43.973  30.026  28.484  1.00  0.00     0.167 HD
ATOM     61  C   UNL A   1      42.863  32.331  29.706  1.00  0.00     0.074 A 
ATOM     62  C   UNL A   1      41.947  33.194  30.422  1.00  0.00     0.031 C 
ATOM     63  C   UNL A   1      44.105  32.700  29.307  1.00  0.00     0.034 A 
BRANCH  50  64
ATOM     64  C   UNL A   1      47.344  28.173  26.624  1.00  0.00     0.023 A 
ATOM     65  C   UNL A   1      48.418  27.840  27.474  1.00  0.00     0.012 A 
ATOM     66  C   UNL A   1      47.495  28.024  25.231  1.00  0.00     0.148 A 
ATOM     67  C   UNL A   1      49.632  27.399  26.948  1.00  0.00     0.002 A 
ATOM     68  C   UNL A   1      48.692  27.540  24.717  1.00  0.00     0.091 A 
ATOM     69  F   UNL A   1      46.471  28.366  24.436  1.00  0.00    -0.205 F 
ATOM     70  C   UNL A   1      49.765  27.239  25.573  1.00  0.00     0.022 A 
BRANCH  68  71
ATOM     71  S   UNL A   1      48.937  27.220  22.966  1.00  0.00     0.127 S 
ATOM     72  O   UNL A   1      48.261  25.932  22.804  1.00  0.00    -0.237 OA
ATOM     73  O   UNL A   1      48.247  28.352  22.347  1.00  0.00    -0.237 OA
ATOM     74  O   UNL A   1      50.378  27.198  22.760  1.00  0.00    -0.744 OA
ENDBRANCH  68  71
ENDBRANCH  50  64
BRANCH  51  75
ATOM     75  C   UNL A   1      38.638  30.607  30.879  1.00  0.00     0.023 A 
ATOM     76  C   UNL A   1      38.467  30.280  32.238  1.00  0.00     0.012 A 
ATOM     77  C   UNL A   1      37.607  31.284  30.200  1.00  0.00     0.148 A 
ATOM     78  C   UNL A   1      37.278  30.589  32.900  1.00  0.00     0.002 A 
ATOM     79  C   UNL A   1      36.447  31.639  30.880  1.00  0.00     0.091 A 
ATOM     80  F   UNL A   1      37.785  31.579  28.905  1.00  0.00    -0.205 F 
ATOM     81  C   UNL A   1      36.273  31.277  32.225  1.00  0.00     0.022 A 
BRANCH  79  82
ATOM     82  S   UNL A   1      35.157  32.639  30.129  1.00  0.00     0.127 S 
ATOM     83  O   UNL A   1      35.901  33.826  29.717  1.00  0.00    -0.237 OA
ATOM     84  O   UNL A   1      34.710  31.780  29.032  1.00  0.00    -0.237 OA
ATOM     85  O   UNL A   1      34.163  32.846  31.173  1.00  0.00    -0.744 OA
ENDBRANCH  79  82
ENDBRANCH  51  75
BRANCH  63  86
ATOM     86  C   UNL A   1      44.542  34.114  29.592  1.00  0.00     0.023 A 
ATOM     87  C   UNL A   1      45.204  34.417  30.798  1.00  0.00     0.012 A 
ATOM     88  C   UNL A   1      44.368  35.124  28.624  1.00  0.00     0.148 A 
ATOM     89  C   UNL A   1      45.659  35.711  31.049  1.00  0.00     0.002 A 
ATOM     90  C   UNL A   1      44.869  36.398  28.860  1.00  0.00     0.091 A 
ATOM     91  F   UNL A   1      43.719  34.818  27.490  1.00  0.00    -0.205 F 
ATOM     92  C   UNL A   1      45.503  36.697  30.076  1.00  0.00     0.022 A 
BRANCH  90  93
ATOM     93  S   UNL A   1      44.805  37.702  27.626  1.00  0.00     0.127 S 
ATOM     94  O   UNL A   1      43.419  37.612  27.171  1.00  0.00    -0.237 OA
ATOM     95  O   UNL A   1      45.111  38.892  28.418  1.00  0.00    -0.237 OA
ATOM     96  O   UNL A   1      45.811  37.364  26.629  1.00  0.00    -0.744 OA
ENDBRANCH  90  93
ENDBRANCH  63  86
ENDBRANCH  37  38
ENDBRANCH  29  32
ENDBRANCH  27  28
ENDBRANCH  26  27
ENDBRANCH  25  26
ENDBRANCH   1  25
TORSDOF 19
ENDMDL
MODEL 3
REMARK VINA RESULT:     -11.4      3.514      8.368
REMARK SMILES Cc1cnc(N2CCO[C@H](CC(=O)NCCCCCCNC(=O)c3ccc(-c4c5nc(c(-c6cccc(S(=O)(=O)[O-])c6F)c6ccc([nH]6)c(-c6cccc(S(=O)(=O)[O-])c6F)c6nc(c(-c7cccc(S(=O)(=O)[O-])c7F)c7ccc4[nH]7)C=C6)C=C5)cc3)C2)c([N+](=O)[O-])c1
REMARK SMILES IDX 17 1 16 2 15 3 14 4 12 5 13 6 11 8 10 9 6 10 7 11 87 12 8 13
REMARK SMILES IDX 9 14 5 15 1 16 2 17 3 18 92 19 4 20 88 21 89 22 90 23 91 24
REMARK SMILES IDX 18 25 19 26 20 27 21 28 22 29 23 31 24 32 25 33 86 34 26 35
REMARK SMILES IDX 85 36 27 37 28 38 29 39 79 40 30 41 84 42 78 43 80 44 31 45
REMARK SMILES IDX 83 46 77 47 76 48 32 50 64 51 44 52 63 53 45 54 48 55 62 56
REMARK SMILES IDX 81 57 46 58 47 59 61 61 82 62 49 63 33 64 34 65 42 66 35 67
REMARK SMILES IDX 37 68 43 69 36 70 38 71 39 72 40 73 41 74 65 75 66 76 74 77
REMARK SMILES IDX 67 78 69 79 75 80 68 81 70 82 71 83 72 84 73 85 50 86 51 87
REMARK SMILES IDX 59 88 52 89 54 90 60 91 53 92 55 93 56 94 57 95 58 96
REMARK H PARENT 14 7 21 30 80 49 48 60
REMARK Flexibility Score: inf
ROOT
ATOM      1  C   UNL A   1      31.674  29.275  24.191  1.00  0.00     0.002 C 
ENDROOT
BRANCH   1   2
ATOM      2  C   UNL A   1      30.385  28.566  23.757  1.00  0.00     0.021 C 
BRANCH   2   3
ATOM      3  C   UNL A   1      30.644  27.361  22.859  1.00  0.00     0.116 C 
BRANCH   3   4
ATOM      4  N   UNL A   1      31.843  27.580  22.074  1.00  0.00    -0.356 N 
ATOM      5  C   UNL A   1      33.048  26.966  22.201  1.00  0.00     0.222 C 
ATOM      6  O   UNL A   1      34.029  27.433  21.621  1.00  0.00    -0.275 OA
ATOM      7  H   UNL A   1      31.776  28.257  21.363  1.00  0.00     0.163 HD
BRANCH   5   8
ATOM      8  C   UNL A   1      33.143  25.697  23.004  1.00  0.00     0.133 C 
BRANCH   8   9
ATOM      9  C   UNL A   1      34.030  25.837  24.253  1.00  0.00     0.147 C 
ATOM     10  N   UNL A   1      33.396  23.645  25.005  1.00  0.00    -0.346 N 
ATOM     11  C   UNL A   1      32.700  24.141  26.193  1.00  0.00     0.147 C 
ATOM     12  C   UNL A   1      34.568  24.448  24.652  1.00  0.00     0.151 C 
ATOM     13  C   UNL A   1      32.289  25.607  25.944  1.00  0.00     0.182 C 
ATOM     14  O   UNL A   1      33.346  26.426  25.389  1.00  0.00    -0.374 OA
BRANCH  10  15
ATOM     15  C   UNL A   1      33.326  22.348  24.582  1.00  0.00     0.208 A 
ATOM     16  C   UNL A   1      32.476  18.322  23.369  1.00  0.00     0.046 C 
ATOM     17  C   UNL A   1      32.819  19.711  23.798  1.00  0.00    -0.026 A 
ATOM     18  C   UNL A   1      32.163  20.808  23.262  1.00  0.00     0.117 A 
ATOM     19  C   UNL A   1      33.782  19.965  24.767  1.00  0.00     0.094 A 
ATOM     20  N   UNL A   1      32.392  22.089  23.633  1.00  0.00    -0.233 NA
ATOM     21  C   UNL A   1      34.033  21.289  25.160  1.00  0.00     0.311 A 
BRANCH  21  22
ATOM     22  N   UNL A   1      34.908  21.480  26.304  1.00  0.00     0.066 N 
ATOM     23  O   UNL A   1      36.121  21.629  26.111  1.00  0.00    -0.258 OA
ATOM     24  O   UNL A   1      34.382  21.413  27.427  1.00  0.00    -0.258 OA
ENDBRANCH  21  22
ENDBRANCH  10  15
ENDBRANCH   8   9
ENDBRANCH   5   8
ENDBRANCH   3   4
ENDBRANCH   2   3
ENDBRANCH   1   2
BRANCH   1  25
ATOM     25  C   UNL A   1      31.578  29.993  25.542  1.00  0.00     0.002 C 
BRANCH  25  26
ATOM     26  C   UNL A   1      32.273  29.269  26.697  1.00  0.00     0.021 C 
BRANCH  26  27
ATOM     27  C   UNL A   1      33.699  29.742  26.956  1.00  0.00     0.116 C 
BRANCH  27  28
ATOM     28  N   UNL A   1      33.731  31.117  27.435  1.00  0.00    -0.352 N 
ATOM     29  C   UNL A   1      34.597  31.703  28.322  1.00  0.00     0.251 C 
ATOM     30  H   UNL A   1      33.033  31.709  27.071  1.00  0.00     0.163 HD
ATOM     31  O   UNL A   1      34.354  32.813  28.783  1.00  0.00    -0.269 OA
BRANCH  29  32
ATOM     32  C   UNL A   1      35.821  30.979  28.727  1.00  0.00     0.039 A 
ATOM     33  C   UNL A   1      37.051  31.376  28.198  1.00  0.00     0.014 A 
ATOM     34  C   UNL A   1      35.750  29.915  29.630  1.00  0.00     0.014 A 
ATOM     35  C   UNL A   1      38.219  30.737  28.618  1.00  0.00     0.010 A 
ATOM     36  C   UNL A   1      36.920  29.331  30.102  1.00  0.00     0.010 A 
ATOM     37  C   UNL A   1      38.166  29.730  29.595  1.00  0.00    -0.014 A 
BRANCH  37  38
ATOM     38  C   UNL A   1      39.401  29.085  30.108  1.00  0.00     0.031 A 
ATOM     39  C   UNL A   1      40.083  29.628  31.335  1.00  0.00     0.074 A 
ATOM     40  C   UNL A   1      39.957  28.071  29.418  1.00  0.00     0.049 A 
ATOM     41  N   UNL A   1      41.205  29.248  31.891  1.00  0.00    -0.248 NA
ATOM     42  C   UNL A   1      39.437  30.766  32.010  1.00  0.00     0.031 C 
ATOM     43  C   UNL A   1      39.432  27.507  28.172  1.00  0.00     0.029 A 
ATOM     44  N   UNL A   1      41.105  27.354  29.647  1.00  0.00    -0.354 N 
ATOM     45  C   UNL A   1      41.417  30.118  32.952  1.00  0.00     0.074 A 
ATOM     46  C   UNL A   1      40.327  31.068  32.945  1.00  0.00     0.031 C 
ATOM     47  C   UNL A   1      40.254  26.532  27.749  1.00  0.00     0.029 A 
ATOM     48  C   UNL A   1      41.380  26.425  28.671  1.00  0.00     0.049 A 
ATOM     49  H   UNL A   1      41.678  27.492  30.437  1.00  0.00     0.167 HD
ATOM     50  C   UNL A   1      42.415  30.112  33.868  1.00  0.00     0.034 A 
ATOM     51  C   UNL A   1      42.427  25.589  28.527  1.00  0.00     0.034 A 
ATOM     52  C   UNL A   1      43.475  29.140  33.895  1.00  0.00     0.049 A 
ATOM     53  C   UNL A   1      43.504  25.579  29.577  1.00  0.00     0.074 A 
ATOM     54  C   UNL A   1      44.482  28.994  34.832  1.00  0.00     0.029 A 
ATOM     55  N   UNL A   1      43.672  28.158  32.937  1.00  0.00    -0.354 N 
ATOM     56  N   UNL A   1      43.604  26.308  30.664  1.00  0.00    -0.248 NA
ATOM     57  C   UNL A   1      44.594  24.608  29.404  1.00  0.00     0.031 C 
ATOM     58  C   UNL A   1      45.305  27.939  34.426  1.00  0.00     0.029 A 
ATOM     59  C   UNL A   1      44.791  27.406  33.254  1.00  0.00     0.049 A 
ATOM     60  H   UNL A   1      43.100  28.015  32.149  1.00  0.00     0.167 HD
ATOM     61  C   UNL A   1      44.743  25.857  31.321  1.00  0.00     0.074 A 
ATOM     62  C   UNL A   1      45.289  24.781  30.520  1.00  0.00     0.031 C 
ATOM     63  C   UNL A   1      45.293  26.302  32.477  1.00  0.00     0.034 A 
BRANCH  50  64
ATOM     64  C   UNL A   1      42.383  31.162  34.948  1.00  0.00     0.023 A 
ATOM     65  C   UNL A   1      41.799  30.861  36.195  1.00  0.00     0.012 A 
ATOM     66  C   UNL A   1      42.983  32.422  34.752  1.00  0.00     0.148 A 
ATOM     67  C   UNL A   1      41.779  31.809  37.218  1.00  0.00     0.002 A 
ATOM     68  C   UNL A   1      43.001  33.343  35.792  1.00  0.00     0.091 A 
ATOM     69  F   UNL A   1      43.515  32.698  33.554  1.00  0.00    -0.205 F 
ATOM     70  C   UNL A   1      42.389  33.044  37.021  1.00  0.00     0.022 A 
BRANCH  68  71
ATOM     71  S   UNL A   1      43.833  34.931  35.668  1.00  0.00     0.127 S 
ATOM     72  O   UNL A   1      43.172  35.695  36.725  1.00  0.00    -0.237 OA
ATOM     73  O   UNL A   1      45.223  34.573  35.952  1.00  0.00    -0.237 OA
ATOM     74  O   UNL A   1      43.593  35.405  34.312  1.00  0.00    -0.744 OA
ENDBRANCH  68  71
ENDBRANCH  50  64
BRANCH  51  75
ATOM     75  C   UNL A   1      42.476  24.650  27.372  1.00  0.00     0.023 A 
ATOM     76  C   UNL A   1      43.104  25.053  26.177  1.00  0.00     0.012 A 
ATOM     77  C   UNL A   1      41.928  23.355  27.456  1.00  0.00     0.148 A 
ATOM     78  C   UNL A   1      43.156  24.198  25.077  1.00  0.00     0.002 A 
ATOM     79  C   UNL A   1      42.033  22.487  26.374  1.00  0.00     0.091 A 
ATOM     80  F   UNL A   1      41.327  22.993  28.597  1.00  0.00    -0.205 F 
ATOM     81  C   UNL A   1      42.630  22.913  25.178  1.00  0.00     0.022 A 
BRANCH  79  82
ATOM     82  S   UNL A   1      41.502  20.774  26.459  1.00  0.00     0.127 S 
ATOM     83  O   UNL A   1      40.072  20.890  26.186  1.00  0.00    -0.237 OA
ATOM     84  O   UNL A   1      42.287  20.161  25.386  1.00  0.00    -0.237 OA
ATOM     85  O   UNL A   1      41.855  20.318  27.796  1.00  0.00    -0.744 OA
ENDBRANCH  79  82
ENDBRANCH  51  75
BRANCH  63  86
ATOM     86  C   UNL A   1      46.528  25.603  32.982  1.00  0.00     0.023 A 
ATOM     87  C   UNL A   1      47.804  26.114  32.672  1.00  0.00     0.012 A 
ATOM     88  C   UNL A   1      46.418  24.485  33.833  1.00  0.00     0.148 A 
ATOM     89  C   UNL A   1      48.952  25.504  33.177  1.00  0.00     0.002 A 
ATOM     90  C   UNL A   1      47.564  23.915  34.374  1.00  0.00     0.091 A 
ATOM     91  F   UNL A   1      45.195  24.004  34.102  1.00  0.00    -0.205 F 
ATOM     92  C   UNL A   1      48.831  24.414  34.037  1.00  0.00     0.022 A 
BRANCH  90  93
ATOM     93  S   UNL A   1      47.502  22.574  35.568  1.00  0.00     0.127 S 
ATOM     94  O   UNL A   1      48.878  22.550  36.060  1.00  0.00    -0.237 OA
ATOM     95  O   UNL A   1      46.518  23.064  36.533  1.00  0.00    -0.237 OA
ATOM     96  O   UNL A   1      47.085  21.392  34.826  1.00  0.00    -0.744 OA
ENDBRANCH  90  93
ENDBRANCH  63  86
ENDBRANCH  37  38
ENDBRANCH  29  32
ENDBRANCH  27  28
ENDBRANCH  26  27
ENDBRANCH  25  26
ENDBRANCH   1  25
TORSDOF 19
ENDMDL
