MODEL 1
REMARK VINA RESULT:     -12.2      0.000      0.000
REMARK SMILES CCn1c(N2CCC(C(=O)NCCCCCCNC(=O)c3ccc(-c4c5nc(c(-c6cccc(S(=O)(=O)[O-])c6F)c6ccc([nH]6)c(-c6cccc(S(=O)(=O)[O-])c6F)c6nc(c(-c7cccc(S(=O)(=O)[O-])c7F)c7ccc4[nH]7)C=C6)C=C5)cc3)CC2)nc2cc(C)ccc21
REMARK SMILES IDX 15 1 14 2 13 3 12 4 11 5 9 6 10 7 8 9 5 10 6 11 85 12 7 13
REMARK SMILES IDX 84 14 4 15 3 16 93 17 86 18 87 19 92 20 88 21 91 22 89 23
REMARK SMILES IDX 90 24 2 25 1 26 16 27 17 28 18 29 19 30 20 32 21 33 22 34
REMARK SMILES IDX 83 35 23 36 82 37 24 38 25 39 26 40 76 41 27 42 81 43 75 44
REMARK SMILES IDX 77 45 28 46 80 47 74 48 73 49 29 51 61 52 41 53 60 54 42 55
REMARK SMILES IDX 45 56 59 57 78 58 43 59 44 60 58 62 79 63 46 64 30 65 31 66
REMARK SMILES IDX 39 67 32 68 34 69 40 70 33 71 35 72 36 73 37 74 38 75 62 76
REMARK SMILES IDX 63 77 71 78 64 79 66 80 72 81 65 82 67 83 68 84 69 85 70 86
REMARK SMILES IDX 47 87 48 88 56 89 49 90 51 91 57 92 50 93 52 94 53 95 54 96
REMARK SMILES IDX 55 97
REMARK H PARENT 11 8 18 31 77 50 45 61
REMARK Flexibility Score: inf
ROOT
ATOM      1  C   UNL A   1      34.267  31.151  27.681  1.00  0.00     0.002 C 
ENDROOT
BRANCH   1   2
ATOM      2  C   UNL A   1      34.899  29.810  27.296  1.00  0.00     0.002 C 
BRANCH   2   3
ATOM      3  C   UNL A   1      33.909  28.729  26.850  1.00  0.00     0.021 C 
BRANCH   3   4
ATOM      4  C   UNL A   1      33.920  28.458  25.348  1.00  0.00     0.116 C 
BRANCH   4   5
ATOM      5  N   UNL A   1      32.604  28.051  24.875  1.00  0.00    -0.356 N 
ATOM      6  C   UNL A   1      31.910  26.897  25.075  1.00  0.00     0.223 C 
ATOM      7  O   UNL A   1      30.816  26.769  24.521  1.00  0.00    -0.275 OA
ATOM      8  H   UNL A   1      32.140  28.720  24.320  1.00  0.00     0.163 HD
BRANCH   6   9
ATOM      9  C   UNL A   1      32.450  25.793  25.971  1.00  0.00     0.082 C 
ATOM     10  N   UNL A   1      33.079  23.022  26.215  1.00  0.00    -0.342 N 
ATOM     11  C   UNL A   1      31.914  23.496  26.941  1.00  0.00     0.120 C 
ATOM     12  C   UNL A   1      34.197  23.938  26.073  1.00  0.00     0.120 C 
ATOM     13  C   UNL A   1      31.362  24.768  26.320  1.00  0.00     0.035 C 
ATOM     14  C   UNL A   1      33.753  25.222  25.392  1.00  0.00     0.035 C 
BRANCH  10  15
ATOM     15  C   UNL A   1      33.039  21.823  25.583  1.00  0.00     0.206 A 
ATOM     16  N   UNL A   1      32.493  21.678  24.314  1.00  0.00    -0.310 N 
ATOM     17  C   UNL A   1      32.601  20.351  23.956  1.00  0.00     0.070 A 
ATOM     18  N   UNL A   1      33.572  20.695  25.994  1.00  0.00    -0.213 NA
ATOM     19  C   UNL A   1      33.277  19.765  25.026  1.00  0.00     0.091 A 
ATOM     20  C   UNL A   1      32.205  19.603  22.839  1.00  0.00     0.029 A 
ATOM     21  C   UNL A   1      33.567  18.388  24.993  1.00  0.00     0.034 A 
ATOM     22  C   UNL A   1      32.518  18.239  22.814  1.00  0.00     0.006 A 
ATOM     23  C   UNL A   1      33.189  17.623  23.874  1.00  0.00    -0.049 A 
ATOM     24  C   UNL A   1      33.483  16.150  23.832  1.00  0.00     0.044 C 
BRANCH  16  25
ATOM     25  C   UNL A   1      31.967  22.777  23.527  1.00  0.00     0.122 C 
ATOM     26  C   UNL A   1      32.813  23.299  22.377  1.00  0.00     0.028 C 
ENDBRANCH  16  25
ENDBRANCH  10  15
ENDBRANCH   6   9
ENDBRANCH   4   5
ENDBRANCH   3   4
ENDBRANCH   2   3
ENDBRANCH   1   2
BRANCH   1  27
ATOM     27  C   UNL A   1      35.246  32.319  27.862  1.00  0.00     0.021 C 
BRANCH  27  28
ATOM     28  C   UNL A   1      34.735  33.444  28.761  1.00  0.00     0.116 C 
BRANCH  28  29
ATOM     29  N   UNL A   1      34.385  33.010  30.097  1.00  0.00    -0.352 N 
ATOM     30  C   UNL A   1      35.021  32.319  31.090  1.00  0.00     0.251 C 
ATOM     31  H   UNL A   1      33.470  33.277  30.351  1.00  0.00     0.163 HD
ATOM     32  O   UNL A   1      34.423  32.267  32.168  1.00  0.00    -0.269 OA
BRANCH  30  33
ATOM     33  C   UNL A   1      36.309  31.584  30.944  1.00  0.00     0.039 A 
ATOM     34  C   UNL A   1      37.579  32.156  30.915  1.00  0.00     0.014 A 
ATOM     35  C   UNL A   1      36.202  30.188  30.778  1.00  0.00     0.014 A 
ATOM     36  C   UNL A   1      38.695  31.373  30.627  1.00  0.00     0.010 A 
ATOM     37  C   UNL A   1      37.314  29.397  30.506  1.00  0.00     0.010 A 
ATOM     38  C   UNL A   1      38.560  29.998  30.391  1.00  0.00    -0.014 A 
BRANCH  38  39
ATOM     39  C   UNL A   1      39.780  29.201  30.251  1.00  0.00     0.031 A 
ATOM     40  C   UNL A   1      40.470  28.997  31.556  1.00  0.00     0.074 A 
ATOM     41  C   UNL A   1      40.217  28.627  29.107  1.00  0.00     0.049 A 
ATOM     42  N   UNL A   1      41.577  29.538  31.946  1.00  0.00    -0.248 NA
ATOM     43  C   UNL A   1      39.757  28.270  32.619  1.00  0.00     0.031 C 
ATOM     44  C   UNL A   1      39.504  28.530  27.829  1.00  0.00     0.029 A 
ATOM     45  N   UNL A   1      41.363  27.918  28.864  1.00  0.00    -0.354 N 
ATOM     46  C   UNL A   1      41.829  28.998  33.207  1.00  0.00     0.074 A 
ATOM     47  C   UNL A   1      40.600  28.396  33.646  1.00  0.00     0.031 C 
ATOM     48  C   UNL A   1      40.119  27.623  27.034  1.00  0.00     0.029 A 
ATOM     49  C   UNL A   1      41.348  27.186  27.673  1.00  0.00     0.049 A 
ATOM     50  H   UNL A   1      42.134  27.924  29.477  1.00  0.00     0.167 HD
ATOM     51  C   UNL A   1      43.105  28.834  33.647  1.00  0.00     0.034 A 
ATOM     52  C   UNL A   1      42.272  26.276  27.264  1.00  0.00     0.034 A 
ATOM     53  C   UNL A   1      44.032  29.568  32.833  1.00  0.00     0.049 A 
ATOM     54  C   UNL A   1      43.523  26.606  27.974  1.00  0.00     0.074 A 
ATOM     55  C   UNL A   1      44.396  30.883  32.658  1.00  0.00     0.029 A 
ATOM     56  N   UNL A   1      44.448  28.868  31.733  1.00  0.00    -0.354 N 
ATOM     57  N   UNL A   1      44.212  27.686  27.739  1.00  0.00    -0.248 NA
ATOM     58  C   UNL A   1      43.896  25.857  29.167  1.00  0.00     0.031 C 
ATOM     59  C   UNL A   1      44.879  30.981  31.321  1.00  0.00     0.029 A 
ATOM     60  C   UNL A   1      44.839  29.716  30.738  1.00  0.00     0.049 A 
ATOM     61  H   UNL A   1      44.463  27.886  31.668  1.00  0.00     0.167 HD
ATOM     62  C   UNL A   1      44.767  27.984  28.966  1.00  0.00     0.074 A 
ATOM     63  C   UNL A   1      44.712  26.748  29.735  1.00  0.00     0.031 C 
ATOM     64  C   UNL A   1      44.896  29.276  29.365  1.00  0.00     0.034 A 
BRANCH  51  65
ATOM     65  C   UNL A   1      43.590  27.654  34.464  1.00  0.00     0.023 A 
ATOM     66  C   UNL A   1      44.266  27.928  35.675  1.00  0.00     0.012 A 
ATOM     67  C   UNL A   1      43.690  26.336  33.961  1.00  0.00     0.148 A 
ATOM     68  C   UNL A   1      45.011  26.947  36.340  1.00  0.00     0.002 A 
ATOM     69  C   UNL A   1      44.373  25.347  34.660  1.00  0.00     0.091 A 
ATOM     70  F   UNL A   1      43.247  26.060  32.732  1.00  0.00    -0.205 F 
ATOM     71  C   UNL A   1      45.055  25.652  35.839  1.00  0.00     0.022 A 
BRANCH  69  72
ATOM     72  S   UNL A   1      44.458  23.654  34.063  1.00  0.00     0.127 S 
ATOM     73  O   UNL A   1      45.465  23.080  34.945  1.00  0.00    -0.237 OA
ATOM     74  O   UNL A   1      43.090  23.192  34.291  1.00  0.00    -0.237 OA
ATOM     75  O   UNL A   1      44.826  23.754  32.652  1.00  0.00    -0.744 OA
ENDBRANCH  69  72
ENDBRANCH  51  65
BRANCH  52  76
ATOM     76  C   UNL A   1      42.225  25.060  26.406  1.00  0.00     0.023 A 
ATOM     77  C   UNL A   1      43.285  24.826  25.496  1.00  0.00     0.012 A 
ATOM     78  C   UNL A   1      41.371  23.981  26.711  1.00  0.00     0.148 A 
ATOM     79  C   UNL A   1      43.552  23.546  24.994  1.00  0.00     0.002 A 
ATOM     80  C   UNL A   1      41.640  22.708  26.204  1.00  0.00     0.091 A 
ATOM     81  F   UNL A   1      40.366  24.179  27.573  1.00  0.00    -0.205 F 
ATOM     82  C   UNL A   1      42.742  22.482  25.367  1.00  0.00     0.022 A 
BRANCH  80  83
ATOM     83  S   UNL A   1      40.652  21.272  26.651  1.00  0.00     0.127 S 
ATOM     84  O   UNL A   1      40.726  21.292  28.113  1.00  0.00    -0.237 OA
ATOM     85  O   UNL A   1      39.344  21.624  26.102  1.00  0.00    -0.237 OA
ATOM     86  O   UNL A   1      41.315  20.133  26.034  1.00  0.00    -0.744 OA
ENDBRANCH  80  83
ENDBRANCH  52  76
BRANCH  64  87
ATOM     87  C   UNL A   1      44.913  30.338  28.312  1.00  0.00     0.023 A 
ATOM     88  C   UNL A   1      43.742  30.936  27.807  1.00  0.00     0.012 A 
ATOM     89  C   UNL A   1      46.167  30.863  27.970  1.00  0.00     0.148 A 
ATOM     90  C   UNL A   1      43.830  32.065  26.988  1.00  0.00     0.002 A 
ATOM     91  C   UNL A   1      46.248  32.008  27.197  1.00  0.00     0.091 A 
ATOM     92  F   UNL A   1      47.257  30.260  28.467  1.00  0.00    -0.205 F 
ATOM     93  C   UNL A   1      45.082  32.613  26.701  1.00  0.00     0.022 A 
BRANCH  91  94
ATOM     94  S   UNL A   1      47.812  32.831  26.900  1.00  0.00     0.127 S 
ATOM     95  O   UNL A   1      48.691  31.709  26.577  1.00  0.00    -0.237 OA
ATOM     96  O   UNL A   1      47.487  33.703  25.770  1.00  0.00    -0.237 OA
ATOM     97  O   UNL A   1      48.142  33.539  28.131  1.00  0.00    -0.744 OA
ENDBRANCH  91  94
ENDBRANCH  64  87
ENDBRANCH  38  39
ENDBRANCH  30  33
ENDBRANCH  28  29
ENDBRANCH  27  28
ENDBRANCH   1  27
TORSDOF 18
ENDMDL
MODEL 2
REMARK VINA RESULT:     -12.0      1.914      2.798
REMARK SMILES CCn1c(N2CCC(C(=O)NCCCCCCNC(=O)c3ccc(-c4c5nc(c(-c6cccc(S(=O)(=O)[O-])c6F)c6ccc([nH]6)c(-c6cccc(S(=O)(=O)[O-])c6F)c6nc(c(-c7cccc(S(=O)(=O)[O-])c7F)c7ccc4[nH]7)C=C6)C=C5)cc3)CC2)nc2cc(C)ccc21
REMARK SMILES IDX 15 1 14 2 13 3 12 4 11 5 9 6 10 7 8 9 5 10 6 11 85 12 7 13
REMARK SMILES IDX 84 14 4 15 3 16 93 17 86 18 87 19 92 20 88 21 91 22 89 23
REMARK SMILES IDX 90 24 2 25 1 26 16 27 17 28 18 29 19 30 20 32 21 33 22 34
REMARK SMILES IDX 83 35 23 36 82 37 24 38 25 39 26 40 76 41 27 42 81 43 75 44
REMARK SMILES IDX 77 45 28 46 80 47 74 48 73 49 29 51 61 52 41 53 60 54 42 55
REMARK SMILES IDX 45 56 59 57 78 58 43 59 44 60 58 62 79 63 46 64 30 65 31 66
REMARK SMILES IDX 39 67 32 68 34 69 40 70 33 71 35 72 36 73 37 74 38 75 62 76
REMARK SMILES IDX 63 77 71 78 64 79 66 80 72 81 65 82 67 83 68 84 69 85 70 86
REMARK SMILES IDX 47 87 48 88 56 89 49 90 51 91 57 92 50 93 52 94 53 95 54 96
REMARK SMILES IDX 55 97
REMARK H PARENT 11 8 18 31 77 50 45 61
REMARK Flexibility Score: inf
ROOT
ATOM      1  C   UNL A   1      33.307  30.796  27.222  1.00  0.00     0.002 C 
ENDROOT
BRANCH   1   2
ATOM      2  C   UNL A   1      33.090  29.279  27.228  1.00  0.00     0.002 C 
BRANCH   2   3
ATOM      3  C   UNL A   1      31.958  28.781  26.323  1.00  0.00     0.021 C 
BRANCH   3   4
ATOM      4  C   UNL A   1      32.094  29.211  24.865  1.00  0.00     0.116 C 
BRANCH   4   5
ATOM      5  N   UNL A   1      30.825  29.689  24.334  1.00  0.00    -0.356 N 
ATOM      6  C   UNL A   1      29.926  29.085  23.510  1.00  0.00     0.223 C 
ATOM      7  O   UNL A   1      28.932  29.725  23.158  1.00  0.00    -0.275 OA
ATOM      8  H   UNL A   1      30.576  30.599  24.619  1.00  0.00     0.163 HD
BRANCH   6   9
ATOM      9  C   UNL A   1      30.120  27.651  23.040  1.00  0.00     0.082 C 
ATOM     10  N   UNL A   1      31.758  25.319  23.134  1.00  0.00    -0.342 N 
ATOM     11  C   UNL A   1      31.766  26.075  21.894  1.00  0.00     0.120 C 
ATOM     12  C   UNL A   1      30.516  25.278  23.886  1.00  0.00     0.120 C 
ATOM     13  C   UNL A   1      31.349  27.517  22.131  1.00  0.00     0.035 C 
ATOM     14  C   UNL A   1      30.055  26.684  24.232  1.00  0.00     0.035 C 
BRANCH  10  15
ATOM     15  C   UNL A   1      32.916  24.804  23.618  1.00  0.00     0.206 A 
ATOM     16  N   UNL A   1      33.411  23.578  23.191  1.00  0.00    -0.310 N 
ATOM     17  C   UNL A   1      34.588  23.338  23.868  1.00  0.00     0.070 A 
ATOM     18  N   UNL A   1      33.759  25.388  24.438  1.00  0.00    -0.213 NA
ATOM     19  C   UNL A   1      34.775  24.485  24.639  1.00  0.00     0.091 A 
ATOM     20  C   UNL A   1      35.504  22.278  23.892  1.00  0.00     0.029 A 
ATOM     21  C   UNL A   1      35.908  24.585  25.469  1.00  0.00     0.034 A 
ATOM     22  C   UNL A   1      36.634  22.402  24.709  1.00  0.00     0.006 A 
ATOM     23  C   UNL A   1      36.846  23.536  25.497  1.00  0.00    -0.049 A 
ATOM     24  C   UNL A   1      38.052  23.626  26.388  1.00  0.00     0.044 C 
BRANCH  16  25
ATOM     25  C   UNL A   1      32.785  22.763  22.167  1.00  0.00     0.122 C 
ATOM     26  C   UNL A   1      32.126  21.462  22.595  1.00  0.00     0.028 C 
ENDBRANCH  16  25
ENDBRANCH  10  15
ENDBRANCH   6   9
ENDBRANCH   4   5
ENDBRANCH   3   4
ENDBRANCH   2   3
ENDBRANCH   1   2
BRANCH   1  27
ATOM     27  C   UNL A   1      34.709  31.266  27.635  1.00  0.00     0.021 C 
BRANCH  27  28
ATOM     28  C   UNL A   1      34.733  32.580  28.415  1.00  0.00     0.116 C 
BRANCH  28  29
ATOM     29  N   UNL A   1      34.558  32.415  29.843  1.00  0.00    -0.352 N 
ATOM     30  C   UNL A   1      35.336  31.954  30.867  1.00  0.00     0.251 C 
ATOM     31  H   UNL A   1      33.667  32.703  30.148  1.00  0.00     0.163 HD
ATOM     32  O   UNL A   1      34.868  32.103  31.999  1.00  0.00    -0.269 OA
BRANCH  30  33
ATOM     33  C   UNL A   1      36.634  31.238  30.714  1.00  0.00     0.039 A 
ATOM     34  C   UNL A   1      37.881  31.833  30.532  1.00  0.00     0.014 A 
ATOM     35  C   UNL A   1      36.561  29.830  30.712  1.00  0.00     0.014 A 
ATOM     36  C   UNL A   1      38.999  31.049  30.255  1.00  0.00     0.010 A 
ATOM     37  C   UNL A   1      37.677  29.040  30.453  1.00  0.00     0.010 A 
ATOM     38  C   UNL A   1      38.893  29.653  30.184  1.00  0.00    -0.014 A 
BRANCH  38  39
ATOM     39  C   UNL A   1      40.125  28.875  30.048  1.00  0.00     0.031 A 
ATOM     40  C   UNL A   1      40.782  28.632  31.362  1.00  0.00     0.074 A 
ATOM     41  C   UNL A   1      40.598  28.348  28.896  1.00  0.00     0.049 A 
ATOM     42  N   UNL A   1      41.873  29.170  31.801  1.00  0.00    -0.248 NA
ATOM     43  C   UNL A   1      40.051  27.859  32.379  1.00  0.00     0.031 C 
ATOM     44  C   UNL A   1      39.920  28.290  27.597  1.00  0.00     0.029 A 
ATOM     45  N   UNL A   1      41.758  27.661  28.658  1.00  0.00    -0.354 N 
ATOM     46  C   UNL A   1      42.097  28.588  33.048  1.00  0.00     0.074 A 
ATOM     47  C   UNL A   1      40.865  27.957  33.433  1.00  0.00     0.031 C 
ATOM     48  C   UNL A   1      40.567  27.418  26.786  1.00  0.00     0.029 A 
ATOM     49  C   UNL A   1      41.784  26.971  27.442  1.00  0.00     0.049 A 
ATOM     50  H   UNL A   1      42.513  27.652  29.291  1.00  0.00     0.167 HD
ATOM     51  C   UNL A   1      43.364  28.421  33.516  1.00  0.00     0.034 A 
ATOM     52  C   UNL A   1      42.728  26.087  27.025  1.00  0.00     0.034 A 
ATOM     53  C   UNL A   1      44.303  29.194  32.753  1.00  0.00     0.049 A 
ATOM     54  C   UNL A   1      43.957  26.405  27.779  1.00  0.00     0.074 A 
ATOM     55  C   UNL A   1      44.656  30.519  32.636  1.00  0.00     0.029 A 
ATOM     56  N   UNL A   1      44.756  28.539  31.640  1.00  0.00    -0.354 N 
ATOM     57  N   UNL A   1      44.639  27.499  27.602  1.00  0.00    -0.248 NA
ATOM     58  C   UNL A   1      44.307  25.617  28.955  1.00  0.00     0.031 C 
ATOM     59  C   UNL A   1      45.173  30.670  31.316  1.00  0.00     0.029 A 
ATOM     60  C   UNL A   1      45.163  29.426  30.687  1.00  0.00     0.049 A 
ATOM     61  H   UNL A   1      44.784  27.560  31.541  1.00  0.00     0.167 HD
ATOM     62  C   UNL A   1      45.157  27.759  28.853  1.00  0.00     0.074 A 
ATOM     63  C   UNL A   1      45.097  26.496  29.576  1.00  0.00     0.031 C 
ATOM     64  C   UNL A   1      45.261  29.037  29.302  1.00  0.00     0.034 A 
BRANCH  51  65
ATOM     65  C   UNL A   1      43.840  27.217  34.303  1.00  0.00     0.023 A 
ATOM     66  C   UNL A   1      43.647  25.940  33.729  1.00  0.00     0.012 A 
ATOM     67  C   UNL A   1      44.171  27.257  35.678  1.00  0.00     0.148 A 
ATOM     68  C   UNL A   1      43.764  24.768  34.486  1.00  0.00     0.002 A 
ATOM     69  C   UNL A   1      44.354  26.089  36.409  1.00  0.00     0.091 A 
ATOM     70  F   UNL A   1      44.171  28.424  36.327  1.00  0.00    -0.205 F 
ATOM     71  C   UNL A   1      44.130  24.841  35.825  1.00  0.00     0.022 A 
BRANCH  69  72
ATOM     72  S   UNL A   1      44.833  26.123  38.142  1.00  0.00     0.127 S 
ATOM     73  O   UNL A   1      45.022  24.707  38.423  1.00  0.00    -0.237 OA
ATOM     74  O   UNL A   1      46.057  26.921  38.094  1.00  0.00    -0.237 OA
ATOM     75  O   UNL A   1      43.725  26.772  38.841  1.00  0.00    -0.744 OA
ENDBRANCH  69  72
ENDBRANCH  51  65
BRANCH  52  76
ATOM     76  C   UNL A   1      42.718  24.903  26.123  1.00  0.00     0.023 A 
ATOM     77  C   UNL A   1      43.663  24.839  25.069  1.00  0.00     0.012 A 
ATOM     78  C   UNL A   1      42.060  23.710  26.487  1.00  0.00     0.148 A 
ATOM     79  C   UNL A   1      44.018  23.623  24.474  1.00  0.00     0.002 A 
ATOM     80  C   UNL A   1      42.415  22.500  25.887  1.00  0.00     0.091 A 
ATOM     81  F   UNL A   1      41.167  23.746  27.484  1.00  0.00    -0.205 F 
ATOM     82  C   UNL A   1      43.410  22.450  24.900  1.00  0.00     0.022 A 
BRANCH  80  83
ATOM     83  S   UNL A   1      41.691  20.933  26.392  1.00  0.00     0.127 S 
ATOM     84  O   UNL A   1      42.325  19.990  25.468  1.00  0.00    -0.237 OA
ATOM     85  O   UNL A   1      42.144  20.825  27.777  1.00  0.00    -0.237 OA
ATOM     86  O   UNL A   1      40.258  21.085  26.201  1.00  0.00    -0.744 OA
ENDBRANCH  80  83
ENDBRANCH  52  76
BRANCH  64  87
ATOM     87  C   UNL A   1      45.294  30.136  28.288  1.00  0.00     0.023 A 
ATOM     88  C   UNL A   1      44.132  30.779  27.817  1.00  0.00     0.012 A 
ATOM     89  C   UNL A   1      46.556  30.645  27.955  1.00  0.00     0.148 A 
ATOM     90  C   UNL A   1      44.239  31.936  27.039  1.00  0.00     0.002 A 
ATOM     91  C   UNL A   1      46.656  31.816  27.223  1.00  0.00     0.091 A 
ATOM     92  F   UNL A   1      47.636  30.000  28.419  1.00  0.00    -0.205 F 
ATOM     93  C   UNL A   1      45.500  32.465  26.761  1.00  0.00     0.022 A 
BRANCH  91  94
ATOM     94  S   UNL A   1      48.236  32.614  26.942  1.00  0.00     0.127 S 
ATOM     95  O   UNL A   1      47.895  33.628  25.947  1.00  0.00    -0.237 OA
ATOM     96  O   UNL A   1      48.553  33.139  28.270  1.00  0.00    -0.237 OA
ATOM     97  O   UNL A   1      49.143  31.572  26.474  1.00  0.00    -0.744 OA
ENDBRANCH  91  94
ENDBRANCH  64  87
ENDBRANCH  38  39
ENDBRANCH  30  33
ENDBRANCH  28  29
ENDBRANCH  27  28
ENDBRANCH   1  27
TORSDOF 18
ENDMDL
MODEL 3
REMARK VINA RESULT:     -11.8      1.940      2.845
REMARK SMILES CCn1c(N2CCC(C(=O)NCCCCCCNC(=O)c3ccc(-c4c5nc(c(-c6cccc(S(=O)(=O)[O-])c6F)c6ccc([nH]6)c(-c6cccc(S(=O)(=O)[O-])c6F)c6nc(c(-c7cccc(S(=O)(=O)[O-])c7F)c7ccc4[nH]7)C=C6)C=C5)cc3)CC2)nc2cc(C)ccc21
REMARK SMILES IDX 15 1 14 2 13 3 12 4 11 5 9 6 10 7 8 9 5 10 6 11 85 12 7 13
REMARK SMILES IDX 84 14 4 15 3 16 93 17 86 18 87 19 92 20 88 21 91 22 89 23
REMARK SMILES IDX 90 24 2 25 1 26 16 27 17 28 18 29 19 30 20 32 21 33 22 34
REMARK SMILES IDX 83 35 23 36 82 37 24 38 25 39 26 40 76 41 27 42 81 43 75 44
REMARK SMILES IDX 77 45 28 46 80 47 74 48 73 49 29 51 61 52 41 53 60 54 42 55
REMARK SMILES IDX 45 56 59 57 78 58 43 59 44 60 58 62 79 63 46 64 30 65 31 66
REMARK SMILES IDX 39 67 32 68 34 69 40 70 33 71 35 72 36 73 37 74 38 75 62 76
REMARK SMILES IDX 63 77 71 78 64 79 66 80 72 81 65 82 67 83 68 84 69 85 70 86
REMARK SMILES IDX 47 87 48 88 56 89 49 90 51 91 57 92 50 93 52 94 53 95 54 96
REMARK SMILES IDX 55 97
REMARK H PARENT 11 8 18 31 77 50 45 61
REMARK Flexibility Score: inf
ROOT
ATOM      1  C   UNL A   1      34.536  29.039  26.805  1.00  0.00     0.002 C 
ENDROOT
BRANCH   1   2
ATOM      2  C   UNL A   1      33.876  28.214  25.696  1.00  0.00     0.002 C 
BRANCH   2   3
ATOM      3  C   UNL A   1      32.967  29.006  24.750  1.00  0.00     0.021 C 
BRANCH   3   4
ATOM      4  C   UNL A   1      31.476  28.809  25.012  1.00  0.00     0.116 C 
BRANCH   4   5
ATOM      5  N   UNL A   1      30.675  29.293  23.895  1.00  0.00    -0.356 N 
ATOM      6  C   UNL A   1      30.123  28.623  22.847  1.00  0.00     0.223 C 
ATOM      7  O   UNL A   1      29.519  29.273  21.990  1.00  0.00    -0.275 OA
ATOM      8  H   UNL A   1      30.506  30.263  23.900  1.00  0.00     0.163 HD
BRANCH   6   9
ATOM      9  C   UNL A   1      30.224  27.110  22.731  1.00  0.00     0.082 C 
ATOM     10  N   UNL A   1      31.727  24.771  23.365  1.00  0.00    -0.342 N 
ATOM     11  C   UNL A   1      31.751  25.210  21.981  1.00  0.00     0.120 C 
ATOM     12  C   UNL A   1      30.501  24.985  24.115  1.00  0.00     0.120 C 
ATOM     13  C   UNL A   1      31.423  26.690  21.870  1.00  0.00     0.035 C 
ATOM     14  C   UNL A   1      30.129  26.459  24.120  1.00  0.00     0.035 C 
BRANCH  10  15
ATOM     15  C   UNL A   1      32.864  24.316  23.949  1.00  0.00     0.206 A 
ATOM     16  N   UNL A   1      33.073  22.965  24.198  1.00  0.00    -0.310 N 
ATOM     17  C   UNL A   1      34.307  22.832  24.797  1.00  0.00     0.070 A 
ATOM     18  N   UNL A   1      33.929  25.019  24.259  1.00  0.00    -0.213 NA
ATOM     19  C   UNL A   1      34.814  24.131  24.822  1.00  0.00     0.091 A 
ATOM     20  C   UNL A   1      35.037  21.747  25.303  1.00  0.00     0.029 A 
ATOM     21  C   UNL A   1      36.088  24.367  25.374  1.00  0.00     0.034 A 
ATOM     22  C   UNL A   1      36.309  21.998  25.831  1.00  0.00     0.006 A 
ATOM     23  C   UNL A   1      36.842  23.290  25.875  1.00  0.00    -0.049 A 
ATOM     24  C   UNL A   1      38.197  23.532  26.477  1.00  0.00     0.044 C 
BRANCH  16  25
ATOM     25  C   UNL A   1      32.143  21.917  23.820  1.00  0.00     0.122 C 
ATOM     26  C   UNL A   1      32.154  21.443  22.376  1.00  0.00     0.028 C 
ENDBRANCH  16  25
ENDBRANCH  10  15
ENDBRANCH   6   9
ENDBRANCH   4   5
ENDBRANCH   3   4
ENDBRANCH   2   3
ENDBRANCH   1   2
BRANCH   1  27
ATOM     27  C   UNL A   1      33.713  30.224  27.329  1.00  0.00     0.021 C 
BRANCH  27  28
ATOM     28  C   UNL A   1      34.534  31.468  27.667  1.00  0.00     0.116 C 
BRANCH  28  29
ATOM     29  N   UNL A   1      34.405  31.896  29.044  1.00  0.00    -0.352 N 
ATOM     30  C   UNL A   1      35.218  31.886  30.142  1.00  0.00     0.251 C 
ATOM     31  H   UNL A   1      33.522  32.290  29.234  1.00  0.00     0.163 HD
ATOM     32  O   UNL A   1      34.785  32.484  31.130  1.00  0.00    -0.269 OA
BRANCH  30  33
ATOM     33  C   UNL A   1      36.516  31.161  30.251  1.00  0.00     0.039 A 
ATOM     34  C   UNL A   1      37.784  31.736  30.176  1.00  0.00     0.014 A 
ATOM     35  C   UNL A   1      36.426  29.762  30.398  1.00  0.00     0.014 A 
ATOM     36  C   UNL A   1      38.919  30.930  30.147  1.00  0.00     0.010 A 
ATOM     37  C   UNL A   1      37.557  28.951  30.386  1.00  0.00     0.010 A 
ATOM     38  C   UNL A   1      38.806  29.534  30.220  1.00  0.00    -0.014 A 
BRANCH  38  39
ATOM     39  C   UNL A   1      40.036  28.750  30.343  1.00  0.00     0.031 A 
ATOM     40  C   UNL A   1      40.600  28.806  31.721  1.00  0.00     0.074 A 
ATOM     41  C   UNL A   1      40.579  27.982  29.372  1.00  0.00     0.049 A 
ATOM     42  N   UNL A   1      41.665  29.432  32.102  1.00  0.00    -0.248 NA
ATOM     43  C   UNL A   1      39.793  28.275  32.831  1.00  0.00     0.031 C 
ATOM     44  C   UNL A   1      39.989  27.635  28.075  1.00  0.00     0.029 A 
ATOM     45  N   UNL A   1      41.744  27.263  29.372  1.00  0.00    -0.354 N 
ATOM     46  C   UNL A   1      41.798  29.142  33.460  1.00  0.00     0.074 A 
ATOM     47  C   UNL A   1      40.535  28.607  33.890  1.00  0.00     0.031 C 
ATOM     48  C   UNL A   1      40.679  26.608  27.523  1.00  0.00     0.029 A 
ATOM     49  C   UNL A   1      41.844  26.322  28.343  1.00  0.00     0.049 A 
ATOM     50  H   UNL A   1      42.455  27.398  30.041  1.00  0.00     0.167 HD
ATOM     51  C   UNL A   1      43.029  29.087  34.038  1.00  0.00     0.034 A 
ATOM     52  C   UNL A   1      42.804  25.371  28.198  1.00  0.00     0.034 A 
ATOM     53  C   UNL A   1      44.026  29.675  33.190  1.00  0.00     0.049 A 
ATOM     54  C   UNL A   1      43.982  25.852  28.944  1.00  0.00     0.074 A 
ATOM     55  C   UNL A   1      44.401  30.942  32.806  1.00  0.00     0.029 A 
ATOM     56  N   UNL A   1      44.545  28.791  32.283  1.00  0.00    -0.354 N 
ATOM     57  N   UNL A   1      44.688  26.882  28.576  1.00  0.00    -0.248 NA
ATOM     58  C   UNL A   1      44.243  25.346  30.286  1.00  0.00     0.031 C 
ATOM     59  C   UNL A   1      45.007  30.799  31.524  1.00  0.00     0.029 A 
ATOM     60  C   UNL A   1      45.026  29.447  31.186  1.00  0.00     0.049 A 
ATOM     61  H   UNL A   1      44.568  27.815  32.405  1.00  0.00     0.167 HD
ATOM     62  C   UNL A   1      45.123  27.414  29.771  1.00  0.00     0.074 A 
ATOM     63  C   UNL A   1      45.000  26.343  30.750  1.00  0.00     0.031 C 
ATOM     64  C   UNL A   1      45.212  28.761  29.932  1.00  0.00     0.034 A 
BRANCH  51  65
ATOM     65  C   UNL A   1      43.437  28.090  35.103  1.00  0.00     0.023 A 
ATOM     66  C   UNL A   1      44.065  28.592  36.265  1.00  0.00     0.012 A 
ATOM     67  C   UNL A   1      43.519  26.695  34.885  1.00  0.00     0.148 A 
ATOM     68  C   UNL A   1      44.747  27.752  37.154  1.00  0.00     0.002 A 
ATOM     69  C   UNL A   1      44.138  25.856  35.804  1.00  0.00     0.091 A 
ATOM     70  F   UNL A   1      43.125  26.182  33.716  1.00  0.00    -0.205 F 
ATOM     71  C   UNL A   1      44.773  26.382  36.931  1.00  0.00     0.022 A 
BRANCH  69  72
ATOM     72  S   UNL A   1      44.197  24.075  35.571  1.00  0.00     0.127 S 
ATOM     73  O   UNL A   1      42.782  23.745  35.462  1.00  0.00    -0.237 OA
ATOM     74  O   UNL A   1      44.963  23.965  34.331  1.00  0.00    -0.237 OA
ATOM     75  O   UNL A   1      44.888  23.549  36.747  1.00  0.00    -0.744 OA
ENDBRANCH  69  72
ENDBRANCH  51  65
BRANCH  52  76
ATOM     76  C   UNL A   1      42.840  24.015  27.581  1.00  0.00     0.023 A 
ATOM     77  C   UNL A   1      41.646  23.254  27.537  1.00  0.00     0.012 A 
ATOM     78  C   UNL A   1      43.902  23.620  26.743  1.00  0.00     0.148 A 
ATOM     79  C   UNL A   1      41.476  22.209  26.620  1.00  0.00     0.002 A 
ATOM     80  C   UNL A   1      43.728  22.575  25.833  1.00  0.00     0.091 A 
ATOM     81  F   UNL A   1      45.038  24.330  26.765  1.00  0.00    -0.205 F 
ATOM     82  C   UNL A   1      42.510  21.885  25.752  1.00  0.00     0.022 A 
BRANCH  80  83
ATOM     83  S   UNL A   1      45.008  22.103  24.661  1.00  0.00     0.127 S 
ATOM     84  O   UNL A   1      46.104  21.704  25.547  1.00  0.00    -0.237 OA
ATOM     85  O   UNL A   1      44.370  21.000  23.946  1.00  0.00    -0.237 OA
ATOM     86  O   UNL A   1      45.279  23.297  23.876  1.00  0.00    -0.744 OA
ENDBRANCH  80  83
ENDBRANCH  52  76
BRANCH  64  87
ATOM     87  C   UNL A   1      45.325  29.608  28.705  1.00  0.00     0.023 A 
ATOM     88  C   UNL A   1      44.204  30.102  28.008  1.00  0.00     0.012 A 
ATOM     89  C   UNL A   1      46.609  30.061  28.371  1.00  0.00     0.148 A 
ATOM     90  C   UNL A   1      44.372  31.059  27.003  1.00  0.00     0.002 A 
ATOM     91  C   UNL A   1      46.765  31.042  27.407  1.00  0.00     0.091 A 
ATOM     92  F   UNL A   1      47.649  29.561  29.055  1.00  0.00    -0.205 F 
ATOM     93  C   UNL A   1      45.649  31.544  26.718  1.00  0.00     0.022 A 
BRANCH  91  94
ATOM     94  S   UNL A   1      48.359  31.796  27.086  1.00  0.00     0.127 S 
ATOM     95  O   UNL A   1      48.764  32.235  28.419  1.00  0.00    -0.237 OA
ATOM     96  O   UNL A   1      49.125  30.670  26.550  1.00  0.00    -0.237 OA
ATOM     97  O   UNL A   1      48.118  32.870  26.129  1.00  0.00    -0.744 OA
ENDBRANCH  91  94
ENDBRANCH  64  87
ENDBRANCH  38  39
ENDBRANCH  30  33
ENDBRANCH  28  29
ENDBRANCH  27  28
ENDBRANCH   1  27
TORSDOF 18
ENDMDL
