MODEL 1
REMARK VINA RESULT:     -12.2      0.000      0.000
REMARK SMILES O=C(NCCCCCCNC(=O)[C@@]1(Cl)C=CC=C(c2ccccc2)[C@H]1Cl)c1ccc(-c2c3nc(c(-c4cccc(S(=O)(=O)[O-])c4F)c4ccc([nH]4)c(-c4cccc(S(=O)(=O)[O-])c4F)c4nc(c(-c5cccc(S(=O)(=O)[O-])c5F)c5ccc2[nH]5)C=C4)C=C3)cc1
REMARK SMILES IDX 5 1 4 2 3 3 1 4 2 5 27 7 28 8 89 9 29 10 88 11 30 12 31 13
REMARK SMILES IDX 32 14 82 15 33 16 87 17 81 18 83 19 34 20 86 21 80 22 79 23
REMARK SMILES IDX 35 25 67 26 47 27 66 28 48 29 51 30 65 31 84 32 49 33 50 34
REMARK SMILES IDX 64 36 85 37 52 38 36 39 37 40 45 41 38 42 40 43 46 44 39 45
REMARK SMILES IDX 41 46 42 47 43 48 44 49 68 50 69 51 77 52 70 53 72 54 78 55
REMARK SMILES IDX 71 56 73 57 74 58 75 59 76 60 53 61 54 62 62 63 55 64 57 65
REMARK SMILES IDX 63 66 56 67 58 68 59 69 60 70 61 71 6 72 7 73 8 74 9 75
REMARK SMILES IDX 10 76 11 77 12 79 13 80 14 81 15 82 25 83 16 84 18 85 26 86
REMARK SMILES IDX 17 87 19 88 20 89 24 90 21 91 23 92 22 93
REMARK H PARENT 3 6 83 24 51 35 10 78
REMARK Flexibility Score: inf
ROOT
ATOM      1  C   UNL A   1      31.582  31.492  26.561  1.00  0.00     0.021 C 
ENDROOT
BRANCH   1   2
ATOM      2  C   UNL A   1      32.773  32.133  27.261  1.00  0.00     0.116 C 
BRANCH   2   3
ATOM      3  N   UNL A   1      32.546  33.550  27.496  1.00  0.00    -0.352 N 
ATOM      4  O   UNL A   1      32.637  35.454  28.698  1.00  0.00    -0.269 OA
ATOM      5  C   UNL A   1      33.113  34.350  28.455  1.00  0.00     0.251 C 
ATOM      6  H   UNL A   1      31.907  33.990  26.889  1.00  0.00     0.163 HD
BRANCH   5   7
ATOM      7  C   UNL A   1      34.295  33.853  29.186  1.00  0.00     0.039 A 
ATOM      8  C   UNL A   1      34.138  32.890  30.189  1.00  0.00     0.014 A 
ATOM      9  C   UNL A   1      35.564  34.338  28.862  1.00  0.00     0.014 A 
ATOM     10  C   UNL A   1      35.235  32.483  30.933  1.00  0.00     0.010 A 
ATOM     11  C   UNL A   1      36.679  33.863  29.555  1.00  0.00     0.010 A 
ATOM     12  C   UNL A   1      36.521  32.934  30.597  1.00  0.00    -0.014 A 
BRANCH  12  13
ATOM     13  C   UNL A   1      37.695  32.297  31.238  1.00  0.00     0.031 A 
ATOM     14  C   UNL A   1      38.429  31.160  30.591  1.00  0.00     0.074 A 
ATOM     15  C   UNL A   1      38.065  32.753  32.453  1.00  0.00     0.049 A 
ATOM     16  N   UNL A   1      39.465  30.501  31.038  1.00  0.00    -0.248 NA
ATOM     17  C   UNL A   1      37.942  30.695  29.283  1.00  0.00     0.031 C 
ATOM     18  C   UNL A   1      37.380  33.817  33.194  1.00  0.00     0.029 A 
ATOM     19  N   UNL A   1      39.086  32.378  33.284  1.00  0.00    -0.354 N 
ATOM     20  C   UNL A   1      39.731  29.517  30.095  1.00  0.00     0.074 A 
ATOM     21  C   UNL A   1      38.752  29.671  29.040  1.00  0.00     0.031 C 
ATOM     22  C   UNL A   1      38.002  34.013  34.364  1.00  0.00     0.029 A 
ATOM     23  C   UNL A   1      39.088  33.051  34.484  1.00  0.00     0.049 A 
ATOM     24  H   UNL A   1      39.754  31.694  33.047  1.00  0.00     0.167 HD
ATOM     25  C   UNL A   1      40.708  28.580  30.112  1.00  0.00     0.034 A 
ATOM     26  C   UNL A   1      39.853  32.887  35.578  1.00  0.00     0.034 A 
ATOM     27  C   UNL A   1      41.695  28.462  31.153  1.00  0.00     0.049 A 
ATOM     28  C   UNL A   1      40.932  31.846  35.552  1.00  0.00     0.074 A 
ATOM     29  C   UNL A   1      42.786  27.612  31.208  1.00  0.00     0.029 A 
ATOM     30  N   UNL A   1      41.698  29.190  32.332  1.00  0.00    -0.354 N 
ATOM     31  N   UNL A   1      41.278  31.044  34.575  1.00  0.00    -0.248 NA
ATOM     32  C   UNL A   1      41.741  31.699  36.769  1.00  0.00     0.031 C 
ATOM     33  C   UNL A   1      43.427  27.802  32.437  1.00  0.00     0.029 A 
ATOM     34  C   UNL A   1      42.753  28.789  33.135  1.00  0.00     0.049 A 
ATOM     35  H   UNL A   1      41.046  29.892  32.565  1.00  0.00     0.167 HD
ATOM     36  C   UNL A   1      42.353  30.307  35.052  1.00  0.00     0.074 A 
ATOM     37  C   UNL A   1      42.626  30.788  36.392  1.00  0.00     0.031 C 
ATOM     38  C   UNL A   1      43.035  29.305  34.449  1.00  0.00     0.034 A 
BRANCH  25  39
ATOM     39  C   UNL A   1      40.795  27.610  28.962  1.00  0.00     0.023 A 
ATOM     40  C   UNL A   1      39.848  26.575  28.849  1.00  0.00     0.012 A 
ATOM     41  C   UNL A   1      41.734  27.809  27.930  1.00  0.00     0.148 A 
ATOM     42  C   UNL A   1      39.837  25.744  27.728  1.00  0.00     0.002 A 
ATOM     43  C   UNL A   1      41.694  27.001  26.799  1.00  0.00     0.091 A 
ATOM     44  F   UNL A   1      42.636  28.790  28.067  1.00  0.00    -0.205 F 
ATOM     45  C   UNL A   1      40.750  25.966  26.700  1.00  0.00     0.022 A 
BRANCH  43  46
ATOM     46  S   UNL A   1      42.772  27.252  25.384  1.00  0.00     0.127 S 
ATOM     47  O   UNL A   1      42.575  26.007  24.641  1.00  0.00    -0.237 OA
ATOM     48  O   UNL A   1      42.182  28.435  24.757  1.00  0.00    -0.237 OA
ATOM     49  O   UNL A   1      44.110  27.447  25.924  1.00  0.00    -0.744 OA
ENDBRANCH  43  46
ENDBRANCH  25  39
BRANCH  26  50
ATOM     50  C   UNL A   1      39.620  33.731  36.783  1.00  0.00     0.023 A 
ATOM     51  C   UNL A   1      40.032  35.077  36.782  1.00  0.00     0.012 A 
ATOM     52  C   UNL A   1      38.973  33.211  37.921  1.00  0.00     0.148 A 
ATOM     53  C   UNL A   1      39.834  35.880  37.907  1.00  0.00     0.002 A 
ATOM     54  C   UNL A   1      38.723  34.033  39.012  1.00  0.00     0.091 A 
ATOM     55  F   UNL A   1      38.604  31.922  37.912  1.00  0.00    -0.205 F 
ATOM     56  C   UNL A   1      39.170  35.362  39.016  1.00  0.00     0.022 A 
BRANCH  54  57
ATOM     57  S   UNL A   1      37.743  33.478  40.411  1.00  0.00     0.127 S 
ATOM     58  O   UNL A   1      36.516  33.031  39.759  1.00  0.00    -0.237 OA
ATOM     59  O   UNL A   1      38.575  32.408  40.964  1.00  0.00    -0.237 OA
ATOM     60  O   UNL A   1      37.620  34.642  41.280  1.00  0.00    -0.744 OA
ENDBRANCH  54  57
ENDBRANCH  26  50
BRANCH  38  61
ATOM     61  C   UNL A   1      44.151  28.665  35.230  1.00  0.00     0.023 A 
ATOM     62  C   UNL A   1      45.465  29.154  35.089  1.00  0.00     0.012 A 
ATOM     63  C   UNL A   1      43.891  27.625  36.142  1.00  0.00     0.148 A 
ATOM     64  C   UNL A   1      46.511  28.591  35.819  1.00  0.00     0.002 A 
ATOM     65  C   UNL A   1      44.929  27.104  36.904  1.00  0.00     0.091 A 
ATOM     66  F   UNL A   1      42.636  27.165  36.246  1.00  0.00    -0.205 F 
ATOM     67  C   UNL A   1      46.241  27.577  36.734  1.00  0.00     0.022 A 
BRANCH  65  68
ATOM     68  S   UNL A   1      44.664  25.860  38.172  1.00  0.00     0.127 S 
ATOM     69  O   UNL A   1      43.624  26.484  38.989  1.00  0.00    -0.237 OA
ATOM     70  O   UNL A   1      44.215  24.709  37.387  1.00  0.00    -0.237 OA
ATOM     71  O   UNL A   1      45.950  25.678  38.832  1.00  0.00    -0.744 OA
ENDBRANCH  65  68
ENDBRANCH  38  61
ENDBRANCH  12  13
ENDBRANCH   5   7
ENDBRANCH   2   3
ENDBRANCH   1   2
BRANCH   1  72
ATOM     72  C   UNL A   1      31.910  30.154  25.896  1.00  0.00     0.002 C 
BRANCH  72  73
ATOM     73  C   UNL A   1      32.507  29.104  26.841  1.00  0.00     0.002 C 
BRANCH  73  74
ATOM     74  C   UNL A   1      33.545  28.182  26.187  1.00  0.00     0.021 C 
BRANCH  74  75
ATOM     75  C   UNL A   1      32.904  27.036  25.408  1.00  0.00     0.116 C 
BRANCH  75  76
ATOM     76  N   UNL A   1      33.680  26.768  24.213  1.00  0.00    -0.354 N 
ATOM     77  C   UNL A   1      33.299  26.448  22.940  1.00  0.00     0.247 C 
ATOM     78  H   UNL A   1      34.655  26.826  24.342  1.00  0.00     0.163 HD
ATOM     79  O   UNL A   1      34.224  26.160  22.172  1.00  0.00    -0.273 OA
BRANCH  77  80
ATOM     80  C   UNL A   1      31.811  26.531  22.475  1.00  0.00     0.161 C 
ATOM     81  Cl  UNL A   1      31.734  25.647  20.850  1.00  0.00    -0.102 Cl
ATOM     82  C   UNL A   1      30.893  25.687  23.345  1.00  0.00     0.008 C 
ATOM     83  C   UNL A   1      31.333  28.005  22.226  1.00  0.00     0.146 C 
ATOM     84  C   UNL A   1      29.764  26.159  23.893  1.00  0.00    -0.002 C 
ATOM     85  C   UNL A   1      30.038  28.385  22.937  1.00  0.00    -0.020 C 
ATOM     86  Cl  UNL A   1      32.585  29.267  22.599  1.00  0.00    -0.115 Cl
ATOM     87  C   UNL A   1      29.340  27.523  23.698  1.00  0.00     0.006 C 
BRANCH  85  88
ATOM     88  C   UNL A   1      29.495  29.735  22.689  1.00  0.00    -0.021 A 
ATOM     89  C   UNL A   1      29.158  30.147  21.394  1.00  0.00     0.008 A 
ATOM     90  C   UNL A   1      29.254  30.597  23.766  1.00  0.00     0.008 A 
ATOM     91  C   UNL A   1      28.562  31.393  21.185  1.00  0.00     0.001 A 
ATOM     92  C   UNL A   1      28.663  31.844  23.555  1.00  0.00     0.001 A 
ATOM     93  C   UNL A   1      28.311  32.237  22.266  1.00  0.00     0.000 A 
ENDBRANCH  85  88
ENDBRANCH  77  80
ENDBRANCH  75  76
ENDBRANCH  74  75
ENDBRANCH  73  74
ENDBRANCH  72  73
ENDBRANCH   1  72
TORSDOF 17
ENDMDL
MODEL 2
REMARK VINA RESULT:     -12.1      6.745     11.797
REMARK SMILES O=C(NCCCCCCNC(=O)[C@@]1(Cl)C=CC=C(c2ccccc2)[C@H]1Cl)c1ccc(-c2c3nc(c(-c4cccc(S(=O)(=O)[O-])c4F)c4ccc([nH]4)c(-c4cccc(S(=O)(=O)[O-])c4F)c4nc(c(-c5cccc(S(=O)(=O)[O-])c5F)c5ccc2[nH]5)C=C4)C=C3)cc1
REMARK SMILES IDX 5 1 4 2 3 3 1 4 2 5 27 7 28 8 89 9 29 10 88 11 30 12 31 13
REMARK SMILES IDX 32 14 82 15 33 16 87 17 81 18 83 19 34 20 86 21 80 22 79 23
REMARK SMILES IDX 35 25 67 26 47 27 66 28 48 29 51 30 65 31 84 32 49 33 50 34
REMARK SMILES IDX 64 36 85 37 52 38 36 39 37 40 45 41 38 42 40 43 46 44 39 45
REMARK SMILES IDX 41 46 42 47 43 48 44 49 68 50 69 51 77 52 70 53 72 54 78 55
REMARK SMILES IDX 71 56 73 57 74 58 75 59 76 60 53 61 54 62 62 63 55 64 57 65
REMARK SMILES IDX 63 66 56 67 58 68 59 69 60 70 61 71 6 72 7 73 8 74 9 75
REMARK SMILES IDX 10 76 11 77 12 79 13 80 14 81 15 82 25 83 16 84 18 85 26 86
REMARK SMILES IDX 17 87 19 88 20 89 24 90 21 91 23 92 22 93
REMARK H PARENT 3 6 83 24 51 35 10 78
REMARK Flexibility Score: inf
ROOT
ATOM      1  C   UNL A   1      37.922  19.499  24.883  1.00  0.00     0.021 C 
ENDROOT
BRANCH   1   2
ATOM      2  C   UNL A   1      38.937  20.239  25.744  1.00  0.00     0.116 C 
BRANCH   2   3
ATOM      3  N   UNL A   1      40.073  19.392  26.066  1.00  0.00    -0.352 N 
ATOM      4  O   UNL A   1      42.262  18.953  26.376  1.00  0.00    -0.269 OA
ATOM      5  C   UNL A   1      41.351  19.775  26.383  1.00  0.00     0.251 C 
ATOM      6  H   UNL A   1      39.903  18.422  26.058  1.00  0.00     0.163 HD
BRANCH   5   7
ATOM      7  C   UNL A   1      41.606  21.190  26.722  1.00  0.00     0.039 A 
ATOM      8  C   UNL A   1      42.066  21.526  28.000  1.00  0.00     0.014 A 
ATOM      9  C   UNL A   1      41.400  22.179  25.759  1.00  0.00     0.014 A 
ATOM     10  C   UNL A   1      42.227  22.859  28.347  1.00  0.00     0.010 A 
ATOM     11  C   UNL A   1      41.645  23.515  26.084  1.00  0.00     0.010 A 
ATOM     12  C   UNL A   1      42.057  23.864  27.380  1.00  0.00    -0.014 A 
BRANCH  12  13
ATOM     13  C   UNL A   1      42.476  25.247  27.705  1.00  0.00     0.031 A 
ATOM     14  C   UNL A   1      41.532  26.235  28.323  1.00  0.00     0.074 A 
ATOM     15  C   UNL A   1      43.738  25.605  27.390  1.00  0.00     0.049 A 
ATOM     16  N   UNL A   1      41.757  27.480  28.653  1.00  0.00    -0.248 NA
ATOM     17  C   UNL A   1      40.161  25.779  28.602  1.00  0.00     0.031 C 
ATOM     18  C   UNL A   1      44.718  24.735  26.732  1.00  0.00     0.029 A 
ATOM     19  N   UNL A   1      44.409  26.787  27.560  1.00  0.00    -0.354 N 
ATOM     20  C   UNL A   1      40.552  27.972  29.138  1.00  0.00     0.074 A 
ATOM     21  C   UNL A   1      39.597  26.887  29.069  1.00  0.00     0.031 C 
ATOM     22  C   UNL A   1      45.864  25.407  26.560  1.00  0.00     0.029 A 
ATOM     23  C   UNL A   1      45.682  26.771  27.038  1.00  0.00     0.049 A 
ATOM     24  H   UNL A   1      44.020  27.571  28.012  1.00  0.00     0.167 HD
ATOM     25  C   UNL A   1      40.279  29.215  29.601  1.00  0.00     0.034 A 
ATOM     26  C   UNL A   1      46.591  27.756  26.917  1.00  0.00     0.034 A 
ATOM     27  C   UNL A   1      41.251  30.273  29.692  1.00  0.00     0.049 A 
ATOM     28  C   UNL A   1      46.254  29.115  27.454  1.00  0.00     0.074 A 
ATOM     29  C   UNL A   1      41.096  31.533  30.243  1.00  0.00     0.029 A 
ATOM     30  N   UNL A   1      42.544  30.211  29.198  1.00  0.00    -0.354 N 
ATOM     31  N   UNL A   1      45.167  29.510  28.070  1.00  0.00    -0.248 NA
ATOM     32  C   UNL A   1      47.274  30.161  27.299  1.00  0.00     0.031 C 
ATOM     33  C   UNL A   1      42.285  32.245  30.050  1.00  0.00     0.029 A 
ATOM     34  C   UNL A   1      43.189  31.419  29.404  1.00  0.00     0.049 A 
ATOM     35  H   UNL A   1      42.947  29.422  28.766  1.00  0.00     0.167 HD
ATOM     36  C   UNL A   1      45.376  30.844  28.389  1.00  0.00     0.074 A 
ATOM     37  C   UNL A   1      46.711  31.178  27.935  1.00  0.00     0.031 C 
ATOM     38  C   UNL A   1      44.531  31.722  28.980  1.00  0.00     0.034 A 
BRANCH  25  39
ATOM     39  C   UNL A   1      38.882  29.514  30.077  1.00  0.00     0.023 A 
ATOM     40  C   UNL A   1      38.522  29.227  31.408  1.00  0.00     0.012 A 
ATOM     41  C   UNL A   1      37.974  30.199  29.244  1.00  0.00     0.148 A 
ATOM     42  C   UNL A   1      37.275  29.610  31.902  1.00  0.00     0.002 A 
ATOM     43  C   UNL A   1      36.748  30.610  29.755  1.00  0.00     0.091 A 
ATOM     44  F   UNL A   1      38.333  30.447  27.977  1.00  0.00    -0.205 F 
ATOM     45  C   UNL A   1      36.395  30.311  31.081  1.00  0.00     0.022 A 
BRANCH  43  46
ATOM     46  S   UNL A   1      35.576  31.587  28.806  1.00  0.00     0.127 S 
ATOM     47  O   UNL A   1      35.063  30.594  27.863  1.00  0.00    -0.237 OA
ATOM     48  O   UNL A   1      34.621  32.001  29.834  1.00  0.00    -0.237 OA
ATOM     49  O   UNL A   1      36.343  32.671  28.208  1.00  0.00    -0.744 OA
ENDBRANCH  43  46
ENDBRANCH  25  39
BRANCH  26  50
ATOM     50  C   UNL A   1      47.901  27.484  26.264  1.00  0.00     0.023 A 
ATOM     51  C   UNL A   1      49.007  27.103  27.047  1.00  0.00     0.012 A 
ATOM     52  C   UNL A   1      48.049  27.580  24.866  1.00  0.00     0.148 A 
ATOM     53  C   UNL A   1      50.246  26.858  26.453  1.00  0.00     0.002 A 
ATOM     54  C   UNL A   1      49.269  27.272  24.275  1.00  0.00     0.091 A 
ATOM     55  F   UNL A   1      46.991  27.961  24.137  1.00  0.00    -0.205 F 
ATOM     56  C   UNL A   1      50.374  26.930  25.068  1.00  0.00     0.022 A 
BRANCH  54  57
ATOM     57  S   UNL A   1      49.466  27.198  22.492  1.00  0.00     0.127 S 
ATOM     58  O   UNL A   1      49.064  28.543  22.091  1.00  0.00    -0.237 OA
ATOM     59  O   UNL A   1      50.895  26.912  22.352  1.00  0.00    -0.237 OA
ATOM     60  O   UNL A   1      48.598  26.112  22.054  1.00  0.00    -0.744 OA
ENDBRANCH  54  57
ENDBRANCH  26  50
BRANCH  38  61
ATOM     61  C   UNL A   1      45.029  33.129  29.178  1.00  0.00     0.023 A 
ATOM     62  C   UNL A   1      45.712  33.463  30.364  1.00  0.00     0.012 A 
ATOM     63  C   UNL A   1      44.873  34.099  28.169  1.00  0.00     0.148 A 
ATOM     64  C   UNL A   1      46.201  34.754  30.559  1.00  0.00     0.002 A 
ATOM     65  C   UNL A   1      45.408  35.368  28.348  1.00  0.00     0.091 A 
ATOM     66  F   UNL A   1      44.205  33.762  27.056  1.00  0.00    -0.205 F 
ATOM     67  C   UNL A   1      46.061  35.701  29.548  1.00  0.00     0.022 A 
BRANCH  65  68
ATOM     68  S   UNL A   1      45.357  36.625  27.067  1.00  0.00     0.127 S 
ATOM     69  O   UNL A   1      46.117  37.711  27.686  1.00  0.00    -0.237 OA
ATOM     70  O   UNL A   1      46.037  35.961  25.955  1.00  0.00    -0.237 OA
ATOM     71  O   UNL A   1      43.947  36.905  26.835  1.00  0.00    -0.744 OA
ENDBRANCH  65  68
ENDBRANCH  38  61
ENDBRANCH  12  13
ENDBRANCH   5   7
ENDBRANCH   2   3
ENDBRANCH   1   2
BRANCH   1  72
ATOM     72  C   UNL A   1      36.521  20.111  24.924  1.00  0.00     0.002 C 
BRANCH  72  73
ATOM     73  C   UNL A   1      36.436  21.541  24.376  1.00  0.00     0.002 C 
BRANCH  73  74
ATOM     74  C   UNL A   1      36.040  22.596  25.417  1.00  0.00     0.021 C 
BRANCH  74  75
ATOM     75  C   UNL A   1      34.820  23.410  24.993  1.00  0.00     0.116 C 
BRANCH  75  76
ATOM     76  N   UNL A   1      33.995  23.687  26.152  1.00  0.00    -0.354 N 
ATOM     77  C   UNL A   1      32.700  23.358  26.440  1.00  0.00     0.247 C 
ATOM     78  H   UNL A   1      34.447  24.207  26.856  1.00  0.00     0.163 HD
ATOM     79  O   UNL A   1      32.249  23.858  27.477  1.00  0.00    -0.273 OA
BRANCH  77  80
ATOM     80  C   UNL A   1      31.887  22.351  25.567  1.00  0.00     0.161 C 
ATOM     81  Cl  UNL A   1      30.130  22.485  26.135  1.00  0.00    -0.102 Cl
ATOM     82  C   UNL A   1      31.791  22.801  24.116  1.00  0.00     0.008 C 
ATOM     83  C   UNL A   1      32.333  20.862  25.780  1.00  0.00     0.146 C 
ATOM     84  C   UNL A   1      32.090  22.003  23.082  1.00  0.00    -0.002 C 
ATOM     85  C   UNL A   1      32.651  20.100  24.498  1.00  0.00    -0.020 C 
ATOM     86  Cl  UNL A   1      33.724  20.659  26.930  1.00  0.00    -0.115 Cl
ATOM     87  C   UNL A   1      32.536  20.646  23.275  1.00  0.00     0.006 C 
BRANCH  85  88
ATOM     88  C   UNL A   1      33.009  18.674  24.623  1.00  0.00    -0.021 A 
ATOM     89  C   UNL A   1      32.516  17.900  25.681  1.00  0.00     0.008 A 
ATOM     90  C   UNL A   1      33.801  18.066  23.642  1.00  0.00     0.008 A 
ATOM     91  C   UNL A   1      32.790  16.531  25.738  1.00  0.00     0.001 A 
ATOM     92  C   UNL A   1      34.077  16.699  23.703  1.00  0.00     0.001 A 
ATOM     93  C   UNL A   1      33.566  15.932  24.747  1.00  0.00     0.000 A 
ENDBRANCH  85  88
ENDBRANCH  77  80
ENDBRANCH  75  76
ENDBRANCH  74  75
ENDBRANCH  73  74
ENDBRANCH  72  73
ENDBRANCH   1  72
TORSDOF 17
ENDMDL
MODEL 3
REMARK VINA RESULT:     -12.1      1.408      1.735
REMARK SMILES O=C(NCCCCCCNC(=O)[C@@]1(Cl)C=CC=C(c2ccccc2)[C@H]1Cl)c1ccc(-c2c3nc(c(-c4cccc(S(=O)(=O)[O-])c4F)c4ccc([nH]4)c(-c4cccc(S(=O)(=O)[O-])c4F)c4nc(c(-c5cccc(S(=O)(=O)[O-])c5F)c5ccc2[nH]5)C=C4)C=C3)cc1
REMARK SMILES IDX 5 1 4 2 3 3 1 4 2 5 27 7 28 8 89 9 29 10 88 11 30 12 31 13
REMARK SMILES IDX 32 14 82 15 33 16 87 17 81 18 83 19 34 20 86 21 80 22 79 23
REMARK SMILES IDX 35 25 67 26 47 27 66 28 48 29 51 30 65 31 84 32 49 33 50 34
REMARK SMILES IDX 64 36 85 37 52 38 36 39 37 40 45 41 38 42 40 43 46 44 39 45
REMARK SMILES IDX 41 46 42 47 43 48 44 49 68 50 69 51 77 52 70 53 72 54 78 55
REMARK SMILES IDX 71 56 73 57 74 58 75 59 76 60 53 61 54 62 62 63 55 64 57 65
REMARK SMILES IDX 63 66 56 67 58 68 59 69 60 70 61 71 6 72 7 73 8 74 9 75
REMARK SMILES IDX 10 76 11 77 12 79 13 80 14 81 15 82 25 83 16 84 18 85 26 86
REMARK SMILES IDX 17 87 19 88 20 89 24 90 21 91 23 92 22 93
REMARK H PARENT 3 6 83 24 51 35 10 78
REMARK Flexibility Score: inf
ROOT
ATOM      1  C   UNL A   1      31.438  31.598  26.510  1.00  0.00     0.021 C 
ENDROOT
BRANCH   1   2
ATOM      2  C   UNL A   1      32.742  32.249  26.950  1.00  0.00     0.116 C 
BRANCH   2   3
ATOM      3  N   UNL A   1      32.539  33.640  27.320  1.00  0.00    -0.352 N 
ATOM      4  O   UNL A   1      32.678  35.423  28.693  1.00  0.00    -0.269 OA
ATOM      5  C   UNL A   1      33.134  34.340  28.338  1.00  0.00     0.251 C 
ATOM      6  H   UNL A   1      31.895  34.142  26.770  1.00  0.00     0.163 HD
BRANCH   5   7
ATOM      7  C   UNL A   1      34.323  33.763  28.997  1.00  0.00     0.039 A 
ATOM      8  C   UNL A   1      34.167  32.752  29.951  1.00  0.00     0.014 A 
ATOM      9  C   UNL A   1      35.596  34.222  28.652  1.00  0.00     0.014 A 
ATOM     10  C   UNL A   1      35.275  32.267  30.630  1.00  0.00     0.010 A 
ATOM     11  C   UNL A   1      36.717  33.671  29.276  1.00  0.00     0.010 A 
ATOM     12  C   UNL A   1      36.563  32.692  30.271  1.00  0.00    -0.014 A 
BRANCH  12  13
ATOM     13  C   UNL A   1      37.735  31.980  30.832  1.00  0.00     0.031 A 
ATOM     14  C   UNL A   1      38.465  30.925  30.056  1.00  0.00     0.074 A 
ATOM     15  C   UNL A   1      38.107  32.290  32.091  1.00  0.00     0.049 A 
ATOM     16  N   UNL A   1      39.500  30.215  30.422  1.00  0.00    -0.248 NA
ATOM     17  C   UNL A   1      37.976  30.618  28.702  1.00  0.00     0.031 C 
ATOM     18  C   UNL A   1      37.426  33.261  32.953  1.00  0.00     0.029 A 
ATOM     19  N   UNL A   1      39.128  31.816  32.872  1.00  0.00    -0.354 N 
ATOM     20  C   UNL A   1      39.762  29.347  29.369  1.00  0.00     0.074 A 
ATOM     21  C   UNL A   1      38.783  29.627  28.341  1.00  0.00     0.031 C 
ATOM     22  C   UNL A   1      38.048  33.317  34.137  1.00  0.00     0.029 A 
ATOM     23  C   UNL A   1      39.132  32.344  34.143  1.00  0.00     0.049 A 
ATOM     24  H   UNL A   1      39.793  31.163  32.556  1.00  0.00     0.167 HD
ATOM     25  C   UNL A   1      40.737  28.412  29.275  1.00  0.00     0.034 A 
ATOM     26  C   UNL A   1      39.897  32.051  35.210  1.00  0.00     0.034 A 
ATOM     27  C   UNL A   1      41.723  28.170  30.295  1.00  0.00     0.049 A 
ATOM     28  C   UNL A   1      40.972  31.017  35.061  1.00  0.00     0.074 A 
ATOM     29  C   UNL A   1      42.812  27.316  30.249  1.00  0.00     0.029 A 
ATOM     30  N   UNL A   1      41.729  28.755  31.552  1.00  0.00    -0.354 N 
ATOM     31  N   UNL A   1      41.316  30.334  33.996  1.00  0.00    -0.248 NA
ATOM     32  C   UNL A   1      41.781  30.725  36.252  1.00  0.00     0.031 C 
ATOM     33  C   UNL A   1      43.454  27.358  31.491  1.00  0.00     0.029 A 
ATOM     34  C   UNL A   1      42.783  28.259  32.301  1.00  0.00     0.049 A 
ATOM     35  H   UNL A   1      41.079  29.426  31.865  1.00  0.00     0.167 HD
ATOM     36  C   UNL A   1      42.388  29.543  34.383  1.00  0.00     0.074 A 
ATOM     37  C   UNL A   1      42.664  29.862  35.770  1.00  0.00     0.031 C 
ATOM     38  C   UNL A   1      43.067  28.616  33.666  1.00  0.00     0.034 A 
BRANCH  25  39
ATOM     39  C   UNL A   1      40.820  27.584  28.020  1.00  0.00     0.023 A 
ATOM     40  C   UNL A   1      41.465  28.105  26.882  1.00  0.00     0.012 A 
ATOM     41  C   UNL A   1      40.377  26.246  28.016  1.00  0.00     0.148 A 
ATOM     42  C   UNL A   1      41.662  27.309  25.753  1.00  0.00     0.002 A 
ATOM     43  C   UNL A   1      40.609  25.448  26.901  1.00  0.00     0.091 A 
ATOM     44  F   UNL A   1      39.751  25.777  29.104  1.00  0.00    -0.205 F 
ATOM     45  C   UNL A   1      41.246  25.980  25.768  1.00  0.00     0.022 A 
BRANCH  43  46
ATOM     46  S   UNL A   1      40.185  23.703  26.847  1.00  0.00     0.127 S 
ATOM     47  O   UNL A   1      38.778  23.756  26.453  1.00  0.00    -0.237 OA
ATOM     48  O   UNL A   1      41.089  23.201  25.812  1.00  0.00    -0.237 OA
ATOM     49  O   UNL A   1      40.435  23.184  28.184  1.00  0.00    -0.744 OA
ENDBRANCH  43  46
ENDBRANCH  25  39
BRANCH  26  50
ATOM     50  C   UNL A   1      39.667  32.749  36.505  1.00  0.00     0.023 A 
ATOM     51  C   UNL A   1      40.394  33.915  36.808  1.00  0.00     0.012 A 
ATOM     52  C   UNL A   1      38.714  32.273  37.428  1.00  0.00     0.148 A 
ATOM     53  C   UNL A   1      40.202  34.575  38.024  1.00  0.00     0.002 A 
ATOM     54  C   UNL A   1      38.483  32.971  38.607  1.00  0.00     0.091 A 
ATOM     55  F   UNL A   1      38.044  31.151  37.132  1.00  0.00    -0.205 F 
ATOM     56  C   UNL A   1      39.239  34.110  38.917  1.00  0.00     0.022 A 
BRANCH  54  57
ATOM     57  S   UNL A   1      37.158  32.518  39.731  1.00  0.00     0.127 S 
ATOM     58  O   UNL A   1      37.267  33.552  40.755  1.00  0.00    -0.237 OA
ATOM     59  O   UNL A   1      35.976  32.621  38.872  1.00  0.00    -0.237 OA
ATOM     60  O   UNL A   1      37.463  31.158  40.157  1.00  0.00    -0.744 OA
ENDBRANCH  54  57
ENDBRANCH  26  50
BRANCH  38  61
ATOM     61  C   UNL A   1      44.181  27.886  34.366  1.00  0.00     0.023 A 
ATOM     62  C   UNL A   1      45.477  28.440  34.373  1.00  0.00     0.012 A 
ATOM     63  C   UNL A   1      43.935  26.688  35.063  1.00  0.00     0.148 A 
ATOM     64  C   UNL A   1      46.520  27.792  35.033  1.00  0.00     0.002 A 
ATOM     65  C   UNL A   1      44.967  26.075  35.762  1.00  0.00     0.091 A 
ATOM     66  F   UNL A   1      42.698  26.171  35.028  1.00  0.00    -0.205 F 
ATOM     67  C   UNL A   1      46.262  26.618  35.737  1.00  0.00     0.022 A 
BRANCH  65  68
ATOM     68  S   UNL A   1      44.711  24.612  36.771  1.00  0.00     0.127 S 
ATOM     69  O   UNL A   1      46.056  24.373  37.295  1.00  0.00    -0.237 OA
ATOM     70  O   UNL A   1      43.745  25.084  37.762  1.00  0.00    -0.237 OA
ATOM     71  O   UNL A   1      44.203  23.586  35.870  1.00  0.00    -0.744 OA
ENDBRANCH  65  68
ENDBRANCH  38  61
ENDBRANCH  12  13
ENDBRANCH   5   7
ENDBRANCH   2   3
ENDBRANCH   1   2
BRANCH   1  72
ATOM     72  C   UNL A   1      31.476  30.069  26.535  1.00  0.00     0.002 C 
BRANCH  72  73
ATOM     73  C   UNL A   1      32.815  29.474  26.989  1.00  0.00     0.002 C 
BRANCH  73  74
ATOM     74  C   UNL A   1      32.817  27.945  27.118  1.00  0.00     0.021 C 
BRANCH  74  75
ATOM     75  C   UNL A   1      32.097  27.258  25.961  1.00  0.00     0.116 C 
BRANCH  75  76
ATOM     76  N   UNL A   1      33.062  26.871  24.950  1.00  0.00    -0.354 N 
ATOM     77  C   UNL A   1      32.904  26.488  23.648  1.00  0.00     0.247 C 
ATOM     78  H   UNL A   1      33.998  26.886  25.257  1.00  0.00     0.163 HD
ATOM     79  O   UNL A   1      33.934  26.102  23.084  1.00  0.00    -0.273 OA
BRANCH  77  80
ATOM     80  C   UNL A   1      31.535  26.618  22.907  1.00  0.00     0.161 C 
ATOM     81  Cl  UNL A   1      31.740  25.728  21.296  1.00  0.00    -0.102 Cl
ATOM     82  C   UNL A   1      30.440  25.809  23.585  1.00  0.00     0.008 C 
ATOM     83  C   UNL A   1      31.163  28.106  22.573  1.00  0.00     0.146 C 
ATOM     84  C   UNL A   1      29.244  26.322  23.907  1.00  0.00    -0.002 C 
ATOM     85  C   UNL A   1      29.769  28.532  23.023  1.00  0.00    -0.020 C 
ATOM     86  Cl  UNL A   1      32.362  29.328  23.179  1.00  0.00    -0.115 Cl
ATOM     87  C   UNL A   1      28.911  27.698  23.635  1.00  0.00     0.006 C 
BRANCH  85  88
ATOM     88  C   UNL A   1      29.330  29.898  22.677  1.00  0.00    -0.021 A 
ATOM     89  C   UNL A   1      28.972  30.226  21.364  1.00  0.00     0.008 A 
ATOM     90  C   UNL A   1      29.207  30.866  23.682  1.00  0.00     0.008 A 
ATOM     91  C   UNL A   1      28.472  31.497  21.068  1.00  0.00     0.001 A 
ATOM     92  C   UNL A   1      28.712  32.136  23.383  1.00  0.00     0.001 A 
ATOM     93  C   UNL A   1      28.339  32.448  22.079  1.00  0.00     0.000 A 
ENDBRANCH  85  88
ENDBRANCH  77  80
ENDBRANCH  75  76
ENDBRANCH  74  75
ENDBRANCH  73  74
ENDBRANCH  72  73
ENDBRANCH   1  72
TORSDOF 17
ENDMDL
