MODEL 1
REMARK VINA RESULT:     -11.5      0.000      0.000
REMARK SMILES COCCNc1cc(C)nc2cc(C(=O)NCCCCCCNC(=O)c3ccc(-c4c5nc(c(-c6cccc(S(=O)(=O)[O-])c6F)c6ccc([nH]6)c(-c6cccc(S(=O)(=O)[O-])c6F)c6nc(c(-c7cccc(S(=O)(=O)[O-])c7F)c7ccc4[nH]7)C=C6)C=C5)cc3)ccc12
REMARK SMILES IDX 19 1 18 2 17 3 16 4 14 5 15 6 13 8 6 9 7 10 91 11 8 12 11 13
REMARK SMILES IDX 90 14 9 15 10 16 12 17 89 18 5 19 4 21 3 22 2 23 1 24 20 25
REMARK SMILES IDX 21 26 22 27 23 28 24 29 25 31 26 32 27 33 88 34 28 35 87 36
REMARK SMILES IDX 29 37 30 38 31 39 81 40 32 41 86 42 80 43 82 44 33 45 85 46
REMARK SMILES IDX 79 47 78 48 34 50 66 51 46 52 65 53 47 54 50 55 64 56 83 57
REMARK SMILES IDX 48 58 49 59 63 61 84 62 51 63 35 64 36 65 44 66 37 67 39 68
REMARK SMILES IDX 45 69 38 70 40 71 41 72 42 73 43 74 67 75 68 76 76 77 69 78
REMARK SMILES IDX 71 79 77 80 70 81 72 82 73 83 74 84 75 85 52 86 53 87 61 88
REMARK SMILES IDX 54 89 56 90 62 91 55 92 57 93 58 94 59 95 60 96
REMARK H PARENT 16 7 5 20 23 30 82 49 50 60
REMARK Flexibility Score: inf
ROOT
ATOM      1  C   UNL A   1      31.019  28.583  24.490  1.00  0.00     0.002 C 
ENDROOT
BRANCH   1   2
ATOM      2  C   UNL A   1      30.550  27.182  24.073  1.00  0.00     0.021 C 
BRANCH   2   3
ATOM      3  C   UNL A   1      30.535  26.995  22.554  1.00  0.00     0.116 C 
BRANCH   3   4
ATOM      4  N   UNL A   1      31.867  27.203  22.023  1.00  0.00    -0.352 N 
ATOM      5  C   UNL A   1      33.029  26.482  22.104  1.00  0.00     0.251 C 
ATOM      6  O   UNL A   1      34.027  26.975  21.572  1.00  0.00    -0.269 OA
ATOM      7  H   UNL A   1      31.956  28.030  21.498  1.00  0.00     0.163 HD
BRANCH   5   8
ATOM      8  C   UNL A   1      33.140  25.132  22.729  1.00  0.00     0.041 A 
ATOM      9  C   UNL A   1      33.067  21.219  24.357  1.00  0.00     0.045 A 
ATOM     10  C   UNL A   1      33.168  21.111  25.744  1.00  0.00     0.049 A 
ATOM     11  C   UNL A   1      33.126  22.506  23.774  1.00  0.00     0.023 A 
ATOM     12  C   UNL A   1      33.350  22.259  26.503  1.00  0.00     0.040 A 
ATOM     13  C   UNL A   1      33.353  23.605  24.619  1.00  0.00     0.073 A 
ATOM     14  C   UNL A   1      32.937  22.741  22.398  1.00  0.00     0.013 A 
ATOM     15  C   UNL A   1      33.389  22.204  28.001  1.00  0.00     0.067 C 
ATOM     16  N   UNL A   1      33.478  23.485  25.946  1.00  0.00    -0.253 NA
ATOM     17  C   UNL A   1      33.431  24.877  24.071  1.00  0.00     0.042 A 
ATOM     18  C   UNL A   1      32.916  24.038  21.889  1.00  0.00     0.014 A 
BRANCH   9  19
ATOM     19  N   UNL A   1      33.047  20.091  23.543  1.00  0.00    -0.382 N 
ATOM     20  H   UNL A   1      33.421  20.166  22.635  1.00  0.00     0.160 HD
BRANCH  19  21
ATOM     21  C   UNL A   1      32.504  18.809  23.961  1.00  0.00     0.141 C 
BRANCH  21  22
ATOM     22  C   UNL A   1      32.522  17.808  22.793  1.00  0.00     0.181 C 
BRANCH  22  23
ATOM     23  O   UNL A   1      33.725  17.030  22.723  1.00  0.00    -0.383 OA
ATOM     24  C   UNL A   1      33.969  16.252  23.888  1.00  0.00     0.194 C 
ENDBRANCH  22  23
ENDBRANCH  21  22
ENDBRANCH  19  21
ENDBRANCH   9  19
ENDBRANCH   5   8
ENDBRANCH   3   4
ENDBRANCH   2   3
ENDBRANCH   1   2
BRANCH   1  25
ATOM     25  C   UNL A   1      32.332  28.602  25.286  1.00  0.00     0.002 C 
BRANCH  25  26
ATOM     26  C   UNL A   1      32.856  30.001  25.616  1.00  0.00     0.021 C 
BRANCH  26  27
ATOM     27  C   UNL A   1      32.264  30.592  26.891  1.00  0.00     0.116 C 
BRANCH  27  28
ATOM     28  N   UNL A   1      32.408  32.043  26.918  1.00  0.00    -0.352 N 
ATOM     29  C   UNL A   1      33.349  32.802  27.564  1.00  0.00     0.251 C 
ATOM     30  H   UNL A   1      31.736  32.546  26.402  1.00  0.00     0.163 HD
ATOM     31  O   UNL A   1      33.178  34.010  27.713  1.00  0.00    -0.269 OA
BRANCH  29  32
ATOM     32  C   UNL A   1      34.567  32.151  28.081  1.00  0.00     0.039 A 
ATOM     33  C   UNL A   1      35.757  32.879  28.154  1.00  0.00     0.014 A 
ATOM     34  C   UNL A   1      34.518  30.824  28.516  1.00  0.00     0.014 A 
ATOM     35  C   UNL A   1      36.884  32.293  28.733  1.00  0.00     0.010 A 
ATOM     36  C   UNL A   1      35.617  30.270  29.159  1.00  0.00     0.010 A 
ATOM     37  C   UNL A   1      36.810  30.999  29.274  1.00  0.00    -0.014 A 
BRANCH  37  38
ATOM     38  C   UNL A   1      37.955  30.395  30.001  1.00  0.00     0.031 A 
ATOM     39  C   UNL A   1      38.254  30.803  31.415  1.00  0.00     0.074 A 
ATOM     40  C   UNL A   1      38.784  29.559  29.346  1.00  0.00     0.049 A 
ATOM     41  N   UNL A   1      39.250  30.447  32.184  1.00  0.00    -0.248 NA
ATOM     42  C   UNL A   1      37.324  31.758  32.041  1.00  0.00     0.031 C 
ATOM     43  C   UNL A   1      38.634  29.138  27.952  1.00  0.00     0.029 A 
ATOM     44  N   UNL A   1      39.934  28.934  29.758  1.00  0.00    -0.354 N 
ATOM     45  C   UNL A   1      39.087  31.155  33.368  1.00  0.00     0.074 A 
ATOM     46  C   UNL A   1      37.919  31.991  33.202  1.00  0.00     0.031 C 
ATOM     47  C   UNL A   1      39.643  28.314  27.629  1.00  0.00     0.029 A 
ATOM     48  C   UNL A   1      40.535  28.183  28.776  1.00  0.00     0.049 A 
ATOM     49  H   UNL A   1      40.295  29.016  30.671  1.00  0.00     0.167 HD
ATOM     50  C   UNL A   1      39.826  31.094  34.502  1.00  0.00     0.034 A 
ATOM     51  C   UNL A   1      41.681  27.476  28.794  1.00  0.00     0.034 A 
ATOM     52  C   UNL A   1      40.977  30.246  34.664  1.00  0.00     0.049 A 
ATOM     53  C   UNL A   1      42.494  27.437  30.059  1.00  0.00     0.074 A 
ATOM     54  C   UNL A   1      41.751  30.053  35.794  1.00  0.00     0.029 A 
ATOM     55  N   UNL A   1      41.531  29.464  33.662  1.00  0.00    -0.354 N 
ATOM     56  N   UNL A   1      42.243  27.994  31.219  1.00  0.00    -0.248 NA
ATOM     57  C   UNL A   1      43.734  26.648  30.026  1.00  0.00     0.031 C 
ATOM     58  C   UNL A   1      42.797  29.185  35.463  1.00  0.00     0.029 A 
ATOM     59  C   UNL A   1      42.651  28.805  34.139  1.00  0.00     0.049 A 
ATOM     60  H   UNL A   1      41.180  29.390  32.746  1.00  0.00     0.167 HD
ATOM     61  C   UNL A   1      43.273  27.594  32.064  1.00  0.00     0.074 A 
ATOM     62  C   UNL A   1      44.141  26.736  31.285  1.00  0.00     0.031 C 
ATOM     63  C   UNL A   1      43.485  27.919  33.364  1.00  0.00     0.034 A 
BRANCH  50  64
ATOM     64  C   UNL A   1      39.386  31.950  35.663  1.00  0.00     0.023 A 
ATOM     65  C   UNL A   1      39.810  33.293  35.741  1.00  0.00     0.012 A 
ATOM     66  C   UNL A   1      38.536  31.437  36.662  1.00  0.00     0.148 A 
ATOM     67  C   UNL A   1      39.442  34.095  36.821  1.00  0.00     0.002 A 
ATOM     68  C   UNL A   1      38.131  32.257  37.710  1.00  0.00     0.091 A 
ATOM     69  F   UNL A   1      38.156  30.153  36.585  1.00  0.00    -0.205 F 
ATOM     70  C   UNL A   1      38.596  33.580  37.799  1.00  0.00     0.022 A 
BRANCH  68  71
ATOM     71  S   UNL A   1      36.978  31.714  38.974  1.00  0.00     0.127 S 
ATOM     72  O   UNL A   1      37.788  31.841  40.186  1.00  0.00    -0.237 OA
ATOM     73  O   UNL A   1      35.902  32.698  38.854  1.00  0.00    -0.237 OA
ATOM     74  O   UNL A   1      36.599  30.355  38.613  1.00  0.00    -0.744 OA
ENDBRANCH  68  71
ENDBRANCH  50  64
BRANCH  51  75
ATOM     75  C   UNL A   1      42.090  26.689  27.596  1.00  0.00     0.023 A 
ATOM     76  C   UNL A   1      42.776  27.339  26.553  1.00  0.00     0.012 A 
ATOM     77  C   UNL A   1      41.838  25.308  27.496  1.00  0.00     0.148 A 
ATOM     78  C   UNL A   1      43.180  26.636  25.417  1.00  0.00     0.002 A 
ATOM     79  C   UNL A   1      42.289  24.601  26.387  1.00  0.00     0.091 A 
ATOM     80  F   UNL A   1      41.180  24.708  28.498  1.00  0.00    -0.205 F 
ATOM     81  C   UNL A   1      42.944  25.266  25.339  1.00  0.00     0.022 A 
BRANCH  79  82
ATOM     82  S   UNL A   1      42.140  22.816  26.249  1.00  0.00     0.127 S 
ATOM     83  O   UNL A   1      40.695  22.627  26.347  1.00  0.00    -0.237 OA
ATOM     84  O   UNL A   1      42.706  22.571  24.922  1.00  0.00    -0.237 OA
ATOM     85  O   UNL A   1      42.921  22.267  27.348  1.00  0.00    -0.744 OA
ENDBRANCH  79  82
ENDBRANCH  51  75
BRANCH  63  86
ATOM     86  C   UNL A   1      44.685  27.316  34.048  1.00  0.00     0.023 A 
ATOM     87  C   UNL A   1      45.910  28.009  34.059  1.00  0.00     0.012 A 
ATOM     88  C   UNL A   1      44.572  26.097  34.748  1.00  0.00     0.148 A 
ATOM     89  C   UNL A   1      47.014  27.486  34.731  1.00  0.00     0.002 A 
ATOM     90  C   UNL A   1      45.662  25.608  35.459  1.00  0.00     0.091 A 
ATOM     91  F   UNL A   1      43.402  25.445  34.711  1.00  0.00    -0.205 F 
ATOM     92  C   UNL A   1      46.886  26.294  35.441  1.00  0.00     0.022 A 
BRANCH  90  93
ATOM     93  S   UNL A   1      45.565  24.135  36.483  1.00  0.00     0.127 S 
ATOM     94  O   UNL A   1      45.464  23.080  35.476  1.00  0.00    -0.237 OA
ATOM     95  O   UNL A   1      46.841  24.175  37.198  1.00  0.00    -0.237 OA
ATOM     96  O   UNL A   1      44.389  24.305  37.326  1.00  0.00    -0.744 OA
ENDBRANCH  90  93
ENDBRANCH  63  86
ENDBRANCH  37  38
ENDBRANCH  29  32
ENDBRANCH  27  28
ENDBRANCH  26  27
ENDBRANCH  25  26
ENDBRANCH   1  25
TORSDOF 20
ENDMDL
MODEL 2
REMARK VINA RESULT:     -10.9      2.285      2.574
REMARK SMILES COCCNc1cc(C)nc2cc(C(=O)NCCCCCCNC(=O)c3ccc(-c4c5nc(c(-c6cccc(S(=O)(=O)[O-])c6F)c6ccc([nH]6)c(-c6cccc(S(=O)(=O)[O-])c6F)c6nc(c(-c7cccc(S(=O)(=O)[O-])c7F)c7ccc4[nH]7)C=C6)C=C5)cc3)ccc12
REMARK SMILES IDX 19 1 18 2 17 3 16 4 14 5 15 6 13 8 6 9 7 10 91 11 8 12 11 13
REMARK SMILES IDX 90 14 9 15 10 16 12 17 89 18 5 19 4 21 3 22 2 23 1 24 20 25
REMARK SMILES IDX 21 26 22 27 23 28 24 29 25 31 26 32 27 33 88 34 28 35 87 36
REMARK SMILES IDX 29 37 30 38 31 39 81 40 32 41 86 42 80 43 82 44 33 45 85 46
REMARK SMILES IDX 79 47 78 48 34 50 66 51 46 52 65 53 47 54 50 55 64 56 83 57
REMARK SMILES IDX 48 58 49 59 63 61 84 62 51 63 35 64 36 65 44 66 37 67 39 68
REMARK SMILES IDX 45 69 38 70 40 71 41 72 42 73 43 74 67 75 68 76 76 77 69 78
REMARK SMILES IDX 71 79 77 80 70 81 72 82 73 83 74 84 75 85 52 86 53 87 61 88
REMARK SMILES IDX 54 89 56 90 62 91 55 92 57 93 58 94 59 95 60 96
REMARK H PARENT 16 7 5 20 23 30 82 49 50 60
REMARK Flexibility Score: inf
ROOT
ATOM      1  C   UNL A   1      32.064  27.726  24.289  1.00  0.00     0.002 C 
ENDROOT
BRANCH   1   2
ATOM      2  C   UNL A   1      31.475  26.326  24.519  1.00  0.00     0.021 C 
BRANCH   2   3
ATOM      3  C   UNL A   1      30.684  25.816  23.312  1.00  0.00     0.116 C 
BRANCH   3   4
ATOM      4  N   UNL A   1      31.521  25.853  22.129  1.00  0.00    -0.352 N 
ATOM      5  C   UNL A   1      32.662  25.187  21.770  1.00  0.00     0.251 C 
ATOM      6  O   UNL A   1      33.170  25.495  20.689  1.00  0.00    -0.269 OA
ATOM      7  H   UNL A   1      31.205  26.485  21.444  1.00  0.00     0.163 HD
BRANCH   5   8
ATOM      8  C   UNL A   1      33.279  24.086  22.565  1.00  0.00     0.041 A 
ATOM      9  C   UNL A   1      34.720  21.013  25.105  1.00  0.00     0.045 A 
ATOM     10  C   UNL A   1      35.993  21.189  25.647  1.00  0.00     0.049 A 
ATOM     11  C   UNL A   1      34.221  21.999  24.223  1.00  0.00     0.023 A 
ATOM     12  C   UNL A   1      36.738  22.303  25.285  1.00  0.00     0.040 A 
ATOM     13  C   UNL A   1      35.063  23.071  23.884  1.00  0.00     0.073 A 
ATOM     14  C   UNL A   1      32.914  21.975  23.696  1.00  0.00     0.013 A 
ATOM     15  C   UNL A   1      38.080  22.575  25.897  1.00  0.00     0.067 C 
ATOM     16  N   UNL A   1      36.294  23.212  24.388  1.00  0.00    -0.253 NA
ATOM     17  C   UNL A   1      34.603  24.044  23.008  1.00  0.00     0.042 A 
ATOM     18  C   UNL A   1      32.442  23.018  22.902  1.00  0.00     0.014 A 
BRANCH   9  19
ATOM     19  N   UNL A   1      34.003  19.839  25.308  1.00  0.00    -0.382 N 
ATOM     20  H   UNL A   1      33.409  19.786  26.092  1.00  0.00     0.160 HD
BRANCH  19  21
ATOM     21  C   UNL A   1      34.082  18.686  24.424  1.00  0.00     0.141 C 
BRANCH  21  22
ATOM     22  C   UNL A   1      32.675  18.238  23.994  1.00  0.00     0.181 C 
BRANCH  22  23
ATOM     23  O   UNL A   1      31.967  17.516  25.012  1.00  0.00    -0.383 OA
ATOM     24  C   UNL A   1      32.730  16.475  25.608  1.00  0.00     0.194 C 
ENDBRANCH  22  23
ENDBRANCH  21  22
ENDBRANCH  19  21
ENDBRANCH   9  19
ENDBRANCH   5   8
ENDBRANCH   3   4
ENDBRANCH   2   3
ENDBRANCH   1   2
BRANCH   1  25
ATOM     25  C   UNL A   1      33.576  27.825  24.536  1.00  0.00     0.002 C 
BRANCH  25  26
ATOM     26  C   UNL A   1      34.037  29.160  25.127  1.00  0.00     0.021 C 
BRANCH  26  27
ATOM     27  C   UNL A   1      33.431  29.468  26.492  1.00  0.00     0.116 C 
BRANCH  27  28
ATOM     28  N   UNL A   1      33.292  30.904  26.696  1.00  0.00    -0.352 N 
ATOM     29  C   UNL A   1      33.964  31.718  27.571  1.00  0.00     0.251 C 
ATOM     30  H   UNL A   1      32.622  31.351  26.128  1.00  0.00     0.163 HD
ATOM     31  O   UNL A   1      33.547  32.848  27.816  1.00  0.00    -0.269 OA
BRANCH  29  32
ATOM     32  C   UNL A   1      35.191  31.219  28.219  1.00  0.00     0.039 A 
ATOM     33  C   UNL A   1      36.347  32.002  28.196  1.00  0.00     0.014 A 
ATOM     34  C   UNL A   1      35.182  29.983  28.871  1.00  0.00     0.014 A 
ATOM     35  C   UNL A   1      37.479  31.573  28.891  1.00  0.00     0.010 A 
ATOM     36  C   UNL A   1      36.284  29.595  29.623  1.00  0.00     0.010 A 
ATOM     37  C   UNL A   1      37.442  30.386  29.642  1.00  0.00    -0.014 A 
BRANCH  37  38
ATOM     38  C   UNL A   1      38.588  29.966  30.486  1.00  0.00     0.031 A 
ATOM     39  C   UNL A   1      38.781  30.563  31.851  1.00  0.00     0.074 A 
ATOM     40  C   UNL A   1      39.508  29.125  29.976  1.00  0.00     0.049 A 
ATOM     41  N   UNL A   1      39.759  30.380  32.700  1.00  0.00    -0.248 NA
ATOM     42  C   UNL A   1      37.753  31.510  32.313  1.00  0.00     0.031 C 
ATOM     43  C   UNL A   1      39.463  28.530  28.639  1.00  0.00     0.029 A 
ATOM     44  N   UNL A   1      40.678  28.646  30.512  1.00  0.00    -0.354 N 
ATOM     45  C   UNL A   1      39.482  31.209  33.780  1.00  0.00     0.074 A 
ATOM     46  C   UNL A   1      38.267  31.926  33.461  1.00  0.00     0.031 C 
ATOM     47  C   UNL A   1      40.545  27.755  28.464  1.00  0.00     0.029 A 
ATOM     48  C   UNL A   1      41.382  27.832  29.656  1.00  0.00     0.049 A 
ATOM     49  H   UNL A   1      40.983  28.865  31.422  1.00  0.00     0.167 HD
ATOM     50  C   UNL A   1      40.164  31.344  34.944  1.00  0.00     0.034 A 
ATOM     51  C   UNL A   1      42.574  27.224  29.812  1.00  0.00     0.034 A 
ATOM     52  C   UNL A   1      41.363  30.614  35.259  1.00  0.00     0.049 A 
ATOM     53  C   UNL A   1      43.321  27.401  31.105  1.00  0.00     0.074 A 
ATOM     54  C   UNL A   1      42.088  30.619  36.436  1.00  0.00     0.029 A 
ATOM     55  N   UNL A   1      42.025  29.763  34.386  1.00  0.00    -0.354 N 
ATOM     56  N   UNL A   1      42.969  28.072  32.176  1.00  0.00    -0.248 NA
ATOM     57  C   UNL A   1      44.614  26.715  31.224  1.00  0.00     0.031 C 
ATOM     58  C   UNL A   1      43.211  29.803  36.261  1.00  0.00     0.029 A 
ATOM     59  C   UNL A   1      43.163  29.256  34.988  1.00  0.00     0.049 A 
ATOM     60  H   UNL A   1      41.729  29.553  33.471  1.00  0.00     0.167 HD
ATOM     61  C   UNL A   1      43.979  27.859  33.108  1.00  0.00     0.074 A 
ATOM     62  C   UNL A   1      44.947  26.984  32.479  1.00  0.00     0.031 C 
ATOM     63  C   UNL A   1      44.098  28.352  34.365  1.00  0.00     0.034 A 
BRANCH  50  64
ATOM     64  C   UNL A   1      39.602  32.295  35.970  1.00  0.00     0.023 A 
ATOM     65  C   UNL A   1      38.650  31.833  36.903  1.00  0.00     0.012 A 
ATOM     66  C   UNL A   1      40.030  33.635  36.030  1.00  0.00     0.148 A 
ATOM     67  C   UNL A   1      38.094  32.700  37.842  1.00  0.00     0.002 A 
ATOM     68  C   UNL A   1      39.508  34.482  37.001  1.00  0.00     0.091 A 
ATOM     69  F   UNL A   1      40.921  34.065  35.124  1.00  0.00    -0.205 F 
ATOM     70  C   UNL A   1      38.529  34.022  37.896  1.00  0.00     0.022 A 
BRANCH  68  71
ATOM     71  S   UNL A   1      40.064  36.178  37.206  1.00  0.00     0.127 S 
ATOM     72  O   UNL A   1      41.485  35.988  37.496  1.00  0.00    -0.237 OA
ATOM     73  O   UNL A   1      39.782  36.756  35.893  1.00  0.00    -0.237 OA
ATOM     74  O   UNL A   1      39.270  36.730  38.295  1.00  0.00    -0.744 OA
ENDBRANCH  68  71
ENDBRANCH  50  64
BRANCH  51  75
ATOM     75  C   UNL A   1      43.102  26.335  28.738  1.00  0.00     0.023 A 
ATOM     76  C   UNL A   1      42.595  25.027  28.622  1.00  0.00     0.012 A 
ATOM     77  C   UNL A   1      44.070  26.782  27.818  1.00  0.00     0.148 A 
ATOM     78  C   UNL A   1      43.062  24.167  27.627  1.00  0.00     0.002 A 
ATOM     79  C   UNL A   1      44.492  25.939  26.796  1.00  0.00     0.091 A 
ATOM     80  F   UNL A   1      44.543  28.029  27.948  1.00  0.00    -0.205 F 
ATOM     81  C   UNL A   1      44.003  24.626  26.709  1.00  0.00     0.022 A 
BRANCH  79  82
ATOM     82  S   UNL A   1      45.610  26.476  25.496  1.00  0.00     0.127 S 
ATOM     83  O   UNL A   1      45.680  25.287  24.650  1.00  0.00    -0.237 OA
ATOM     84  O   UNL A   1      44.875  27.602  24.917  1.00  0.00    -0.237 OA
ATOM     85  O   UNL A   1      46.849  26.845  26.165  1.00  0.00    -0.744 OA
ENDBRANCH  79  82
ENDBRANCH  51  75
BRANCH  63  86
ATOM     86  C   UNL A   1      45.302  27.931  35.170  1.00  0.00     0.023 A 
ATOM     87  C   UNL A   1      46.439  28.759  35.219  1.00  0.00     0.012 A 
ATOM     88  C   UNL A   1      45.270  26.752  35.941  1.00  0.00     0.148 A 
ATOM     89  C   UNL A   1      47.539  28.407  36.000  1.00  0.00     0.002 A 
ATOM     90  C   UNL A   1      46.348  26.433  36.758  1.00  0.00     0.091 A 
ATOM     91  F   UNL A   1      44.184  25.969  35.867  1.00  0.00    -0.205 F 
ATOM     92  C   UNL A   1      47.489  27.252  36.778  1.00  0.00     0.022 A 
BRANCH  90  93
ATOM     93  S   UNL A   1      46.336  25.022  37.869  1.00  0.00     0.127 S 
ATOM     94  O   UNL A   1      47.764  24.826  38.116  1.00  0.00    -0.237 OA
ATOM     95  O   UNL A   1      45.585  25.540  39.014  1.00  0.00    -0.237 OA
ATOM     96  O   UNL A   1      45.677  23.943  37.146  1.00  0.00    -0.744 OA
ENDBRANCH  90  93
ENDBRANCH  63  86
ENDBRANCH  37  38
ENDBRANCH  29  32
ENDBRANCH  27  28
ENDBRANCH  26  27
ENDBRANCH  25  26
ENDBRANCH   1  25
TORSDOF 20
ENDMDL
MODEL 3
REMARK VINA RESULT:     -10.8      6.583     10.151
REMARK SMILES COCCNc1cc(C)nc2cc(C(=O)NCCCCCCNC(=O)c3ccc(-c4c5nc(c(-c6cccc(S(=O)(=O)[O-])c6F)c6ccc([nH]6)c(-c6cccc(S(=O)(=O)[O-])c6F)c6nc(c(-c7cccc(S(=O)(=O)[O-])c7F)c7ccc4[nH]7)C=C6)C=C5)cc3)ccc12
REMARK SMILES IDX 19 1 18 2 17 3 16 4 14 5 15 6 13 8 6 9 7 10 91 11 8 12 11 13
REMARK SMILES IDX 90 14 9 15 10 16 12 17 89 18 5 19 4 21 3 22 2 23 1 24 20 25
REMARK SMILES IDX 21 26 22 27 23 28 24 29 25 31 26 32 27 33 88 34 28 35 87 36
REMARK SMILES IDX 29 37 30 38 31 39 81 40 32 41 86 42 80 43 82 44 33 45 85 46
REMARK SMILES IDX 79 47 78 48 34 50 66 51 46 52 65 53 47 54 50 55 64 56 83 57
REMARK SMILES IDX 48 58 49 59 63 61 84 62 51 63 35 64 36 65 44 66 37 67 39 68
REMARK SMILES IDX 45 69 38 70 40 71 41 72 42 73 43 74 67 75 68 76 76 77 69 78
REMARK SMILES IDX 71 79 77 80 70 81 72 82 73 83 74 84 75 85 52 86 53 87 61 88
REMARK SMILES IDX 54 89 56 90 62 91 55 92 57 93 58 94 59 95 60 96
REMARK H PARENT 16 7 5 20 23 30 82 49 50 60
REMARK Flexibility Score: inf
ROOT
ATOM      1  C   UNL A   1      41.333  22.082  26.646  1.00  0.00     0.002 C 
ENDROOT
BRANCH   1   2
ATOM      2  C   UNL A   1      40.232  22.851  27.389  1.00  0.00     0.021 C 
BRANCH   2   3
ATOM      3  C   UNL A   1      39.101  23.301  26.460  1.00  0.00     0.116 C 
BRANCH   3   4
ATOM      4  N   UNL A   1      38.638  22.175  25.674  1.00  0.00    -0.352 N 
ATOM      5  C   UNL A   1      37.461  21.906  25.029  1.00  0.00     0.251 C 
ATOM      6  O   UNL A   1      37.366  20.804  24.482  1.00  0.00    -0.269 OA
ATOM      7  H   UNL A   1      39.306  21.457  25.586  1.00  0.00     0.163 HD
BRANCH   5   8
ATOM      8  C   UNL A   1      36.333  22.873  24.896  1.00  0.00     0.041 A 
ATOM      9  C   UNL A   1      32.888  25.335  24.719  1.00  0.00     0.045 A 
ATOM     10  C   UNL A   1      32.420  25.675  23.449  1.00  0.00     0.049 A 
ATOM     11  C   UNL A   1      34.057  24.547  24.819  1.00  0.00     0.023 A 
ATOM     12  C   UNL A   1      33.128  25.257  22.330  1.00  0.00     0.040 A 
ATOM     13  C   UNL A   1      34.727  24.204  23.632  1.00  0.00     0.073 A 
ATOM     14  C   UNL A   1      34.561  24.063  26.042  1.00  0.00     0.013 A 
ATOM     15  C   UNL A   1      32.626  25.532  20.944  1.00  0.00     0.067 C 
ATOM     16  N   UNL A   1      34.285  24.562  22.422  1.00  0.00    -0.253 NA
ATOM     17  C   UNL A   1      35.886  23.444  23.703  1.00  0.00     0.042 A 
ATOM     18  C   UNL A   1      35.667  23.215  26.076  1.00  0.00     0.014 A 
BRANCH   9  19
ATOM     19  N   UNL A   1      32.309  25.864  25.868  1.00  0.00    -0.382 N 
ATOM     20  H   UNL A   1      32.872  25.957  26.671  1.00  0.00     0.160 HD
BRANCH  19  21
ATOM     21  C   UNL A   1      30.920  26.286  25.947  1.00  0.00     0.141 C 
BRANCH  21  22
ATOM     22  C   UNL A   1      29.996  25.070  26.135  1.00  0.00     0.181 C 
BRANCH  22  23
ATOM     23  O   UNL A   1      30.473  24.133  27.111  1.00  0.00    -0.383 OA
ATOM     24  C   UNL A   1      29.763  22.902  27.112  1.00  0.00     0.194 C 
ENDBRANCH  22  23
ENDBRANCH  21  22
ENDBRANCH  19  21
ENDBRANCH   9  19
ENDBRANCH   5   8
ENDBRANCH   3   4
ENDBRANCH   2   3
ENDBRANCH   1   2
BRANCH   1  25
ATOM     25  C   UNL A   1      41.524  20.634  27.119  1.00  0.00     0.002 C 
BRANCH  25  26
ATOM     26  C   UNL A   1      41.829  19.634  26.001  1.00  0.00     0.021 C 
BRANCH  26  27
ATOM     27  C   UNL A   1      43.170  18.925  26.162  1.00  0.00     0.116 C 
BRANCH  27  28
ATOM     28  N   UNL A   1      43.896  18.874  24.899  1.00  0.00    -0.352 N 
ATOM     29  C   UNL A   1      44.410  19.907  24.159  1.00  0.00     0.251 C 
ATOM     30  H   UNL A   1      44.036  17.973  24.526  1.00  0.00     0.163 HD
ATOM     31  O   UNL A   1      44.753  19.728  22.993  1.00  0.00    -0.269 OA
BRANCH  29  32
ATOM     32  C   UNL A   1      44.541  21.239  24.780  1.00  0.00     0.039 A 
ATOM     33  C   UNL A   1      45.227  21.368  25.990  1.00  0.00     0.014 A 
ATOM     34  C   UNL A   1      44.004  22.361  24.144  1.00  0.00     0.014 A 
ATOM     35  C   UNL A   1      45.434  22.640  26.527  1.00  0.00     0.010 A 
ATOM     36  C   UNL A   1      44.277  23.630  24.641  1.00  0.00     0.010 A 
ATOM     37  C   UNL A   1      44.996  23.781  25.835  1.00  0.00    -0.014 A 
BRANCH  37  38
ATOM     38  C   UNL A   1      45.306  25.149  26.321  1.00  0.00     0.031 A 
ATOM     39  C   UNL A   1      44.204  26.047  26.807  1.00  0.00     0.074 A 
ATOM     40  C   UNL A   1      46.566  25.614  26.222  1.00  0.00     0.049 A 
ATOM     41  N   UNL A   1      44.267  27.294  27.195  1.00  0.00    -0.248 NA
ATOM     42  C   UNL A   1      42.848  25.476  26.839  1.00  0.00     0.031 C 
ATOM     43  C   UNL A   1      47.709  24.858  25.705  1.00  0.00     0.029 A 
ATOM     44  N   UNL A   1      47.093  26.844  26.525  1.00  0.00    -0.354 N 
ATOM     45  C   UNL A   1      42.961  27.667  27.486  1.00  0.00     0.074 A 
ATOM     46  C   UNL A   1      42.121  26.527  27.191  1.00  0.00     0.031 C 
ATOM     47  C   UNL A   1      48.804  25.634  25.742  1.00  0.00     0.029 A 
ATOM     48  C   UNL A   1      48.434  26.954  26.241  1.00  0.00     0.049 A 
ATOM     49  H   UNL A   1      46.562  27.578  26.910  1.00  0.00     0.167 HD
ATOM     50  C   UNL A   1      42.503  28.843  27.979  1.00  0.00     0.034 A 
ATOM     51  C   UNL A   1      49.269  28.004  26.360  1.00  0.00     0.034 A 
ATOM     52  C   UNL A   1      43.347  29.967  28.285  1.00  0.00     0.049 A 
ATOM     53  C   UNL A   1      48.736  29.305  26.894  1.00  0.00     0.074 A 
ATOM     54  C   UNL A   1      42.997  31.176  28.857  1.00  0.00     0.029 A 
ATOM     55  N   UNL A   1      44.709  30.027  28.026  1.00  0.00    -0.354 N 
ATOM     56  N   UNL A   1      47.525  29.593  27.305  1.00  0.00    -0.248 NA
ATOM     57  C   UNL A   1      49.689  30.417  27.006  1.00  0.00     0.031 C 
ATOM     58  C   UNL A   1      44.139  31.983  28.907  1.00  0.00     0.029 A 
ATOM     59  C   UNL A   1      45.209  31.261  28.404  1.00  0.00     0.049 A 
ATOM     60  H   UNL A   1      45.240  29.300  27.630  1.00  0.00     0.167 HD
ATOM     61  C   UNL A   1      47.579  30.906  27.760  1.00  0.00     0.074 A 
ATOM     62  C   UNL A   1      48.947  31.350  27.586  1.00  0.00     0.031 C 
ATOM     63  C   UNL A   1      46.584  31.677  28.264  1.00  0.00     0.034 A 
BRANCH  50  64
ATOM     64  C   UNL A   1      41.023  28.954  28.245  1.00  0.00     0.023 A 
ATOM     65  C   UNL A   1      40.136  29.189  27.174  1.00  0.00     0.012 A 
ATOM     66  C   UNL A   1      40.505  28.804  29.547  1.00  0.00     0.148 A 
ATOM     67  C   UNL A   1      38.767  29.326  27.399  1.00  0.00     0.002 A 
ATOM     68  C   UNL A   1      39.134  28.892  29.757  1.00  0.00     0.091 A 
ATOM     69  F   UNL A   1      41.362  28.600  30.558  1.00  0.00    -0.205 F 
ATOM     70  C   UNL A   1      38.266  29.168  28.688  1.00  0.00     0.022 A 
BRANCH  68  71
ATOM     71  S   UNL A   1      38.382  28.622  31.365  1.00  0.00     0.127 S 
ATOM     72  O   UNL A   1      36.974  28.896  31.082  1.00  0.00    -0.237 OA
ATOM     73  O   UNL A   1      38.690  27.214  31.618  1.00  0.00    -0.237 OA
ATOM     74  O   UNL A   1      39.032  29.556  32.273  1.00  0.00    -0.744 OA
ENDBRANCH  68  71
ENDBRANCH  50  64
BRANCH  51  75
ATOM     75  C   UNL A   1      50.715  27.846  26.032  1.00  0.00     0.023 A 
ATOM     76  C   UNL A   1      51.638  27.658  27.078  1.00  0.00     0.012 A 
ATOM     77  C   UNL A   1      51.175  27.847  24.701  1.00  0.00     0.148 A 
ATOM     78  C   UNL A   1      52.998  27.502  26.809  1.00  0.00     0.002 A 
ATOM     79  C   UNL A   1      52.524  27.638  24.436  1.00  0.00     0.091 A 
ATOM     80  F   UNL A   1      50.281  28.032  23.720  1.00  0.00    -0.205 F 
ATOM     81  C   UNL A   1      53.439  27.483  25.488  1.00  0.00     0.022 A 
BRANCH  79  82
ATOM     82  S   UNL A   1      53.171  27.478  22.767  1.00  0.00     0.127 S 
ATOM     83  O   UNL A   1      54.461  28.154  22.880  1.00  0.00    -0.237 OA
ATOM     84  O   UNL A   1      53.246  26.025  22.615  1.00  0.00    -0.237 OA
ATOM     85  O   UNL A   1      52.196  28.126  21.901  1.00  0.00    -0.744 OA
ENDBRANCH  79  82
ENDBRANCH  51  75
BRANCH  63  86
ATOM     86  C   UNL A   1      46.937  33.075  28.704  1.00  0.00     0.023 A 
ATOM     87  C   UNL A   1      47.348  33.313  30.029  1.00  0.00     0.012 A 
ATOM     88  C   UNL A   1      46.937  34.137  27.777  1.00  0.00     0.148 A 
ATOM     89  C   UNL A   1      47.726  34.592  30.434  1.00  0.00     0.002 A 
ATOM     90  C   UNL A   1      47.365  35.398  28.175  1.00  0.00     0.091 A 
ATOM     91  F   UNL A   1      46.527  33.893  26.524  1.00  0.00    -0.205 F 
ATOM     92  C   UNL A   1      47.747  35.630  29.505  1.00  0.00     0.022 A 
BRANCH  90  93
ATOM     93  S   UNL A   1      47.522  36.772  27.028  1.00  0.00     0.127 S 
ATOM     94  O   UNL A   1      47.471  37.920  27.932  1.00  0.00    -0.237 OA
ATOM     95  O   UNL A   1      48.834  36.525  26.430  1.00  0.00    -0.237 OA
ATOM     96  O   UNL A   1      46.401  36.659  26.105  1.00  0.00    -0.744 OA
ENDBRANCH  90  93
ENDBRANCH  63  86
ENDBRANCH  37  38
ENDBRANCH  29  32
ENDBRANCH  27  28
ENDBRANCH  26  27
ENDBRANCH  25  26
ENDBRANCH   1  25
TORSDOF 20
ENDMDL
