MODEL 1
REMARK VINA RESULT:     -11.3      0.000      0.000
REMARK SMILES CSc1ncccc1C(=O)N1CSC[C@H]1C(=O)NCCCCCCNC(=O)c1ccc(-c2c3nc(c(-c4cccc(S(=O)(=O)[O-])c4F)c4ccc([nH]4)c(-c4cccc(S(=O)(=O)[O-])c4F)c4nc(c(-c5cccc(S(=O)(=O)[O-])c5F)c5ccc2[nH]5)C=C4)C=C3)cc1
REMARK SMILES IDX 21 1 20 2 19 3 18 4 16 5 17 6 15 8 11 9 12 10 13 11 14 12
REMARK SMILES IDX 9 13 10 14 8 15 3 16 4 17 5 18 7 19 6 20 2 21 1 22 22 23
REMARK SMILES IDX 23 24 24 25 25 26 26 27 27 29 28 30 29 31 90 32 30 33 89 34
REMARK SMILES IDX 31 35 32 36 33 37 83 38 34 39 88 40 82 41 84 42 35 43 87 44
REMARK SMILES IDX 81 45 80 46 36 48 68 49 48 50 67 51 49 52 52 53 66 54 85 55
REMARK SMILES IDX 50 56 51 57 65 59 86 60 53 61 37 62 38 63 46 64 39 65 41 66
REMARK SMILES IDX 47 67 40 68 42 69 43 70 44 71 45 72 69 73 70 74 78 75 71 76
REMARK SMILES IDX 73 77 79 78 72 79 74 80 75 81 76 82 77 83 54 84 55 85 63 86
REMARK SMILES IDX 56 87 58 88 64 89 57 90 59 91 60 92 61 93 62 94
REMARK H PARENT 18 7 25 28 84 47 52 58
REMARK Flexibility Score: inf
ROOT
ATOM      1  C   UNL A   1      31.025  28.942  22.932  1.00  0.00     0.002 C 
ENDROOT
BRANCH   1   2
ATOM      2  C   UNL A   1      29.793  28.031  22.861  1.00  0.00     0.021 C 
BRANCH   2   3
ATOM      3  C   UNL A   1      30.002  26.673  23.517  1.00  0.00     0.116 C 
BRANCH   3   4
ATOM      4  N   UNL A   1      30.145  26.782  24.950  1.00  0.00    -0.354 N 
ATOM      5  C   UNL A   1      30.843  26.018  25.833  1.00  0.00     0.243 C 
ATOM      6  O   UNL A   1      31.000  26.496  26.964  1.00  0.00    -0.273 OA
ATOM      7  H   UNL A   1      29.656  27.534  25.355  1.00  0.00     0.163 HD
BRANCH   5   8
ATOM      8  C   UNL A   1      31.560  24.709  25.434  1.00  0.00     0.185 C 
ATOM      9  N   UNL A   1      32.833  24.374  26.098  1.00  0.00    -0.316 N 
ATOM     10  C   UNL A   1      32.782  23.227  26.981  1.00  0.00     0.190 C 
ATOM     11  S   UNL A   1      31.492  22.158  26.314  1.00  0.00    -0.138 SA
ATOM     12  C   UNL A   1      30.607  23.513  25.485  1.00  0.00     0.106 C 
BRANCH   9  13
ATOM     13  C   UNL A   1      33.970  25.033  25.628  1.00  0.00     0.257 C 
ATOM     14  O   UNL A   1      34.062  26.253  25.738  1.00  0.00    -0.269 OA
BRANCH  13  15
ATOM     15  C   UNL A   1      35.001  24.296  24.841  1.00  0.00     0.072 A 
ATOM     16  C   UNL A   1      34.823  23.891  23.512  1.00  0.00     0.108 A 
ATOM     17  N   UNL A   1      35.772  23.178  22.840  1.00  0.00    -0.249 NA
ATOM     18  C   UNL A   1      36.888  22.805  23.500  1.00  0.00     0.112 A 
ATOM     19  C   UNL A   1      36.147  23.824  25.506  1.00  0.00     0.018 A 
ATOM     20  C   UNL A   1      37.113  23.091  24.828  1.00  0.00     0.021 A 
BRANCH  16  21
ATOM     21  S   UNL A   1      33.342  24.118  22.545  1.00  0.00    -0.109 SA
ATOM     22  C   UNL A   1      32.701  22.436  22.591  1.00  0.00     0.092 C 
ENDBRANCH  16  21
ENDBRANCH  13  15
ENDBRANCH   9  13
ENDBRANCH   5   8
ENDBRANCH   3   4
ENDBRANCH   2   3
ENDBRANCH   1   2
BRANCH   1  23
ATOM     23  C   UNL A   1      31.369  29.462  24.333  1.00  0.00     0.002 C 
BRANCH  23  24
ATOM     24  C   UNL A   1      32.851  29.385  24.715  1.00  0.00     0.021 C 
BRANCH  24  25
ATOM     25  C   UNL A   1      33.141  29.641  26.190  1.00  0.00     0.116 C 
BRANCH  25  26
ATOM     26  N   UNL A   1      32.986  31.043  26.533  1.00  0.00    -0.352 N 
ATOM     27  C   UNL A   1      33.694  31.806  27.423  1.00  0.00     0.251 C 
ATOM     28  H   UNL A   1      32.265  31.515  26.056  1.00  0.00     0.163 HD
ATOM     29  O   UNL A   1      33.267  32.916  27.740  1.00  0.00    -0.269 OA
BRANCH  27  30
ATOM     30  C   UNL A   1      34.962  31.309  27.999  1.00  0.00     0.039 A 
ATOM     31  C   UNL A   1      34.991  30.027  28.554  1.00  0.00     0.014 A 
ATOM     32  C   UNL A   1      36.101  32.119  28.052  1.00  0.00     0.014 A 
ATOM     33  C   UNL A   1      36.160  29.555  29.152  1.00  0.00     0.010 A 
ATOM     34  C   UNL A   1      37.288  31.618  28.581  1.00  0.00     0.010 A 
ATOM     35  C   UNL A   1      37.320  30.346  29.168  1.00  0.00    -0.014 A 
BRANCH  35  36
ATOM     36  C   UNL A   1      38.554  29.869  29.840  1.00  0.00     0.031 A 
ATOM     37  C   UNL A   1      38.916  30.381  31.210  1.00  0.00     0.074 A 
ATOM     38  C   UNL A   1      39.377  29.016  29.200  1.00  0.00     0.049 A 
ATOM     39  N   UNL A   1      39.943  30.074  31.961  1.00  0.00    -0.248 NA
ATOM     40  C   UNL A   1      38.025  31.392  31.804  1.00  0.00     0.031 C 
ATOM     41  C   UNL A   1      39.184  28.520  27.837  1.00  0.00     0.029 A 
ATOM     42  N   UNL A   1      40.549  28.429  29.607  1.00  0.00    -0.354 N 
ATOM     43  C   UNL A   1      39.841  30.875  33.092  1.00  0.00     0.074 A 
ATOM     44  C   UNL A   1      38.676  31.714  32.912  1.00  0.00     0.031 C 
ATOM     45  C   UNL A   1      40.197  27.694  27.524  1.00  0.00     0.029 A 
ATOM     46  C   UNL A   1      41.114  27.613  28.656  1.00  0.00     0.049 A 
ATOM     47  H   UNL A   1      40.945  28.577  30.495  1.00  0.00     0.167 HD
ATOM     48  C   UNL A   1      40.622  30.890  34.198  1.00  0.00     0.034 A 
ATOM     49  C   UNL A   1      42.240  26.875  28.698  1.00  0.00     0.034 A 
ATOM     50  C   UNL A   1      41.747  30.016  34.397  1.00  0.00     0.049 A 
ATOM     51  C   UNL A   1      43.042  26.840  29.971  1.00  0.00     0.074 A 
ATOM     52  C   UNL A   1      42.551  29.886  35.515  1.00  0.00     0.029 A 
ATOM     53  N   UNL A   1      42.225  29.119  33.455  1.00  0.00    -0.354 N 
ATOM     54  N   UNL A   1      42.835  27.483  31.096  1.00  0.00    -0.248 NA
ATOM     55  C   UNL A   1      44.202  25.939  29.999  1.00  0.00     0.031 C 
ATOM     56  C   UNL A   1      43.526  28.918  35.242  1.00  0.00     0.029 A 
ATOM     57  C   UNL A   1      43.312  28.430  33.964  1.00  0.00     0.049 A 
ATOM     58  H   UNL A   1      41.847  28.991  32.555  1.00  0.00     0.167 HD
ATOM     59  C   UNL A   1      43.812  27.034  31.977  1.00  0.00     0.074 A 
ATOM     60  C   UNL A   1      44.596  26.048  31.261  1.00  0.00     0.031 C 
ATOM     61  C   UNL A   1      44.047  27.412  33.258  1.00  0.00     0.034 A 
BRANCH  48  62
ATOM     62  C   UNL A   1      40.249  31.844  35.305  1.00  0.00     0.023 A 
ATOM     63  C   UNL A   1      40.919  33.080  35.413  1.00  0.00     0.012 A 
ATOM     64  C   UNL A   1      39.215  31.540  36.211  1.00  0.00     0.148 A 
ATOM     65  C   UNL A   1      40.597  33.980  36.428  1.00  0.00     0.002 A 
ATOM     66  C   UNL A   1      38.866  32.462  37.192  1.00  0.00     0.091 A 
ATOM     67  F   UNL A   1      38.603  30.351  36.110  1.00  0.00    -0.205 F 
ATOM     68  C   UNL A   1      39.564  33.676  37.310  1.00  0.00     0.022 A 
BRANCH  66  69
ATOM     69  S   UNL A   1      37.498  32.196  38.325  1.00  0.00     0.127 S 
ATOM     70  O   UNL A   1      38.042  32.726  39.575  1.00  0.00    -0.237 OA
ATOM     71  O   UNL A   1      36.439  33.012  37.728  1.00  0.00    -0.237 OA
ATOM     72  O   UNL A   1      37.238  30.764  38.310  1.00  0.00    -0.744 OA
ENDBRANCH  66  69
ENDBRANCH  48  62
BRANCH  49  73
ATOM     73  C   UNL A   1      42.617  26.031  27.528  1.00  0.00     0.023 A 
ATOM     74  C   UNL A   1      43.467  26.561  26.539  1.00  0.00     0.012 A 
ATOM     75  C   UNL A   1      42.170  24.702  27.411  1.00  0.00     0.148 A 
ATOM     76  C   UNL A   1      43.840  25.793  25.435  1.00  0.00     0.002 A 
ATOM     77  C   UNL A   1      42.589  23.924  26.337  1.00  0.00     0.091 A 
ATOM     78  F   UNL A   1      41.355  24.219  28.360  1.00  0.00    -0.205 F 
ATOM     79  C   UNL A   1      43.410  24.472  25.340  1.00  0.00     0.022 A 
BRANCH  77  80
ATOM     80  S   UNL A   1      42.193  22.177  26.206  1.00  0.00     0.127 S 
ATOM     81  O   UNL A   1      42.662  21.666  27.494  1.00  0.00    -0.237 OA
ATOM     82  O   UNL A   1      40.737  22.209  26.051  1.00  0.00    -0.237 OA
ATOM     83  O   UNL A   1      42.910  21.697  25.036  1.00  0.00    -0.744 OA
ENDBRANCH  77  80
ENDBRANCH  49  73
BRANCH  61  84
ATOM     84  C   UNL A   1      45.175  26.729  33.988  1.00  0.00     0.023 A 
ATOM     85  C   UNL A   1      46.486  27.234  33.887  1.00  0.00     0.012 A 
ATOM     86  C   UNL A   1      44.923  25.619  34.817  1.00  0.00     0.148 A 
ATOM     87  C   UNL A   1      47.537  26.618  34.566  1.00  0.00     0.002 A 
ATOM     88  C   UNL A   1      45.967  25.041  35.531  1.00  0.00     0.091 A 
ATOM     89  F   UNL A   1      43.674  25.137  34.886  1.00  0.00    -0.205 F 
ATOM     90  C   UNL A   1      47.276  25.530  35.396  1.00  0.00     0.022 A 
BRANCH  88  91
ATOM     91  S   UNL A   1      45.695  23.700  36.695  1.00  0.00     0.127 S 
ATOM     92  O   UNL A   1      47.051  23.439  37.174  1.00  0.00    -0.237 OA
ATOM     93  O   UNL A   1      44.808  24.317  37.684  1.00  0.00    -0.237 OA
ATOM     94  O   UNL A   1      45.078  22.629  35.925  1.00  0.00    -0.744 OA
ENDBRANCH  88  91
ENDBRANCH  61  84
ENDBRANCH  35  36
ENDBRANCH  27  30
ENDBRANCH  25  26
ENDBRANCH  24  25
ENDBRANCH  23  24
ENDBRANCH   1  23
TORSDOF 19
ENDMDL
MODEL 2
REMARK VINA RESULT:     -11.2      2.221      2.916
REMARK SMILES CSc1ncccc1C(=O)N1CSC[C@H]1C(=O)NCCCCCCNC(=O)c1ccc(-c2c3nc(c(-c4cccc(S(=O)(=O)[O-])c4F)c4ccc([nH]4)c(-c4cccc(S(=O)(=O)[O-])c4F)c4nc(c(-c5cccc(S(=O)(=O)[O-])c5F)c5ccc2[nH]5)C=C4)C=C3)cc1
REMARK SMILES IDX 21 1 20 2 19 3 18 4 16 5 17 6 15 8 11 9 12 10 13 11 14 12
REMARK SMILES IDX 9 13 10 14 8 15 3 16 4 17 5 18 7 19 6 20 2 21 1 22 22 23
REMARK SMILES IDX 23 24 24 25 25 26 26 27 27 29 28 30 29 31 90 32 30 33 89 34
REMARK SMILES IDX 31 35 32 36 33 37 83 38 34 39 88 40 82 41 84 42 35 43 87 44
REMARK SMILES IDX 81 45 80 46 36 48 68 49 48 50 67 51 49 52 52 53 66 54 85 55
REMARK SMILES IDX 50 56 51 57 65 59 86 60 53 61 37 62 38 63 46 64 39 65 41 66
REMARK SMILES IDX 47 67 40 68 42 69 43 70 44 71 45 72 69 73 70 74 78 75 71 76
REMARK SMILES IDX 73 77 79 78 72 79 74 80 75 81 76 82 77 83 54 84 55 85 63 86
REMARK SMILES IDX 56 87 58 88 64 89 57 90 59 91 60 92 61 93 62 94
REMARK H PARENT 18 7 25 28 84 47 52 58
REMARK Flexibility Score: inf
ROOT
ATOM      1  C   UNL A   1      33.774  28.493  23.326  1.00  0.00     0.002 C 
ENDROOT
BRANCH   1   2
ATOM      2  C   UNL A   1      32.885  27.475  22.601  1.00  0.00     0.021 C 
BRANCH   2   3
ATOM      3  C   UNL A   1      33.477  26.073  22.557  1.00  0.00     0.116 C 
BRANCH   3   4
ATOM      4  N   UNL A   1      34.079  25.701  23.816  1.00  0.00    -0.354 N 
ATOM      5  C   UNL A   1      33.670  24.823  24.772  1.00  0.00     0.243 C 
ATOM      6  O   UNL A   1      34.512  24.510  25.622  1.00  0.00    -0.273 OA
ATOM      7  H   UNL A   1      34.927  26.159  24.017  1.00  0.00     0.163 HD
BRANCH   5   8
ATOM      8  C   UNL A   1      32.301  24.106  24.728  1.00  0.00     0.185 C 
ATOM      9  N   UNL A   1      32.269  22.642  24.893  1.00  0.00    -0.316 N 
ATOM     10  C   UNL A   1      31.662  22.176  26.122  1.00  0.00     0.190 C 
ATOM     11  S   UNL A   1      30.448  23.432  26.571  1.00  0.00    -0.138 SA
ATOM     12  C   UNL A   1      31.296  24.766  25.673  1.00  0.00     0.106 C 
BRANCH   9  13
ATOM     13  C   UNL A   1      32.600  21.883  23.769  1.00  0.00     0.257 C 
ATOM     14  O   UNL A   1      32.440  22.350  22.644  1.00  0.00    -0.269 OA
BRANCH  13  15
ATOM     15  C   UNL A   1      32.987  20.450  23.911  1.00  0.00     0.072 A 
ATOM     16  C   UNL A   1      34.141  20.018  24.578  1.00  0.00     0.108 A 
ATOM     17  N   UNL A   1      34.486  18.700  24.648  1.00  0.00    -0.249 NA
ATOM     18  C   UNL A   1      33.718  17.797  24.004  1.00  0.00     0.112 A 
ATOM     19  C   UNL A   1      32.260  19.481  23.198  1.00  0.00     0.018 A 
ATOM     20  C   UNL A   1      32.610  18.137  23.261  1.00  0.00     0.021 A 
BRANCH  16  21
ATOM     21  S   UNL A   1      35.374  21.075  25.314  1.00  0.00    -0.109 SA
ATOM     22  C   UNL A   1      36.851  20.121  24.923  1.00  0.00     0.092 C 
ENDBRANCH  16  21
ENDBRANCH  13  15
ENDBRANCH   9  13
ENDBRANCH   5   8
ENDBRANCH   3   4
ENDBRANCH   2   3
ENDBRANCH   1   2
BRANCH   1  23
ATOM     23  C   UNL A   1      33.259  28.944  24.699  1.00  0.00     0.002 C 
BRANCH  23  24
ATOM     24  C   UNL A   1      34.039  28.400  25.901  1.00  0.00     0.021 C 
BRANCH  24  25
ATOM     25  C   UNL A   1      33.453  28.771  27.259  1.00  0.00     0.116 C 
BRANCH  25  26
ATOM     26  N   UNL A   1      33.485  30.206  27.484  1.00  0.00    -0.352 N 
ATOM     27  C   UNL A   1      34.422  30.965  28.132  1.00  0.00     0.251 C 
ATOM     28  H   UNL A   1      32.719  30.705  27.118  1.00  0.00     0.163 HD
ATOM     29  O   UNL A   1      34.161  32.134  28.415  1.00  0.00    -0.269 OA
BRANCH  27  30
ATOM     30  C   UNL A   1      35.739  30.395  28.487  1.00  0.00     0.039 A 
ATOM     31  C   UNL A   1      35.871  29.712  29.698  1.00  0.00     0.014 A 
ATOM     32  C   UNL A   1      36.856  30.583  27.665  1.00  0.00     0.014 A 
ATOM     33  C   UNL A   1      37.117  29.211  30.081  1.00  0.00     0.010 A 
ATOM     34  C   UNL A   1      38.080  30.018  28.013  1.00  0.00     0.010 A 
ATOM     35  C   UNL A   1      38.231  29.357  29.240  1.00  0.00    -0.014 A 
BRANCH  35  36
ATOM     36  C   UNL A   1      39.568  28.866  29.659  1.00  0.00     0.031 A 
ATOM     37  C   UNL A   1      40.311  29.555  30.774  1.00  0.00     0.074 A 
ATOM     38  C   UNL A   1      40.135  27.834  29.006  1.00  0.00     0.049 A 
ATOM     39  N   UNL A   1      41.480  29.266  31.288  1.00  0.00    -0.248 NA
ATOM     40  C   UNL A   1      39.675  30.741  31.371  1.00  0.00     0.031 C 
ATOM     41  C   UNL A   1      39.557  27.143  27.853  1.00  0.00     0.029 A 
ATOM     42  N   UNL A   1      41.334  27.198  29.210  1.00  0.00    -0.354 N 
ATOM     43  C   UNL A   1      41.733  30.249  32.237  1.00  0.00     0.074 A 
ATOM     44  C   UNL A   1      40.616  31.169  32.199  1.00  0.00     0.031 C 
ATOM     45  C   UNL A   1      40.396  26.172  27.458  1.00  0.00     0.029 A 
ATOM     46  C   UNL A   1      41.575  26.179  28.319  1.00  0.00     0.049 A 
ATOM     47  H   UNL A   1      41.961  27.447  29.926  1.00  0.00     0.167 HD
ATOM     48  C   UNL A   1      42.779  30.361  33.089  1.00  0.00     0.034 A 
ATOM     49  C   UNL A   1      42.623  25.340  28.215  1.00  0.00     0.034 A 
ATOM     50  C   UNL A   1      43.859  29.414  33.161  1.00  0.00     0.049 A 
ATOM     51  C   UNL A   1      43.731  25.428  29.230  1.00  0.00     0.074 A 
ATOM     52  C   UNL A   1      44.922  29.383  34.046  1.00  0.00     0.029 A 
ATOM     53  N   UNL A   1      44.013  28.328  32.315  1.00  0.00    -0.354 N 
ATOM     54  N   UNL A   1      43.871  26.267  30.229  1.00  0.00    -0.248 NA
ATOM     55  C   UNL A   1      44.798  24.423  29.136  1.00  0.00     0.031 C 
ATOM     56  C   UNL A   1      45.727  28.284  33.725  1.00  0.00     0.029 A 
ATOM     57  C   UNL A   1      45.151  27.617  32.656  1.00  0.00     0.049 A 
ATOM     58  H   UNL A   1      43.402  28.094  31.579  1.00  0.00     0.167 HD
ATOM     59  C   UNL A   1      45.017  25.866  30.906  1.00  0.00     0.074 A 
ATOM     60  C   UNL A   1      45.519  24.696  30.215  1.00  0.00     0.031 C 
ATOM     61  C   UNL A   1      45.607  26.422  31.993  1.00  0.00     0.034 A 
BRANCH  48  62
ATOM     62  C   UNL A   1      42.774  31.520  34.054  1.00  0.00     0.023 A 
ATOM     63  C   UNL A   1      43.379  32.738  33.682  1.00  0.00     0.012 A 
ATOM     64  C   UNL A   1      42.140  31.421  35.308  1.00  0.00     0.148 A 
ATOM     65  C   UNL A   1      43.392  33.824  34.555  1.00  0.00     0.002 A 
ATOM     66  C   UNL A   1      42.115  32.524  36.155  1.00  0.00     0.091 A 
ATOM     67  F   UNL A   1      41.589  30.249  35.657  1.00  0.00    -0.205 F 
ATOM     68  C   UNL A   1      42.751  33.721  35.786  1.00  0.00     0.022 A 
BRANCH  66  69
ATOM     69  S   UNL A   1      41.247  32.514  37.728  1.00  0.00     0.127 S 
ATOM     70  O   UNL A   1      42.077  31.605  38.517  1.00  0.00    -0.237 OA
ATOM     71  O   UNL A   1      41.327  33.918  38.133  1.00  0.00    -0.237 OA
ATOM     72  O   UNL A   1      39.900  32.043  37.439  1.00  0.00    -0.744 OA
ENDBRANCH  66  69
ENDBRANCH  48  62
BRANCH  49  73
ATOM     73  C   UNL A   1      42.622  24.278  27.169  1.00  0.00     0.023 A 
ATOM     74  C   UNL A   1      43.306  24.500  25.958  1.00  0.00     0.012 A 
ATOM     75  C   UNL A   1      41.982  23.043  27.380  1.00  0.00     0.148 A 
ATOM     76  C   UNL A   1      43.325  23.523  24.963  1.00  0.00     0.002 A 
ATOM     77  C   UNL A   1      42.052  22.052  26.407  1.00  0.00     0.091 A 
ATOM     78  F   UNL A   1      41.330  22.855  28.537  1.00  0.00    -0.205 F 
ATOM     79  C   UNL A   1      42.708  22.296  25.191  1.00  0.00     0.022 A 
BRANCH  77  80
ATOM     80  S   UNL A   1      41.401  20.399  26.672  1.00  0.00     0.127 S 
ATOM     81  O   UNL A   1      42.094  19.997  27.895  1.00  0.00    -0.237 OA
ATOM     82  O   UNL A   1      39.969  20.662  26.834  1.00  0.00    -0.237 OA
ATOM     83  O   UNL A   1      41.740  19.646  25.476  1.00  0.00    -0.744 OA
ENDBRANCH  77  80
ENDBRANCH  49  73
BRANCH  61  84
ATOM     84  C   UNL A   1      46.843  25.750  32.533  1.00  0.00     0.023 A 
ATOM     85  C   UNL A   1      48.114  26.126  32.054  1.00  0.00     0.012 A 
ATOM     86  C   UNL A   1      46.746  24.785  33.554  1.00  0.00     0.148 A 
ATOM     87  C   UNL A   1      49.266  25.520  32.553  1.00  0.00     0.002 A 
ATOM     88  C   UNL A   1      47.903  24.222  34.081  1.00  0.00     0.091 A 
ATOM     89  F   UNL A   1      45.529  24.423  33.984  1.00  0.00    -0.205 F 
ATOM     90  C   UNL A   1      49.162  24.577  33.573  1.00  0.00     0.022 A 
BRANCH  88  91
ATOM     91  S   UNL A   1      47.856  23.075  35.464  1.00  0.00     0.127 S 
ATOM     92  O   UNL A   1      47.053  23.813  36.437  1.00  0.00    -0.237 OA
ATOM     93  O   UNL A   1      47.191  21.908  34.883  1.00  0.00    -0.237 OA
ATOM     94  O   UNL A   1      49.247  22.848  35.834  1.00  0.00    -0.744 OA
ENDBRANCH  88  91
ENDBRANCH  61  84
ENDBRANCH  35  36
ENDBRANCH  27  30
ENDBRANCH  25  26
ENDBRANCH  24  25
ENDBRANCH  23  24
ENDBRANCH   1  23
TORSDOF 19
ENDMDL
MODEL 3
REMARK VINA RESULT:     -11.0      1.991      2.962
REMARK SMILES CSc1ncccc1C(=O)N1CSC[C@H]1C(=O)NCCCCCCNC(=O)c1ccc(-c2c3nc(c(-c4cccc(S(=O)(=O)[O-])c4F)c4ccc([nH]4)c(-c4cccc(S(=O)(=O)[O-])c4F)c4nc(c(-c5cccc(S(=O)(=O)[O-])c5F)c5ccc2[nH]5)C=C4)C=C3)cc1
REMARK SMILES IDX 21 1 20 2 19 3 18 4 16 5 17 6 15 8 11 9 12 10 13 11 14 12
REMARK SMILES IDX 9 13 10 14 8 15 3 16 4 17 5 18 7 19 6 20 2 21 1 22 22 23
REMARK SMILES IDX 23 24 24 25 25 26 26 27 27 29 28 30 29 31 90 32 30 33 89 34
REMARK SMILES IDX 31 35 32 36 33 37 83 38 34 39 88 40 82 41 84 42 35 43 87 44
REMARK SMILES IDX 81 45 80 46 36 48 68 49 48 50 67 51 49 52 52 53 66 54 85 55
REMARK SMILES IDX 50 56 51 57 65 59 86 60 53 61 37 62 38 63 46 64 39 65 41 66
REMARK SMILES IDX 47 67 40 68 42 69 43 70 44 71 45 72 69 73 70 74 78 75 71 76
REMARK SMILES IDX 73 77 79 78 72 79 74 80 75 81 76 82 77 83 54 84 55 85 63 86
REMARK SMILES IDX 56 87 58 88 64 89 57 90 59 91 60 92 61 93 62 94
REMARK H PARENT 18 7 25 28 84 47 52 58
REMARK Flexibility Score: inf
ROOT
ATOM      1  C   UNL A   1      30.871  26.378  26.082  1.00  0.00     0.002 C 
ENDROOT
BRANCH   1   2
ATOM      2  C   UNL A   1      31.682  25.230  25.470  1.00  0.00     0.021 C 
BRANCH   2   3
ATOM      3  C   UNL A   1      33.182  25.357  25.696  1.00  0.00     0.116 C 
BRANCH   3   4
ATOM      4  N   UNL A   1      33.934  25.081  24.494  1.00  0.00    -0.354 N 
ATOM      5  C   UNL A   1      34.875  24.135  24.231  1.00  0.00     0.243 C 
ATOM      6  O   UNL A   1      35.161  23.965  23.040  1.00  0.00    -0.273 OA
ATOM      7  H   UNL A   1      33.732  25.679  23.738  1.00  0.00     0.163 HD
BRANCH   5   8
ATOM      8  C   UNL A   1      35.446  23.191  25.313  1.00  0.00     0.185 C 
ATOM      9  N   UNL A   1      35.342  21.736  25.102  1.00  0.00    -0.316 N 
ATOM     10  C   UNL A   1      36.600  21.057  24.873  1.00  0.00     0.190 C 
ATOM     11  S   UNL A   1      37.841  22.027  25.750  1.00  0.00    -0.138 SA
ATOM     12  C   UNL A   1      36.881  23.569  25.683  1.00  0.00     0.106 C 
BRANCH   9  13
ATOM     13  C   UNL A   1      34.102  21.155  25.378  1.00  0.00     0.257 C 
ATOM     14  O   UNL A   1      33.765  20.953  26.541  1.00  0.00    -0.269 OA
BRANCH  13  15
ATOM     15  C   UNL A   1      33.254  20.623  24.273  1.00  0.00     0.072 A 
ATOM     16  C   UNL A   1      33.214  19.272  23.904  1.00  0.00     0.108 A 
ATOM     17  N   UNL A   1      32.460  18.830  22.857  1.00  0.00    -0.249 NA
ATOM     18  C   UNL A   1      31.779  19.735  22.124  1.00  0.00     0.112 A 
ATOM     19  C   UNL A   1      32.585  21.534  23.437  1.00  0.00     0.018 A 
ATOM     20  C   UNL A   1      31.819  21.090  22.366  1.00  0.00     0.021 A 
BRANCH  16  21
ATOM     21  S   UNL A   1      34.194  17.968  24.624  1.00  0.00    -0.109 SA
ATOM     22  C   UNL A   1      32.880  16.999  25.384  1.00  0.00     0.092 C 
ENDBRANCH  16  21
ENDBRANCH  13  15
ENDBRANCH   9  13
ENDBRANCH   5   8
ENDBRANCH   3   4
ENDBRANCH   2   3
ENDBRANCH   1   2
BRANCH   1  23
ATOM     23  C   UNL A   1      31.707  27.530  26.656  1.00  0.00     0.002 C 
BRANCH  23  24
ATOM     24  C   UNL A   1      31.524  28.882  25.957  1.00  0.00     0.021 C 
BRANCH  24  25
ATOM     25  C   UNL A   1      32.793  29.722  25.858  1.00  0.00     0.116 C 
BRANCH  25  26
ATOM     26  N   UNL A   1      32.549  31.107  26.221  1.00  0.00    -0.352 N 
ATOM     27  C   UNL A   1      33.177  31.885  27.156  1.00  0.00     0.251 C 
ATOM     28  H   UNL A   1      31.825  31.551  25.723  1.00  0.00     0.163 HD
ATOM     29  O   UNL A   1      32.680  32.964  27.477  1.00  0.00    -0.269 OA
BRANCH  27  30
ATOM     30  C   UNL A   1      34.444  31.442  27.777  1.00  0.00     0.039 A 
ATOM     31  C   UNL A   1      34.556  30.115  28.201  1.00  0.00     0.014 A 
ATOM     32  C   UNL A   1      35.495  32.338  28.001  1.00  0.00     0.014 A 
ATOM     33  C   UNL A   1      35.722  29.685  28.838  1.00  0.00     0.010 A 
ATOM     34  C   UNL A   1      36.684  31.889  28.570  1.00  0.00     0.010 A 
ATOM     35  C   UNL A   1      36.797  30.569  29.025  1.00  0.00    -0.014 A 
BRANCH  35  36
ATOM     36  C   UNL A   1      38.022  30.132  29.741  1.00  0.00     0.031 A 
ATOM     37  C   UNL A   1      38.278  30.594  31.152  1.00  0.00     0.074 A 
ATOM     38  C   UNL A   1      38.927  29.364  29.107  1.00  0.00     0.049 A 
ATOM     39  N   UNL A   1      39.282  30.310  31.942  1.00  0.00    -0.248 NA
ATOM     40  C   UNL A   1      37.297  31.518  31.743  1.00  0.00     0.031 C 
ATOM     41  C   UNL A   1      38.838  28.927  27.713  1.00  0.00     0.029 A 
ATOM     42  N   UNL A   1      40.111  28.826  29.549  1.00  0.00    -0.354 N 
ATOM     43  C   UNL A   1      39.072  31.045  33.104  1.00  0.00     0.074 A 
ATOM     44  C   UNL A   1      37.868  31.821  32.900  1.00  0.00     0.031 C 
ATOM     45  C   UNL A   1      39.914  28.180  27.417  1.00  0.00     0.029 A 
ATOM     46  C   UNL A   1      40.775  28.096  28.593  1.00  0.00     0.049 A 
ATOM     47  H   UNL A   1      40.451  28.953  30.464  1.00  0.00     0.167 HD
ATOM     48  C   UNL A   1      39.792  31.049  34.250  1.00  0.00     0.034 A 
ATOM     49  C   UNL A   1      41.941  27.425  28.662  1.00  0.00     0.034 A 
ATOM     50  C   UNL A   1      40.957  30.235  34.469  1.00  0.00     0.049 A 
ATOM     51  C   UNL A   1      42.676  27.372  29.973  1.00  0.00     0.074 A 
ATOM     52  C   UNL A   1      41.708  30.095  35.622  1.00  0.00     0.029 A 
ATOM     53  N   UNL A   1      41.539  29.418  33.512  1.00  0.00    -0.354 N 
ATOM     54  N   UNL A   1      42.371  27.943  31.115  1.00  0.00    -0.248 NA
ATOM     55  C   UNL A   1      43.886  26.541  30.023  1.00  0.00     0.031 C 
ATOM     56  C   UNL A   1      42.754  29.203  35.357  1.00  0.00     0.029 A 
ATOM     57  C   UNL A   1      42.638  28.768  34.047  1.00  0.00     0.049 A 
ATOM     58  H   UNL A   1      41.217  29.313  32.588  1.00  0.00     0.167 HD
ATOM     59  C   UNL A   1      43.326  27.509  32.026  1.00  0.00     0.074 A 
ATOM     60  C   UNL A   1      44.206  26.609  31.308  1.00  0.00     0.031 C 
ATOM     61  C   UNL A   1      43.471  27.833  33.334  1.00  0.00     0.034 A 
BRANCH  48  62
ATOM     62  C   UNL A   1      39.303  31.922  35.379  1.00  0.00     0.023 A 
ATOM     63  C   UNL A   1      38.367  31.409  36.300  1.00  0.00     0.012 A 
ATOM     64  C   UNL A   1      39.795  33.230  35.554  1.00  0.00     0.148 A 
ATOM     65  C   UNL A   1      37.895  32.195  37.350  1.00  0.00     0.002 A 
ATOM     66  C   UNL A   1      39.356  33.992  36.631  1.00  0.00     0.091 A 
ATOM     67  F   UNL A   1      40.667  33.712  34.656  1.00  0.00    -0.205 F 
ATOM     68  C   UNL A   1      38.398  33.482  37.522  1.00  0.00     0.022 A 
BRANCH  66  69
ATOM     69  S   UNL A   1      40.002  35.632  36.982  1.00  0.00     0.127 S 
ATOM     70  O   UNL A   1      39.310  35.962  38.226  1.00  0.00    -0.237 OA
ATOM     71  O   UNL A   1      41.435  35.372  37.133  1.00  0.00    -0.237 OA
ATOM     72  O   UNL A   1      39.654  36.454  35.832  1.00  0.00    -0.744 OA
ENDBRANCH  66  69
ENDBRANCH  48  62
BRANCH  49  73
ATOM     73  C   UNL A   1      42.429  26.666  27.475  1.00  0.00     0.023 A 
ATOM     74  C   UNL A   1      43.195  27.329  26.497  1.00  0.00     0.012 A 
ATOM     75  C   UNL A   1      42.173  25.289  27.330  1.00  0.00     0.148 A 
ATOM     76  C   UNL A   1      43.669  26.643  25.379  1.00  0.00     0.002 A 
ATOM     77  C   UNL A   1      42.695  24.600  26.242  1.00  0.00     0.091 A 
ATOM     78  F   UNL A   1      41.436  24.678  28.269  1.00  0.00    -0.205 F 
ATOM     79  C   UNL A   1      43.428  25.278  25.256  1.00  0.00     0.022 A 
BRANCH  77  80
ATOM     80  S   UNL A   1      42.547  22.817  26.075  1.00  0.00     0.127 S 
ATOM     81  O   UNL A   1      41.110  22.618  26.257  1.00  0.00    -0.237 OA
ATOM     82  O   UNL A   1      43.029  22.602  24.708  1.00  0.00    -0.237 OA
ATOM     83  O   UNL A   1      43.401  22.253  27.106  1.00  0.00    -0.744 OA
ENDBRANCH  77  80
ENDBRANCH  49  73
BRANCH  61  84
ATOM     84  C   UNL A   1      44.599  27.182  34.092  1.00  0.00     0.023 A 
ATOM     85  C   UNL A   1      45.866  27.797  34.133  1.00  0.00     0.012 A 
ATOM     86  C   UNL A   1      44.386  25.988  34.808  1.00  0.00     0.148 A 
ATOM     87  C   UNL A   1      46.915  27.210  34.840  1.00  0.00     0.002 A 
ATOM     88  C   UNL A   1      45.424  25.436  35.551  1.00  0.00     0.091 A 
ATOM     89  F   UNL A   1      43.181  25.404  34.742  1.00  0.00    -0.205 F 
ATOM     90  C   UNL A   1      46.692  26.038  35.557  1.00  0.00     0.022 A 
BRANCH  88  91
ATOM     91  S   UNL A   1      45.186  23.983  36.580  1.00  0.00     0.127 S 
ATOM     92  O   UNL A   1      44.412  23.113  35.697  1.00  0.00    -0.237 OA
ATOM     93  O   UNL A   1      46.560  23.539  36.821  1.00  0.00    -0.237 OA
ATOM     94  O   UNL A   1      44.492  24.453  37.772  1.00  0.00    -0.744 OA
ENDBRANCH  88  91
ENDBRANCH  61  84
ENDBRANCH  35  36
ENDBRANCH  27  30
ENDBRANCH  25  26
ENDBRANCH  24  25
ENDBRANCH  23  24
ENDBRANCH   1  23
TORSDOF 19
ENDMDL
