MODEL 1
REMARK VINA RESULT:     -11.8      0.000      0.000
REMARK SMILES Cc1ccc(C(c2ccccc2)(c2ccccc2)n2cnc(C[C@H]([NH3+])C(=O)NCCCCCCNC(=O)c3ccc(-c4c5nc(c(-c6cccc(S(=O)(=O)[O-])c6F)c6ccc([nH]6)c(-c6cccc(S(=O)(=O)[O-])c6F)c6nc(c(-c7cccc(S(=O)(=O)[O-])c7F)c7ccc4[nH]7)C=C6)C=C5)cc3)c2)cc1
REMARK SMILES IDX 31 1 30 2 29 3 28 4 26 5 27 6 24 8 23 9 22 10 19 11 20 12
REMARK SMILES IDX 101 13 21 14 6 15 5 16 1 17 2 18 3 19 103 20 4 21 102 22
REMARK SMILES IDX 7 23 8 24 12 25 9 26 11 27 10 28 13 29 14 30 18 31 15 32
REMARK SMILES IDX 17 33 16 34 25 35 32 39 33 40 34 41 35 42 36 43 37 45 38 46
REMARK SMILES IDX 39 47 100 48 40 49 99 50 41 51 42 52 43 53 93 54 44 55 98 56
REMARK SMILES IDX 92 57 94 58 45 59 97 60 91 61 90 62 46 64 78 65 58 66 77 67
REMARK SMILES IDX 59 68 62 69 76 70 95 71 60 72 61 73 75 75 96 76 63 77 47 78
REMARK SMILES IDX 48 79 56 80 49 81 51 82 57 83 50 84 52 85 53 86 54 87 55 88
REMARK SMILES IDX 79 89 80 90 88 91 81 92 83 93 89 94 82 95 84 96 85 97 86 98
REMARK SMILES IDX 87 99 64 100 65 101 73 102 66 103 68 104 74 105 67 106
REMARK SMILES IDX 69 107 70 108 71 109 72 110
REMARK H PARENT 28 7 25 36 25 37 25 38 35 44 94 63 62 74
REMARK Flexibility Score: inf
ROOT
ATOM      1  C   UNL A   1      34.203  28.739  26.659  1.00  0.00     0.002 C 
ENDROOT
BRANCH   1   2
ATOM      2  C   UNL A   1      32.829  29.381  26.442  1.00  0.00     0.021 C 
BRANCH   2   3
ATOM      3  C   UNL A   1      32.115  28.975  25.158  1.00  0.00     0.116 C 
BRANCH   3   4
ATOM      4  N   UNL A   1      33.028  28.841  24.046  1.00  0.00    -0.351 N 
ATOM      5  C   UNL A   1      32.852  28.312  22.800  1.00  0.00     0.278 C 
ATOM      6  O   UNL A   1      33.839  28.280  22.054  1.00  0.00    -0.268 OA
ATOM      7  H   UNL A   1      33.933  29.192  24.216  1.00  0.00     0.163 HD
BRANCH   5   8
ATOM      8  C   UNL A   1      31.497  27.718  22.358  1.00  0.00     0.276 C 
BRANCH   8   9
ATOM      9  C   UNL A   1      31.609  26.640  21.265  1.00  0.00     0.133 C 
BRANCH   9  10
ATOM     10  C   UNL A   1      32.217  25.372  21.756  1.00  0.00     0.065 A 
ATOM     11  N   UNL A   1      32.853  23.676  23.000  1.00  0.00    -0.319 N 
ATOM     12  C   UNL A   1      33.599  23.744  21.844  1.00  0.00     0.201 A 
ATOM     13  C   UNL A   1      31.906  24.670  22.898  1.00  0.00     0.112 A 
ATOM     14  N   UNL A   1      33.219  24.738  21.076  1.00  0.00    -0.241 NA
BRANCH  11  15
ATOM     15  C   UNL A   1      33.094  22.738  24.146  1.00  0.00     0.121 C 
BRANCH  15  16
ATOM     16  C   UNL A   1      34.560  22.965  24.707  1.00  0.00    -0.013 A 
ATOM     17  C   UNL A   1      38.525  23.730  26.322  1.00  0.00     0.044 C 
ATOM     18  C   UNL A   1      37.152  23.451  25.789  1.00  0.00    -0.051 A 
ATOM     19  C   UNL A   1      36.998  22.787  24.571  1.00  0.00     0.004 A 
ATOM     20  C   UNL A   1      36.011  23.847  26.488  1.00  0.00     0.004 A 
ATOM     21  C   UNL A   1      35.726  22.541  24.040  1.00  0.00     0.007 A 
ATOM     22  C   UNL A   1      34.740  23.596  25.963  1.00  0.00     0.007 A 
ENDBRANCH  15  16
BRANCH  15  23
ATOM     23  C   UNL A   1      31.997  23.075  25.255  1.00  0.00    -0.013 A 
ATOM     24  C   UNL A   1      30.996  22.138  25.604  1.00  0.00     0.007 A 
ATOM     25  C   UNL A   1      31.885  24.337  25.878  1.00  0.00     0.007 A 
ATOM     26  C   UNL A   1      30.035  22.399  26.589  1.00  0.00     0.000 A 
ATOM     27  C   UNL A   1      30.916  24.607  26.854  1.00  0.00     0.000 A 
ATOM     28  C   UNL A   1      30.005  23.631  27.226  1.00  0.00     0.000 A 
ENDBRANCH  15  23
BRANCH  15  29
ATOM     29  C   UNL A   1      32.967  21.252  23.571  1.00  0.00    -0.013 A 
ATOM     30  C   UNL A   1      32.227  20.983  22.393  1.00  0.00     0.007 A 
ATOM     31  C   UNL A   1      33.380  20.117  24.304  1.00  0.00     0.007 A 
ATOM     32  C   UNL A   1      31.935  19.679  21.976  1.00  0.00     0.000 A 
ATOM     33  C   UNL A   1      33.059  18.813  23.905  1.00  0.00     0.000 A 
ATOM     34  C   UNL A   1      32.337  18.593  22.740  1.00  0.00     0.000 A 
ENDBRANCH  15  29
ENDBRANCH  11  15
ENDBRANCH   9  10
ENDBRANCH   8   9
BRANCH   8  35
ATOM     35  N   UNL A   1      30.550  28.810  22.019  1.00  0.00    -0.347 N 
ATOM     36  H   UNL A   1      29.733  28.420  21.550  1.00  0.00     0.345 HD
ATOM     37  H   UNL A   1      31.010  29.479  21.402  1.00  0.00     0.345 HD
ATOM     38  H   UNL A   1      30.258  29.283  22.874  1.00  0.00     0.345 HD
ENDBRANCH   8  35
ENDBRANCH   5   8
ENDBRANCH   3   4
ENDBRANCH   2   3
ENDBRANCH   1   2
BRANCH   1  39
ATOM     39  C   UNL A   1      35.217  29.537  27.494  1.00  0.00     0.002 C 
BRANCH  39  40
ATOM     40  C   UNL A   1      34.667  30.705  28.315  1.00  0.00     0.021 C 
BRANCH  40  41
ATOM     41  C   UNL A   1      34.845  32.072  27.676  1.00  0.00     0.116 C 
BRANCH  41  42
ATOM     42  N   UNL A   1      34.139  33.144  28.348  1.00  0.00    -0.352 N 
ATOM     43  C   UNL A   1      34.385  33.711  29.584  1.00  0.00     0.251 C 
ATOM     44  H   UNL A   1      33.377  33.524  27.853  1.00  0.00     0.163 HD
ATOM     45  O   UNL A   1      33.516  34.423  30.084  1.00  0.00    -0.269 OA
BRANCH  43  46
ATOM     46  C   UNL A   1      35.723  33.577  30.223  1.00  0.00     0.039 A 
ATOM     47  C   UNL A   1      36.841  33.955  29.465  1.00  0.00     0.014 A 
ATOM     48  C   UNL A   1      35.906  32.896  31.424  1.00  0.00     0.014 A 
ATOM     49  C   UNL A   1      38.094  33.421  29.761  1.00  0.00     0.010 A 
ATOM     50  C   UNL A   1      37.120  32.298  31.674  1.00  0.00     0.010 A 
ATOM     51  C   UNL A   1      38.187  32.499  30.795  1.00  0.00    -0.014 A 
BRANCH  51  52
ATOM     52  C   UNL A   1      39.328  31.636  31.038  1.00  0.00     0.031 A 
ATOM     53  C   UNL A   1      39.378  30.291  30.445  1.00  0.00     0.074 A 
ATOM     54  C   UNL A   1      40.429  32.208  31.575  1.00  0.00     0.049 A 
ATOM     55  N   UNL A   1      40.286  29.423  30.725  1.00  0.00    -0.248 NA
ATOM     56  C   UNL A   1      38.373  29.799  29.505  1.00  0.00     0.031 C 
ATOM     57  C   UNL A   1      41.811  31.762  31.463  1.00  0.00     0.029 A 
ATOM     58  N   UNL A   1      40.478  33.236  32.523  1.00  0.00    -0.354 N 
ATOM     59  C   UNL A   1      40.198  28.443  29.767  1.00  0.00     0.074 A 
ATOM     60  C   UNL A   1      38.908  28.626  29.154  1.00  0.00     0.031 C 
ATOM     61  C   UNL A   1      42.517  32.294  32.473  1.00  0.00     0.029 A 
ATOM     62  C   UNL A   1      41.561  32.927  33.365  1.00  0.00     0.049 A 
ATOM     63  H   UNL A   1      39.880  34.015  32.588  1.00  0.00     0.167 HD
ATOM     64  C   UNL A   1      41.309  27.712  29.482  1.00  0.00     0.034 A 
ATOM     65  C   UNL A   1      41.424  32.648  34.696  1.00  0.00     0.034 A 
ATOM     66  C   UNL A   1      42.344  27.905  30.505  1.00  0.00     0.049 A 
ATOM     67  C   UNL A   1      41.936  31.267  35.070  1.00  0.00     0.074 A 
ATOM     68  C   UNL A   1      43.546  28.589  30.529  1.00  0.00     0.029 A 
ATOM     69  N   UNL A   1      42.062  27.562  31.826  1.00  0.00    -0.354 N 
ATOM     70  N   UNL A   1      42.326  30.371  34.205  1.00  0.00    -0.248 NA
ATOM     71  C   UNL A   1      42.027  30.773  36.442  1.00  0.00     0.031 C 
ATOM     72  C   UNL A   1      43.905  28.783  31.895  1.00  0.00     0.029 A 
ATOM     73  C   UNL A   1      42.958  28.164  32.694  1.00  0.00     0.049 A 
ATOM     74  H   UNL A   1      41.326  26.972  32.103  1.00  0.00     0.167 HD
ATOM     75  C   UNL A   1      42.573  29.182  34.835  1.00  0.00     0.074 A 
ATOM     76  C   UNL A   1      42.454  29.513  36.247  1.00  0.00     0.031 C 
ATOM     77  C   UNL A   1      42.785  28.021  34.140  1.00  0.00     0.034 A 
BRANCH  64  78
ATOM     78  C   UNL A   1      41.551  26.959  28.187  1.00  0.00     0.023 A 
ATOM     79  C   UNL A   1      41.269  27.641  26.982  1.00  0.00     0.012 A 
ATOM     80  C   UNL A   1      41.926  25.597  28.056  1.00  0.00     0.148 A 
ATOM     81  C   UNL A   1      41.359  27.017  25.730  1.00  0.00     0.002 A 
ATOM     82  C   UNL A   1      42.097  25.000  26.804  1.00  0.00     0.091 A 
ATOM     83  F   UNL A   1      42.014  24.816  29.137  1.00  0.00    -0.205 F 
ATOM     84  C   UNL A   1      41.796  25.703  25.637  1.00  0.00     0.022 A 
BRANCH  82  85
ATOM     85  S   UNL A   1      42.734  23.323  26.623  1.00  0.00     0.127 S 
ATOM     86  O   UNL A   1      42.821  23.176  25.172  1.00  0.00    -0.237 OA
ATOM     87  O   UNL A   1      44.028  23.400  27.305  1.00  0.00    -0.237 OA
ATOM     88  O   UNL A   1      41.766  22.453  27.284  1.00  0.00    -0.744 OA
ENDBRANCH  82  85
ENDBRANCH  64  78
BRANCH  65  89
ATOM     89  C   UNL A   1      40.275  33.361  35.332  1.00  0.00     0.023 A 
ATOM     90  C   UNL A   1      39.019  32.710  35.266  1.00  0.00     0.012 A 
ATOM     91  C   UNL A   1      40.473  34.353  36.309  1.00  0.00     0.148 A 
ATOM     92  C   UNL A   1      38.047  32.924  36.244  1.00  0.00     0.002 A 
ATOM     93  C   UNL A   1      39.493  34.567  37.279  1.00  0.00     0.091 A 
ATOM     94  F   UNL A   1      41.642  35.005  36.332  1.00  0.00    -0.205 F 
ATOM     95  C   UNL A   1      38.302  33.823  37.274  1.00  0.00     0.022 A 
BRANCH  93  96
ATOM     96  S   UNL A   1      39.760  35.695  38.654  1.00  0.00     0.127 S 
ATOM     97  O   UNL A   1      38.769  35.225  39.616  1.00  0.00    -0.237 OA
ATOM     98  O   UNL A   1      41.149  35.424  39.023  1.00  0.00    -0.237 OA
ATOM     99  O   UNL A   1      39.542  37.023  38.096  1.00  0.00    -0.744 OA
ENDBRANCH  93  96
ENDBRANCH  65  89
BRANCH  77 100
ATOM    100  C   UNL A   1      42.816  26.631  34.754  1.00  0.00     0.023 A 
ATOM    101  C   UNL A   1      41.649  25.963  35.169  1.00  0.00     0.012 A 
ATOM    102  C   UNL A   1      44.022  25.881  34.790  1.00  0.00     0.148 A 
ATOM    103  C   UNL A   1      41.677  24.653  35.660  1.00  0.00     0.002 A 
ATOM    104  C   UNL A   1      44.026  24.541  35.172  1.00  0.00     0.091 A 
ATOM    105  F   UNL A   1      45.184  26.468  34.466  1.00  0.00    -0.205 F 
ATOM    106  C   UNL A   1      42.862  23.932  35.642  1.00  0.00     0.022 A 
BRANCH 104 107
ATOM    107  S   UNL A   1      45.483  23.514  34.923  1.00  0.00     0.127 S 
ATOM    108  O   UNL A   1      45.828  23.801  33.534  1.00  0.00    -0.237 OA
ATOM    109  O   UNL A   1      46.423  24.054  35.908  1.00  0.00    -0.237 OA
ATOM    110  O   UNL A   1      45.039  22.156  35.211  1.00  0.00    -0.744 OA
ENDBRANCH 104 107
ENDBRANCH  77 100
ENDBRANCH  51  52
ENDBRANCH  43  46
ENDBRANCH  41  42
ENDBRANCH  40  41
ENDBRANCH  39  40
ENDBRANCH   1  39
TORSDOF 23
ENDMDL
MODEL 2
REMARK VINA RESULT:     -11.7      0.551      2.561
REMARK SMILES Cc1ccc(C(c2ccccc2)(c2ccccc2)n2cnc(C[C@H]([NH3+])C(=O)NCCCCCCNC(=O)c3ccc(-c4c5nc(c(-c6cccc(S(=O)(=O)[O-])c6F)c6ccc([nH]6)c(-c6cccc(S(=O)(=O)[O-])c6F)c6nc(c(-c7cccc(S(=O)(=O)[O-])c7F)c7ccc4[nH]7)C=C6)C=C5)cc3)c2)cc1
REMARK SMILES IDX 31 1 30 2 29 3 28 4 26 5 27 6 24 8 23 9 22 10 19 11 20 12
REMARK SMILES IDX 101 13 21 14 6 15 5 16 1 17 2 18 3 19 103 20 4 21 102 22
REMARK SMILES IDX 7 23 8 24 12 25 9 26 11 27 10 28 13 29 14 30 18 31 15 32
REMARK SMILES IDX 17 33 16 34 25 35 32 39 33 40 34 41 35 42 36 43 37 45 38 46
REMARK SMILES IDX 39 47 100 48 40 49 99 50 41 51 42 52 43 53 93 54 44 55 98 56
REMARK SMILES IDX 92 57 94 58 45 59 97 60 91 61 90 62 46 64 78 65 58 66 77 67
REMARK SMILES IDX 59 68 62 69 76 70 95 71 60 72 61 73 75 75 96 76 63 77 47 78
REMARK SMILES IDX 48 79 56 80 49 81 51 82 57 83 50 84 52 85 53 86 54 87 55 88
REMARK SMILES IDX 79 89 80 90 88 91 81 92 83 93 89 94 82 95 84 96 85 97 86 98
REMARK SMILES IDX 87 99 64 100 65 101 73 102 66 103 68 104 74 105 67 106
REMARK SMILES IDX 69 107 70 108 71 109 72 110
REMARK H PARENT 28 7 25 36 25 37 25 38 35 44 94 63 62 74
REMARK Flexibility Score: inf
ROOT
ATOM      1  C   UNL A   1      33.548  28.962  27.052  1.00  0.00     0.002 C 
ENDROOT
BRANCH   1   2
ATOM      2  C   UNL A   1      32.902  29.705  25.878  1.00  0.00     0.021 C 
BRANCH   2   3
ATOM      3  C   UNL A   1      32.366  28.818  24.760  1.00  0.00     0.116 C 
BRANCH   3   4
ATOM      4  N   UNL A   1      33.265  28.766  23.628  1.00  0.00    -0.351 N 
ATOM      5  C   UNL A   1      33.205  28.050  22.469  1.00  0.00     0.278 C 
ATOM      6  O   UNL A   1      34.155  28.162  21.684  1.00  0.00    -0.268 OA
ATOM      7  H   UNL A   1      34.055  29.348  23.708  1.00  0.00     0.163 HD
BRANCH   5   8
ATOM      8  C   UNL A   1      32.033  27.087  22.172  1.00  0.00     0.276 C 
BRANCH   8   9
ATOM      9  C   UNL A   1      32.372  25.977  21.162  1.00  0.00     0.133 C 
BRANCH   9  10
ATOM     10  C   UNL A   1      32.783  24.701  21.813  1.00  0.00     0.065 A 
ATOM     11  N   UNL A   1      33.293  23.145  23.277  1.00  0.00    -0.319 N 
ATOM     12  C   UNL A   1      33.764  22.814  22.025  1.00  0.00     0.201 A 
ATOM     13  C   UNL A   1      32.585  24.314  23.118  1.00  0.00     0.112 A 
ATOM     14  N   UNL A   1      33.451  23.722  21.131  1.00  0.00    -0.241 NA
BRANCH  11  15
ATOM     15  C   UNL A   1      33.570  22.393  24.545  1.00  0.00     0.121 C 
BRANCH  15  16
ATOM     16  C   UNL A   1      33.497  20.836  24.256  1.00  0.00    -0.013 A 
ATOM     17  C   UNL A   1      33.125  16.579  23.443  1.00  0.00     0.044 C 
ATOM     18  C   UNL A   1      33.257  18.050  23.695  1.00  0.00    -0.051 A 
ATOM     19  C   UNL A   1      34.271  18.528  24.527  1.00  0.00     0.004 A 
ATOM     20  C   UNL A   1      32.377  18.965  23.113  1.00  0.00     0.004 A 
ATOM     21  C   UNL A   1      34.395  19.896  24.799  1.00  0.00     0.007 A 
ATOM     22  C   UNL A   1      32.505  20.332  23.378  1.00  0.00     0.007 A 
ENDBRANCH  15  16
BRANCH  15  23
ATOM     23  C   UNL A   1      35.031  22.820  25.024  1.00  0.00    -0.013 A 
ATOM     24  C   UNL A   1      36.121  21.921  24.945  1.00  0.00     0.007 A 
ATOM     25  C   UNL A   1      35.315  24.058  25.641  1.00  0.00     0.007 A 
ATOM     26  C   UNL A   1      37.417  22.278  25.338  1.00  0.00     0.000 A 
ATOM     27  C   UNL A   1      36.607  24.413  26.049  1.00  0.00     0.000 A 
ATOM     28  C   UNL A   1      37.664  23.532  25.876  1.00  0.00     0.000 A 
ENDBRANCH  15  23
BRANCH  15  29
ATOM     29  C   UNL A   1      32.427  22.795  25.589  1.00  0.00    -0.013 A 
ATOM     30  C   UNL A   1      31.292  21.971  25.785  1.00  0.00     0.007 A 
ATOM     31  C   UNL A   1      32.367  24.071  26.194  1.00  0.00     0.007 A 
ATOM     32  C   UNL A   1      30.188  22.387  26.539  1.00  0.00     0.000 A 
ATOM     33  C   UNL A   1      31.249  24.500  26.919  1.00  0.00     0.000 A 
ATOM     34  C   UNL A   1      30.159  23.658  27.094  1.00  0.00     0.000 A 
ENDBRANCH  15  29
ENDBRANCH  11  15
ENDBRANCH   9  10
ENDBRANCH   8   9
BRANCH   8  35
ATOM     35  N   UNL A   1      30.818  27.862  21.816  1.00  0.00    -0.347 N 
ATOM     36  H   UNL A   1      30.002  27.436  22.256  1.00  0.00     0.345 HD
ATOM     37  H   UNL A   1      30.698  27.862  20.803  1.00  0.00     0.345 HD
ATOM     38  H   UNL A   1      30.919  28.822  22.145  1.00  0.00     0.345 HD
ENDBRANCH   8  35
ENDBRANCH   5   8
ENDBRANCH   3   4
ENDBRANCH   2   3
ENDBRANCH   1   2
BRANCH   1  39
ATOM     39  C   UNL A   1      34.942  29.437  27.489  1.00  0.00     0.002 C 
BRANCH  39  40
ATOM     40  C   UNL A   1      35.000  30.673  28.388  1.00  0.00     0.021 C 
BRANCH  40  41
ATOM     41  C   UNL A   1      34.960  32.000  27.650  1.00  0.00     0.116 C 
BRANCH  41  42
ATOM     42  N   UNL A   1      34.232  33.048  28.337  1.00  0.00    -0.352 N 
ATOM     43  C   UNL A   1      34.462  33.595  29.586  1.00  0.00     0.251 C 
ATOM     44  H   UNL A   1      33.467  33.424  27.845  1.00  0.00     0.163 HD
ATOM     45  O   UNL A   1      33.577  34.282  30.093  1.00  0.00    -0.269 OA
BRANCH  43  46
ATOM     46  C   UNL A   1      35.798  33.472  30.229  1.00  0.00     0.039 A 
ATOM     47  C   UNL A   1      36.913  33.884  29.487  1.00  0.00     0.014 A 
ATOM     48  C   UNL A   1      35.986  32.770  31.417  1.00  0.00     0.014 A 
ATOM     49  C   UNL A   1      38.174  33.367  29.780  1.00  0.00     0.010 A 
ATOM     50  C   UNL A   1      37.209  32.188  31.663  1.00  0.00     0.010 A 
ATOM     51  C   UNL A   1      38.277  32.426  30.794  1.00  0.00    -0.014 A 
BRANCH  51  52
ATOM     52  C   UNL A   1      39.432  31.578  31.027  1.00  0.00     0.031 A 
ATOM     53  C   UNL A   1      39.513  30.250  30.402  1.00  0.00     0.074 A 
ATOM     54  C   UNL A   1      40.517  32.157  31.589  1.00  0.00     0.049 A 
ATOM     55  N   UNL A   1      40.434  29.392  30.668  1.00  0.00    -0.248 NA
ATOM     56  C   UNL A   1      38.526  29.764  29.439  1.00  0.00     0.031 C 
ATOM     57  C   UNL A   1      41.908  31.739  31.479  1.00  0.00     0.029 A 
ATOM     58  N   UNL A   1      40.538  33.161  32.563  1.00  0.00    -0.354 N 
ATOM     59  C   UNL A   1      40.374  28.435  29.685  1.00  0.00     0.074 A 
ATOM     60  C   UNL A   1      39.087  28.609  29.064  1.00  0.00     0.031 C 
ATOM     61  C   UNL A   1      42.595  32.259  32.509  1.00  0.00     0.029 A 
ATOM     62  C   UNL A   1      41.619  32.852  33.408  1.00  0.00     0.049 A 
ATOM     63  H   UNL A   1      39.924  33.927  32.642  1.00  0.00     0.167 HD
ATOM     64  C   UNL A   1      41.501  27.732  29.392  1.00  0.00     0.034 A 
ATOM     65  C   UNL A   1      41.475  32.537  34.729  1.00  0.00     0.034 A 
ATOM     66  C   UNL A   1      42.523  27.919  30.430  1.00  0.00     0.049 A 
ATOM     67  C   UNL A   1      42.010  31.156  35.074  1.00  0.00     0.074 A 
ATOM     68  C   UNL A   1      43.711  28.625  30.483  1.00  0.00     0.029 A 
ATOM     69  N   UNL A   1      42.235  27.537  31.739  1.00  0.00    -0.354 N 
ATOM     70  N   UNL A   1      42.424  30.290  34.190  1.00  0.00    -0.248 NA
ATOM     71  C   UNL A   1      42.097  30.630  36.434  1.00  0.00     0.031 C 
ATOM     72  C   UNL A   1      44.054  28.790  31.856  1.00  0.00     0.029 A 
ATOM     73  C   UNL A   1      43.111  28.133  32.631  1.00  0.00     0.049 A 
ATOM     74  H   UNL A   1      41.507  26.926  31.994  1.00  0.00     0.167 HD
ATOM     75  C   UNL A   1      42.688  29.090  34.793  1.00  0.00     0.074 A 
ATOM     76  C   UNL A   1      42.550  29.383  36.211  1.00  0.00     0.031 C 
ATOM     77  C   UNL A   1      42.928  27.951  34.071  1.00  0.00     0.034 A 
BRANCH  64  78
ATOM     78  C   UNL A   1      41.769  27.017  28.081  1.00  0.00     0.023 A 
ATOM     79  C   UNL A   1      41.804  27.808  26.911  1.00  0.00     0.012 A 
ATOM     80  C   UNL A   1      41.878  25.616  27.887  1.00  0.00     0.148 A 
ATOM     81  C   UNL A   1      41.945  27.248  25.633  1.00  0.00     0.002 A 
ATOM     82  C   UNL A   1      42.102  25.066  26.622  1.00  0.00     0.091 A 
ATOM     83  F   UNL A   1      41.653  24.776  28.902  1.00  0.00    -0.205 F 
ATOM     84  C   UNL A   1      42.118  25.878  25.488  1.00  0.00     0.022 A 
BRANCH  82  85
ATOM     85  S   UNL A   1      42.409  23.304  26.386  1.00  0.00     0.127 S 
ATOM     86  O   UNL A   1      41.095  22.721  26.645  1.00  0.00    -0.237 OA
ATOM     87  O   UNL A   1      42.838  23.241  24.988  1.00  0.00    -0.237 OA
ATOM     88  O   UNL A   1      43.452  22.948  27.343  1.00  0.00    -0.744 OA
ENDBRANCH  82  85
ENDBRANCH  64  78
BRANCH  65  89
ATOM     89  C   UNL A   1      40.306  33.211  35.372  1.00  0.00     0.023 A 
ATOM     90  C   UNL A   1      39.087  32.492  35.368  1.00  0.00     0.012 A 
ATOM     91  C   UNL A   1      40.477  34.250  36.305  1.00  0.00     0.148 A 
ATOM     92  C   UNL A   1      38.131  32.693  36.366  1.00  0.00     0.002 A 
ATOM     93  C   UNL A   1      39.514  34.450  37.294  1.00  0.00     0.091 A 
ATOM     94  F   UNL A   1      41.610  34.964  36.268  1.00  0.00    -0.205 F 
ATOM     95  C   UNL A   1      38.366  33.643  37.353  1.00  0.00     0.022 A 
BRANCH  93  96
ATOM     96  S   UNL A   1      39.757  35.643  38.618  1.00  0.00     0.127 S 
ATOM     97  O   UNL A   1      39.682  36.906  37.892  1.00  0.00    -0.237 OA
ATOM     98  O   UNL A   1      38.623  35.374  39.501  1.00  0.00    -0.237 OA
ATOM     99  O   UNL A   1      41.052  35.304  39.193  1.00  0.00    -0.744 OA
ENDBRANCH  93  96
ENDBRANCH  65  89
BRANCH  77 100
ATOM    100  C   UNL A   1      42.980  26.547  34.650  1.00  0.00     0.023 A 
ATOM    101  C   UNL A   1      41.828  25.871  35.095  1.00  0.00     0.012 A 
ATOM    102  C   UNL A   1      44.184  25.794  34.621  1.00  0.00     0.148 A 
ATOM    103  C   UNL A   1      41.872  24.549  35.553  1.00  0.00     0.002 A 
ATOM    104  C   UNL A   1      44.200  24.445  34.970  1.00  0.00     0.091 A 
ATOM    105  F   UNL A   1      45.334  26.387  34.265  1.00  0.00    -0.205 F 
ATOM    106  C   UNL A   1      43.053  23.828  35.472  1.00  0.00     0.022 A 
BRANCH 104 107
ATOM    107  S   UNL A   1      45.644  23.422  34.640  1.00  0.00     0.127 S 
ATOM    108  O   UNL A   1      45.058  22.089  34.539  1.00  0.00    -0.237 OA
ATOM    109  O   UNL A   1      46.137  23.969  33.375  1.00  0.00    -0.237 OA
ATOM    110  O   UNL A   1      46.533  23.653  35.772  1.00  0.00    -0.744 OA
ENDBRANCH 104 107
ENDBRANCH  77 100
ENDBRANCH  51  52
ENDBRANCH  43  46
ENDBRANCH  41  42
ENDBRANCH  40  41
ENDBRANCH  39  40
ENDBRANCH   1  39
TORSDOF 23
ENDMDL
MODEL 3
REMARK VINA RESULT:     -10.4      5.374      9.442
REMARK SMILES Cc1ccc(C(c2ccccc2)(c2ccccc2)n2cnc(C[C@H]([NH3+])C(=O)NCCCCCCNC(=O)c3ccc(-c4c5nc(c(-c6cccc(S(=O)(=O)[O-])c6F)c6ccc([nH]6)c(-c6cccc(S(=O)(=O)[O-])c6F)c6nc(c(-c7cccc(S(=O)(=O)[O-])c7F)c7ccc4[nH]7)C=C6)C=C5)cc3)c2)cc1
REMARK SMILES IDX 31 1 30 2 29 3 28 4 26 5 27 6 24 8 23 9 22 10 19 11 20 12
REMARK SMILES IDX 101 13 21 14 6 15 5 16 1 17 2 18 3 19 103 20 4 21 102 22
REMARK SMILES IDX 7 23 8 24 12 25 9 26 11 27 10 28 13 29 14 30 18 31 15 32
REMARK SMILES IDX 17 33 16 34 25 35 32 39 33 40 34 41 35 42 36 43 37 45 38 46
REMARK SMILES IDX 39 47 100 48 40 49 99 50 41 51 42 52 43 53 93 54 44 55 98 56
REMARK SMILES IDX 92 57 94 58 45 59 97 60 91 61 90 62 46 64 78 65 58 66 77 67
REMARK SMILES IDX 59 68 62 69 76 70 95 71 60 72 61 73 75 75 96 76 63 77 47 78
REMARK SMILES IDX 48 79 56 80 49 81 51 82 57 83 50 84 52 85 53 86 54 87 55 88
REMARK SMILES IDX 79 89 80 90 88 91 81 92 83 93 89 94 82 95 84 96 85 97 86 98
REMARK SMILES IDX 87 99 64 100 65 101 73 102 66 103 68 104 74 105 67 106
REMARK SMILES IDX 69 107 70 108 71 109 72 110
REMARK H PARENT 28 7 25 36 25 37 25 38 35 44 94 63 62 74
REMARK Flexibility Score: inf
ROOT
ATOM      1  C   UNL A   1      37.568  29.268  29.713  1.00  0.00     0.002 C 
ENDROOT
BRANCH   1   2
ATOM      2  C   UNL A   1      38.929  28.565  29.706  1.00  0.00     0.021 C 
BRANCH   2   3
ATOM      3  C   UNL A   1      39.813  28.865  28.500  1.00  0.00     0.116 C 
BRANCH   3   4
ATOM      4  N   UNL A   1      41.220  28.793  28.826  1.00  0.00    -0.351 N 
ATOM      5  C   UNL A   1      42.324  29.150  28.109  1.00  0.00     0.278 C 
ATOM      6  O   UNL A   1      43.428  28.926  28.620  1.00  0.00    -0.268 OA
ATOM      7  H   UNL A   1      41.414  28.424  29.718  1.00  0.00     0.163 HD
BRANCH   5   8
ATOM      8  C   UNL A   1      42.209  29.750  26.689  1.00  0.00     0.276 C 
BRANCH   8   9
ATOM      9  C   UNL A   1      41.615  28.788  25.646  1.00  0.00     0.133 C 
BRANCH   9  10
ATOM     10  C   UNL A   1      42.267  27.449  25.647  1.00  0.00     0.065 A 
ATOM     11  N   UNL A   1      42.806  25.361  26.069  1.00  0.00    -0.319 N 
ATOM     12  C   UNL A   1      43.827  26.008  25.407  1.00  0.00     0.201 A 
ATOM     13  C   UNL A   1      41.771  26.265  26.141  1.00  0.00     0.112 A 
ATOM     14  N   UNL A   1      43.516  27.251  25.127  1.00  0.00    -0.241 NA
BRANCH  11  15
ATOM     15  C   UNL A   1      42.869  23.974  26.638  1.00  0.00     0.121 C 
BRANCH  15  16
ATOM     16  C   UNL A   1      43.356  24.051  28.145  1.00  0.00    -0.013 A 
ATOM     17  C   UNL A   1      44.550  24.171  32.326  1.00  0.00     0.044 C 
ATOM     18  C   UNL A   1      44.153  24.105  30.882  1.00  0.00    -0.051 A 
ATOM     19  C   UNL A   1      44.505  25.140  30.014  1.00  0.00     0.004 A 
ATOM     20  C   UNL A   1      43.429  23.022  30.381  1.00  0.00     0.004 A 
ATOM     21  C   UNL A   1      44.120  25.112  28.667  1.00  0.00     0.007 A 
ATOM     22  C   UNL A   1      43.050  22.991  29.035  1.00  0.00     0.007 A 
ENDBRANCH  15  16
BRANCH  15  23
ATOM     23  C   UNL A   1      41.396  23.369  26.540  1.00  0.00    -0.013 A 
ATOM     24  C   UNL A   1      40.261  24.142  26.882  1.00  0.00     0.007 A 
ATOM     25  C   UNL A   1      41.131  22.022  26.213  1.00  0.00     0.007 A 
ATOM     26  C   UNL A   1      38.957  23.643  26.784  1.00  0.00     0.000 A 
ATOM     27  C   UNL A   1      39.828  21.514  26.127  1.00  0.00     0.000 A 
ATOM     28  C   UNL A   1      38.739  22.330  26.391  1.00  0.00     0.000 A 
ENDBRANCH  15  23
BRANCH  15  29
ATOM     29  C   UNL A   1      43.939  23.160  25.773  1.00  0.00    -0.013 A 
ATOM     30  C   UNL A   1      45.138  22.678  26.355  1.00  0.00     0.007 A 
ATOM     31  C   UNL A   1      43.865  23.070  24.365  1.00  0.00     0.007 A 
ATOM     32  C   UNL A   1      46.177  22.138  25.587  1.00  0.00     0.000 A 
ATOM     33  C   UNL A   1      44.918  22.560  23.594  1.00  0.00     0.000 A 
ATOM     34  C   UNL A   1      46.073  22.093  24.204  1.00  0.00     0.000 A 
ENDBRANCH  15  29
ENDBRANCH  11  15
ENDBRANCH   9  10
ENDBRANCH   8   9
BRANCH   8  35
ATOM     35  N   UNL A   1      43.509  30.340  26.281  1.00  0.00    -0.347 N 
ATOM     36  H   UNL A   1      44.146  30.345  27.078  1.00  0.00     0.345 HD
ATOM     37  H   UNL A   1      43.361  31.296  25.957  1.00  0.00     0.345 HD
ATOM     38  H   UNL A   1      43.912  29.784  25.527  1.00  0.00     0.345 HD
ENDBRANCH   8  35
ENDBRANCH   5   8
ENDBRANCH   3   4
ENDBRANCH   2   3
ENDBRANCH   1   2
BRANCH   1  39
ATOM     39  C   UNL A   1      36.870  29.412  31.073  1.00  0.00     0.002 C 
BRANCH  39  40
ATOM     40  C   UNL A   1      37.747  29.267  32.318  1.00  0.00     0.021 C 
BRANCH  40  41
ATOM     41  C   UNL A   1      37.669  30.431  33.291  1.00  0.00     0.116 C 
BRANCH  41  42
ATOM     42  N   UNL A   1      36.479  31.247  33.156  1.00  0.00    -0.352 N 
ATOM     43  C   UNL A   1      36.375  32.596  32.871  1.00  0.00     0.251 C 
ATOM     44  H   UNL A   1      35.625  30.774  33.283  1.00  0.00     0.163 HD
ATOM     45  O   UNL A   1      35.294  33.150  33.062  1.00  0.00    -0.269 OA
BRANCH  43  46
ATOM     46  C   UNL A   1      37.499  33.319  32.217  1.00  0.00     0.039 A 
ATOM     47  C   UNL A   1      37.913  32.865  30.957  1.00  0.00     0.014 A 
ATOM     48  C   UNL A   1      38.274  34.254  32.898  1.00  0.00     0.014 A 
ATOM     49  C   UNL A   1      39.208  33.129  30.514  1.00  0.00     0.010 A 
ATOM     50  C   UNL A   1      39.580  34.449  32.510  1.00  0.00     0.010 A 
ATOM     51  C   UNL A   1      40.064  33.819  31.361  1.00  0.00    -0.014 A 
BRANCH  51  52
ATOM     52  C   UNL A   1      41.502  33.914  31.192  1.00  0.00     0.031 A 
ATOM     53  C   UNL A   1      42.066  34.493  29.964  1.00  0.00     0.074 A 
ATOM     54  C   UNL A   1      42.264  33.721  32.292  1.00  0.00     0.049 A 
ATOM     55  N   UNL A   1      43.323  34.486  29.685  1.00  0.00    -0.248 NA
ATOM     56  C   UNL A   1      41.242  35.100  28.920  1.00  0.00     0.031 C 
ATOM     57  C   UNL A   1      43.606  34.228  32.547  1.00  0.00     0.029 A 
ATOM     58  N   UNL A   1      42.029  32.831  33.345  1.00  0.00    -0.354 N 
ATOM     59  C   UNL A   1      43.500  35.375  28.653  1.00  0.00     0.074 A 
ATOM     60  C   UNL A   1      42.184  35.588  28.107  1.00  0.00     0.031 C 
ATOM     61  C   UNL A   1      44.179  33.469  33.494  1.00  0.00     0.029 A 
ATOM     62  C   UNL A   1      43.293  32.339  33.718  1.00  0.00     0.049 A 
ATOM     63  H   UNL A   1      41.161  32.597  33.744  1.00  0.00     0.167 HD
ATOM     64  C   UNL A   1      44.714  35.968  28.507  1.00  0.00     0.034 A 
ATOM     65  C   UNL A   1      43.651  31.025  33.606  1.00  0.00     0.034 A 
ATOM     66  C   UNL A   1      45.733  35.290  29.319  1.00  0.00     0.049 A 
ATOM     67  C   UNL A   1      44.859  30.812  32.708  1.00  0.00     0.074 A 
ATOM     68  C   UNL A   1      46.395  35.617  30.488  1.00  0.00     0.029 A 
ATOM     69  N   UNL A   1      46.000  33.944  29.081  1.00  0.00    -0.354 N 
ATOM     70  N   UNL A   1      45.413  31.750  31.991  1.00  0.00    -0.248 NA
ATOM     71  C   UNL A   1      45.524  29.523  32.525  1.00  0.00     0.031 C 
ATOM     72  C   UNL A   1      46.938  34.415  31.028  1.00  0.00     0.029 A 
ATOM     73  C   UNL A   1      46.661  33.374  30.157  1.00  0.00     0.049 A 
ATOM     74  H   UNL A   1      45.753  33.463  28.259  1.00  0.00     0.167 HD
ATOM     75  C   UNL A   1      46.369  31.216  31.171  1.00  0.00     0.074 A 
ATOM     76  C   UNL A   1      46.459  29.831  31.608  1.00  0.00     0.031 C 
ATOM     77  C   UNL A   1      46.950  31.940  30.163  1.00  0.00     0.034 A 
BRANCH  64  78
ATOM     78  C   UNL A   1      44.967  37.276  27.781  1.00  0.00     0.023 A 
ATOM     79  C   UNL A   1      46.023  37.300  26.843  1.00  0.00     0.012 A 
ATOM     80  C   UNL A   1      44.325  38.518  28.025  1.00  0.00     0.148 A 
ATOM     81  C   UNL A   1      46.414  38.475  26.185  1.00  0.00     0.002 A 
ATOM     82  C   UNL A   1      44.660  39.670  27.307  1.00  0.00     0.091 A 
ATOM     83  F   UNL A   1      43.458  38.642  29.034  1.00  0.00    -0.205 F 
ATOM     84  C   UNL A   1      45.718  39.656  26.398  1.00  0.00     0.022 A 
BRANCH  82  85
ATOM     85  S   UNL A   1      43.739  41.210  27.488  1.00  0.00     0.127 S 
ATOM     86  O   UNL A   1      44.318  42.045  26.437  1.00  0.00    -0.237 OA
ATOM     87  O   UNL A   1      42.360  40.787  27.238  1.00  0.00    -0.237 OA
ATOM     88  O   UNL A   1      43.982  41.664  28.853  1.00  0.00    -0.744 OA
ENDBRANCH  82  85
ENDBRANCH  64  78
BRANCH  65  89
ATOM     89  C   UNL A   1      42.501  30.084  33.769  1.00  0.00     0.023 A 
ATOM     90  C   UNL A   1      41.806  29.732  32.587  1.00  0.00     0.012 A 
ATOM     91  C   UNL A   1      42.385  29.251  34.896  1.00  0.00     0.148 A 
ATOM     92  C   UNL A   1      41.148  28.507  32.479  1.00  0.00     0.002 A 
ATOM     93  C   UNL A   1      41.718  28.031  34.783  1.00  0.00     0.091 A 
ATOM     94  F   UNL A   1      42.998  29.617  36.029  1.00  0.00    -0.205 F 
ATOM     95  C   UNL A   1      41.140  27.638  33.564  1.00  0.00     0.022 A 
BRANCH  93  96
ATOM     96  S   UNL A   1      41.686  26.846  36.136  1.00  0.00     0.127 S 
ATOM     97  O   UNL A   1      43.108  26.689  36.421  1.00  0.00    -0.237 OA
ATOM     98  O   UNL A   1      40.928  27.558  37.165  1.00  0.00    -0.237 OA
ATOM     99  O   UNL A   1      41.001  25.680  35.594  1.00  0.00    -0.744 OA
ENDBRANCH  93  96
ENDBRANCH  65  89
BRANCH  77 100
ATOM    100  C   UNL A   1      47.823  31.358  29.064  1.00  0.00     0.023 A 
ATOM    101  C   UNL A   1      49.229  31.337  29.147  1.00  0.00     0.012 A 
ATOM    102  C   UNL A   1      47.243  30.665  27.968  1.00  0.00     0.148 A 
ATOM    103  C   UNL A   1      50.023  30.730  28.168  1.00  0.00     0.002 A 
ATOM    104  C   UNL A   1      48.034  29.965  27.058  1.00  0.00     0.091 A 
ATOM    105  F   UNL A   1      45.914  30.691  27.789  1.00  0.00    -0.205 F 
ATOM    106  C   UNL A   1      49.426  30.024  27.133  1.00  0.00     0.022 A 
BRANCH 104 107
ATOM    107  S   UNL A   1      47.292  28.842  25.862  1.00  0.00     0.127 S 
ATOM    108  O   UNL A   1      48.465  28.289  25.193  1.00  0.00    -0.237 OA
ATOM    109  O   UNL A   1      46.576  27.895  26.719  1.00  0.00    -0.237 OA
ATOM    110  O   UNL A   1      46.421  29.682  25.050  1.00  0.00    -0.744 OA
ENDBRANCH 104 107
ENDBRANCH  77 100
ENDBRANCH  51  52
ENDBRANCH  43  46
ENDBRANCH  41  42
ENDBRANCH  40  41
ENDBRANCH  39  40
ENDBRANCH   1  39
TORSDOF 23
ENDMDL
