MODEL 1
REMARK VINA RESULT:     -10.9      0.000      0.000
REMARK SMILES CCC(CC)COc1cc2c(cc1Cl)C=C(C(=O)NCCCCCCNC(=O)c1ccc(-c3c4nc(c(-c5cccc(S(=O)(=O)[O-])c5F)c5ccc([nH]5)c(-c5cccc(S(=O)(=O)[O-])c5F)c5nc(c(-c6cccc(S(=O)(=O)[O-])c6F)c6ccc3[nH]6)C=C5)C=C4)cc1)[C@@H](C(F)(F)F)O2
REMARK SMILES IDX 22 1 21 2 20 3 19 4 17 5 18 6 16 8 8 9 9 10 13 11 10 12
REMARK SMILES IDX 12 13 14 14 11 15 97 16 15 17 92 18 7 19 6 20 3 21 2 22 1 23
REMARK SMILES IDX 4 24 5 25 93 26 94 27 95 28 96 29 23 30 24 31 25 32 26 33
REMARK SMILES IDX 27 34 28 36 29 37 30 38 91 39 31 40 90 41 32 42 33 43 34 44
REMARK SMILES IDX 84 45 35 46 89 47 83 48 85 49 36 50 88 51 82 52 81 53 37 55
REMARK SMILES IDX 69 56 49 57 68 58 50 59 53 60 67 61 86 62 51 63 52 64 66 66
REMARK SMILES IDX 87 67 54 68 38 69 39 70 47 71 40 72 42 73 48 74 41 75 43 76
REMARK SMILES IDX 44 77 45 78 46 79 70 80 71 81 79 82 72 83 74 84 80 85 73 86
REMARK SMILES IDX 75 87 76 88 77 89 78 90 55 91 56 92 64 93 57 94 59 95 65 96
REMARK SMILES IDX 58 97 60 98 61 99 62 100 63 101
REMARK H PARENT 19 7 26 35 85 54 53 65
REMARK Flexibility Score: inf
ROOT
ATOM      1  C   UNL A   1      31.678  28.882  25.747  1.00  0.00     0.002 C 
ENDROOT
BRANCH   1   2
ATOM      2  C   UNL A   1      31.151  29.623  24.516  1.00  0.00     0.021 C 
BRANCH   2   3
ATOM      3  C   UNL A   1      30.764  28.712  23.356  1.00  0.00     0.116 C 
BRANCH   3   4
ATOM      4  N   UNL A   1      29.551  27.975  23.654  1.00  0.00    -0.352 N 
ATOM      5  C   UNL A   1      29.228  26.700  23.963  1.00  0.00     0.251 C 
ATOM      6  O   UNL A   1      28.029  26.499  24.184  1.00  0.00    -0.270 OA
ATOM      7  H   UNL A   1      28.756  28.556  23.625  1.00  0.00     0.163 HD
BRANCH   5   8
ATOM      8  C   UNL A   1      30.189  25.568  24.048  1.00  0.00     0.067 C 
ATOM      9  C   UNL A   1      33.042  21.816  25.739  1.00  0.00     0.141 A 
ATOM     10  C   UNL A   1      32.310  21.996  24.565  1.00  0.00     0.095 A 
ATOM     11  C   UNL A   1      33.128  22.854  26.681  1.00  0.00     0.083 A 
ATOM     12  C   UNL A   1      31.583  23.171  24.402  1.00  0.00     0.131 A 
ATOM     13  C   UNL A   1      32.305  23.973  26.560  1.00  0.00     0.036 A 
ATOM     14  Cl  UNL A   1      34.206  22.785  28.026  1.00  0.00    -0.080 Cl
ATOM     15  C   UNL A   1      31.506  24.117  25.431  1.00  0.00     0.019 A 
ATOM     16  O   UNL A   1      30.947  23.374  23.205  1.00  0.00    -0.475 OA
ATOM     17  C   UNL A   1      30.580  25.231  25.290  1.00  0.00     0.025 C 
ATOM     18  C   UNL A   1      30.742  24.788  22.885  1.00  0.00     0.314 C 
BRANCH   9  19
ATOM     19  O   UNL A   1      33.690  20.629  25.954  1.00  0.00    -0.492 OA
BRANCH  19  20
ATOM     20  C   UNL A   1      34.629  20.313  24.897  1.00  0.00     0.233 C 
BRANCH  20  21
ATOM     21  C   UNL A   1      35.871  21.238  24.940  1.00  0.00     0.026 C 
BRANCH  21  22
ATOM     22  C   UNL A   1      37.183  20.429  24.818  1.00  0.00     0.003 C 
ATOM     23  C   UNL A   1      38.353  21.087  25.536  1.00  0.00     0.004 C 
ENDBRANCH  21  22
BRANCH  21  24
ATOM     24  C   UNL A   1      35.787  22.379  23.903  1.00  0.00     0.003 C 
ATOM     25  C   UNL A   1      35.888  23.789  24.464  1.00  0.00     0.004 C 
ENDBRANCH  21  24
ENDBRANCH  20  21
ENDBRANCH  19  20
ENDBRANCH   9  19
BRANCH  18  26
ATOM     26  C   UNL A   1      32.037  25.430  22.334  1.00  0.00     0.429 C 
ATOM     27  F   UNL A   1      31.761  26.265  21.305  1.00  0.00    -0.167 F 
ATOM     28  F   UNL A   1      32.674  26.172  23.274  1.00  0.00    -0.167 F 
ATOM     29  F   UNL A   1      32.936  24.521  21.892  1.00  0.00    -0.167 F 
ENDBRANCH  18  26
ENDBRANCH   5   8
ENDBRANCH   3   4
ENDBRANCH   2   3
ENDBRANCH   1   2
BRANCH   1  30
ATOM     30  C   UNL A   1      31.972  29.761  26.969  1.00  0.00     0.002 C 
BRANCH  30  31
ATOM     31  C   UNL A   1      31.762  31.263  26.767  1.00  0.00     0.021 C 
BRANCH  31  32
ATOM     32  C   UNL A   1      32.983  32.127  27.053  1.00  0.00     0.116 C 
BRANCH  32  33
ATOM     33  N   UNL A   1      32.630  33.488  27.429  1.00  0.00    -0.352 N 
ATOM     34  C   UNL A   1      33.146  34.267  28.438  1.00  0.00     0.251 C 
ATOM     35  H   UNL A   1      31.924  33.909  26.887  1.00  0.00     0.163 HD
ATOM     36  O   UNL A   1      32.632  35.336  28.714  1.00  0.00    -0.269 OA
BRANCH  34  37
ATOM     37  C   UNL A   1      34.313  33.769  29.202  1.00  0.00     0.039 A 
ATOM     38  C   UNL A   1      35.605  34.200  28.885  1.00  0.00     0.014 A 
ATOM     39  C   UNL A   1      34.113  32.832  30.219  1.00  0.00     0.014 A 
ATOM     40  C   UNL A   1      36.700  33.579  29.474  1.00  0.00     0.010 A 
ATOM     41  C   UNL A   1      35.215  32.269  30.868  1.00  0.00     0.010 A 
ATOM     42  C   UNL A   1      36.519  32.603  30.470  1.00  0.00    -0.014 A 
BRANCH  42  43
ATOM     43  C   UNL A   1      37.709  31.962  31.086  1.00  0.00     0.031 A 
ATOM     44  C   UNL A   1      38.080  32.231  32.520  1.00  0.00     0.074 A 
ATOM     45  C   UNL A   1      38.439  31.099  30.352  1.00  0.00     0.049 A 
ATOM     46  N   UNL A   1      39.069  31.732  33.217  1.00  0.00    -0.248 NA
ATOM     47  C   UNL A   1      37.240  33.178  33.273  1.00  0.00     0.031 C 
ATOM     48  C   UNL A   1      38.192  30.775  28.946  1.00  0.00     0.029 A 
ATOM     49  N   UNL A   1      39.523  30.329  30.686  1.00  0.00    -0.354 N 
ATOM     50  C   UNL A   1      38.998  32.332  34.468  1.00  0.00     0.074 A 
ATOM     51  C   UNL A   1      37.868  33.234  34.441  1.00  0.00     0.031 C 
ATOM     52  C   UNL A   1      39.069  29.841  28.550  1.00  0.00     0.029 A 
ATOM     53  C   UNL A   1      39.971  29.537  29.656  1.00  0.00     0.049 A 
ATOM     54  H   UNL A   1      39.941  30.343  31.578  1.00  0.00     0.167 HD
ATOM     55  C   UNL A   1      39.789  32.133  35.548  1.00  0.00     0.034 A 
ATOM     56  C   UNL A   1      40.996  28.666  29.600  1.00  0.00     0.034 A 
ATOM     57  C   UNL A   1      40.878  31.194  35.594  1.00  0.00     0.049 A 
ATOM     58  C   UNL A   1      41.844  28.449  30.817  1.00  0.00     0.074 A 
ATOM     59  C   UNL A   1      41.702  30.890  36.665  1.00  0.00     0.029 A 
ATOM     60  N   UNL A   1      41.290  30.403  34.534  1.00  0.00    -0.354 N 
ATOM     61  N   UNL A   1      41.710  28.971  32.012  1.00  0.00    -0.248 NA
ATOM     62  C   UNL A   1      42.975  27.520  30.687  1.00  0.00     0.031 C 
ATOM     63  C   UNL A   1      42.615  29.918  36.250  1.00  0.00     0.029 A 
ATOM     64  C   UNL A   1      42.356  29.613  34.923  1.00  0.00     0.049 A 
ATOM     65  H   UNL A   1      40.884  30.404  33.638  1.00  0.00     0.167 HD
ATOM     66  C   UNL A   1      42.732  28.428  32.779  1.00  0.00     0.074 A 
ATOM     67  C   UNL A   1      43.464  27.519  31.921  1.00  0.00     0.031 C 
ATOM     68  C   UNL A   1      43.047  28.680  34.072  1.00  0.00     0.034 A 
BRANCH  55  69
ATOM     69  C   UNL A   1      39.485  32.904  36.803  1.00  0.00     0.023 A 
ATOM     70  C   UNL A   1      38.548  32.383  37.717  1.00  0.00     0.012 A 
ATOM     71  C   UNL A   1      40.200  34.073  37.128  1.00  0.00     0.148 A 
ATOM     72  C   UNL A   1      38.321  33.020  38.936  1.00  0.00     0.002 A 
ATOM     73  C   UNL A   1      39.987  34.687  38.357  1.00  0.00     0.091 A 
ATOM     74  F   UNL A   1      41.077  34.553  36.235  1.00  0.00    -0.205 F 
ATOM     75  C   UNL A   1      39.047  34.164  39.260  1.00  0.00     0.022 A 
BRANCH  73  76
ATOM     76  S   UNL A   1      40.907  36.133  38.897  1.00  0.00     0.127 S 
ATOM     77  O   UNL A   1      40.354  37.173  38.031  1.00  0.00    -0.237 OA
ATOM     78  O   UNL A   1      40.515  36.237  40.303  1.00  0.00    -0.237 OA
ATOM     79  O   UNL A   1      42.313  35.825  38.674  1.00  0.00    -0.744 OA
ENDBRANCH  73  76
ENDBRANCH  55  69
BRANCH  56  80
ATOM     80  C   UNL A   1      41.228  27.899  28.346  1.00  0.00     0.023 A 
ATOM     81  C   UNL A   1      42.024  28.463  27.333  1.00  0.00     0.012 A 
ATOM     82  C   UNL A   1      40.742  26.587  28.195  1.00  0.00     0.148 A 
ATOM     83  C   UNL A   1      42.333  27.733  26.186  1.00  0.00     0.002 A 
ATOM     84  C   UNL A   1      41.090  25.848  27.072  1.00  0.00     0.091 A 
ATOM     85  F   UNL A   1      39.980  26.077  29.173  1.00  0.00    -0.205 F 
ATOM     86  C   UNL A   1      41.878  26.422  26.061  1.00  0.00     0.022 A 
BRANCH  84  87
ATOM     87  S   UNL A   1      40.655  24.117  26.880  1.00  0.00     0.127 S 
ATOM     88  O   UNL A   1      39.263  24.207  26.444  1.00  0.00    -0.237 OA
ATOM     89  O   UNL A   1      41.597  23.685  25.848  1.00  0.00    -0.237 OA
ATOM     90  O   UNL A   1      40.865  23.506  28.184  1.00  0.00    -0.744 OA
ENDBRANCH  84  87
ENDBRANCH  56  80
BRANCH  68  91
ATOM     91  C   UNL A   1      44.233  27.969  34.657  1.00  0.00     0.023 A 
ATOM     92  C   UNL A   1      45.478  28.626  34.695  1.00  0.00     0.012 A 
ATOM     93  C   UNL A   1      44.091  26.709  35.269  1.00  0.00     0.148 A 
ATOM     94  C   UNL A   1      46.570  28.035  35.328  1.00  0.00     0.002 A 
ATOM     95  C   UNL A   1      45.175  26.140  35.926  1.00  0.00     0.091 A 
ATOM     96  F   UNL A   1      42.897  26.101  35.207  1.00  0.00    -0.205 F 
ATOM     97  C   UNL A   1      46.415  26.799  35.954  1.00  0.00     0.022 A 
BRANCH  95  98
ATOM     98  S   UNL A   1      45.056  24.587  36.822  1.00  0.00     0.127 S 
ATOM     99  O   UNL A   1      44.250  24.973  37.980  1.00  0.00    -0.237 OA
ATOM    100  O   UNL A   1      44.369  23.726  35.859  1.00  0.00    -0.237 OA
ATOM    101  O   UNL A   1      46.425  24.190  37.124  1.00  0.00    -0.744 OA
ENDBRANCH  95  98
ENDBRANCH  68  91
ENDBRANCH  42  43
ENDBRANCH  34  37
ENDBRANCH  32  33
ENDBRANCH  31  32
ENDBRANCH  30  31
ENDBRANCH   1  30
TORSDOF 22
ENDMDL
MODEL 2
REMARK VINA RESULT:     -10.7      1.720      7.510
REMARK SMILES CCC(CC)COc1cc2c(cc1Cl)C=C(C(=O)NCCCCCCNC(=O)c1ccc(-c3c4nc(c(-c5cccc(S(=O)(=O)[O-])c5F)c5ccc([nH]5)c(-c5cccc(S(=O)(=O)[O-])c5F)c5nc(c(-c6cccc(S(=O)(=O)[O-])c6F)c6ccc3[nH]6)C=C5)C=C4)cc1)[C@@H](C(F)(F)F)O2
REMARK SMILES IDX 22 1 21 2 20 3 19 4 17 5 18 6 16 8 8 9 9 10 13 11 10 12
REMARK SMILES IDX 12 13 14 14 11 15 97 16 15 17 92 18 7 19 6 20 3 21 2 22 1 23
REMARK SMILES IDX 4 24 5 25 93 26 94 27 95 28 96 29 23 30 24 31 25 32 26 33
REMARK SMILES IDX 27 34 28 36 29 37 30 38 91 39 31 40 90 41 32 42 33 43 34 44
REMARK SMILES IDX 84 45 35 46 89 47 83 48 85 49 36 50 88 51 82 52 81 53 37 55
REMARK SMILES IDX 69 56 49 57 68 58 50 59 53 60 67 61 86 62 51 63 52 64 66 66
REMARK SMILES IDX 87 67 54 68 38 69 39 70 47 71 40 72 42 73 48 74 41 75 43 76
REMARK SMILES IDX 44 77 45 78 46 79 70 80 71 81 79 82 72 83 74 84 80 85 73 86
REMARK SMILES IDX 75 87 76 88 77 89 78 90 55 91 56 92 64 93 57 94 59 95 65 96
REMARK SMILES IDX 58 97 60 98 61 99 62 100 63 101
REMARK H PARENT 19 7 26 35 85 54 53 65
REMARK Flexibility Score: inf
ROOT
ATOM      1  C   UNL A   1      34.481  29.617  27.633  1.00  0.00     0.002 C 
ENDROOT
BRANCH   1   2
ATOM      2  C   UNL A   1      33.180  29.365  26.867  1.00  0.00     0.021 C 
BRANCH   2   3
ATOM      3  C   UNL A   1      33.265  29.665  25.374  1.00  0.00     0.116 C 
BRANCH   3   4
ATOM      4  N   UNL A   1      31.947  29.668  24.768  1.00  0.00    -0.352 N 
ATOM      5  C   UNL A   1      31.097  28.747  24.264  1.00  0.00     0.251 C 
ATOM      6  O   UNL A   1      30.016  29.191  23.862  1.00  0.00    -0.270 OA
ATOM      7  H   UNL A   1      31.575  30.578  24.710  1.00  0.00     0.163 HD
BRANCH   5   8
ATOM      8  C   UNL A   1      31.372  27.289  24.165  1.00  0.00     0.067 C 
ATOM      9  C   UNL A   1      31.721  22.395  25.169  1.00  0.00     0.141 A 
ATOM     10  C   UNL A   1      31.409  23.105  24.009  1.00  0.00     0.095 A 
ATOM     11  C   UNL A   1      32.097  23.081  26.335  1.00  0.00     0.083 A 
ATOM     12  C   UNL A   1      31.371  24.495  24.065  1.00  0.00     0.131 A 
ATOM     13  C   UNL A   1      31.941  24.465  26.409  1.00  0.00     0.036 A 
ATOM     14  Cl  UNL A   1      32.725  22.264  27.719  1.00  0.00    -0.080 Cl
ATOM     15  C   UNL A   1      31.547  25.171  25.278  1.00  0.00     0.019 A 
ATOM     16  O   UNL A   1      31.157  25.180  22.897  1.00  0.00    -0.475 OA
ATOM     17  C   UNL A   1      31.303  26.605  25.322  1.00  0.00     0.025 C 
ATOM     18  C   UNL A   1      31.711  26.536  22.906  1.00  0.00     0.314 C 
BRANCH   9  19
ATOM     19  O   UNL A   1      31.676  21.026  25.154  1.00  0.00    -0.492 OA
BRANCH  19  20
ATOM     20  C   UNL A   1      32.523  20.457  24.125  1.00  0.00     0.233 C 
BRANCH  20  21
ATOM     21  C   UNL A   1      33.424  19.329  24.685  1.00  0.00     0.026 C 
BRANCH  21  22
ATOM     22  C   UNL A   1      33.260  18.021  23.875  1.00  0.00     0.003 C 
ATOM     23  C   UNL A   1      32.337  18.181  22.675  1.00  0.00     0.004 C 
ENDBRANCH  21  22
BRANCH  21  24
ATOM     24  C   UNL A   1      34.900  19.763  24.805  1.00  0.00     0.003 C 
ATOM     25  C   UNL A   1      35.132  21.227  25.146  1.00  0.00     0.004 C 
ENDBRANCH  21  24
ENDBRANCH  20  21
ENDBRANCH  19  20
ENDBRANCH   9  19
BRANCH  18  26
ATOM     26  C   UNL A   1      33.236  26.519  22.646  1.00  0.00     0.429 C 
ATOM     27  F   UNL A   1      33.922  26.779  23.783  1.00  0.00    -0.167 F 
ATOM     28  F   UNL A   1      33.661  25.308  22.206  1.00  0.00    -0.167 F 
ATOM     29  F   UNL A   1      33.628  27.421  21.718  1.00  0.00    -0.167 F 
ENDBRANCH  18  26
ENDBRANCH   5   8
ENDBRANCH   3   4
ENDBRANCH   2   3
ENDBRANCH   1   2
BRANCH   1  30
ATOM     30  C   UNL A   1      34.869  31.090  27.808  1.00  0.00     0.002 C 
BRANCH  30  31
ATOM     31  C   UNL A   1      33.699  32.066  27.959  1.00  0.00     0.021 C 
BRANCH  31  32
ATOM     32  C   UNL A   1      34.050  33.530  27.729  1.00  0.00     0.116 C 
BRANCH  32  33
ATOM     33  N   UNL A   1      33.303  34.428  28.597  1.00  0.00    -0.352 N 
ATOM     34  C   UNL A   1      33.466  34.663  29.942  1.00  0.00     0.251 C 
ATOM     35  H   UNL A   1      32.581  34.937  28.162  1.00  0.00     0.163 HD
ATOM     36  O   UNL A   1      32.655  35.337  30.551  1.00  0.00    -0.269 OA
BRANCH  34  37
ATOM     37  C   UNL A   1      34.623  34.056  30.641  1.00  0.00     0.039 A 
ATOM     38  C   UNL A   1      35.919  34.523  30.404  1.00  0.00     0.014 A 
ATOM     39  C   UNL A   1      34.409  32.983  31.510  1.00  0.00     0.014 A 
ATOM     40  C   UNL A   1      37.006  33.821  30.911  1.00  0.00     0.010 A 
ATOM     41  C   UNL A   1      35.501  32.329  32.084  1.00  0.00     0.010 A 
ATOM     42  C   UNL A   1      36.810  32.712  31.754  1.00  0.00    -0.014 A 
BRANCH  42  43
ATOM     43  C   UNL A   1      37.992  31.985  32.286  1.00  0.00     0.031 A 
ATOM     44  C   UNL A   1      38.679  30.921  31.472  1.00  0.00     0.074 A 
ATOM     45  C   UNL A   1      38.470  32.318  33.501  1.00  0.00     0.049 A 
ATOM     46  N   UNL A   1      39.737  30.213  31.777  1.00  0.00    -0.248 NA
ATOM     47  C   UNL A   1      38.114  30.607  30.149  1.00  0.00     0.031 C 
ATOM     48  C   UNL A   1      37.877  33.316  34.393  1.00  0.00     0.029 A 
ATOM     49  N   UNL A   1      39.567  31.866  34.190  1.00  0.00    -0.354 N 
ATOM     50  C   UNL A   1      39.938  29.345  30.712  1.00  0.00     0.074 A 
ATOM     51  C   UNL A   1      38.895  29.612  29.747  1.00  0.00     0.031 C 
ATOM     52  C   UNL A   1      38.640  33.435  35.489  1.00  0.00     0.029 A 
ATOM     53  C   UNL A   1      39.746  32.487  35.403  1.00  0.00     0.049 A 
ATOM     54  H   UNL A   1      40.168  31.165  33.848  1.00  0.00     0.167 HD
ATOM     55  C   UNL A   1      40.916  28.424  30.543  1.00  0.00     0.034 A 
ATOM     56  C   UNL A   1      40.689  32.312  36.348  1.00  0.00     0.034 A 
ATOM     57  C   UNL A   1      41.987  28.198  31.476  1.00  0.00     0.049 A 
ATOM     58  C   UNL A   1      41.773  31.300  36.126  1.00  0.00     0.074 A 
ATOM     59  C   UNL A   1      43.050  27.320  31.362  1.00  0.00     0.029 A 
ATOM     60  N   UNL A   1      42.138  28.856  32.686  1.00  0.00    -0.354 N 
ATOM     61  N   UNL A   1      41.986  30.545  35.076  1.00  0.00    -0.248 NA
ATOM     62  C   UNL A   1      42.751  31.121  37.207  1.00  0.00     0.031 C 
ATOM     63  C   UNL A   1      43.844  27.443  32.505  1.00  0.00     0.029 A 
ATOM     64  C   UNL A   1      43.276  28.403  33.329  1.00  0.00     0.049 A 
ATOM     65  H   UNL A   1      41.526  29.543  33.035  1.00  0.00     0.167 HD
ATOM     66  C   UNL A   1      43.126  29.807  35.366  1.00  0.00     0.074 A 
ATOM     67  C   UNL A   1      43.573  30.222  36.680  1.00  0.00     0.031 C 
ATOM     68  C   UNL A   1      43.733  28.855  34.616  1.00  0.00     0.034 A 
BRANCH  55  69
ATOM     69  C   UNL A   1      40.918  27.615  29.276  1.00  0.00     0.023 A 
ATOM     70  C   UNL A   1      39.998  26.557  29.136  1.00  0.00     0.012 A 
ATOM     71  C   UNL A   1      41.744  27.968  28.190  1.00  0.00     0.148 A 
ATOM     72  C   UNL A   1      39.905  25.856  27.935  1.00  0.00     0.002 A 
ATOM     73  C   UNL A   1      41.626  27.282  26.988  1.00  0.00     0.091 A 
ATOM     74  F   UNL A   1      42.619  28.971  28.355  1.00  0.00    -0.205 F 
ATOM     75  C   UNL A   1      40.710  26.224  26.859  1.00  0.00     0.022 A 
BRANCH  73  76
ATOM     76  S   UNL A   1      42.576  27.708  25.523  1.00  0.00     0.127 S 
ATOM     77  O   UNL A   1      41.935  28.956  25.111  1.00  0.00    -0.237 OA
ATOM     78  O   UNL A   1      43.925  27.866  26.069  1.00  0.00    -0.237 OA
ATOM     79  O   UNL A   1      42.415  26.594  24.599  1.00  0.00    -0.744 OA
ENDBRANCH  73  76
ENDBRANCH  55  69
BRANCH  56  80
ATOM     80  C   UNL A   1      40.662  33.168  37.565  1.00  0.00     0.023 A 
ATOM     81  C   UNL A   1      39.846  32.796  38.648  1.00  0.00     0.012 A 
ATOM     82  C   UNL A   1      41.507  34.287  37.686  1.00  0.00     0.148 A 
ATOM     83  C   UNL A   1      39.869  33.527  39.835  1.00  0.00     0.002 A 
ATOM     84  C   UNL A   1      41.560  34.984  38.886  1.00  0.00     0.091 A 
ATOM     85  F   UNL A   1      42.270  34.621  36.635  1.00  0.00    -0.205 F 
ATOM     86  C   UNL A   1      40.735  34.612  39.959  1.00  0.00     0.022 A 
BRANCH  84  87
ATOM     87  S   UNL A   1      42.728  36.315  39.181  1.00  0.00     0.127 S 
ATOM     88  O   UNL A   1      42.458  37.203  38.053  1.00  0.00    -0.237 OA
ATOM     89  O   UNL A   1      42.285  36.818  40.481  1.00  0.00    -0.237 OA
ATOM     90  O   UNL A   1      44.044  35.694  39.190  1.00  0.00    -0.744 OA
ENDBRANCH  84  87
ENDBRANCH  56  80
BRANCH  68  91
ATOM     91  C   UNL A   1      44.951  28.186  35.185  1.00  0.00     0.023 A 
ATOM     92  C   UNL A   1      46.208  28.799  35.023  1.00  0.00     0.012 A 
ATOM     93  C   UNL A   1      44.836  27.024  35.971  1.00  0.00     0.148 A 
ATOM     94  C   UNL A   1      47.340  28.258  35.632  1.00  0.00     0.002 A 
ATOM     95  C   UNL A   1      45.963  26.509  36.601  1.00  0.00     0.091 A 
ATOM     96  F   UNL A   1      43.628  26.456  36.098  1.00  0.00    -0.205 F 
ATOM     97  C   UNL A   1      47.215  27.122  36.429  1.00  0.00     0.022 A 
BRANCH  95  98
ATOM     98  S   UNL A   1      45.891  25.094  37.705  1.00  0.00     0.127 S 
ATOM     99  O   UNL A   1      44.883  25.523  38.673  1.00  0.00    -0.237 OA
ATOM    100  O   UNL A   1      45.459  24.023  36.807  1.00  0.00    -0.237 OA
ATOM    101  O   UNL A   1      47.236  24.931  38.241  1.00  0.00    -0.744 OA
ENDBRANCH  95  98
ENDBRANCH  68  91
ENDBRANCH  42  43
ENDBRANCH  34  37
ENDBRANCH  32  33
ENDBRANCH  31  32
ENDBRANCH  30  31
ENDBRANCH   1  30
TORSDOF 22
ENDMDL
MODEL 3
REMARK VINA RESULT:     -10.5      2.520      3.556
REMARK SMILES CCC(CC)COc1cc2c(cc1Cl)C=C(C(=O)NCCCCCCNC(=O)c1ccc(-c3c4nc(c(-c5cccc(S(=O)(=O)[O-])c5F)c5ccc([nH]5)c(-c5cccc(S(=O)(=O)[O-])c5F)c5nc(c(-c6cccc(S(=O)(=O)[O-])c6F)c6ccc3[nH]6)C=C5)C=C4)cc1)[C@@H](C(F)(F)F)O2
REMARK SMILES IDX 22 1 21 2 20 3 19 4 17 5 18 6 16 8 8 9 9 10 13 11 10 12
REMARK SMILES IDX 12 13 14 14 11 15 97 16 15 17 92 18 7 19 6 20 3 21 2 22 1 23
REMARK SMILES IDX 4 24 5 25 93 26 94 27 95 28 96 29 23 30 24 31 25 32 26 33
REMARK SMILES IDX 27 34 28 36 29 37 30 38 91 39 31 40 90 41 32 42 33 43 34 44
REMARK SMILES IDX 84 45 35 46 89 47 83 48 85 49 36 50 88 51 82 52 81 53 37 55
REMARK SMILES IDX 69 56 49 57 68 58 50 59 53 60 67 61 86 62 51 63 52 64 66 66
REMARK SMILES IDX 87 67 54 68 38 69 39 70 47 71 40 72 42 73 48 74 41 75 43 76
REMARK SMILES IDX 44 77 45 78 46 79 70 80 71 81 79 82 72 83 74 84 80 85 73 86
REMARK SMILES IDX 75 87 76 88 77 89 78 90 55 91 56 92 64 93 57 94 59 95 65 96
REMARK SMILES IDX 58 97 60 98 61 99 62 100 63 101
REMARK H PARENT 19 7 26 35 85 54 53 65
REMARK Flexibility Score: inf
ROOT
ATOM      1  C   UNL A   1      33.080  28.024  26.619  1.00  0.00     0.002 C 
ENDROOT
BRANCH   1   2
ATOM      2  C   UNL A   1      31.720  28.539  26.140  1.00  0.00     0.021 C 
BRANCH   2   3
ATOM      3  C   UNL A   1      31.527  28.482  24.628  1.00  0.00     0.116 C 
BRANCH   3   4
ATOM      4  N   UNL A   1      30.248  27.887  24.289  1.00  0.00    -0.352 N 
ATOM      5  C   UNL A   1      29.773  26.641  24.068  1.00  0.00     0.251 C 
ATOM      6  O   UNL A   1      28.562  26.574  23.831  1.00  0.00    -0.270 OA
ATOM      7  H   UNL A   1      29.543  28.568  24.196  1.00  0.00     0.163 HD
BRANCH   5   8
ATOM      8  C   UNL A   1      30.586  25.396  24.092  1.00  0.00     0.067 C 
ATOM      9  C   UNL A   1      32.939  21.233  25.576  1.00  0.00     0.141 A 
ATOM     10  C   UNL A   1      32.245  21.566  24.413  1.00  0.00     0.095 A 
ATOM     11  C   UNL A   1      33.144  22.198  26.574  1.00  0.00     0.083 A 
ATOM     12  C   UNL A   1      31.670  22.829  24.314  1.00  0.00     0.131 A 
ATOM     13  C   UNL A   1      32.467  23.416  26.515  1.00  0.00     0.036 A 
ATOM     14  Cl  UNL A   1      34.194  21.923  27.915  1.00  0.00    -0.080 Cl
ATOM     15  C   UNL A   1      31.702  23.719  25.394  1.00  0.00     0.019 A 
ATOM     16  O   UNL A   1      31.074  23.175  23.129  1.00  0.00    -0.475 OA
ATOM     17  C   UNL A   1      30.921  24.945  25.314  1.00  0.00     0.025 C 
ATOM     18  C   UNL A   1      31.049  24.619  22.889  1.00  0.00     0.314 C 
BRANCH   9  19
ATOM     19  O   UNL A   1      33.434  19.964  25.725  1.00  0.00    -0.492 OA
BRANCH  19  20
ATOM     20  C   UNL A   1      32.657  18.980  25.000  1.00  0.00     0.233 C 
BRANCH  20  21
ATOM     21  C   UNL A   1      33.554  17.859  24.419  1.00  0.00     0.026 C 
BRANCH  21  22
ATOM     22  C   UNL A   1      33.752  16.710  25.435  1.00  0.00     0.003 C 
ATOM     23  C   UNL A   1      35.051  15.946  25.219  1.00  0.00     0.004 C 
ENDBRANCH  21  22
BRANCH  21  24
ATOM     24  C   UNL A   1      33.046  17.352  23.052  1.00  0.00     0.003 C 
ATOM     25  C   UNL A   1      32.349  18.386  22.182  1.00  0.00     0.004 C 
ENDBRANCH  21  24
ENDBRANCH  20  21
ENDBRANCH  19  20
ENDBRANCH   9  19
BRANCH  18  26
ATOM     26  C   UNL A   1      32.418  25.126  22.376  1.00  0.00     0.429 C 
ATOM     27  F   UNL A   1      33.066  25.821  23.339  1.00  0.00    -0.167 F 
ATOM     28  F   UNL A   1      33.235  24.103  22.021  1.00  0.00    -0.167 F 
ATOM     29  F   UNL A   1      32.317  25.927  21.292  1.00  0.00    -0.167 F 
ENDBRANCH  18  26
ENDBRANCH   5   8
ENDBRANCH   3   4
ENDBRANCH   2   3
ENDBRANCH   1   2
BRANCH   1  30
ATOM     30  C   UNL A   1      34.105  29.107  26.978  1.00  0.00     0.002 C 
BRANCH  30  31
ATOM     31  C   UNL A   1      33.524  30.489  27.288  1.00  0.00     0.021 C 
BRANCH  31  32
ATOM     32  C   UNL A   1      34.553  31.554  27.640  1.00  0.00     0.116 C 
BRANCH  32  33
ATOM     33  N   UNL A   1      34.221  32.272  28.861  1.00  0.00    -0.352 N 
ATOM     34  C   UNL A   1      34.871  32.264  30.072  1.00  0.00     0.251 C 
ATOM     35  H   UNL A   1      33.419  32.842  28.814  1.00  0.00     0.163 HD
ATOM     36  O   UNL A   1      34.373  32.807  31.042  1.00  0.00    -0.269 OA
BRANCH  34  37
ATOM     37  C   UNL A   1      36.168  31.556  30.185  1.00  0.00     0.039 A 
ATOM     38  C   UNL A   1      36.266  30.367  30.913  1.00  0.00     0.014 A 
ATOM     39  C   UNL A   1      37.303  32.111  29.587  1.00  0.00     0.014 A 
ATOM     40  C   UNL A   1      37.518  29.822  31.175  1.00  0.00     0.010 A 
ATOM     41  C   UNL A   1      38.550  31.515  29.784  1.00  0.00     0.010 A 
ATOM     42  C   UNL A   1      38.676  30.392  30.616  1.00  0.00    -0.014 A 
BRANCH  42  43
ATOM     43  C   UNL A   1      39.999  29.783  30.908  1.00  0.00     0.031 A 
ATOM     44  C   UNL A   1      40.788  30.188  32.125  1.00  0.00     0.074 A 
ATOM     45  C   UNL A   1      40.474  28.827  30.085  1.00  0.00     0.049 A 
ATOM     46  N   UNL A   1      41.944  29.734  32.539  1.00  0.00    -0.248 NA
ATOM     47  C   UNL A   1      40.214  31.232  32.990  1.00  0.00     0.031 C 
ATOM     48  C   UNL A   1      39.812  28.366  28.863  1.00  0.00     0.029 A 
ATOM     49  N   UNL A   1      41.611  28.064  30.156  1.00  0.00    -0.354 N 
ATOM     50  C   UNL A   1      42.256  30.463  33.680  1.00  0.00     0.074 A 
ATOM     51  C   UNL A   1      41.168  31.390  33.899  1.00  0.00     0.031 C 
ATOM     52  C   UNL A   1      40.529  27.370  28.324  1.00  0.00     0.029 A 
ATOM     53  C   UNL A   1      41.726  27.156  29.131  1.00  0.00     0.049 A 
ATOM     54  H   UNL A   1      42.280  28.157  30.872  1.00  0.00     0.167 HD
ATOM     55  C   UNL A   1      43.339  30.353  34.484  1.00  0.00     0.034 A 
ATOM     56  C   UNL A   1      42.688  26.254  28.860  1.00  0.00     0.034 A 
ATOM     57  C   UNL A   1      44.392  29.393  34.300  1.00  0.00     0.049 A 
ATOM     58  C   UNL A   1      43.867  26.139  29.780  1.00  0.00     0.074 A 
ATOM     59  C   UNL A   1      45.504  29.177  35.096  1.00  0.00     0.029 A 
ATOM     60  N   UNL A   1      44.465  28.484  33.256  1.00  0.00    -0.354 N 
ATOM     61  N   UNL A   1      44.102  26.786  30.895  1.00  0.00    -0.248 NA
ATOM     62  C   UNL A   1      44.908  25.168  29.414  1.00  0.00     0.031 C 
ATOM     63  C   UNL A   1      46.252  28.140  34.532  1.00  0.00     0.029 A 
ATOM     64  C   UNL A   1      45.602  27.707  33.387  1.00  0.00     0.049 A 
ATOM     65  H   UNL A   1      43.805  28.404  32.531  1.00  0.00     0.167 HD
ATOM     66  C   UNL A   1      45.311  26.296  31.370  1.00  0.00     0.074 A 
ATOM     67  C   UNL A   1      45.750  25.280  30.434  1.00  0.00     0.031 C 
ATOM     68  C   UNL A   1      46.004  26.671  32.472  1.00  0.00     0.034 A 
BRANCH  55  69
ATOM     69  C   UNL A   1      43.429  31.259  35.681  1.00  0.00     0.023 A 
ATOM     70  C   UNL A   1      42.931  30.809  36.921  1.00  0.00     0.012 A 
ATOM     71  C   UNL A   1      44.098  32.496  35.608  1.00  0.00     0.148 A 
ATOM     72  C   UNL A   1      43.093  31.581  38.070  1.00  0.00     0.002 A 
ATOM     73  C   UNL A   1      44.279  33.247  36.763  1.00  0.00     0.091 A 
ATOM     74  F   UNL A   1      44.550  32.906  34.414  1.00  0.00    -0.205 F 
ATOM     75  C   UNL A   1      43.775  32.793  37.993  1.00  0.00     0.022 A 
BRANCH  73  76
ATOM     76  S   UNL A   1      45.188  34.797  36.786  1.00  0.00     0.127 S 
ATOM     77  O   UNL A   1      44.455  35.583  35.795  1.00  0.00    -0.237 OA
ATOM     78  O   UNL A   1      45.007  35.237  38.170  1.00  0.00    -0.237 OA
ATOM     79  O   UNL A   1      46.559  34.466  36.423  1.00  0.00    -0.744 OA
ENDBRANCH  73  76
ENDBRANCH  55  69
BRANCH  56  80
ATOM     80  C   UNL A   1      42.529  25.355  27.685  1.00  0.00     0.023 A 
ATOM     81  C   UNL A   1      42.982  25.785  26.425  1.00  0.00     0.012 A 
ATOM     82  C   UNL A   1      42.021  24.050  27.831  1.00  0.00     0.148 A 
ATOM     83  C   UNL A   1      42.929  24.930  25.325  1.00  0.00     0.002 A 
ATOM     84  C   UNL A   1      42.014  23.188  26.742  1.00  0.00     0.091 A 
ATOM     85  F   UNL A   1      41.592  23.669  29.042  1.00  0.00    -0.205 F 
ATOM     86  C   UNL A   1      42.458  23.629  25.485  1.00  0.00     0.022 A 
BRANCH  84  87
ATOM     87  S   UNL A   1      41.541  21.462  26.878  1.00  0.00     0.127 S 
ATOM     88  O   UNL A   1      42.375  21.011  27.990  1.00  0.00    -0.237 OA
ATOM     89  O   UNL A   1      40.114  21.566  27.181  1.00  0.00    -0.237 OA
ATOM     90  O   UNL A   1      41.843  20.864  25.586  1.00  0.00    -0.744 OA
ENDBRANCH  84  87
ENDBRANCH  56  80
BRANCH  68  91
ATOM     91  C   UNL A   1      47.314  25.989  32.743  1.00  0.00     0.023 A 
ATOM     92  C   UNL A   1      48.496  26.541  32.215  1.00  0.00     0.012 A 
ATOM     93  C   UNL A   1      47.386  24.881  33.608  1.00  0.00     0.148 A 
ATOM     94  C   UNL A   1      49.737  25.993  32.538  1.00  0.00     0.002 A 
ATOM     95  C   UNL A   1      48.628  24.360  33.952  1.00  0.00     0.091 A 
ATOM     96  F   UNL A   1      46.243  24.369  34.087  1.00  0.00    -0.205 F 
ATOM     97  C   UNL A   1      49.803  24.912  33.416  1.00  0.00     0.022 A 
BRANCH  95  98
ATOM     98  S   UNL A   1      48.821  23.016  35.129  1.00  0.00     0.127 S 
ATOM     99  O   UNL A   1      50.261  22.770  35.065  1.00  0.00    -0.237 OA
ATOM    100  O   UNL A   1      48.361  23.629  36.376  1.00  0.00    -0.237 OA
ATOM    101  O   UNL A   1      47.984  21.929  34.641  1.00  0.00    -0.744 OA
ENDBRANCH  95  98
ENDBRANCH  68  91
ENDBRANCH  42  43
ENDBRANCH  34  37
ENDBRANCH  32  33
ENDBRANCH  31  32
ENDBRANCH  30  31
ENDBRANCH   1  30
TORSDOF 22
ENDMDL
