MODEL 1
REMARK VINA RESULT:     -11.2      0.000      0.000
REMARK SMILES COc1cc(S(=O)(=O)Nc2cccc(C(=O)NCCCCCCNC(=O)c3ccc(-c4c5nc(c(-c6cccc(S(=O)(=O)[O-])c6F)c6ccc([nH]6)c(-c6cccc(S(=O)(=O)[O-])c6F)c6nc(c(-c7cccc(S(=O)(=O)[O-])c7F)c7ccc4[nH]7)C=C6)C=C5)cc3)c2)c(OC)cc1C
REMARK SMILES IDX 20 1 19 2 18 3 17 4 15 5 16 6 14 8 10 9 11 10 90 11 12 12
REMARK SMILES IDX 13 13 9 14 6 16 7 17 8 18 5 19 3 20 4 21 95 22 94 23 96 24
REMARK SMILES IDX 91 25 2 26 1 27 92 28 93 29 21 30 22 31 23 32 24 33 25 34
REMARK SMILES IDX 26 36 27 37 28 38 89 39 29 40 88 41 30 42 31 43 32 44 82 45
REMARK SMILES IDX 33 46 87 47 81 48 83 49 34 50 86 51 80 52 79 53 35 55 67 56
REMARK SMILES IDX 47 57 66 58 48 59 51 60 65 61 84 62 49 63 50 64 64 66 85 67
REMARK SMILES IDX 52 68 36 69 37 70 45 71 38 72 40 73 46 74 39 75 41 76 42 77
REMARK SMILES IDX 43 78 44 79 68 80 69 81 77 82 70 83 72 84 78 85 71 86 73 87
REMARK SMILES IDX 74 88 75 89 76 90 53 91 54 92 62 93 55 94 57 95 63 96 56 97
REMARK SMILES IDX 58 98 59 99 60 100 61 101
REMARK H PARENT 17 7 9 15 24 35 83 54 51 65
REMARK Flexibility Score: inf
ROOT
ATOM      1  C   UNL A   1      36.947  21.788  25.043  1.00  0.00     0.002 C 
ENDROOT
BRANCH   1   2
ATOM      2  C   UNL A   1      36.960  23.315  25.220  1.00  0.00     0.021 C 
BRANCH   2   3
ATOM      3  C   UNL A   1      35.695  23.885  25.857  1.00  0.00     0.116 C 
BRANCH   3   4
ATOM      4  N   UNL A   1      35.104  22.922  26.766  1.00  0.00    -0.352 N 
ATOM      5  C   UNL A   1      34.065  22.044  26.623  1.00  0.00     0.251 C 
ATOM      6  O   UNL A   1      33.788  21.303  27.566  1.00  0.00    -0.269 OA
ATOM      7  H   UNL A   1      35.532  22.894  27.652  1.00  0.00     0.163 HD
BRANCH   5   8
ATOM      8  C   UNL A   1      33.355  21.861  25.336  1.00  0.00     0.041 A 
ATOM      9  C   UNL A   1      31.938  22.949  23.684  1.00  0.00     0.050 A 
ATOM     10  C   UNL A   1      31.775  21.736  23.022  1.00  0.00     0.027 A 
ATOM     11  C   UNL A   1      32.783  23.017  24.794  1.00  0.00     0.040 A 
ATOM     12  C   UNL A   1      32.403  20.585  23.518  1.00  0.00     0.003 A 
ATOM     13  C   UNL A   1      33.189  20.643  24.677  1.00  0.00     0.014 A 
BRANCH   9  14
ATOM     14  N   UNL A   1      31.266  24.155  23.354  1.00  0.00    -0.279 N 
ATOM     15  H   UNL A   1      31.137  24.344  22.396  1.00  0.00     0.180 HD
BRANCH  14  16
ATOM     16  S   UNL A   1      30.676  25.279  24.427  1.00  0.00     0.265 S 
ATOM     17  O   UNL A   1      30.323  24.583  25.651  1.00  0.00    -0.201 OA
ATOM     18  O   UNL A   1      29.659  26.001  23.687  1.00  0.00    -0.201 OA
BRANCH  16  19
ATOM     19  C   UNL A   1      31.897  26.491  24.878  1.00  0.00     0.133 A 
ATOM     20  C   UNL A   1      32.371  28.269  26.471  1.00  0.00     0.123 A 
ATOM     21  C   UNL A   1      31.480  27.366  25.900  1.00  0.00     0.073 A 
ATOM     22  C   UNL A   1      33.723  28.217  26.135  1.00  0.00    -0.005 A 
ATOM     23  C   UNL A   1      34.108  27.412  25.052  1.00  0.00     0.055 A 
ATOM     24  C   UNL A   1      34.772  28.999  26.867  1.00  0.00     0.048 C 
ATOM     25  C   UNL A   1      33.193  26.590  24.371  1.00  0.00     0.139 A 
BRANCH  20  26
ATOM     26  O   UNL A   1      31.862  29.133  27.401  1.00  0.00    -0.496 OA
ATOM     27  C   UNL A   1      31.650  30.436  26.850  1.00  0.00     0.278 C 
ENDBRANCH  20  26
BRANCH  25  28
ATOM     28  O   UNL A   1      33.513  25.953  23.210  1.00  0.00    -0.495 OA
ATOM     29  C   UNL A   1      33.282  26.641  21.983  1.00  0.00     0.278 C 
ENDBRANCH  25  28
ENDBRANCH  16  19
ENDBRANCH  14  16
ENDBRANCH   9  14
ENDBRANCH   5   8
ENDBRANCH   3   4
ENDBRANCH   2   3
ENDBRANCH   1   2
BRANCH   1  30
ATOM     30  C   UNL A   1      38.243  21.046  25.411  1.00  0.00     0.002 C 
BRANCH  30  31
ATOM     31  C   UNL A   1      39.442  21.927  25.763  1.00  0.00     0.021 C 
BRANCH  31  32
ATOM     32  C   UNL A   1      40.362  21.337  26.822  1.00  0.00     0.116 C 
BRANCH  32  33
ATOM     33  N   UNL A   1      41.751  21.728  26.679  1.00  0.00    -0.352 N 
ATOM     34  C   UNL A   1      42.322  22.992  26.596  1.00  0.00     0.251 C 
ATOM     35  H   UNL A   1      42.391  20.982  26.634  1.00  0.00     0.163 HD
ATOM     36  O   UNL A   1      43.490  23.083  26.281  1.00  0.00    -0.269 OA
BRANCH  34  37
ATOM     37  C   UNL A   1      41.544  24.190  27.028  1.00  0.00     0.039 A 
ATOM     38  C   UNL A   1      41.555  25.311  26.183  1.00  0.00     0.014 A 
ATOM     39  C   UNL A   1      41.013  24.297  28.308  1.00  0.00     0.014 A 
ATOM     40  C   UNL A   1      41.295  26.575  26.710  1.00  0.00     0.010 A 
ATOM     41  C   UNL A   1      40.849  25.549  28.858  1.00  0.00     0.010 A 
ATOM     42  C   UNL A   1      41.065  26.686  28.075  1.00  0.00    -0.014 A 
BRANCH  42  43
ATOM     43  C   UNL A   1      41.117  27.925  28.831  1.00  0.00     0.031 A 
ATOM     44  C   UNL A   1      40.056  28.934  28.687  1.00  0.00     0.074 A 
ATOM     45  C   UNL A   1      42.011  28.018  29.843  1.00  0.00     0.049 A 
ATOM     46  N   UNL A   1      40.141  30.116  29.193  1.00  0.00    -0.248 NA
ATOM     47  C   UNL A   1      38.837  28.720  27.915  1.00  0.00     0.031 C 
ATOM     48  C   UNL A   1      41.933  28.885  31.014  1.00  0.00     0.029 A 
ATOM     49  N   UNL A   1      43.303  27.489  29.897  1.00  0.00    -0.354 N 
ATOM     50  C   UNL A   1      38.899  30.691  29.093  1.00  0.00     0.074 A 
ATOM     51  C   UNL A   1      38.179  29.860  28.161  1.00  0.00     0.031 C 
ATOM     52  C   UNL A   1      43.168  29.057  31.506  1.00  0.00     0.029 A 
ATOM     53  C   UNL A   1      44.086  28.452  30.560  1.00  0.00     0.049 A 
ATOM     54  H   UNL A   1      43.605  26.621  29.544  1.00  0.00     0.167 HD
ATOM     55  C   UNL A   1      38.594  31.715  29.935  1.00  0.00     0.034 A 
ATOM     56  C   UNL A   1      45.173  29.066  30.011  1.00  0.00     0.034 A 
ATOM     57  C   UNL A   1      39.786  32.175  30.664  1.00  0.00     0.049 A 
ATOM     58  C   UNL A   1      45.086  30.583  30.014  1.00  0.00     0.074 A 
ATOM     59  C   UNL A   1      40.215  32.069  31.975  1.00  0.00     0.029 A 
ATOM     60  N   UNL A   1      40.855  32.696  29.945  1.00  0.00    -0.354 N 
ATOM     61  N   UNL A   1      44.055  31.272  30.418  1.00  0.00    -0.248 NA
ATOM     62  C   UNL A   1      46.146  31.441  29.501  1.00  0.00     0.031 C 
ATOM     63  C   UNL A   1      41.568  32.508  32.033  1.00  0.00     0.029 A 
ATOM     64  C   UNL A   1      41.949  32.916  30.766  1.00  0.00     0.049 A 
ATOM     65  H   UNL A   1      40.837  32.884  28.979  1.00  0.00     0.167 HD
ATOM     66  C   UNL A   1      44.210  32.599  30.082  1.00  0.00     0.074 A 
ATOM     67  C   UNL A   1      45.571  32.654  29.573  1.00  0.00     0.031 C 
ATOM     68  C   UNL A   1      43.168  33.490  30.196  1.00  0.00     0.034 A 
BRANCH  55  69
ATOM     69  C   UNL A   1      37.205  32.230  30.272  1.00  0.00     0.023 A 
ATOM     70  C   UNL A   1      36.679  31.857  31.532  1.00  0.00     0.012 A 
ATOM     71  C   UNL A   1      36.327  32.945  29.424  1.00  0.00     0.148 A 
ATOM     72  C   UNL A   1      35.361  32.134  31.911  1.00  0.00     0.002 A 
ATOM     73  C   UNL A   1      35.028  33.277  29.826  1.00  0.00     0.091 A 
ATOM     74  F   UNL A   1      36.689  33.243  28.175  1.00  0.00    -0.205 F 
ATOM     75  C   UNL A   1      34.535  32.854  31.061  1.00  0.00     0.022 A 
BRANCH  73  76
ATOM     76  S   UNL A   1      33.917  34.249  28.789  1.00  0.00     0.127 S 
ATOM     77  O   UNL A   1      34.781  35.349  28.362  1.00  0.00    -0.237 OA
ATOM     78  O   UNL A   1      33.566  33.305  27.726  1.00  0.00    -0.237 OA
ATOM     79  O   UNL A   1      32.798  34.636  29.639  1.00  0.00    -0.744 OA
ENDBRANCH  73  76
ENDBRANCH  55  69
BRANCH  56  80
ATOM     80  C   UNL A   1      45.862  28.247  28.972  1.00  0.00     0.023 A 
ATOM     81  C   UNL A   1      46.557  27.097  29.420  1.00  0.00     0.012 A 
ATOM     82  C   UNL A   1      45.510  28.343  27.615  1.00  0.00     0.148 A 
ATOM     83  C   UNL A   1      46.774  26.016  28.567  1.00  0.00     0.002 A 
ATOM     84  C   UNL A   1      45.729  27.256  26.769  1.00  0.00     0.091 A 
ATOM     85  F   UNL A   1      44.891  29.452  27.191  1.00  0.00    -0.205 F 
ATOM     86  C   UNL A   1      46.328  26.081  27.252  1.00  0.00     0.022 A 
BRANCH  84  87
ATOM     87  S   UNL A   1      45.117  27.241  25.079  1.00  0.00     0.127 S 
ATOM     88  O   UNL A   1      45.027  25.809  24.813  1.00  0.00    -0.237 OA
ATOM     89  O   UNL A   1      43.832  27.928  25.206  1.00  0.00    -0.237 OA
ATOM     90  O   UNL A   1      46.112  27.982  24.317  1.00  0.00    -0.744 OA
ENDBRANCH  84  87
ENDBRANCH  56  80
BRANCH  68  91
ATOM     91  C   UNL A   1      43.126  34.954  29.731  1.00  0.00     0.023 A 
ATOM     92  C   UNL A   1      42.360  35.403  28.641  1.00  0.00     0.012 A 
ATOM     93  C   UNL A   1      43.857  35.970  30.417  1.00  0.00     0.148 A 
ATOM     94  C   UNL A   1      42.254  36.760  28.297  1.00  0.00     0.002 A 
ATOM     95  C   UNL A   1      43.708  37.323  30.110  1.00  0.00     0.091 A 
ATOM     96  F   UNL A   1      44.764  35.641  31.346  1.00  0.00    -0.205 F 
ATOM     97  C   UNL A   1      42.903  37.725  29.050  1.00  0.00     0.022 A 
BRANCH  95  98
ATOM     98  S   UNL A   1      44.480  38.595  31.122  1.00  0.00     0.127 S 
ATOM     99  O   UNL A   1      45.864  38.133  31.186  1.00  0.00    -0.237 OA
ATOM    100  O   UNL A   1      44.278  39.802  30.317  1.00  0.00    -0.237 OA
ATOM    101  O   UNL A   1      43.736  38.586  32.374  1.00  0.00    -0.744 OA
ENDBRANCH  95  98
ENDBRANCH  68  91
ENDBRANCH  42  43
ENDBRANCH  34  37
ENDBRANCH  32  33
ENDBRANCH  31  32
ENDBRANCH  30  31
ENDBRANCH   1  30
TORSDOF 21
ENDMDL
MODEL 2
REMARK VINA RESULT:     -10.8      4.800      9.492
REMARK SMILES COc1cc(S(=O)(=O)Nc2cccc(C(=O)NCCCCCCNC(=O)c3ccc(-c4c5nc(c(-c6cccc(S(=O)(=O)[O-])c6F)c6ccc([nH]6)c(-c6cccc(S(=O)(=O)[O-])c6F)c6nc(c(-c7cccc(S(=O)(=O)[O-])c7F)c7ccc4[nH]7)C=C6)C=C5)cc3)c2)c(OC)cc1C
REMARK SMILES IDX 20 1 19 2 18 3 17 4 15 5 16 6 14 8 10 9 11 10 90 11 12 12
REMARK SMILES IDX 13 13 9 14 6 16 7 17 8 18 5 19 3 20 4 21 95 22 94 23 96 24
REMARK SMILES IDX 91 25 2 26 1 27 92 28 93 29 21 30 22 31 23 32 24 33 25 34
REMARK SMILES IDX 26 36 27 37 28 38 89 39 29 40 88 41 30 42 31 43 32 44 82 45
REMARK SMILES IDX 33 46 87 47 81 48 83 49 34 50 86 51 80 52 79 53 35 55 67 56
REMARK SMILES IDX 47 57 66 58 48 59 51 60 65 61 84 62 49 63 50 64 64 66 85 67
REMARK SMILES IDX 52 68 36 69 37 70 45 71 38 72 40 73 46 74 39 75 41 76 42 77
REMARK SMILES IDX 43 78 44 79 68 80 69 81 77 82 70 83 72 84 78 85 71 86 73 87
REMARK SMILES IDX 74 88 75 89 76 90 53 91 54 92 62 93 55 94 57 95 63 96 56 97
REMARK SMILES IDX 58 98 59 99 60 100 61 101
REMARK H PARENT 17 7 9 15 24 35 83 54 51 65
REMARK Flexibility Score: inf
ROOT
ATOM      1  C   UNL A   1      39.646  29.499  27.987  1.00  0.00     0.002 C 
ENDROOT
BRANCH   1   2
ATOM      2  C   UNL A   1      40.077  29.285  29.448  1.00  0.00     0.021 C 
BRANCH   2   3
ATOM      3  C   UNL A   1      40.320  27.826  29.825  1.00  0.00     0.116 C 
BRANCH   3   4
ATOM      4  N   UNL A   1      41.729  27.593  30.076  1.00  0.00    -0.352 N 
ATOM      5  C   UNL A   1      42.764  27.256  29.248  1.00  0.00     0.251 C 
ATOM      6  O   UNL A   1      43.892  27.151  29.730  1.00  0.00    -0.269 OA
ATOM      7  H   UNL A   1      41.990  27.699  31.020  1.00  0.00     0.163 HD
BRANCH   5   8
ATOM      8  C   UNL A   1      42.601  27.149  27.780  1.00  0.00     0.041 A 
ATOM      9  C   UNL A   1      42.313  25.597  25.929  1.00  0.00     0.050 A 
ATOM     10  C   UNL A   1      42.462  26.645  25.024  1.00  0.00     0.027 A 
ATOM     11  C   UNL A   1      42.313  25.867  27.298  1.00  0.00     0.040 A 
ATOM     12  C   UNL A   1      42.681  27.945  25.500  1.00  0.00     0.003 A 
ATOM     13  C   UNL A   1      42.756  28.200  26.876  1.00  0.00     0.014 A 
BRANCH   9  14
ATOM     14  N   UNL A   1      42.205  24.226  25.576  1.00  0.00    -0.279 N 
ATOM     15  H   UNL A   1      41.296  23.851  25.526  1.00  0.00     0.180 HD
BRANCH  14  16
ATOM     16  S   UNL A   1      43.465  23.194  25.241  1.00  0.00     0.265 S 
ATOM     17  O   UNL A   1      44.589  23.578  26.073  1.00  0.00    -0.201 OA
ATOM     18  O   UNL A   1      43.592  23.220  23.796  1.00  0.00    -0.201 OA
BRANCH  16  19
ATOM     19  C   UNL A   1      43.088  21.507  25.661  1.00  0.00     0.133 A 
ATOM     20  C   UNL A   1      43.904  19.225  25.447  1.00  0.00     0.123 A 
ATOM     21  C   UNL A   1      43.970  20.569  25.092  1.00  0.00     0.073 A 
ATOM     22  C   UNL A   1      43.058  18.819  26.477  1.00  0.00    -0.005 A 
ATOM     23  C   UNL A   1      42.118  19.740  26.967  1.00  0.00     0.055 A 
ATOM     24  C   UNL A   1      43.094  17.439  27.063  1.00  0.00     0.048 C 
ATOM     25  C   UNL A   1      42.079  21.073  26.522  1.00  0.00     0.139 A 
BRANCH  20  26
ATOM     26  O   UNL A   1      44.746  18.371  24.788  1.00  0.00    -0.496 OA
ATOM     27  C   UNL A   1      45.113  18.881  23.502  1.00  0.00     0.278 C 
ENDBRANCH  20  26
BRANCH  25  28
ATOM     28  O   UNL A   1      41.062  21.919  26.849  1.00  0.00    -0.495 OA
ATOM     29  C   UNL A   1      40.935  22.316  28.213  1.00  0.00     0.278 C 
ENDBRANCH  25  28
ENDBRANCH  16  19
ENDBRANCH  14  16
ENDBRANCH   9  14
ENDBRANCH   5   8
ENDBRANCH   3   4
ENDBRANCH   2   3
ENDBRANCH   1   2
BRANCH   1  30
ATOM     30  C   UNL A   1      38.270  28.939  27.591  1.00  0.00     0.002 C 
BRANCH  30  31
ATOM     31  C   UNL A   1      37.155  29.971  27.409  1.00  0.00     0.021 C 
BRANCH  31  32
ATOM     32  C   UNL A   1      35.885  29.662  28.190  1.00  0.00     0.116 C 
BRANCH  32  33
ATOM     33  N   UNL A   1      35.161  30.842  28.623  1.00  0.00    -0.352 N 
ATOM     34  C   UNL A   1      35.524  31.835  29.523  1.00  0.00     0.251 C 
ATOM     35  H   UNL A   1      34.272  30.956  28.216  1.00  0.00     0.163 HD
ATOM     36  O   UNL A   1      34.680  32.629  29.886  1.00  0.00    -0.269 OA
BRANCH  34  37
ATOM     37  C   UNL A   1      36.955  31.999  29.913  1.00  0.00     0.039 A 
ATOM     38  C   UNL A   1      37.453  31.159  30.921  1.00  0.00     0.014 A 
ATOM     39  C   UNL A   1      37.715  33.078  29.477  1.00  0.00     0.014 A 
ATOM     40  C   UNL A   1      38.564  31.555  31.665  1.00  0.00     0.010 A 
ATOM     41  C   UNL A   1      38.751  33.524  30.267  1.00  0.00     0.010 A 
ATOM     42  C   UNL A   1      39.123  32.799  31.403  1.00  0.00    -0.014 A 
BRANCH  42  43
ATOM     43  C   UNL A   1      40.039  33.504  32.281  1.00  0.00     0.031 A 
ATOM     44  C   UNL A   1      39.538  34.220  33.464  1.00  0.00     0.074 A 
ATOM     45  C   UNL A   1      41.366  33.279  32.134  1.00  0.00     0.049 A 
ATOM     46  N   UNL A   1      40.276  35.004  34.172  1.00  0.00    -0.248 NA
ATOM     47  C   UNL A   1      38.153  34.162  33.918  1.00  0.00     0.031 C 
ATOM     48  C   UNL A   1      42.407  33.442  33.142  1.00  0.00     0.029 A 
ATOM     49  N   UNL A   1      42.072  33.062  30.947  1.00  0.00    -0.354 N 
ATOM     50  C   UNL A   1      39.579  35.292  35.319  1.00  0.00     0.074 A 
ATOM     51  C   UNL A   1      38.225  34.884  35.043  1.00  0.00     0.031 C 
ATOM     52  C   UNL A   1      43.585  33.602  32.524  1.00  0.00     0.029 A 
ATOM     53  C   UNL A   1      43.304  33.724  31.106  1.00  0.00     0.049 A 
ATOM     54  H   UNL A   1      41.771  32.551  30.162  1.00  0.00     0.167 HD
ATOM     55  C   UNL A   1      40.280  35.701  36.412  1.00  0.00     0.034 A 
ATOM     56  C   UNL A   1      43.741  34.732  30.298  1.00  0.00     0.034 A 
ATOM     57  C   UNL A   1      41.681  35.985  36.068  1.00  0.00     0.049 A 
ATOM     58  C   UNL A   1      44.091  36.008  31.044  1.00  0.00     0.074 A 
ATOM     59  C   UNL A   1      42.883  35.353  36.326  1.00  0.00     0.029 A 
ATOM     60  N   UNL A   1      41.959  36.991  35.150  1.00  0.00    -0.354 N 
ATOM     61  N   UNL A   1      43.926  36.195  32.325  1.00  0.00    -0.248 NA
ATOM     62  C   UNL A   1      44.604  37.201  30.383  1.00  0.00     0.031 C 
ATOM     63  C   UNL A   1      43.888  35.973  35.529  1.00  0.00     0.029 A 
ATOM     64  C   UNL A   1      43.303  37.006  34.817  1.00  0.00     0.049 A 
ATOM     65  H   UNL A   1      41.287  37.611  34.785  1.00  0.00     0.167 HD
ATOM     66  C   UNL A   1      44.128  37.520  32.642  1.00  0.00     0.074 A 
ATOM     67  C   UNL A   1      44.618  38.086  31.394  1.00  0.00     0.031 C 
ATOM     68  C   UNL A   1      43.797  38.016  33.881  1.00  0.00     0.034 A 
BRANCH  55  69
ATOM     69  C   UNL A   1      39.796  35.698  37.852  1.00  0.00     0.023 A 
ATOM     70  C   UNL A   1      39.994  36.889  38.590  1.00  0.00     0.012 A 
ATOM     71  C   UNL A   1      39.273  34.602  38.579  1.00  0.00     0.148 A 
ATOM     72  C   UNL A   1      39.734  36.979  39.962  1.00  0.00     0.002 A 
ATOM     73  C   UNL A   1      38.954  34.708  39.937  1.00  0.00     0.091 A 
ATOM     74  F   UNL A   1      39.157  33.404  38.002  1.00  0.00    -0.205 F 
ATOM     75  C   UNL A   1      39.204  35.890  40.637  1.00  0.00     0.022 A 
BRANCH  73  76
ATOM     76  S   UNL A   1      38.222  33.345  40.864  1.00  0.00     0.127 S 
ATOM     77  O   UNL A   1      37.994  33.954  42.174  1.00  0.00    -0.237 OA
ATOM     78  O   UNL A   1      37.002  33.063  40.106  1.00  0.00    -0.237 OA
ATOM     79  O   UNL A   1      39.201  32.265  40.846  1.00  0.00    -0.744 OA
ENDBRANCH  73  76
ENDBRANCH  55  69
BRANCH  56  80
ATOM     80  C   UNL A   1      43.191  34.670  28.913  1.00  0.00     0.023 A 
ATOM     81  C   UNL A   1      42.181  35.604  28.582  1.00  0.00     0.012 A 
ATOM     82  C   UNL A   1      43.896  34.034  27.876  1.00  0.00     0.148 A 
ATOM     83  C   UNL A   1      41.972  35.994  27.260  1.00  0.00     0.002 A 
ATOM     84  C   UNL A   1      43.683  34.432  26.556  1.00  0.00     0.091 A 
ATOM     85  F   UNL A   1      44.821  33.121  28.196  1.00  0.00    -0.205 F 
ATOM     86  C   UNL A   1      42.748  35.434  26.251  1.00  0.00     0.022 A 
BRANCH  84  87
ATOM     87  S   UNL A   1      44.697  33.804  25.210  1.00  0.00     0.127 S 
ATOM     88  O   UNL A   1      43.977  34.307  24.044  1.00  0.00    -0.237 OA
ATOM     89  O   UNL A   1      45.986  34.445  25.465  1.00  0.00    -0.237 OA
ATOM     90  O   UNL A   1      44.706  32.360  25.394  1.00  0.00    -0.744 OA
ENDBRANCH  84  87
ENDBRANCH  56  80
BRANCH  68  91
ATOM     91  C   UNL A   1      43.817  39.481  34.345  1.00  0.00     0.023 A 
ATOM     92  C   UNL A   1      44.410  39.909  35.545  1.00  0.00     0.012 A 
ATOM     93  C   UNL A   1      43.248  40.518  33.547  1.00  0.00     0.148 A 
ATOM     94  C   UNL A   1      44.509  41.264  35.901  1.00  0.00     0.002 A 
ATOM     95  C   UNL A   1      43.395  41.867  33.872  1.00  0.00     0.091 A 
ATOM     96  F   UNL A   1      42.494  40.216  32.482  1.00  0.00    -0.205 F 
ATOM     97  C   UNL A   1      44.029  42.247  35.050  1.00  0.00     0.022 A 
BRANCH  95  98
ATOM     98  S   UNL A   1      42.849  43.159  32.745  1.00  0.00     0.127 S 
ATOM     99  O   UNL A   1      41.999  43.975  33.609  1.00  0.00    -0.237 OA
ATOM    100  O   UNL A   1      44.112  43.793  32.360  1.00  0.00    -0.237 OA
ATOM    101  O   UNL A   1      42.181  42.457  31.658  1.00  0.00    -0.744 OA
ENDBRANCH  95  98
ENDBRANCH  68  91
ENDBRANCH  42  43
ENDBRANCH  34  37
ENDBRANCH  32  33
ENDBRANCH  31  32
ENDBRANCH  30  31
ENDBRANCH   1  30
TORSDOF 21
ENDMDL
MODEL 3
REMARK VINA RESULT:     -10.8      6.881     16.004
REMARK SMILES COc1cc(S(=O)(=O)Nc2cccc(C(=O)NCCCCCCNC(=O)c3ccc(-c4c5nc(c(-c6cccc(S(=O)(=O)[O-])c6F)c6ccc([nH]6)c(-c6cccc(S(=O)(=O)[O-])c6F)c6nc(c(-c7cccc(S(=O)(=O)[O-])c7F)c7ccc4[nH]7)C=C6)C=C5)cc3)c2)c(OC)cc1C
REMARK SMILES IDX 20 1 19 2 18 3 17 4 15 5 16 6 14 8 10 9 11 10 90 11 12 12
REMARK SMILES IDX 13 13 9 14 6 16 7 17 8 18 5 19 3 20 4 21 95 22 94 23 96 24
REMARK SMILES IDX 91 25 2 26 1 27 92 28 93 29 21 30 22 31 23 32 24 33 25 34
REMARK SMILES IDX 26 36 27 37 28 38 89 39 29 40 88 41 30 42 31 43 32 44 82 45
REMARK SMILES IDX 33 46 87 47 81 48 83 49 34 50 86 51 80 52 79 53 35 55 67 56
REMARK SMILES IDX 47 57 66 58 48 59 51 60 65 61 84 62 49 63 50 64 64 66 85 67
REMARK SMILES IDX 52 68 36 69 37 70 45 71 38 72 40 73 46 74 39 75 41 76 42 77
REMARK SMILES IDX 43 78 44 79 68 80 69 81 77 82 70 83 72 84 78 85 71 86 73 87
REMARK SMILES IDX 74 88 75 89 76 90 53 91 54 92 62 93 55 94 57 95 63 96 56 97
REMARK SMILES IDX 58 98 59 99 60 100 61 101
REMARK H PARENT 17 7 9 15 24 35 83 54 51 65
REMARK Flexibility Score: inf
ROOT
ATOM      1  C   UNL A   1      47.387  40.620  26.560  1.00  0.00     0.002 C 
ENDROOT
BRANCH   1   2
ATOM      2  C   UNL A   1      46.416  41.682  26.021  1.00  0.00     0.021 C 
BRANCH   2   3
ATOM      3  C   UNL A   1      46.476  41.880  24.508  1.00  0.00     0.116 C 
BRANCH   3   4
ATOM      4  N   UNL A   1      46.633  43.285  24.184  1.00  0.00    -0.352 N 
ATOM      5  C   UNL A   1      45.868  44.148  23.450  1.00  0.00     0.251 C 
ATOM      6  O   UNL A   1      46.226  45.322  23.362  1.00  0.00    -0.269 OA
ATOM      7  H   UNL A   1      47.444  43.694  24.566  1.00  0.00     0.163 HD
BRANCH   5   8
ATOM      8  C   UNL A   1      44.559  43.754  22.877  1.00  0.00     0.041 A 
ATOM      9  C   UNL A   1      43.410  43.095  20.837  1.00  0.00     0.050 A 
ATOM     10  C   UNL A   1      42.189  43.163  21.501  1.00  0.00     0.027 A 
ATOM     11  C   UNL A   1      44.591  43.322  21.547  1.00  0.00     0.040 A 
ATOM     12  C   UNL A   1      42.154  43.527  22.854  1.00  0.00     0.003 A 
ATOM     13  C   UNL A   1      43.336  43.828  23.544  1.00  0.00     0.014 A 
BRANCH   9  14
ATOM     14  N   UNL A   1      43.570  42.855  19.447  1.00  0.00    -0.279 N 
ATOM     15  H   UNL A   1      44.095  42.062  19.190  1.00  0.00     0.180 HD
BRANCH  14  16
ATOM     16  S   UNL A   1      42.957  43.783  18.211  1.00  0.00     0.265 S 
ATOM     17  O   UNL A   1      41.516  43.845  18.374  1.00  0.00    -0.201 OA
ATOM     18  O   UNL A   1      43.524  43.214  17.003  1.00  0.00    -0.201 OA
BRANCH  16  19
ATOM     19  C   UNL A   1      43.538  45.462  18.273  1.00  0.00     0.133 A 
ATOM     20  C   UNL A   1      42.851  47.769  17.915  1.00  0.00     0.123 A 
ATOM     21  C   UNL A   1      42.609  46.404  17.792  1.00  0.00     0.073 A 
ATOM     22  C   UNL A   1      43.949  48.217  18.647  1.00  0.00    -0.005 A 
ATOM     23  C   UNL A   1      44.916  47.276  19.036  1.00  0.00     0.055 A 
ATOM     24  C   UNL A   1      44.151  49.657  19.011  1.00  0.00     0.048 C 
ATOM     25  C   UNL A   1      44.754  45.900  18.800  1.00  0.00     0.139 A 
BRANCH  20  26
ATOM     26  O   UNL A   1      41.932  48.611  17.351  1.00  0.00    -0.496 OA
ATOM     27  C   UNL A   1      41.607  48.218  16.014  1.00  0.00     0.278 C 
ENDBRANCH  20  26
BRANCH  25  28
ATOM     28  O   UNL A   1      45.761  45.004  19.004  1.00  0.00    -0.495 OA
ATOM     29  C   UNL A   1      47.020  45.260  18.385  1.00  0.00     0.278 C 
ENDBRANCH  25  28
ENDBRANCH  16  19
ENDBRANCH  14  16
ENDBRANCH   9  14
ENDBRANCH   5   8
ENDBRANCH   3   4
ENDBRANCH   2   3
ENDBRANCH   1   2
BRANCH   1  30
ATOM     30  C   UNL A   1      46.758  39.445  27.328  1.00  0.00     0.002 C 
BRANCH  30  31
ATOM     31  C   UNL A   1      46.628  38.132  26.554  1.00  0.00     0.021 C 
BRANCH  31  32
ATOM     32  C   UNL A   1      45.235  37.520  26.592  1.00  0.00     0.116 C 
BRANCH  32  33
ATOM     33  N   UNL A   1      44.167  38.495  26.705  1.00  0.00    -0.352 N 
ATOM     34  C   UNL A   1      42.899  38.375  27.260  1.00  0.00     0.251 C 
ATOM     35  H   UNL A   1      44.373  39.382  26.331  1.00  0.00     0.163 HD
ATOM     36  O   UNL A   1      42.095  39.264  27.070  1.00  0.00    -0.269 OA
BRANCH  34  37
ATOM     37  C   UNL A   1      42.596  37.244  28.184  1.00  0.00     0.039 A 
ATOM     38  C   UNL A   1      43.531  36.960  29.191  1.00  0.00     0.014 A 
ATOM     39  C   UNL A   1      41.555  36.355  27.939  1.00  0.00     0.014 A 
ATOM     40  C   UNL A   1      43.581  35.682  29.747  1.00  0.00     0.010 A 
ATOM     41  C   UNL A   1      41.657  35.065  28.411  1.00  0.00     0.010 A 
ATOM     42  C   UNL A   1      42.715  34.715  29.255  1.00  0.00    -0.014 A 
BRANCH  42  43
ATOM     43  C   UNL A   1      42.855  33.285  29.465  1.00  0.00     0.031 A 
ATOM     44  C   UNL A   1      43.646  32.466  28.534  1.00  0.00     0.074 A 
ATOM     45  C   UNL A   1      42.461  32.772  30.654  1.00  0.00     0.049 A 
ATOM     46  N   UNL A   1      43.657  31.178  28.570  1.00  0.00    -0.248 NA
ATOM     47  C   UNL A   1      44.446  33.022  27.448  1.00  0.00     0.031 C 
ATOM     48  C   UNL A   1      42.930  31.544  31.286  1.00  0.00     0.029 A 
ATOM     49  N   UNL A   1      41.372  33.165  31.439  1.00  0.00    -0.354 N 
ATOM     50  C   UNL A   1      44.676  30.757  27.752  1.00  0.00     0.074 A 
ATOM     51  C   UNL A   1      45.023  31.914  26.966  1.00  0.00     0.031 C 
ATOM     52  C   UNL A   1      42.003  31.128  32.160  1.00  0.00     0.029 A 
ATOM     53  C   UNL A   1      40.842  31.980  31.982  1.00  0.00     0.049 A 
ATOM     54  H   UNL A   1      41.044  34.081  31.582  1.00  0.00     0.167 HD
ATOM     55  C   UNL A   1      45.195  29.516  27.958  1.00  0.00     0.034 A 
ATOM     56  C   UNL A   1      39.568  31.543  31.769  1.00  0.00     0.034 A 
ATOM     57  C   UNL A   1      44.376  28.750  28.909  1.00  0.00     0.049 A 
ATOM     58  C   UNL A   1      39.489  30.139  31.195  1.00  0.00     0.074 A 
ATOM     59  C   UNL A   1      44.548  28.342  30.219  1.00  0.00     0.029 A 
ATOM     60  N   UNL A   1      43.056  28.463  28.582  1.00  0.00    -0.354 N 
ATOM     61  N   UNL A   1      40.516  29.415  30.845  1.00  0.00    -0.248 NA
ATOM     62  C   UNL A   1      38.228  29.465  30.915  1.00  0.00     0.031 C 
ATOM     63  C   UNL A   1      43.305  27.829  30.688  1.00  0.00     0.029 A 
ATOM     64  C   UNL A   1      42.389  27.891  29.652  1.00  0.00     0.049 A 
ATOM     65  H   UNL A   1      42.650  28.643  27.703  1.00  0.00     0.167 HD
ATOM     66  C   UNL A   1      40.097  28.296  30.160  1.00  0.00     0.074 A 
ATOM     67  C   UNL A   1      38.649  28.347  30.298  1.00  0.00     0.031 C 
ATOM     68  C   UNL A   1      40.991  27.491  29.493  1.00  0.00     0.034 A 
BRANCH  55  69
ATOM     69  C   UNL A   1      46.536  29.001  27.463  1.00  0.00     0.023 A 
ATOM     70  C   UNL A   1      47.677  29.760  27.815  1.00  0.00     0.012 A 
ATOM     71  C   UNL A   1      46.766  27.910  26.591  1.00  0.00     0.148 A 
ATOM     72  C   UNL A   1      48.952  29.487  27.307  1.00  0.00     0.002 A 
ATOM     73  C   UNL A   1      48.050  27.597  26.131  1.00  0.00     0.091 A 
ATOM     74  F   UNL A   1      45.742  27.202  26.111  1.00  0.00    -0.205 F 
ATOM     75  C   UNL A   1      49.142  28.398  26.470  1.00  0.00     0.022 A 
BRANCH  73  76
ATOM     76  S   UNL A   1      48.375  26.170  25.077  1.00  0.00     0.127 S 
ATOM     77  O   UNL A   1      49.830  26.222  24.933  1.00  0.00    -0.237 OA
ATOM     78  O   UNL A   1      47.885  25.056  25.889  1.00  0.00    -0.237 OA
ATOM     79  O   UNL A   1      47.624  26.390  23.847  1.00  0.00    -0.744 OA
ENDBRANCH  73  76
ENDBRANCH  55  69
BRANCH  56  80
ATOM     80  C   UNL A   1      38.598  32.642  31.491  1.00  0.00     0.023 A 
ATOM     81  C   UNL A   1      38.335  32.935  30.131  1.00  0.00     0.012 A 
ATOM     82  C   UNL A   1      37.686  33.075  32.469  1.00  0.00     0.148 A 
ATOM     83  C   UNL A   1      37.131  33.524  29.747  1.00  0.00     0.002 A 
ATOM     84  C   UNL A   1      36.484  33.662  32.076  1.00  0.00     0.091 A 
ATOM     85  F   UNL A   1      37.963  32.831  33.756  1.00  0.00    -0.205 F 
ATOM     86  C   UNL A   1      36.190  33.855  30.717  1.00  0.00     0.022 A 
BRANCH  84  87
ATOM     87  S   UNL A   1      35.193  34.050  33.267  1.00  0.00     0.127 S 
ATOM     88  O   UNL A   1      35.524  33.142  34.361  1.00  0.00    -0.237 OA
ATOM     89  O   UNL A   1      35.438  35.465  33.543  1.00  0.00    -0.237 OA
ATOM     90  O   UNL A   1      33.947  33.790  32.562  1.00  0.00    -0.744 OA
ENDBRANCH  84  87
ENDBRANCH  56  80
BRANCH  68  91
ATOM     91  C   UNL A   1      40.681  26.304  28.567  1.00  0.00     0.023 A 
ATOM     92  C   UNL A   1      39.512  26.205  27.794  1.00  0.00     0.012 A 
ATOM     93  C   UNL A   1      41.602  25.226  28.413  1.00  0.00     0.148 A 
ATOM     94  C   UNL A   1      39.295  25.165  26.876  1.00  0.00     0.002 A 
ATOM     95  C   UNL A   1      41.413  24.222  27.462  1.00  0.00     0.091 A 
ATOM     96  F   UNL A   1      42.656  25.113  29.231  1.00  0.00    -0.205 F 
ATOM     97  C   UNL A   1      40.259  24.189  26.687  1.00  0.00     0.022 A 
BRANCH  95  98
ATOM     98  S   UNL A   1      42.687  22.990  27.145  1.00  0.00     0.127 S 
ATOM     99  O   UNL A   1      42.136  22.275  25.997  1.00  0.00    -0.237 OA
ATOM    100  O   UNL A   1      43.856  23.819  26.842  1.00  0.00    -0.237 OA
ATOM    101  O   UNL A   1      42.800  22.234  28.384  1.00  0.00    -0.744 OA
ENDBRANCH  95  98
ENDBRANCH  68  91
ENDBRANCH  42  43
ENDBRANCH  34  37
ENDBRANCH  32  33
ENDBRANCH  31  32
ENDBRANCH  30  31
ENDBRANCH   1  30
TORSDOF 21
ENDMDL
