MODEL 1
REMARK VINA RESULT:     -12.2      0.000      0.000
REMARK SMILES O=C(NCCCCCCNC(=O)c1ccc(S(=O)(=O)N[C@@H]2CC[N@@H+]3CCC[C@H]23)cc1)c1ccc(-c2c3nc(c(-c4cccc(S(=O)(=O)[O-])c4F)c4ccc([nH]4)c(-c4cccc(S(=O)(=O)[O-])c4F)c4nc(c(-c5cccc(S(=O)(=O)[O-])c5F)c5ccc2[nH]5)C=C4)C=C3)cc1
REMARK SMILES IDX 6 1 5 2 4 3 3 4 1 5 2 6 31 8 32 9 93 10 33 11 92 12 34 13
REMARK SMILES IDX 35 14 36 15 86 16 37 17 91 18 85 19 87 20 38 21 90 22 84 23
REMARK SMILES IDX 83 24 39 26 71 27 51 28 70 29 52 30 55 31 69 32 88 33 53 34
REMARK SMILES IDX 54 35 68 37 89 38 56 39 40 40 41 41 49 42 42 43 44 44 50 45
REMARK SMILES IDX 43 46 45 47 46 48 47 49 48 50 72 51 73 52 81 53 74 54 76 55
REMARK SMILES IDX 82 56 75 57 77 58 78 59 79 60 80 61 57 62 58 63 66 64 59 65
REMARK SMILES IDX 61 66 67 67 60 68 62 69 63 70 64 71 65 72 7 73 8 74 9 75
REMARK SMILES IDX 10 76 11 77 12 79 13 80 14 81 30 82 15 83 29 84 16 85 17 86
REMARK SMILES IDX 18 87 19 88 20 89 21 91 22 92 28 93 23 94 24 95 27 96 25 97
REMARK SMILES IDX 26 99
REMARK H PARENT 3 7 87 25 55 36 10 78 20 90 24 98
REMARK Flexibility Score: inf
ROOT
ATOM      1  C   UNL A   1      31.860  27.585  26.192  1.00  0.00     0.002 C 
ENDROOT
BRANCH   1   2
ATOM      2  C   UNL A   1      31.828  29.002  26.772  1.00  0.00     0.021 C 
BRANCH   2   3
ATOM      3  C   UNL A   1      33.104  29.813  26.570  1.00  0.00     0.116 C 
BRANCH   3   4
ATOM      4  N   UNL A   1      32.882  31.235  26.747  1.00  0.00    -0.352 N 
ATOM      5  O   UNL A   1      33.115  33.259  27.694  1.00  0.00    -0.269 OA
ATOM      6  C   UNL A   1      33.573  32.134  27.518  1.00  0.00     0.251 C 
ATOM      7  H   UNL A   1      32.126  31.609  26.238  1.00  0.00     0.163 HD
BRANCH   6   8
ATOM      8  C   UNL A   1      34.850  31.738  28.148  1.00  0.00     0.039 A 
ATOM      9  C   UNL A   1      35.962  32.588  28.120  1.00  0.00     0.014 A 
ATOM     10  C   UNL A   1      34.924  30.505  28.801  1.00  0.00     0.014 A 
ATOM     11  C   UNL A   1      37.176  32.161  28.651  1.00  0.00     0.010 A 
ATOM     12  C   UNL A   1      36.123  30.107  29.391  1.00  0.00     0.010 A 
ATOM     13  C   UNL A   1      37.265  30.920  29.300  1.00  0.00    -0.014 A 
BRANCH  13  14
ATOM     14  C   UNL A   1      38.530  30.499  29.950  1.00  0.00     0.031 A 
ATOM     15  C   UNL A   1      39.421  29.478  29.305  1.00  0.00     0.074 A 
ATOM     16  C   UNL A   1      38.829  30.988  31.168  1.00  0.00     0.049 A 
ATOM     17  N   UNL A   1      40.509  28.922  29.771  1.00  0.00    -0.248 NA
ATOM     18  C   UNL A   1      39.035  29.010  27.964  1.00  0.00     0.031 C 
ATOM     19  C   UNL A   1      38.012  31.951  31.910  1.00  0.00     0.029 A 
ATOM     20  N   UNL A   1      39.875  30.716  32.013  1.00  0.00    -0.354 N 
ATOM     21  C   UNL A   1      40.913  28.006  28.809  1.00  0.00     0.074 A 
ATOM     22  C   UNL A   1      39.951  28.079  27.729  1.00  0.00     0.031 C 
ATOM     23  C   UNL A   1      38.573  32.171  33.107  1.00  0.00     0.029 A 
ATOM     24  C   UNL A   1      39.759  31.331  33.237  1.00  0.00     0.049 A 
ATOM     25  H   UNL A   1      40.632  30.137  31.767  1.00  0.00     0.167 HD
ATOM     26  C   UNL A   1      41.991  27.186  28.821  1.00  0.00     0.034 A 
ATOM     27  C   UNL A   1      40.498  31.207  34.356  1.00  0.00     0.034 A 
ATOM     28  C   UNL A   1      42.956  27.141  29.888  1.00  0.00     0.049 A 
ATOM     29  C   UNL A   1      41.697  30.304  34.341  1.00  0.00     0.074 A 
ATOM     30  C   UNL A   1      44.127  26.409  29.959  1.00  0.00     0.029 A 
ATOM     31  N   UNL A   1      42.852  27.844  31.080  1.00  0.00    -0.354 N 
ATOM     32  N   UNL A   1      42.147  29.552  33.366  1.00  0.00    -0.248 NA
ATOM     33  C   UNL A   1      42.511  30.256  35.564  1.00  0.00     0.031 C 
ATOM     34  C   UNL A   1      44.719  26.649  31.203  1.00  0.00     0.029 A 
ATOM     35  C   UNL A   1      43.930  27.553  31.898  1.00  0.00     0.049 A 
ATOM     36  H   UNL A   1      42.119  28.460  31.310  1.00  0.00     0.167 HD
ATOM     37  C   UNL A   1      43.311  28.965  33.842  1.00  0.00     0.074 A 
ATOM     38  C   UNL A   1      43.505  29.456  35.192  1.00  0.00     0.031 C 
ATOM     39  C   UNL A   1      44.139  28.091  33.219  1.00  0.00     0.034 A 
BRANCH  26  40
ATOM     40  C   UNL A   1      42.202  26.290  27.629  1.00  0.00     0.023 A 
ATOM     41  C   UNL A   1      42.839  26.795  26.478  1.00  0.00     0.012 A 
ATOM     42  C   UNL A   1      41.809  24.937  27.662  1.00  0.00     0.148 A 
ATOM     43  C   UNL A   1      43.046  25.981  25.365  1.00  0.00     0.002 A 
ATOM     44  C   UNL A   1      42.057  24.121  26.563  1.00  0.00     0.091 A 
ATOM     45  F   UNL A   1      41.183  24.476  28.754  1.00  0.00    -0.205 F 
ATOM     46  C   UNL A   1      42.663  24.644  25.410  1.00  0.00     0.022 A 
BRANCH  44  47
ATOM     47  S   UNL A   1      41.664  22.368  26.567  1.00  0.00     0.127 S 
ATOM     48  O   UNL A   1      42.266  21.932  27.825  1.00  0.00    -0.237 OA
ATOM     49  O   UNL A   1      40.200  22.374  26.562  1.00  0.00    -0.237 OA
ATOM     50  O   UNL A   1      42.265  21.828  25.355  1.00  0.00    -0.744 OA
ENDBRANCH  44  47
ENDBRANCH  26  40
BRANCH  27  51
ATOM     51  C   UNL A   1      40.119  31.994  35.561  1.00  0.00     0.023 A 
ATOM     52  C   UNL A   1      40.671  33.274  35.753  1.00  0.00     0.012 A 
ATOM     53  C   UNL A   1      39.139  31.522  36.457  1.00  0.00     0.148 A 
ATOM     54  C   UNL A   1      40.258  34.068  36.823  1.00  0.00     0.002 A 
ATOM     55  C   UNL A   1      38.694  32.339  37.487  1.00  0.00     0.091 A 
ATOM     56  F   UNL A   1      38.634  30.296  36.254  1.00  0.00    -0.205 F 
ATOM     57  C   UNL A   1      39.262  33.608  37.680  1.00  0.00     0.022 A 
BRANCH  55  58
ATOM     58  S   UNL A   1      37.315  31.893  38.549  1.00  0.00     0.127 S 
ATOM     59  O   UNL A   1      37.867  32.145  39.877  1.00  0.00    -0.237 OA
ATOM     60  O   UNL A   1      36.286  32.841  38.118  1.00  0.00    -0.237 OA
ATOM     61  O   UNL A   1      37.016  30.500  38.244  1.00  0.00    -0.744 OA
ENDBRANCH  55  58
ENDBRANCH  27  51
BRANCH  39  62
ATOM     62  C   UNL A   1      45.363  27.628  33.963  1.00  0.00     0.023 A 
ATOM     63  C   UNL A   1      46.543  28.396  33.920  1.00  0.00     0.012 A 
ATOM     64  C   UNL A   1      45.303  26.492  34.796  1.00  0.00     0.148 A 
ATOM     65  C   UNL A   1      47.650  28.032  34.685  1.00  0.00     0.002 A 
ATOM     66  C   UNL A   1      46.394  26.163  35.590  1.00  0.00     0.091 A 
ATOM     67  F   UNL A   1      44.175  25.767  34.806  1.00  0.00    -0.205 F 
ATOM     68  C   UNL A   1      47.571  26.926  35.530  1.00  0.00     0.022 A 
BRANCH  66  69
ATOM     69  S   UNL A   1      46.351  24.816  36.778  1.00  0.00     0.127 S 
ATOM     70  O   UNL A   1      47.473  25.154  37.653  1.00  0.00    -0.237 OA
ATOM     71  O   UNL A   1      45.030  24.981  37.386  1.00  0.00    -0.237 OA
ATOM     72  O   UNL A   1      46.513  23.591  36.006  1.00  0.00    -0.744 OA
ENDBRANCH  66  69
ENDBRANCH  39  62
ENDBRANCH  13  14
ENDBRANCH   6   8
ENDBRANCH   3   4
ENDBRANCH   2   3
ENDBRANCH   1   2
BRANCH   1  73
ATOM     73  C   UNL A   1      30.979  27.352  24.962  1.00  0.00     0.002 C 
BRANCH  73  74
ATOM     74  C   UNL A   1      31.375  28.136  23.713  1.00  0.00     0.021 C 
BRANCH  74  75
ATOM     75  C   UNL A   1      32.836  28.001  23.305  1.00  0.00     0.116 C 
BRANCH  75  76
ATOM     76  N   UNL A   1      33.003  27.432  21.977  1.00  0.00    -0.352 N 
ATOM     77  C   UNL A   1      33.000  26.111  21.606  1.00  0.00     0.251 C 
ATOM     78  H   UNL A   1      33.136  28.080  21.248  1.00  0.00     0.163 HD
ATOM     79  O   UNL A   1      33.275  25.775  20.459  1.00  0.00    -0.269 OA
BRANCH  77  80
ATOM     80  C   UNL A   1      32.697  25.082  22.623  1.00  0.00     0.039 A 
ATOM     81  C   UNL A   1      33.717  24.672  23.485  1.00  0.00     0.015 A 
ATOM     82  C   UNL A   1      31.401  24.569  22.756  1.00  0.00     0.015 A 
ATOM     83  C   UNL A   1      33.423  23.784  24.518  1.00  0.00     0.022 A 
ATOM     84  C   UNL A   1      31.090  23.742  23.833  1.00  0.00     0.022 A 
ATOM     85  C   UNL A   1      32.107  23.336  24.697  1.00  0.00     0.082 A 
BRANCH  85  86
ATOM     86  S   UNL A   1      31.792  22.215  26.031  1.00  0.00     0.241 S 
ATOM     87  O   UNL A   1      32.918  22.319  26.936  1.00  0.00    -0.207 OA
ATOM     88  O   UNL A   1      30.444  22.467  26.475  1.00  0.00    -0.207 OA
BRANCH  86  89
ATOM     89  N   UNL A   1      31.774  20.673  25.387  1.00  0.00    -0.202 NA
ATOM     90  H   UNL A   1      30.908  20.615  24.852  1.00  0.00     0.141 HD
BRANCH  89  91
ATOM     91  C   UNL A   1      32.808  20.100  24.518  1.00  0.00     0.133 C 
ATOM     92  C   UNL A   1      32.233  19.922  23.102  1.00  0.00     0.087 C 
ATOM     93  C   UNL A   1      33.387  18.728  24.890  1.00  0.00     0.202 C 
ATOM     94  C   UNL A   1      32.349  18.438  22.808  1.00  0.00     0.264 C 
ATOM     95  N   UNL A   1      33.518  18.030  23.589  1.00  0.00    -0.331 N 
ATOM     96  C   UNL A   1      32.562  17.788  25.754  1.00  0.00     0.072 C 
ATOM     97  C   UNL A   1      33.524  16.594  23.870  1.00  0.00     0.262 C 
ATOM     98  H   UNL A   1      34.370  18.253  23.072  1.00  0.00     0.348 HD
ATOM     99  C   UNL A   1      32.865  16.396  25.226  1.00  0.00     0.068 C 
ENDBRANCH  89  91
ENDBRANCH  86  89
ENDBRANCH  85  86
ENDBRANCH  77  80
ENDBRANCH  75  76
ENDBRANCH  74  75
ENDBRANCH  73  74
ENDBRANCH   1  73
TORSDOF 19
ENDMDL
MODEL 2
REMARK VINA RESULT:     -12.2      2.329      3.108
REMARK SMILES O=C(NCCCCCCNC(=O)c1ccc(S(=O)(=O)N[C@@H]2CC[N@@H+]3CCC[C@H]23)cc1)c1ccc(-c2c3nc(c(-c4cccc(S(=O)(=O)[O-])c4F)c4ccc([nH]4)c(-c4cccc(S(=O)(=O)[O-])c4F)c4nc(c(-c5cccc(S(=O)(=O)[O-])c5F)c5ccc2[nH]5)C=C4)C=C3)cc1
REMARK SMILES IDX 6 1 5 2 4 3 3 4 1 5 2 6 31 8 32 9 93 10 33 11 92 12 34 13
REMARK SMILES IDX 35 14 36 15 86 16 37 17 91 18 85 19 87 20 38 21 90 22 84 23
REMARK SMILES IDX 83 24 39 26 71 27 51 28 70 29 52 30 55 31 69 32 88 33 53 34
REMARK SMILES IDX 54 35 68 37 89 38 56 39 40 40 41 41 49 42 42 43 44 44 50 45
REMARK SMILES IDX 43 46 45 47 46 48 47 49 48 50 72 51 73 52 81 53 74 54 76 55
REMARK SMILES IDX 82 56 75 57 77 58 78 59 79 60 80 61 57 62 58 63 66 64 59 65
REMARK SMILES IDX 61 66 67 67 60 68 62 69 63 70 64 71 65 72 7 73 8 74 9 75
REMARK SMILES IDX 10 76 11 77 12 79 13 80 14 81 30 82 15 83 29 84 16 85 17 86
REMARK SMILES IDX 18 87 19 88 20 89 21 91 22 92 28 93 23 94 24 95 27 96 25 97
REMARK SMILES IDX 26 99
REMARK H PARENT 3 7 87 25 55 36 10 78 20 90 24 98
REMARK Flexibility Score: inf
ROOT
ATOM      1  C   UNL A   1      31.559  30.563  25.939  1.00  0.00     0.002 C 
ENDROOT
BRANCH   1   2
ATOM      2  C   UNL A   1      31.413  31.964  26.541  1.00  0.00     0.021 C 
BRANCH   2   3
ATOM      3  C   UNL A   1      32.620  32.457  27.331  1.00  0.00     0.116 C 
BRANCH   3   4
ATOM      4  N   UNL A   1      32.496  33.854  27.703  1.00  0.00    -0.352 N 
ATOM      5  O   UNL A   1      32.802  35.691  28.960  1.00  0.00    -0.269 OA
ATOM      6  C   UNL A   1      33.184  34.566  28.652  1.00  0.00     0.251 C 
ATOM      7  H   UNL A   1      31.821  34.365  27.200  1.00  0.00     0.163 HD
BRANCH   6   8
ATOM      8  C   UNL A   1      34.364  33.968  29.311  1.00  0.00     0.039 A 
ATOM      9  C   UNL A   1      34.217  33.034  30.344  1.00  0.00     0.014 A 
ATOM     10  C   UNL A   1      35.638  34.329  28.867  1.00  0.00     0.014 A 
ATOM     11  C   UNL A   1      35.341  32.544  31.002  1.00  0.00     0.010 A 
ATOM     12  C   UNL A   1      36.764  33.787  29.484  1.00  0.00     0.010 A 
ATOM     13  C   UNL A   1      36.626  32.908  30.572  1.00  0.00    -0.014 A 
BRANCH  13  14
ATOM     14  C   UNL A   1      37.829  32.318  31.207  1.00  0.00     0.031 A 
ATOM     15  C   UNL A   1      38.545  31.162  30.571  1.00  0.00     0.074 A 
ATOM     16  C   UNL A   1      38.225  32.784  32.406  1.00  0.00     0.049 A 
ATOM     17  N   UNL A   1      39.550  30.462  31.029  1.00  0.00    -0.248 NA
ATOM     18  C   UNL A   1      38.064  30.727  29.250  1.00  0.00     0.031 C 
ATOM     19  C   UNL A   1      37.577  33.873  33.139  1.00  0.00     0.029 A 
ATOM     20  N   UNL A   1      39.239  32.379  33.238  1.00  0.00    -0.354 N 
ATOM     21  C   UNL A   1      39.791  29.475  30.083  1.00  0.00     0.074 A 
ATOM     22  C   UNL A   1      38.827  29.667  29.020  1.00  0.00     0.031 C 
ATOM     23  C   UNL A   1      38.191  34.034  34.320  1.00  0.00     0.029 A 
ATOM     24  C   UNL A   1      39.243  33.030  34.448  1.00  0.00     0.049 A 
ATOM     25  H   UNL A   1      39.896  31.688  32.992  1.00  0.00     0.167 HD
ATOM     26  C   UNL A   1      40.737  28.505  30.095  1.00  0.00     0.034 A 
ATOM     27  C   UNL A   1      39.981  32.823  35.555  1.00  0.00     0.034 A 
ATOM     28  C   UNL A   1      41.708  28.341  31.143  1.00  0.00     0.049 A 
ATOM     29  C   UNL A   1      41.033  31.752  35.539  1.00  0.00     0.074 A 
ATOM     30  C   UNL A   1      42.760  27.445  31.210  1.00  0.00     0.029 A 
ATOM     31  N   UNL A   1      41.737  29.077  32.319  1.00  0.00    -0.354 N 
ATOM     32  N   UNL A   1      41.344  30.921  34.575  1.00  0.00    -0.248 NA
ATOM     33  C   UNL A   1      41.858  31.611  36.747  1.00  0.00     0.031 C 
ATOM     34  C   UNL A   1      43.409  27.622  32.436  1.00  0.00     0.029 A 
ATOM     35  C   UNL A   1      42.778  28.648  33.123  1.00  0.00     0.049 A 
ATOM     36  H   UNL A   1      41.109  29.800  32.548  1.00  0.00     0.167 HD
ATOM     37  C   UNL A   1      42.420  30.178  35.043  1.00  0.00     0.074 A 
ATOM     38  C   UNL A   1      42.714  30.665  36.376  1.00  0.00     0.031 C 
ATOM     39  C   UNL A   1      43.095  29.178  34.426  1.00  0.00     0.034 A 
BRANCH  26  40
ATOM     40  C   UNL A   1      40.786  27.561  28.921  1.00  0.00     0.023 A 
ATOM     41  C   UNL A   1      39.859  26.502  28.838  1.00  0.00     0.012 A 
ATOM     42  C   UNL A   1      41.717  27.746  27.881  1.00  0.00     0.148 A 
ATOM     43  C   UNL A   1      39.885  25.619  27.759  1.00  0.00     0.002 A 
ATOM     44  C   UNL A   1      41.710  26.886  26.788  1.00  0.00     0.091 A 
ATOM     45  F   UNL A   1      42.608  28.743  27.986  1.00  0.00    -0.205 F 
ATOM     46  C   UNL A   1      40.803  25.816  26.731  1.00  0.00     0.022 A 
BRANCH  44  47
ATOM     47  S   UNL A   1      42.809  27.112  25.386  1.00  0.00     0.127 S 
ATOM     48  O   UNL A   1      44.102  27.277  26.046  1.00  0.00    -0.237 OA
ATOM     49  O   UNL A   1      42.653  25.851  24.658  1.00  0.00    -0.237 OA
ATOM     50  O   UNL A   1      42.305  28.280  24.676  1.00  0.00    -0.744 OA
ENDBRANCH  44  47
ENDBRANCH  26  40
BRANCH  27  51
ATOM     51  C   UNL A   1      39.750  33.684  36.747  1.00  0.00     0.023 A 
ATOM     52  C   UNL A   1      40.074  35.052  36.686  1.00  0.00     0.012 A 
ATOM     53  C   UNL A   1      39.117  33.174  37.898  1.00  0.00     0.148 A 
ATOM     54  C   UNL A   1      39.778  35.896  37.756  1.00  0.00     0.002 A 
ATOM     55  C   UNL A   1      38.776  34.031  38.935  1.00  0.00     0.091 A 
ATOM     56  F   UNL A   1      38.824  31.865  37.933  1.00  0.00    -0.205 F 
ATOM     57  C   UNL A   1      39.118  35.390  38.873  1.00  0.00     0.022 A 
BRANCH  55  58
ATOM     58  S   UNL A   1      37.796  33.501  40.346  1.00  0.00     0.127 S 
ATOM     59  O   UNL A   1      37.661  34.744  41.100  1.00  0.00    -0.237 OA
ATOM     60  O   UNL A   1      36.568  33.035  39.699  1.00  0.00    -0.237 OA
ATOM     61  O   UNL A   1      38.571  32.452  40.994  1.00  0.00    -0.744 OA
ENDBRANCH  55  58
ENDBRANCH  27  51
BRANCH  39  62
ATOM     62  C   UNL A   1      44.254  28.555  35.157  1.00  0.00     0.023 A 
ATOM     63  C   UNL A   1      45.552  29.072  34.984  1.00  0.00     0.012 A 
ATOM     64  C   UNL A   1      44.033  27.533  36.102  1.00  0.00     0.148 A 
ATOM     65  C   UNL A   1      46.617  28.570  35.732  1.00  0.00     0.002 A 
ATOM     66  C   UNL A   1      45.090  27.071  36.876  1.00  0.00     0.091 A 
ATOM     67  F   UNL A   1      42.791  27.045  36.236  1.00  0.00    -0.205 F 
ATOM     68  C   UNL A   1      46.384  27.582  36.686  1.00  0.00     0.022 A 
BRANCH  66  69
ATOM     69  S   UNL A   1      44.869  25.872  38.196  1.00  0.00     0.127 S 
ATOM     70  O   UNL A   1      43.921  26.562  39.069  1.00  0.00    -0.237 OA
ATOM     71  O   UNL A   1      44.315  24.723  37.479  1.00  0.00    -0.237 OA
ATOM     72  O   UNL A   1      46.191  25.650  38.766  1.00  0.00    -0.744 OA
ENDBRANCH  66  69
ENDBRANCH  39  62
ENDBRANCH  13  14
ENDBRANCH   6   8
ENDBRANCH   3   4
ENDBRANCH   2   3
ENDBRANCH   1   2
BRANCH   1  73
ATOM     73  C   UNL A   1      32.995  30.089  25.703  1.00  0.00     0.002 C 
BRANCH  73  74
ATOM     74  C   UNL A   1      33.135  28.760  24.965  1.00  0.00     0.021 C 
BRANCH  74  75
ATOM     75  C   UNL A   1      33.293  28.876  23.455  1.00  0.00     0.116 C 
BRANCH  75  76
ATOM     76  N   UNL A   1      32.025  29.054  22.765  1.00  0.00    -0.352 N 
ATOM     77  C   UNL A   1      30.948  28.203  22.721  1.00  0.00     0.251 C 
ATOM     78  H   UNL A   1      31.925  29.895  22.263  1.00  0.00     0.163 HD
ATOM     79  O   UNL A   1      29.987  28.435  21.995  1.00  0.00    -0.269 OA
BRANCH  77  80
ATOM     80  C   UNL A   1      30.975  26.972  23.537  1.00  0.00     0.039 A 
ATOM     81  C   UNL A   1      31.645  25.852  23.038  1.00  0.00     0.015 A 
ATOM     82  C   UNL A   1      30.390  26.944  24.809  1.00  0.00     0.015 A 
ATOM     83  C   UNL A   1      31.773  24.718  23.839  1.00  0.00     0.022 A 
ATOM     84  C   UNL A   1      30.583  25.842  25.638  1.00  0.00     0.022 A 
ATOM     85  C   UNL A   1      31.255  24.725  25.141  1.00  0.00     0.082 A 
BRANCH  85  86
ATOM     86  S   UNL A   1      31.455  23.259  26.115  1.00  0.00     0.241 S 
ATOM     87  O   UNL A   1      31.469  23.678  27.500  1.00  0.00    -0.207 OA
ATOM     88  O   UNL A   1      30.494  22.303  25.627  1.00  0.00    -0.207 OA
BRANCH  86  89
ATOM     89  N   UNL A   1      32.954  22.620  25.742  1.00  0.00    -0.202 NA
ATOM     90  H   UNL A   1      33.110  22.851  24.762  1.00  0.00     0.141 HD
BRANCH  89  91
ATOM     91  C   UNL A   1      34.213  22.947  26.422  1.00  0.00     0.133 C 
ATOM     92  C   UNL A   1      34.795  24.234  25.813  1.00  0.00     0.087 C 
ATOM     93  C   UNL A   1      35.355  21.923  26.361  1.00  0.00     0.202 C 
ATOM     94  C   UNL A   1      36.159  23.841  25.279  1.00  0.00     0.264 C 
ATOM     95  N   UNL A   1      36.569  22.753  26.168  1.00  0.00    -0.331 N 
ATOM     96  C   UNL A   1      35.386  20.918  25.222  1.00  0.00     0.072 C 
ATOM     97  C   UNL A   1      37.584  21.892  25.561  1.00  0.00     0.262 C 
ATOM     98  H   UNL A   1      36.958  23.141  27.028  1.00  0.00     0.348 HD
ATOM     99  C   UNL A   1      36.858  20.735  24.894  1.00  0.00     0.068 C 
ENDBRANCH  89  91
ENDBRANCH  86  89
ENDBRANCH  85  86
ENDBRANCH  77  80
ENDBRANCH  75  76
ENDBRANCH  74  75
ENDBRANCH  73  74
ENDBRANCH   1  73
TORSDOF 19
ENDMDL
MODEL 3
REMARK VINA RESULT:     -11.8      1.193      1.483
REMARK SMILES O=C(NCCCCCCNC(=O)c1ccc(S(=O)(=O)N[C@@H]2CC[N@@H+]3CCC[C@H]23)cc1)c1ccc(-c2c3nc(c(-c4cccc(S(=O)(=O)[O-])c4F)c4ccc([nH]4)c(-c4cccc(S(=O)(=O)[O-])c4F)c4nc(c(-c5cccc(S(=O)(=O)[O-])c5F)c5ccc2[nH]5)C=C4)C=C3)cc1
REMARK SMILES IDX 6 1 5 2 4 3 3 4 1 5 2 6 31 8 32 9 93 10 33 11 92 12 34 13
REMARK SMILES IDX 35 14 36 15 86 16 37 17 91 18 85 19 87 20 38 21 90 22 84 23
REMARK SMILES IDX 83 24 39 26 71 27 51 28 70 29 52 30 55 31 69 32 88 33 53 34
REMARK SMILES IDX 54 35 68 37 89 38 56 39 40 40 41 41 49 42 42 43 44 44 50 45
REMARK SMILES IDX 43 46 45 47 46 48 47 49 48 50 72 51 73 52 81 53 74 54 76 55
REMARK SMILES IDX 82 56 75 57 77 58 78 59 79 60 80 61 57 62 58 63 66 64 59 65
REMARK SMILES IDX 61 66 67 67 60 68 62 69 63 70 64 71 65 72 7 73 8 74 9 75
REMARK SMILES IDX 10 76 11 77 12 79 13 80 14 81 30 82 15 83 29 84 16 85 17 86
REMARK SMILES IDX 18 87 19 88 20 89 21 91 22 92 28 93 23 94 24 95 27 96 25 97
REMARK SMILES IDX 26 99
REMARK H PARENT 3 7 87 25 55 36 10 78 20 90 24 98
REMARK Flexibility Score: inf
ROOT
ATOM      1  C   UNL A   1      31.766  29.562  26.956  1.00  0.00     0.002 C 
ENDROOT
BRANCH   1   2
ATOM      2  C   UNL A   1      31.596  31.052  26.644  1.00  0.00     0.021 C 
BRANCH   2   3
ATOM      3  C   UNL A   1      32.876  31.878  26.716  1.00  0.00     0.116 C 
BRANCH   3   4
ATOM      4  N   UNL A   1      32.634  33.218  27.214  1.00  0.00    -0.352 N 
ATOM      5  O   UNL A   1      32.794  34.954  28.633  1.00  0.00    -0.269 OA
ATOM      6  C   UNL A   1      33.269  33.900  28.221  1.00  0.00     0.251 C 
ATOM      7  H   UNL A   1      31.910  33.711  26.763  1.00  0.00     0.163 HD
BRANCH   6   8
ATOM      8  C   UNL A   1      34.506  33.352  28.817  1.00  0.00     0.039 A 
ATOM      9  C   UNL A   1      35.757  33.895  28.506  1.00  0.00     0.014 A 
ATOM     10  C   UNL A   1      34.404  32.295  29.724  1.00  0.00     0.014 A 
ATOM     11  C   UNL A   1      36.914  33.313  29.017  1.00  0.00     0.010 A 
ATOM     12  C   UNL A   1      35.560  31.755  30.287  1.00  0.00     0.010 A 
ATOM     13  C   UNL A   1      36.825  32.244  29.922  1.00  0.00    -0.014 A 
BRANCH  13  14
ATOM     14  C   UNL A   1      38.047  31.679  30.543  1.00  0.00     0.031 A 
ATOM     15  C   UNL A   1      38.831  30.600  29.854  1.00  0.00     0.074 A 
ATOM     16  C   UNL A   1      38.401  32.093  31.774  1.00  0.00     0.049 A 
ATOM     17  N   UNL A   1      39.863  29.926  30.290  1.00  0.00    -0.248 NA
ATOM     18  C   UNL A   1      38.393  30.220  28.502  1.00  0.00     0.031 C 
ATOM     19  C   UNL A   1      37.686  33.104  32.557  1.00  0.00     0.029 A 
ATOM     20  N   UNL A   1      39.421  31.691  32.599  1.00  0.00    -0.354 N 
ATOM     21  C   UNL A   1      40.170  29.010  29.293  1.00  0.00     0.074 A 
ATOM     22  C   UNL A   1      39.213  29.214  28.225  1.00  0.00     0.031 C 
ATOM     23  C   UNL A   1      38.274  33.226  33.756  1.00  0.00     0.029 A 
ATOM     24  C   UNL A   1      39.373  32.270  33.845  1.00  0.00     0.049 A 
ATOM     25  H   UNL A   1      40.117  31.051  32.326  1.00  0.00     0.167 HD
ATOM     26  C   UNL A   1      41.163  28.090  29.265  1.00  0.00     0.034 A 
ATOM     27  C   UNL A   1      40.104  32.035  34.952  1.00  0.00     0.034 A 
ATOM     28  C   UNL A   1      42.126  27.913  30.320  1.00  0.00     0.049 A 
ATOM     29  C   UNL A   1      41.210  31.022  34.893  1.00  0.00     0.074 A 
ATOM     30  C   UNL A   1      43.221  27.069  30.353  1.00  0.00     0.029 A 
ATOM     31  N   UNL A   1      42.099  28.580  31.537  1.00  0.00    -0.354 N 
ATOM     32  N   UNL A   1      41.578  30.266  33.888  1.00  0.00    -0.248 NA
ATOM     33  C   UNL A   1      42.023  30.852  36.105  1.00  0.00     0.031 C 
ATOM     34  C   UNL A   1      43.842  27.206  31.599  1.00  0.00     0.029 A 
ATOM     35  C   UNL A   1      43.149  28.157  32.333  1.00  0.00     0.049 A 
ATOM     36  H   UNL A   1      41.431  29.255  31.795  1.00  0.00     0.167 HD
ATOM     37  C   UNL A   1      42.683  29.552  34.332  1.00  0.00     0.074 A 
ATOM     38  C   UNL A   1      42.932  29.974  35.695  1.00  0.00     0.031 C 
ATOM     39  C   UNL A   1      43.418  28.625  33.670  1.00  0.00     0.034 A 
BRANCH  26  40
ATOM     40  C   UNL A   1      41.278  27.220  28.040  1.00  0.00     0.023 A 
ATOM     41  C   UNL A   1      41.990  27.686  26.916  1.00  0.00     0.012 A 
ATOM     42  C   UNL A   1      40.720  25.927  28.015  1.00  0.00     0.148 A 
ATOM     43  C   UNL A   1      42.111  26.895  25.774  1.00  0.00     0.002 A 
ATOM     44  C   UNL A   1      40.880  25.129  26.887  1.00  0.00     0.091 A 
ATOM     45  F   UNL A   1      40.024  25.507  29.082  1.00  0.00    -0.205 F 
ATOM     46  C   UNL A   1      41.564  25.616  25.762  1.00  0.00     0.022 A 
BRANCH  44  47
ATOM     47  S   UNL A   1      40.272  23.440  26.817  1.00  0.00     0.127 S 
ATOM     48  O   UNL A   1      40.601  22.951  28.154  1.00  0.00    -0.237 OA
ATOM     49  O   UNL A   1      38.841  23.631  26.574  1.00  0.00    -0.237 OA
ATOM     50  O   UNL A   1      40.988  22.810  25.717  1.00  0.00    -0.744 OA
ENDBRANCH  44  47
ENDBRANCH  26  40
BRANCH  27  51
ATOM     51  C   UNL A   1      39.811  32.812  36.187  1.00  0.00     0.023 A 
ATOM     52  C   UNL A   1      40.368  34.095  36.346  1.00  0.00     0.012 A 
ATOM     53  C   UNL A   1      38.904  32.327  37.150  1.00  0.00     0.148 A 
ATOM     54  C   UNL A   1      40.032  34.879  37.450  1.00  0.00     0.002 A 
ATOM     55  C   UNL A   1      38.532  33.135  38.216  1.00  0.00     0.091 A 
ATOM     56  F   UNL A   1      38.393  31.100  36.977  1.00  0.00    -0.205 F 
ATOM     57  C   UNL A   1      39.105  34.407  38.376  1.00  0.00     0.022 A 
BRANCH  55  58
ATOM     58  S   UNL A   1      37.239  32.673  39.375  1.00  0.00     0.127 S 
ATOM     59  O   UNL A   1      37.326  33.745  40.363  1.00  0.00    -0.237 OA
ATOM     60  O   UNL A   1      36.047  32.712  38.526  1.00  0.00    -0.237 OA
ATOM     61  O   UNL A   1      37.594  31.344  39.854  1.00  0.00    -0.744 OA
ENDBRANCH  55  58
ENDBRANCH  27  51
BRANCH  39  62
ATOM     62  C   UNL A   1      44.596  28.019  34.385  1.00  0.00     0.023 A 
ATOM     63  C   UNL A   1      45.847  28.664  34.347  1.00  0.00     0.012 A 
ATOM     64  C   UNL A   1      44.429  26.873  35.188  1.00  0.00     0.148 A 
ATOM     65  C   UNL A   1      46.920  28.169  35.087  1.00  0.00     0.002 A 
ATOM     66  C   UNL A   1      45.489  26.412  35.958  1.00  0.00     0.091 A 
ATOM     67  F   UNL A   1      43.233  26.265  35.193  1.00  0.00    -0.205 F 
ATOM     68  C   UNL A   1      46.738  27.053  35.903  1.00  0.00     0.022 A 
BRANCH  66  69
ATOM     69  S   UNL A   1      45.322  25.044  37.111  1.00  0.00     0.127 S 
ATOM     70  O   UNL A   1      44.090  25.397  37.815  1.00  0.00    -0.237 OA
ATOM     71  O   UNL A   1      45.205  23.895  36.212  1.00  0.00    -0.237 OA
ATOM     72  O   UNL A   1      46.529  25.054  37.927  1.00  0.00    -0.744 OA
ENDBRANCH  66  69
ENDBRANCH  39  62
ENDBRANCH  13  14
ENDBRANCH   6   8
ENDBRANCH   3   4
ENDBRANCH   2   3
ENDBRANCH   1   2
BRANCH   1  73
ATOM     73  C   UNL A   1      31.300  28.599  25.862  1.00  0.00     0.002 C 
BRANCH  73  74
ATOM     74  C   UNL A   1      31.813  28.904  24.456  1.00  0.00     0.021 C 
BRANCH  74  75
ATOM     75  C   UNL A   1      33.242  28.458  24.182  1.00  0.00     0.116 C 
BRANCH  75  76
ATOM     76  N   UNL A   1      33.439  27.993  22.818  1.00  0.00    -0.352 N 
ATOM     77  C   UNL A   1      33.345  26.714  22.328  1.00  0.00     0.251 C 
ATOM     78  H   UNL A   1      33.670  28.687  22.159  1.00  0.00     0.163 HD
ATOM     79  O   UNL A   1      33.658  26.455  21.171  1.00  0.00    -0.269 OA
BRANCH  77  80
ATOM     80  C   UNL A   1      32.895  25.634  23.230  1.00  0.00     0.039 A 
ATOM     81  C   UNL A   1      33.721  25.261  24.294  1.00  0.00     0.015 A 
ATOM     82  C   UNL A   1      31.642  25.033  23.056  1.00  0.00     0.015 A 
ATOM     83  C   UNL A   1      33.266  24.321  25.216  1.00  0.00     0.022 A 
ATOM     84  C   UNL A   1      31.156  24.151  24.018  1.00  0.00     0.022 A 
ATOM     85  C   UNL A   1      31.979  23.782  25.082  1.00  0.00     0.082 A 
BRANCH  85  86
ATOM     86  S   UNL A   1      31.452  22.597  26.289  1.00  0.00     0.241 S 
ATOM     87  O   UNL A   1      32.303  22.777  27.447  1.00  0.00    -0.207 OA
ATOM     88  O   UNL A   1      30.019  22.711  26.384  1.00  0.00    -0.207 OA
BRANCH  86  89
ATOM     89  N   UNL A   1      31.743  21.081  25.651  1.00  0.00    -0.202 NA
ATOM     90  H   UNL A   1      31.867  21.228  24.651  1.00  0.00     0.141 HD
BRANCH  89  91
ATOM     91  C   UNL A   1      32.833  20.182  26.050  1.00  0.00     0.133 C 
ATOM     92  C   UNL A   1      34.180  20.856  25.739  1.00  0.00     0.087 C 
ATOM     93  C   UNL A   1      32.913  18.802  25.383  1.00  0.00     0.202 C 
ATOM     94  C   UNL A   1      34.884  19.919  24.777  1.00  0.00     0.264 C 
ATOM     95  N   UNL A   1      34.363  18.601  25.150  1.00  0.00    -0.331 N 
ATOM     96  C   UNL A   1      32.269  18.600  24.022  1.00  0.00     0.072 C 
ATOM     97  C   UNL A   1      34.493  17.628  24.066  1.00  0.00     0.262 C 
ATOM     98  H   UNL A   1      34.878  18.245  25.956  1.00  0.00     0.348 HD
ATOM     99  C   UNL A   1      33.188  17.642  23.286  1.00  0.00     0.068 C 
ENDBRANCH  89  91
ENDBRANCH  86  89
ENDBRANCH  85  86
ENDBRANCH  77  80
ENDBRANCH  75  76
ENDBRANCH  74  75
ENDBRANCH  73  74
ENDBRANCH   1  73
TORSDOF 19
ENDMDL
