MODEL 1
REMARK VINA RESULT:     -11.7      0.000      0.000
REMARK SMILES COc1ccc(-c2c(C)n[nH]c2C)c(C(=O)NCCCCCCNC(=O)c2ccc(-c3c4nc(c(-c5cccc(S(=O)(=O)[O-])c5F)c5ccc([nH]5)c(-c5cccc(S(=O)(=O)[O-])c5F)c5nc(c(-c6cccc(S(=O)(=O)[O-])c6F)c6ccc3[nH]6)C=C5)C=C4)cc2)c1
REMARK SMILES IDX 21 1 20 2 19 3 18 4 17 5 15 6 16 7 14 9 3 10 4 11 90 12 5 13
REMARK SMILES IDX 6 14 2 15 1 16 7 17 8 18 12 19 9 20 10 21 11 22 13 23 22 25
REMARK SMILES IDX 23 26 24 27 25 28 26 30 27 31 28 32 89 33 29 34 88 35 30 36
REMARK SMILES IDX 31 37 32 38 82 39 33 40 87 41 81 42 83 43 34 44 86 45 80 46
REMARK SMILES IDX 79 47 35 49 67 50 47 51 66 52 48 53 51 54 65 55 84 56 49 57
REMARK SMILES IDX 50 58 64 60 85 61 52 62 36 63 37 64 45 65 38 66 40 67 46 68
REMARK SMILES IDX 39 69 41 70 42 71 43 72 44 73 68 74 69 75 77 76 70 77 72 78
REMARK SMILES IDX 78 79 71 80 73 81 74 82 75 83 76 84 53 85 54 86 62 87 55 88
REMARK SMILES IDX 57 89 63 90 56 91 58 92 59 93 60 94 61 95
REMARK H PARENT 17 8 11 24 24 29 83 48 51 59
REMARK Flexibility Score: inf
ROOT
ATOM      1  C   UNL A   1      31.797  30.580  26.129  1.00  0.00     0.002 C 
ENDROOT
BRANCH   1   2
ATOM      2  C   UNL A   1      32.225  29.451  27.069  1.00  0.00     0.002 C 
BRANCH   2   3
ATOM      3  C   UNL A   1      33.548  28.754  26.753  1.00  0.00     0.021 C 
BRANCH   3   4
ATOM      4  C   UNL A   1      33.495  27.565  25.800  1.00  0.00     0.116 C 
BRANCH   4   5
ATOM      5  N   UNL A   1      34.038  27.816  24.475  1.00  0.00    -0.352 N 
ATOM      6  C   UNL A   1      33.423  28.147  23.283  1.00  0.00     0.252 C 
ATOM      7  O   UNL A   1      34.150  28.433  22.335  1.00  0.00    -0.269 OA
ATOM      8  H   UNL A   1      35.018  27.736  24.416  1.00  0.00     0.163 HD
BRANCH   6   9
ATOM      9  C   UNL A   1      31.931  28.121  23.138  1.00  0.00     0.051 A 
ATOM     10  C   UNL A   1      29.859  29.384  22.875  1.00  0.00     0.119 A 
ATOM     11  C   UNL A   1      29.126  28.231  23.133  1.00  0.00     0.047 A 
ATOM     12  C   UNL A   1      31.250  29.309  22.821  1.00  0.00     0.060 A 
ATOM     13  C   UNL A   1      29.778  27.011  23.309  1.00  0.00     0.013 A 
ATOM     14  C   UNL A   1      31.182  26.937  23.291  1.00  0.00    -0.002 A 
BRANCH  10  15
ATOM     15  O   UNL A   1      29.118  30.516  22.687  1.00  0.00    -0.497 OA
ATOM     16  C   UNL A   1      28.929  31.355  23.825  1.00  0.00     0.278 C 
ENDBRANCH  10  15
BRANCH  14  17
ATOM     17  C   UNL A   1      31.760  25.607  23.248  1.00  0.00     0.026 A 
ATOM     18  C   UNL A   1      32.385  24.964  22.142  1.00  0.00     0.067 A 
ATOM     19  C   UNL A   1      31.792  24.677  24.266  1.00  0.00     0.040 A 
ATOM     20  C   UNL A   1      32.615  25.522  20.785  1.00  0.00     0.069 C 
ATOM     21  N   UNL A   1      32.767  23.718  22.443  1.00  0.00    -0.180 NA
ATOM     22  N   UNL A   1      32.455  23.599  23.743  1.00  0.00    -0.282 N 
ATOM     23  C   UNL A   1      31.312  24.693  25.665  1.00  0.00     0.067 C 
ATOM     24  H   UNL A   1      32.685  22.803  24.276  1.00  0.00     0.190 HD
ENDBRANCH  14  17
ENDBRANCH   6   9
ENDBRANCH   4   5
ENDBRANCH   3   4
ENDBRANCH   2   3
ENDBRANCH   1   2
BRANCH   1  25
ATOM     25  C   UNL A   1      31.525  31.939  26.774  1.00  0.00     0.021 C 
BRANCH  25  26
ATOM     26  C   UNL A   1      32.745  32.672  27.317  1.00  0.00     0.116 C 
BRANCH  26  27
ATOM     27  N   UNL A   1      32.474  34.065  27.635  1.00  0.00    -0.352 N 
ATOM     28  C   UNL A   1      33.067  34.866  28.584  1.00  0.00     0.251 C 
ATOM     29  H   UNL A   1      31.769  34.493  27.099  1.00  0.00     0.163 HD
ATOM     30  O   UNL A   1      32.620  35.979  28.819  1.00  0.00    -0.269 OA
BRANCH  28  31
ATOM     31  C   UNL A   1      34.239  34.360  29.336  1.00  0.00     0.039 A 
ATOM     32  C   UNL A   1      34.033  33.685  30.542  1.00  0.00     0.014 A 
ATOM     33  C   UNL A   1      35.534  34.543  28.846  1.00  0.00     0.014 A 
ATOM     34  C   UNL A   1      35.123  33.141  31.228  1.00  0.00     0.010 A 
ATOM     35  C   UNL A   1      36.609  33.938  29.491  1.00  0.00     0.010 A 
ATOM     36  C   UNL A   1      36.417  33.239  30.694  1.00  0.00    -0.014 A 
BRANCH  36  37
ATOM     37  C   UNL A   1      37.595  32.641  31.374  1.00  0.00     0.031 A 
ATOM     38  C   UNL A   1      38.328  31.497  30.723  1.00  0.00     0.074 A 
ATOM     39  C   UNL A   1      37.941  33.047  32.612  1.00  0.00     0.049 A 
ATOM     40  N   UNL A   1      39.286  30.750  31.204  1.00  0.00    -0.248 NA
ATOM     41  C   UNL A   1      37.901  31.122  29.363  1.00  0.00     0.031 C 
ATOM     42  C   UNL A   1      37.273  34.104  33.375  1.00  0.00     0.029 A 
ATOM     43  N   UNL A   1      38.918  32.591  33.464  1.00  0.00    -0.354 N 
ATOM     44  C   UNL A   1      39.544  29.791  30.230  1.00  0.00     0.074 A 
ATOM     45  C   UNL A   1      38.622  30.033  29.143  1.00  0.00     0.031 C 
ATOM     46  C   UNL A   1      37.851  34.208  34.582  1.00  0.00     0.029 A 
ATOM     47  C   UNL A   1      38.905  33.204  34.696  1.00  0.00     0.049 A 
ATOM     48  H   UNL A   1      39.565  31.892  33.216  1.00  0.00     0.167 HD
ATOM     49  C   UNL A   1      40.479  28.812  30.231  1.00  0.00     0.034 A 
ATOM     50  C   UNL A   1      39.645  32.972  35.799  1.00  0.00     0.034 A 
ATOM     51  C   UNL A   1      41.428  28.609  31.290  1.00  0.00     0.049 A 
ATOM     52  C   UNL A   1      40.705  31.902  35.756  1.00  0.00     0.074 A 
ATOM     53  C   UNL A   1      42.471  27.702  31.347  1.00  0.00     0.029 A 
ATOM     54  N   UNL A   1      41.451  29.321  32.478  1.00  0.00    -0.354 N 
ATOM     55  N   UNL A   1      41.026  31.097  34.772  1.00  0.00    -0.248 NA
ATOM     56  C   UNL A   1      41.531  31.731  36.962  1.00  0.00     0.031 C 
ATOM     57  C   UNL A   1      43.109  27.848  32.581  1.00  0.00     0.029 A 
ATOM     58  C   UNL A   1      42.486  28.871  33.278  1.00  0.00     0.049 A 
ATOM     59  H   UNL A   1      40.823  30.039  32.719  1.00  0.00     0.167 HD
ATOM     60  C   UNL A   1      42.118  30.363  35.221  1.00  0.00     0.074 A 
ATOM     61  C   UNL A   1      42.410  30.822  36.562  1.00  0.00     0.031 C 
ATOM     62  C   UNL A   1      42.810  29.389  34.581  1.00  0.00     0.034 A 
BRANCH  49  63
ATOM     63  C   UNL A   1      40.557  27.910  29.027  1.00  0.00     0.023 A 
ATOM     64  C   UNL A   1      39.633  26.855  28.884  1.00  0.00     0.012 A 
ATOM     65  C   UNL A   1      41.497  28.150  28.005  1.00  0.00     0.148 A 
ATOM     66  C   UNL A   1      39.664  26.031  27.760  1.00  0.00     0.002 A 
ATOM     67  C   UNL A   1      41.489  27.354  26.865  1.00  0.00     0.091 A 
ATOM     68  F   UNL A   1      42.378  29.146  28.168  1.00  0.00    -0.205 F 
ATOM     69  C   UNL A   1      40.583  26.288  26.746  1.00  0.00     0.022 A 
BRANCH  67  70
ATOM     70  S   UNL A   1      42.576  27.655  25.467  1.00  0.00     0.127 S 
ATOM     71  O   UNL A   1      42.318  26.480  24.635  1.00  0.00    -0.237 OA
ATOM     72  O   UNL A   1      42.047  28.910  24.931  1.00  0.00    -0.237 OA
ATOM     73  O   UNL A   1      43.923  27.746  26.015  1.00  0.00    -0.744 OA
ENDBRANCH  67  70
ENDBRANCH  49  63
BRANCH  50  74
ATOM     74  C   UNL A   1      39.448  33.799  37.023  1.00  0.00     0.023 A 
ATOM     75  C   UNL A   1      39.902  35.132  37.039  1.00  0.00     0.012 A 
ATOM     76  C   UNL A   1      38.808  33.279  38.164  1.00  0.00     0.148 A 
ATOM     77  C   UNL A   1      39.757  35.921  38.182  1.00  0.00     0.002 A 
ATOM     78  C   UNL A   1      38.616  34.087  39.280  1.00  0.00     0.091 A 
ATOM     79  F   UNL A   1      38.393  32.004  38.136  1.00  0.00    -0.205 F 
ATOM     80  C   UNL A   1      39.108  35.401  39.298  1.00  0.00     0.022 A 
BRANCH  78  81
ATOM     81  S   UNL A   1      37.676  33.542  40.710  1.00  0.00     0.127 S 
ATOM     82  O   UNL A   1      38.497  32.442  41.207  1.00  0.00    -0.237 OA
ATOM     83  O   UNL A   1      37.679  34.742  41.549  1.00  0.00    -0.237 OA
ATOM     84  O   UNL A   1      36.362  33.174  40.200  1.00  0.00    -0.744 OA
ENDBRANCH  78  81
ENDBRANCH  50  74
BRANCH  62  85
ATOM     85  C   UNL A   1      44.003  28.793  35.279  1.00  0.00     0.023 A 
ATOM     86  C   UNL A   1      45.280  29.364  35.113  1.00  0.00     0.012 A 
ATOM     87  C   UNL A   1      43.832  27.730  36.187  1.00  0.00     0.148 A 
ATOM     88  C   UNL A   1      46.372  28.871  35.825  1.00  0.00     0.002 A 
ATOM     89  C   UNL A   1      44.914  27.278  36.932  1.00  0.00     0.091 A 
ATOM     90  F   UNL A   1      42.611  27.190  36.316  1.00  0.00    -0.205 F 
ATOM     91  C   UNL A   1      46.187  27.839  36.745  1.00  0.00     0.022 A 
BRANCH  89  92
ATOM     92  S   UNL A   1      44.749  26.027  38.210  1.00  0.00     0.127 S 
ATOM     93  O   UNL A   1      46.121  25.926  38.706  1.00  0.00    -0.237 OA
ATOM     94  O   UNL A   1      43.810  26.657  39.139  1.00  0.00    -0.237 OA
ATOM     95  O   UNL A   1      44.239  24.835  37.547  1.00  0.00    -0.744 OA
ENDBRANCH  89  92
ENDBRANCH  62  85
ENDBRANCH  36  37
ENDBRANCH  28  31
ENDBRANCH  26  27
ENDBRANCH  25  26
ENDBRANCH   1  25
TORSDOF 18
ENDMDL
MODEL 2
REMARK VINA RESULT:     -11.7      5.758     10.825
REMARK SMILES COc1ccc(-c2c(C)n[nH]c2C)c(C(=O)NCCCCCCNC(=O)c2ccc(-c3c4nc(c(-c5cccc(S(=O)(=O)[O-])c5F)c5ccc([nH]5)c(-c5cccc(S(=O)(=O)[O-])c5F)c5nc(c(-c6cccc(S(=O)(=O)[O-])c6F)c6ccc3[nH]6)C=C5)C=C4)cc2)c1
REMARK SMILES IDX 21 1 20 2 19 3 18 4 17 5 15 6 16 7 14 9 3 10 4 11 90 12 5 13
REMARK SMILES IDX 6 14 2 15 1 16 7 17 8 18 12 19 9 20 10 21 11 22 13 23 22 25
REMARK SMILES IDX 23 26 24 27 25 28 26 30 27 31 28 32 89 33 29 34 88 35 30 36
REMARK SMILES IDX 31 37 32 38 82 39 33 40 87 41 81 42 83 43 34 44 86 45 80 46
REMARK SMILES IDX 79 47 35 49 67 50 47 51 66 52 48 53 51 54 65 55 84 56 49 57
REMARK SMILES IDX 50 58 64 60 85 61 52 62 36 63 37 64 45 65 38 66 40 67 46 68
REMARK SMILES IDX 39 69 41 70 42 71 43 72 44 73 68 74 69 75 77 76 70 77 72 78
REMARK SMILES IDX 78 79 71 80 73 81 74 82 75 83 76 84 53 85 54 86 62 87 55 88
REMARK SMILES IDX 57 89 63 90 56 91 58 92 59 93 60 94 61 95
REMARK H PARENT 17 8 11 24 24 29 83 48 51 59
REMARK Flexibility Score: inf
ROOT
ATOM      1  C   UNL A   1      35.032  23.523  24.050  1.00  0.00     0.002 C 
ENDROOT
BRANCH   1   2
ATOM      2  C   UNL A   1      35.360  24.554  25.131  1.00  0.00     0.002 C 
BRANCH   2   3
ATOM      3  C   UNL A   1      34.180  25.140  25.907  1.00  0.00     0.021 C 
BRANCH   3   4
ATOM      4  C   UNL A   1      32.864  24.374  25.850  1.00  0.00     0.116 C 
BRANCH   4   5
ATOM      5  N   UNL A   1      31.669  25.201  25.901  1.00  0.00    -0.352 N 
ATOM      6  C   UNL A   1      31.218  26.207  25.069  1.00  0.00     0.252 C 
ATOM      7  O   UNL A   1      30.093  26.652  25.283  1.00  0.00    -0.269 OA
ATOM      8  H   UNL A   1      31.077  25.011  26.665  1.00  0.00     0.163 HD
BRANCH   6   9
ATOM      9  C   UNL A   1      32.077  26.762  23.974  1.00  0.00     0.051 A 
ATOM     10  C   UNL A   1      33.125  26.420  21.795  1.00  0.00     0.119 A 
ATOM     11  C   UNL A   1      33.885  27.569  21.982  1.00  0.00     0.047 A 
ATOM     12  C   UNL A   1      32.188  26.058  22.762  1.00  0.00     0.060 A 
ATOM     13  C   UNL A   1      33.689  28.362  23.113  1.00  0.00     0.013 A 
ATOM     14  C   UNL A   1      32.771  27.981  24.108  1.00  0.00    -0.002 A 
BRANCH  10  15
ATOM     15  O   UNL A   1      33.376  25.737  20.639  1.00  0.00    -0.497 OA
ATOM     16  C   UNL A   1      32.267  25.524  19.767  1.00  0.00     0.278 C 
ENDBRANCH  10  15
BRANCH  14  17
ATOM     17  C   UNL A   1      32.467  28.974  25.121  1.00  0.00     0.026 A 
ATOM     18  C   UNL A   1      31.388  29.904  25.133  1.00  0.00     0.067 A 
ATOM     19  C   UNL A   1      33.182  29.243  26.269  1.00  0.00     0.040 A 
ATOM     20  C   UNL A   1      30.310  30.049  24.123  1.00  0.00     0.069 C 
ATOM     21  N   UNL A   1      31.435  30.704  26.204  1.00  0.00    -0.180 NA
ATOM     22  N   UNL A   1      32.486  30.240  26.898  1.00  0.00    -0.282 N 
ATOM     23  C   UNL A   1      34.407  28.658  26.856  1.00  0.00     0.067 C 
ATOM     24  H   UNL A   1      32.734  30.587  27.786  1.00  0.00     0.190 HD
ENDBRANCH  14  17
ENDBRANCH   6   9
ENDBRANCH   4   5
ENDBRANCH   3   4
ENDBRANCH   2   3
ENDBRANCH   1   2
BRANCH   1  25
ATOM     25  C   UNL A   1      35.577  22.110  24.265  1.00  0.00     0.021 C 
BRANCH  25  26
ATOM     26  C   UNL A   1      36.307  21.874  25.582  1.00  0.00     0.116 C 
BRANCH  26  27
ATOM     27  N   UNL A   1      37.232  20.755  25.524  1.00  0.00    -0.352 N 
ATOM     28  C   UNL A   1      38.589  20.742  25.756  1.00  0.00     0.251 C 
ATOM     29  H   UNL A   1      36.835  19.887  25.285  1.00  0.00     0.163 HD
ATOM     30  O   UNL A   1      39.245  19.737  25.525  1.00  0.00    -0.269 OA
BRANCH  28  31
ATOM     31  C   UNL A   1      39.252  21.963  26.268  1.00  0.00     0.039 A 
ATOM     32  C   UNL A   1      40.300  21.835  27.183  1.00  0.00     0.014 A 
ATOM     33  C   UNL A   1      38.846  23.229  25.839  1.00  0.00     0.014 A 
ATOM     34  C   UNL A   1      40.982  22.975  27.623  1.00  0.00     0.010 A 
ATOM     35  C   UNL A   1      39.571  24.354  26.219  1.00  0.00     0.010 A 
ATOM     36  C   UNL A   1      40.640  24.241  27.123  1.00  0.00    -0.014 A 
BRANCH  36  37
ATOM     37  C   UNL A   1      41.366  25.470  27.536  1.00  0.00     0.031 A 
ATOM     38  C   UNL A   1      40.638  26.536  28.315  1.00  0.00     0.074 A 
ATOM     39  C   UNL A   1      42.632  25.679  27.128  1.00  0.00     0.049 A 
ATOM     40  N   UNL A   1      41.042  27.732  28.652  1.00  0.00    -0.248 NA
ATOM     41  C   UNL A   1      39.262  26.227  28.739  1.00  0.00     0.031 C 
ATOM     42  C   UNL A   1      43.426  24.751  26.318  1.00  0.00     0.029 A 
ATOM     43  N   UNL A   1      43.465  26.759  27.303  1.00  0.00    -0.354 N 
ATOM     44  C   UNL A   1      39.959  28.334  29.284  1.00  0.00     0.074 A 
ATOM     45  C   UNL A   1      38.872  27.381  29.258  1.00  0.00     0.031 C 
ATOM     46  C   UNL A   1      44.621  25.304  26.060  1.00  0.00     0.029 A 
ATOM     47  C   UNL A   1      44.670  26.638  26.651  1.00  0.00     0.049 A 
ATOM     48  H   UNL A   1      43.220  27.544  27.845  1.00  0.00     0.167 HD
ATOM     49  C   UNL A   1      39.884  29.559  29.854  1.00  0.00     0.034 A 
ATOM     50  C   UNL A   1      45.692  27.509  26.528  1.00  0.00     0.034 A 
ATOM     51  C   UNL A   1      40.984  30.481  29.925  1.00  0.00     0.049 A 
ATOM     52  C   UNL A   1      45.595  28.850  27.207  1.00  0.00     0.074 A 
ATOM     53  C   UNL A   1      41.035  31.710  30.559  1.00  0.00     0.029 A 
ATOM     54  N   UNL A   1      42.224  30.277  29.343  1.00  0.00    -0.354 N 
ATOM     55  N   UNL A   1      44.612  29.346  27.919  1.00  0.00    -0.248 NA
ATOM     56  C   UNL A   1      46.762  29.740  27.099  1.00  0.00     0.031 C 
ATOM     57  C   UNL A   1      42.300  32.261  30.337  1.00  0.00     0.029 A 
ATOM     58  C   UNL A   1      43.047  31.359  29.598  1.00  0.00     0.049 A 
ATOM     59  H   UNL A   1      42.482  29.481  28.825  1.00  0.00     0.167 HD
ATOM     60  C   UNL A   1      45.059  30.577  28.383  1.00  0.00     0.074 A 
ATOM     61  C   UNL A   1      46.405  30.752  27.878  1.00  0.00     0.031 C 
ATOM     62  C   UNL A   1      44.410  31.485  29.151  1.00  0.00     0.034 A 
BRANCH  49  63
ATOM     63  C   UNL A   1      38.580  29.960  30.494  1.00  0.00     0.023 A 
ATOM     64  C   UNL A   1      38.294  29.549  31.811  1.00  0.00     0.012 A 
ATOM     65  C   UNL A   1      37.673  30.800  29.818  1.00  0.00     0.148 A 
ATOM     66  C   UNL A   1      37.109  29.940  32.436  1.00  0.00     0.002 A 
ATOM     67  C   UNL A   1      36.518  31.225  30.465  1.00  0.00     0.091 A 
ATOM     68  F   UNL A   1      37.955  31.164  28.560  1.00  0.00    -0.205 F 
ATOM     69  C   UNL A   1      36.229  30.786  31.767  1.00  0.00     0.022 A 
BRANCH  67  70
ATOM     70  S   UNL A   1      35.362  32.382  29.722  1.00  0.00     0.127 S 
ATOM     71  O   UNL A   1      34.897  31.627  28.558  1.00  0.00    -0.237 OA
ATOM     72  O   UNL A   1      34.366  32.542  30.781  1.00  0.00    -0.237 OA
ATOM     73  O   UNL A   1      36.129  33.582  29.420  1.00  0.00    -0.744 OA
ENDBRANCH  67  70
ENDBRANCH  49  63
BRANCH  50  74
ATOM     74  C   UNL A   1      46.917  27.127  25.771  1.00  0.00     0.023 A 
ATOM     75  C   UNL A   1      47.883  26.307  26.386  1.00  0.00     0.012 A 
ATOM     76  C   UNL A   1      47.127  27.559  24.448  1.00  0.00     0.148 A 
ATOM     77  C   UNL A   1      49.055  25.957  25.712  1.00  0.00     0.002 A 
ATOM     78  C   UNL A   1      48.270  27.160  23.761  1.00  0.00     0.091 A 
ATOM     79  F   UNL A   1      46.203  28.349  23.881  1.00  0.00    -0.205 F 
ATOM     80  C   UNL A   1      49.244  26.376  24.399  1.00  0.00     0.022 A 
BRANCH  78  81
ATOM     81  S   UNL A   1      48.532  27.546  22.026  1.00  0.00     0.127 S 
ATOM     82  O   UNL A   1      47.285  28.220  21.678  1.00  0.00    -0.237 OA
ATOM     83  O   UNL A   1      49.708  28.415  22.085  1.00  0.00    -0.237 OA
ATOM     84  O   UNL A   1      48.766  26.266  21.371  1.00  0.00    -0.744 OA
ENDBRANCH  78  81
ENDBRANCH  50  74
BRANCH  62  85
ATOM     85  C   UNL A   1      45.156  32.726  29.566  1.00  0.00     0.023 A 
ATOM     86  C   UNL A   1      45.958  32.715  30.723  1.00  0.00     0.012 A 
ATOM     87  C   UNL A   1      45.144  33.867  28.739  1.00  0.00     0.148 A 
ATOM     88  C   UNL A   1      46.720  33.833  31.064  1.00  0.00     0.002 A 
ATOM     89  C   UNL A   1      45.945  34.956  29.057  1.00  0.00     0.091 A 
ATOM     90  F   UNL A   1      44.359  33.860  27.652  1.00  0.00    -0.205 F 
ATOM     91  C   UNL A   1      46.726  34.946  30.224  1.00  0.00     0.022 A 
BRANCH  89  92
ATOM     92  S   UNL A   1      46.096  36.387  27.983  1.00  0.00     0.127 S 
ATOM     93  O   UNL A   1      44.733  36.915  27.997  1.00  0.00    -0.237 OA
ATOM     94  O   UNL A   1      47.075  37.208  28.697  1.00  0.00    -0.237 OA
ATOM     95  O   UNL A   1      46.553  35.880  26.695  1.00  0.00    -0.744 OA
ENDBRANCH  89  92
ENDBRANCH  62  85
ENDBRANCH  36  37
ENDBRANCH  28  31
ENDBRANCH  26  27
ENDBRANCH  25  26
ENDBRANCH   1  25
TORSDOF 18
ENDMDL
MODEL 3
REMARK VINA RESULT:     -11.6      3.820      9.030
REMARK SMILES COc1ccc(-c2c(C)n[nH]c2C)c(C(=O)NCCCCCCNC(=O)c2ccc(-c3c4nc(c(-c5cccc(S(=O)(=O)[O-])c5F)c5ccc([nH]5)c(-c5cccc(S(=O)(=O)[O-])c5F)c5nc(c(-c6cccc(S(=O)(=O)[O-])c6F)c6ccc3[nH]6)C=C5)C=C4)cc2)c1
REMARK SMILES IDX 21 1 20 2 19 3 18 4 17 5 15 6 16 7 14 9 3 10 4 11 90 12 5 13
REMARK SMILES IDX 6 14 2 15 1 16 7 17 8 18 12 19 9 20 10 21 11 22 13 23 22 25
REMARK SMILES IDX 23 26 24 27 25 28 26 30 27 31 28 32 89 33 29 34 88 35 30 36
REMARK SMILES IDX 31 37 32 38 82 39 33 40 87 41 81 42 83 43 34 44 86 45 80 46
REMARK SMILES IDX 79 47 35 49 67 50 47 51 66 52 48 53 51 54 65 55 84 56 49 57
REMARK SMILES IDX 50 58 64 60 85 61 52 62 36 63 37 64 45 65 38 66 40 67 46 68
REMARK SMILES IDX 39 69 41 70 42 71 43 72 44 73 68 74 69 75 77 76 70 77 72 78
REMARK SMILES IDX 78 79 71 80 73 81 74 82 75 83 76 84 53 85 54 86 62 87 55 88
REMARK SMILES IDX 57 89 63 90 56 91 58 92 59 93 60 94 61 95
REMARK H PARENT 17 8 11 24 24 29 83 48 51 59
REMARK Flexibility Score: inf
ROOT
ATOM      1  C   UNL A   1      33.283  26.459  25.737  1.00  0.00     0.002 C 
ENDROOT
BRANCH   1   2
ATOM      2  C   UNL A   1      33.779  26.505  24.291  1.00  0.00     0.002 C 
BRANCH   2   3
ATOM      3  C   UNL A   1      33.997  25.163  23.592  1.00  0.00     0.021 C 
BRANCH   3   4
ATOM      4  C   UNL A   1      33.045  24.811  22.456  1.00  0.00     0.116 C 
BRANCH   4   5
ATOM      5  N   UNL A   1      32.861  23.386  22.229  1.00  0.00    -0.352 N 
ATOM      6  C   UNL A   1      32.409  22.379  23.060  1.00  0.00     0.252 C 
ATOM      7  O   UNL A   1      32.229  21.273  22.556  1.00  0.00    -0.269 OA
ATOM      8  H   UNL A   1      33.102  23.086  21.322  1.00  0.00     0.163 HD
BRANCH   6   9
ATOM      9  C   UNL A   1      32.183  22.613  24.523  1.00  0.00     0.051 A 
ATOM     10  C   UNL A   1      30.850  23.689  26.261  1.00  0.00     0.119 A 
ATOM     11  C   UNL A   1      31.813  23.352  27.206  1.00  0.00     0.047 A 
ATOM     12  C   UNL A   1      31.012  23.268  24.942  1.00  0.00     0.060 A 
ATOM     13  C   UNL A   1      32.914  22.578  26.839  1.00  0.00     0.013 A 
ATOM     14  C   UNL A   1      33.100  22.182  25.502  1.00  0.00    -0.002 A 
BRANCH  10  15
ATOM     15  O   UNL A   1      29.798  24.421  26.736  1.00  0.00    -0.497 OA
ATOM     16  C   UNL A   1      29.487  25.625  26.037  1.00  0.00     0.278 C 
ENDBRANCH  10  15
BRANCH  14  17
ATOM     17  C   UNL A   1      34.135  21.194  25.259  1.00  0.00     0.026 A 
ATOM     18  C   UNL A   1      35.531  21.419  25.091  1.00  0.00     0.067 A 
ATOM     19  C   UNL A   1      33.972  19.833  25.107  1.00  0.00     0.040 A 
ATOM     20  C   UNL A   1      36.251  22.716  25.156  1.00  0.00     0.069 C 
ATOM     21  N   UNL A   1      36.190  20.282  24.839  1.00  0.00    -0.180 NA
ATOM     22  N   UNL A   1      35.236  19.342  24.920  1.00  0.00    -0.282 N 
ATOM     23  C   UNL A   1      32.789  18.947  25.154  1.00  0.00     0.067 C 
ATOM     24  H   UNL A   1      35.429  18.378  24.850  1.00  0.00     0.190 HD
ENDBRANCH  14  17
ENDBRANCH   6   9
ENDBRANCH   4   5
ENDBRANCH   3   4
ENDBRANCH   2   3
ENDBRANCH   1   2
BRANCH   1  25
ATOM     25  C   UNL A   1      33.211  27.794  26.478  1.00  0.00     0.021 C 
BRANCH  25  26
ATOM     26  C   UNL A   1      34.038  28.928  25.885  1.00  0.00     0.116 C 
BRANCH  26  27
ATOM     27  N   UNL A   1      33.809  30.202  26.546  1.00  0.00    -0.352 N 
ATOM     28  C   UNL A   1      34.522  30.787  27.568  1.00  0.00     0.251 C 
ATOM     29  H   UNL A   1      33.037  30.718  26.218  1.00  0.00     0.163 HD
ATOM     30  O   UNL A   1      34.108  31.803  28.107  1.00  0.00    -0.269 OA
BRANCH  28  31
ATOM     31  C   UNL A   1      35.785  30.163  28.025  1.00  0.00     0.039 A 
ATOM     32  C   UNL A   1      36.933  30.295  27.238  1.00  0.00     0.014 A 
ATOM     33  C   UNL A   1      35.838  29.458  29.230  1.00  0.00     0.014 A 
ATOM     34  C   UNL A   1      38.148  29.771  27.689  1.00  0.00     0.010 A 
ATOM     35  C   UNL A   1      37.061  29.002  29.711  1.00  0.00     0.010 A 
ATOM     36  C   UNL A   1      38.227  29.144  28.943  1.00  0.00    -0.014 A 
BRANCH  36  37
ATOM     37  C   UNL A   1      39.508  28.609  29.473  1.00  0.00     0.031 A 
ATOM     38  C   UNL A   1      40.207  29.331  30.596  1.00  0.00     0.074 A 
ATOM     39  C   UNL A   1      40.095  27.548  28.884  1.00  0.00     0.049 A 
ATOM     40  N   UNL A   1      41.389  29.112  31.108  1.00  0.00    -0.248 NA
ATOM     41  C   UNL A   1      39.495  30.471  31.198  1.00  0.00     0.031 C 
ATOM     42  C   UNL A   1      39.549  26.800  27.749  1.00  0.00     0.029 A 
ATOM     43  N   UNL A   1      41.300  26.938  29.133  1.00  0.00    -0.354 N 
ATOM     44  C   UNL A   1      41.583  30.111  32.056  1.00  0.00     0.074 A 
ATOM     45  C   UNL A   1      40.408  30.953  32.028  1.00  0.00     0.031 C 
ATOM     46  C   UNL A   1      40.419  25.841  27.395  1.00  0.00     0.029 A 
ATOM     47  C   UNL A   1      41.599  25.926  28.250  1.00  0.00     0.049 A 
ATOM     48  H   UNL A   1      41.894  27.200  29.873  1.00  0.00     0.167 HD
ATOM     49  C   UNL A   1      42.632  30.296  32.890  1.00  0.00     0.034 A 
ATOM     50  C   UNL A   1      42.706  25.165  28.130  1.00  0.00     0.034 A 
ATOM     51  C   UNL A   1      43.773  29.425  32.952  1.00  0.00     0.049 A 
ATOM     52  C   UNL A   1      43.842  25.368  29.098  1.00  0.00     0.074 A 
ATOM     53  C   UNL A   1      44.847  29.477  33.823  1.00  0.00     0.029 A 
ATOM     54  N   UNL A   1      43.990  28.346  32.111  1.00  0.00    -0.354 N 
ATOM     55  N   UNL A   1      43.945  26.232  30.079  1.00  0.00    -0.248 NA
ATOM     56  C   UNL A   1      45.000  24.470  28.969  1.00  0.00     0.031 C 
ATOM     57  C   UNL A   1      45.727  28.443  33.490  1.00  0.00     0.029 A 
ATOM     58  C   UNL A   1      45.182  27.726  32.437  1.00  0.00     0.049 A 
ATOM     59  H   UNL A   1      43.385  28.063  31.387  1.00  0.00     0.167 HD
ATOM     60  C   UNL A   1      45.150  25.949  30.712  1.00  0.00     0.074 A 
ATOM     61  C   UNL A   1      45.740  24.829  30.009  1.00  0.00     0.031 C 
ATOM     62  C   UNL A   1      45.720  26.567  31.775  1.00  0.00     0.034 A 
BRANCH  49  63
ATOM     63  C   UNL A   1      42.578  31.462  33.843  1.00  0.00     0.023 A 
ATOM     64  C   UNL A   1      43.123  32.704  33.458  1.00  0.00     0.012 A 
ATOM     65  C   UNL A   1      41.928  31.348  35.088  1.00  0.00     0.148 A 
ATOM     66  C   UNL A   1      43.051  33.806  34.310  1.00  0.00     0.002 A 
ATOM     67  C   UNL A   1      41.817  32.464  35.910  1.00  0.00     0.091 A 
ATOM     68  F   UNL A   1      41.433  30.155  35.443  1.00  0.00    -0.205 F 
ATOM     69  C   UNL A   1      42.389  33.689  35.528  1.00  0.00     0.022 A 
BRANCH  67  70
ATOM     70  S   UNL A   1      40.912  32.438  37.461  1.00  0.00     0.127 S 
ATOM     71  O   UNL A   1      40.756  33.867  37.735  1.00  0.00    -0.237 OA
ATOM     72  O   UNL A   1      39.676  31.752  37.083  1.00  0.00    -0.237 OA
ATOM     73  O   UNL A   1      41.749  31.712  38.405  1.00  0.00    -0.744 OA
ENDBRANCH  67  70
ENDBRANCH  49  63
BRANCH  50  74
ATOM     74  C   UNL A   1      42.779  24.106  27.084  1.00  0.00     0.023 A 
ATOM     75  C   UNL A   1      43.470  24.362  25.884  1.00  0.00     0.012 A 
ATOM     76  C   UNL A   1      42.178  22.846  27.273  1.00  0.00     0.148 A 
ATOM     77  C   UNL A   1      43.529  23.399  24.875  1.00  0.00     0.002 A 
ATOM     78  C   UNL A   1      42.288  21.871  26.287  1.00  0.00     0.091 A 
ATOM     79  F   UNL A   1      41.513  22.623  28.416  1.00  0.00    -0.205 F 
ATOM     80  C   UNL A   1      42.946  22.153  25.080  1.00  0.00     0.022 A 
BRANCH  78  81
ATOM     81  S   UNL A   1      41.680  20.197  26.521  1.00  0.00     0.127 S 
ATOM     82  O   UNL A   1      42.211  19.518  25.342  1.00  0.00    -0.237 OA
ATOM     83  O   UNL A   1      42.312  19.820  27.786  1.00  0.00    -0.237 OA
ATOM     84  O   UNL A   1      40.230  20.311  26.588  1.00  0.00    -0.744 OA
ENDBRANCH  78  81
ENDBRANCH  50  74
BRANCH  62  85
ATOM     85  C   UNL A   1      47.016  26.014  32.305  1.00  0.00     0.023 A 
ATOM     86  C   UNL A   1      48.244  26.542  31.863  1.00  0.00     0.012 A 
ATOM     87  C   UNL A   1      47.005  25.044  33.327  1.00  0.00     0.148 A 
ATOM     88  C   UNL A   1      49.445  26.095  32.415  1.00  0.00     0.002 A 
ATOM     89  C   UNL A   1      48.201  24.641  33.908  1.00  0.00     0.091 A 
ATOM     90  F   UNL A   1      45.824  24.543  33.719  1.00  0.00    -0.205 F 
ATOM     91  C   UNL A   1      49.422  25.157  33.446  1.00  0.00     0.022 A 
BRANCH  89  92
ATOM     92  S   UNL A   1      48.262  23.519  35.309  1.00  0.00     0.127 S 
ATOM     93  O   UNL A   1      48.382  22.221  34.646  1.00  0.00    -0.237 OA
ATOM     94  O   UNL A   1      49.469  23.962  36.007  1.00  0.00    -0.237 OA
ATOM     95  O   UNL A   1      47.023  23.727  36.047  1.00  0.00    -0.744 OA
ENDBRANCH  89  92
ENDBRANCH  62  85
ENDBRANCH  36  37
ENDBRANCH  28  31
ENDBRANCH  26  27
ENDBRANCH  25  26
ENDBRANCH   1  25
TORSDOF 18
ENDMDL
