MODEL 1
REMARK VINA RESULT:     -10.6      0.000      0.000
REMARK SMILES O=C(NCCCCCCNC(=O)c1ccc(COc2cccc(Cl)c2Cl)o1)c1ccc(-c2c3nc(c(-c4cccc(S(=O)(=O)[O-])c4F)c4ccc([nH]4)c(-c4cccc(S(=O)(=O)[O-])c4F)c4nc(c(-c5cccc(S(=O)(=O)[O-])c5F)c5ccc2[nH]5)C=C4)C=C3)cc1
REMARK SMILES IDX 6 1 5 2 4 3 3 4 1 5 2 6 28 8 29 9 90 10 30 11 89 12 31 13
REMARK SMILES IDX 32 14 33 15 83 16 34 17 88 18 82 19 84 20 35 21 87 22 81 23
REMARK SMILES IDX 80 24 36 26 68 27 48 28 67 29 49 30 52 31 66 32 85 33 50 34
REMARK SMILES IDX 51 35 65 37 86 38 53 39 37 40 38 41 46 42 39 43 41 44 47 45
REMARK SMILES IDX 40 46 42 47 43 48 44 49 45 50 69 51 70 52 78 53 71 54 73 55
REMARK SMILES IDX 79 56 72 57 74 58 75 59 76 60 77 61 54 62 55 63 63 64 56 65
REMARK SMILES IDX 58 66 64 67 57 68 59 69 60 70 61 71 62 72 7 73 8 74 9 75
REMARK SMILES IDX 10 76 11 77 12 79 13 80 14 81 27 82 15 83 16 84 17 85 18 86
REMARK SMILES IDX 19 87 20 88 25 89 21 90 23 91 26 92 22 93 24 94
REMARK H PARENT 3 7 84 25 52 36 10 78
REMARK Flexibility Score: inf
ROOT
ATOM      1  C   UNL A   1      38.674  21.718  25.748  1.00  0.00     0.002 C 
ENDROOT
BRANCH   1   2
ATOM      2  C   UNL A   1      39.185  20.304  25.463  1.00  0.00     0.021 C 
BRANCH   2   3
ATOM      3  C   UNL A   1      39.977  19.655  26.593  1.00  0.00     0.116 C 
BRANCH   3   4
ATOM      4  N   UNL A   1      41.204  19.044  26.121  1.00  0.00    -0.352 N 
ATOM      5  O   UNL A   1      43.278  18.972  25.257  1.00  0.00    -0.269 OA
ATOM      6  C   UNL A   1      42.407  19.630  25.819  1.00  0.00     0.251 C 
ATOM      7  H   UNL A   1      41.169  18.067  26.002  1.00  0.00     0.163 HD
BRANCH   6   8
ATOM      8  C   UNL A   1      42.640  21.054  26.146  1.00  0.00     0.039 A 
ATOM      9  C   UNL A   1      42.853  21.469  27.466  1.00  0.00     0.014 A 
ATOM     10  C   UNL A   1      42.680  21.983  25.104  1.00  0.00     0.014 A 
ATOM     11  C   UNL A   1      43.008  22.824  27.752  1.00  0.00     0.010 A 
ATOM     12  C   UNL A   1      42.892  23.332  25.386  1.00  0.00     0.010 A 
ATOM     13  C   UNL A   1      43.037  23.766  26.714  1.00  0.00    -0.014 A 
BRANCH  13  14
ATOM     14  C   UNL A   1      43.291  25.200  27.000  1.00  0.00     0.031 A 
ATOM     15  C   UNL A   1      44.657  25.792  26.808  1.00  0.00     0.074 A 
ATOM     16  C   UNL A   1      42.293  25.947  27.510  1.00  0.00     0.049 A 
ATOM     17  N   UNL A   1      45.076  26.998  27.089  1.00  0.00    -0.248 NA
ATOM     18  C   UNL A   1      45.689  24.913  26.236  1.00  0.00     0.031 C 
ATOM     19  C   UNL A   1      40.940  25.463  27.786  1.00  0.00     0.029 A 
ATOM     20  N   UNL A   1      42.273  27.254  27.924  1.00  0.00    -0.354 N 
ATOM     21  C   UNL A   1      46.429  27.015  26.771  1.00  0.00     0.074 A 
ATOM     22  C   UNL A   1      46.760  25.695  26.275  1.00  0.00     0.031 C 
ATOM     23  C   UNL A   1      40.226  26.452  28.343  1.00  0.00     0.029 A 
ATOM     24  C   UNL A   1      41.081  27.624  28.501  1.00  0.00     0.049 A 
ATOM     25  H   UNL A   1      43.036  27.868  27.818  1.00  0.00     0.167 HD
ATOM     26  C   UNL A   1      47.308  28.040  26.870  1.00  0.00     0.034 A 
ATOM     27  C   UNL A   1      40.721  28.768  29.116  1.00  0.00     0.034 A 
ATOM     28  C   UNL A   1      46.962  29.358  27.329  1.00  0.00     0.049 A 
ATOM     29  C   UNL A   1      41.706  29.899  29.188  1.00  0.00     0.074 A 
ATOM     30  C   UNL A   1      47.761  30.487  27.383  1.00  0.00     0.029 A 
ATOM     31  N   UNL A   1      45.718  29.723  27.821  1.00  0.00    -0.354 N 
ATOM     32  N   UNL A   1      42.938  29.944  28.743  1.00  0.00    -0.248 NA
ATOM     33  C   UNL A   1      41.245  31.146  29.816  1.00  0.00     0.031 C 
ATOM     34  C   UNL A   1      47.002  31.533  27.919  1.00  0.00     0.029 A 
ATOM     35  C   UNL A   1      45.728  31.058  28.191  1.00  0.00     0.049 A 
ATOM     36  H   UNL A   1      44.942  29.123  27.897  1.00  0.00     0.167 HD
ATOM     37  C   UNL A   1      43.394  31.229  29.012  1.00  0.00     0.074 A 
ATOM     38  C   UNL A   1      42.299  31.936  29.645  1.00  0.00     0.031 C 
ATOM     39  C   UNL A   1      44.613  31.767  28.767  1.00  0.00     0.034 A 
BRANCH  26  40
ATOM     40  C   UNL A   1      48.724  27.789  26.428  1.00  0.00     0.023 A 
ATOM     41  C   UNL A   1      49.700  27.459  27.390  1.00  0.00     0.012 A 
ATOM     42  C   UNL A   1      49.082  27.828  25.066  1.00  0.00     0.148 A 
ATOM     43  C   UNL A   1      51.016  27.200  27.008  1.00  0.00     0.002 A 
ATOM     44  C   UNL A   1      50.389  27.535  24.690  1.00  0.00     0.091 A 
ATOM     45  F   UNL A   1      48.151  28.172  24.165  1.00  0.00    -0.205 F 
ATOM     46  C   UNL A   1      51.358  27.228  25.658  1.00  0.00     0.022 A 
BRANCH  44  47
ATOM     47  S   UNL A   1      50.888  27.489  22.964  1.00  0.00     0.127 S 
ATOM     48  O   UNL A   1      52.197  26.848  23.050  1.00  0.00    -0.237 OA
ATOM     49  O   UNL A   1      49.845  26.661  22.354  1.00  0.00    -0.237 OA
ATOM     50  O   UNL A   1      50.882  28.877  22.524  1.00  0.00    -0.744 OA
ENDBRANCH  44  47
ENDBRANCH  26  40
BRANCH  27  51
ATOM     51  C   UNL A   1      39.342  28.889  29.660  1.00  0.00     0.023 A 
ATOM     52  C   UNL A   1      39.066  28.412  30.956  1.00  0.00     0.012 A 
ATOM     53  C   UNL A   1      38.335  29.568  28.946  1.00  0.00     0.148 A 
ATOM     54  C   UNL A   1      37.809  28.604  31.529  1.00  0.00     0.002 A 
ATOM     55  C   UNL A   1      37.103  29.804  29.544  1.00  0.00     0.091 A 
ATOM     56  F   UNL A   1      38.618  30.004  27.711  1.00  0.00    -0.205 F 
ATOM     57  C   UNL A   1      36.833  29.313  30.831  1.00  0.00     0.022 A 
BRANCH  55  58
ATOM     58  S   UNL A   1      35.842  30.833  28.781  1.00  0.00     0.127 S 
ATOM     59  O   UNL A   1      35.200  31.432  29.947  1.00  0.00    -0.237 OA
ATOM     60  O   UNL A   1      36.648  31.755  27.980  1.00  0.00    -0.237 OA
ATOM     61  O   UNL A   1      35.014  29.925  27.999  1.00  0.00    -0.744 OA
ENDBRANCH  55  58
ENDBRANCH  27  51
BRANCH  39  62
ATOM     62  C   UNL A   1      44.839  33.201  29.159  1.00  0.00     0.023 A 
ATOM     63  C   UNL A   1      45.364  33.498  30.430  1.00  0.00     0.012 A 
ATOM     64  C   UNL A   1      44.633  34.241  28.231  1.00  0.00     0.148 A 
ATOM     65  C   UNL A   1      45.670  34.813  30.779  1.00  0.00     0.002 A 
ATOM     66  C   UNL A   1      44.977  35.544  28.571  1.00  0.00     0.091 A 
ATOM     67  F   UNL A   1      44.112  33.936  27.033  1.00  0.00    -0.205 F 
ATOM     68  C   UNL A   1      45.490  35.833  29.847  1.00  0.00     0.022 A 
BRANCH  66  69
ATOM     69  S   UNL A   1      44.860  36.906  27.405  1.00  0.00     0.127 S 
ATOM     70  O   UNL A   1      43.494  36.758  26.908  1.00  0.00    -0.237 OA
ATOM     71  O   UNL A   1      45.075  38.071  28.264  1.00  0.00    -0.237 OA
ATOM     72  O   UNL A   1      45.910  36.681  26.420  1.00  0.00    -0.744 OA
ENDBRANCH  66  69
ENDBRANCH  39  62
ENDBRANCH  13  14
ENDBRANCH   6   8
ENDBRANCH   3   4
ENDBRANCH   2   3
ENDBRANCH   1   2
BRANCH   1  73
ATOM     73  C   UNL A   1      37.385  22.117  25.023  1.00  0.00     0.002 C 
BRANCH  73  74
ATOM     74  C   UNL A   1      36.310  21.029  24.935  1.00  0.00     0.021 C 
BRANCH  74  75
ATOM     75  C   UNL A   1      35.108  21.233  25.852  1.00  0.00     0.116 C 
BRANCH  75  76
ATOM     76  N   UNL A   1      34.147  20.157  25.716  1.00  0.00    -0.349 N 
ATOM     77  C   UNL A   1      32.888  20.196  25.175  1.00  0.00     0.286 C 
ATOM     78  H   UNL A   1      34.437  19.280  26.058  1.00  0.00     0.163 HD
ATOM     79  O   UNL A   1      32.156  19.217  25.370  1.00  0.00    -0.266 OA
BRANCH  77  80
ATOM     80  C   UNL A   1      32.483  21.345  24.399  1.00  0.00     0.191 A 
ATOM     81  C   UNL A   1      32.536  21.640  23.046  1.00  0.00     0.057 A 
ATOM     82  O   UNL A   1      31.851  22.367  25.051  1.00  0.00    -0.452 OA
ATOM     83  C   UNL A   1      31.918  22.901  22.872  1.00  0.00     0.050 A 
ATOM     84  C   UNL A   1      31.487  23.294  24.122  1.00  0.00     0.142 A 
BRANCH  84  85
ATOM     85  C   UNL A   1      30.662  24.432  24.606  1.00  0.00     0.304 C 
BRANCH  85  86
ATOM     86  O   UNL A   1      31.520  25.430  25.191  1.00  0.00    -0.484 OA
BRANCH  86  87
ATOM     87  C   UNL A   1      31.251  26.696  24.728  1.00  0.00     0.140 A 
ATOM     88  C   UNL A   1      30.446  26.837  23.591  1.00  0.00     0.048 A 
ATOM     89  C   UNL A   1      31.679  27.825  25.437  1.00  0.00     0.101 A 
ATOM     90  C   UNL A   1      30.127  28.101  23.108  1.00  0.00     0.005 A 
ATOM     91  C   UNL A   1      31.333  29.096  24.959  1.00  0.00     0.063 A 
ATOM     92  Cl  UNL A   1      32.617  27.623  26.878  1.00  0.00    -0.079 Cl
ATOM     93  C   UNL A   1      30.571  29.232  23.791  1.00  0.00     0.022 A 
ATOM     94  Cl  UNL A   1      31.804  30.551  25.769  1.00  0.00    -0.083 Cl
ENDBRANCH  86  87
ENDBRANCH  85  86
ENDBRANCH  84  85
ENDBRANCH  77  80
ENDBRANCH  75  76
ENDBRANCH  74  75
ENDBRANCH  73  74
ENDBRANCH   1  73
TORSDOF 19
ENDMDL
MODEL 2
REMARK VINA RESULT:     -10.6      6.141     10.067
REMARK SMILES O=C(NCCCCCCNC(=O)c1ccc(COc2cccc(Cl)c2Cl)o1)c1ccc(-c2c3nc(c(-c4cccc(S(=O)(=O)[O-])c4F)c4ccc([nH]4)c(-c4cccc(S(=O)(=O)[O-])c4F)c4nc(c(-c5cccc(S(=O)(=O)[O-])c5F)c5ccc2[nH]5)C=C4)C=C3)cc1
REMARK SMILES IDX 6 1 5 2 4 3 3 4 1 5 2 6 28 8 29 9 90 10 30 11 89 12 31 13
REMARK SMILES IDX 32 14 33 15 83 16 34 17 88 18 82 19 84 20 35 21 87 22 81 23
REMARK SMILES IDX 80 24 36 26 68 27 48 28 67 29 49 30 52 31 66 32 85 33 50 34
REMARK SMILES IDX 51 35 65 37 86 38 53 39 37 40 38 41 46 42 39 43 41 44 47 45
REMARK SMILES IDX 40 46 42 47 43 48 44 49 45 50 69 51 70 52 78 53 71 54 73 55
REMARK SMILES IDX 79 56 72 57 74 58 75 59 76 60 77 61 54 62 55 63 63 64 56 65
REMARK SMILES IDX 58 66 64 67 57 68 59 69 60 70 61 71 62 72 7 73 8 74 9 75
REMARK SMILES IDX 10 76 11 77 12 79 13 80 14 81 27 82 15 83 16 84 17 85 18 86
REMARK SMILES IDX 19 87 20 88 25 89 21 90 23 91 26 92 22 93 24 94
REMARK H PARENT 3 7 84 25 52 36 10 78
REMARK Flexibility Score: inf
ROOT
ATOM      1  C   UNL A   1      34.588  30.965  27.470  1.00  0.00     0.002 C 
ENDROOT
BRANCH   1   2
ATOM      2  C   UNL A   1      33.273  31.689  27.765  1.00  0.00     0.021 C 
BRANCH   2   3
ATOM      3  C   UNL A   1      33.009  32.933  26.924  1.00  0.00     0.116 C 
BRANCH   3   4
ATOM      4  N   UNL A   1      32.667  34.083  27.739  1.00  0.00    -0.352 N 
ATOM      5  O   UNL A   1      32.671  35.399  29.560  1.00  0.00    -0.269 OA
ATOM      6  C   UNL A   1      33.217  34.503  28.923  1.00  0.00     0.251 C 
ATOM      7  H   UNL A   1      31.936  34.643  27.391  1.00  0.00     0.163 HD
BRANCH   6   8
ATOM      8  C   UNL A   1      34.445  33.861  29.439  1.00  0.00     0.039 A 
ATOM      9  C   UNL A   1      35.707  34.196  28.933  1.00  0.00     0.014 A 
ATOM     10  C   UNL A   1      34.330  32.930  30.474  1.00  0.00     0.014 A 
ATOM     11  C   UNL A   1      36.841  33.530  29.394  1.00  0.00     0.010 A 
ATOM     12  C   UNL A   1      35.473  32.305  30.975  1.00  0.00     0.010 A 
ATOM     13  C   UNL A   1      36.734  32.585  30.424  1.00  0.00    -0.014 A 
BRANCH  13  14
ATOM     14  C   UNL A   1      37.945  31.936  30.984  1.00  0.00     0.031 A 
ATOM     15  C   UNL A   1      38.657  30.853  30.224  1.00  0.00     0.074 A 
ATOM     16  C   UNL A   1      38.355  32.279  32.220  1.00  0.00     0.049 A 
ATOM     17  N   UNL A   1      39.674  30.121  30.597  1.00  0.00    -0.248 NA
ATOM     18  C   UNL A   1      38.154  30.545  28.876  1.00  0.00     0.031 C 
ATOM     19  C   UNL A   1      37.709  33.281  33.069  1.00  0.00     0.029 A 
ATOM     20  N   UNL A   1      39.381  31.797  32.991  1.00  0.00    -0.354 N 
ATOM     21  C   UNL A   1      39.909  29.236  29.552  1.00  0.00     0.074 A 
ATOM     22  C   UNL A   1      38.926  29.523  28.528  1.00  0.00     0.031 C 
ATOM     23  C   UNL A   1      38.340  33.325  34.251  1.00  0.00     0.029 A 
ATOM     24  C   UNL A   1      39.406  32.328  34.258  1.00  0.00     0.049 A 
ATOM     25  H   UNL A   1      40.036  31.135  32.668  1.00  0.00     0.167 HD
ATOM     26  C   UNL A   1      40.866  28.283  29.451  1.00  0.00     0.034 A 
ATOM     27  C   UNL A   1      40.179  32.028  35.321  1.00  0.00     0.034 A 
ATOM     28  C   UNL A   1      41.862  28.029  30.456  1.00  0.00     0.049 A 
ATOM     29  C   UNL A   1      41.250  30.987  35.174  1.00  0.00     0.074 A 
ATOM     30  C   UNL A   1      42.926  27.145  30.409  1.00  0.00     0.029 A 
ATOM     31  N   UNL A   1      41.913  28.652  31.695  1.00  0.00    -0.354 N 
ATOM     32  N   UNL A   1      41.554  30.265  34.123  1.00  0.00    -0.248 NA
ATOM     33  C   UNL A   1      42.105  30.739  36.344  1.00  0.00     0.031 C 
ATOM     34  C   UNL A   1      43.613  27.225  31.625  1.00  0.00     0.029 A 
ATOM     35  C   UNL A   1      42.984  28.166  32.426  1.00  0.00     0.049 A 
ATOM     36  H   UNL A   1      41.281  29.338  32.008  1.00  0.00     0.167 HD
ATOM     37  C   UNL A   1      42.650  29.496  34.493  1.00  0.00     0.074 A 
ATOM     38  C   UNL A   1      42.967  29.851  35.861  1.00  0.00     0.031 C 
ATOM     39  C   UNL A   1      43.323  28.570  33.767  1.00  0.00     0.034 A 
BRANCH  26  40
ATOM     40  C   UNL A   1      40.911  27.473  28.183  1.00  0.00     0.023 A 
ATOM     41  C   UNL A   1      41.589  27.985  27.059  1.00  0.00     0.012 A 
ATOM     42  C   UNL A   1      40.332  26.191  28.116  1.00  0.00     0.148 A 
ATOM     43  C   UNL A   1      41.665  27.247  25.878  1.00  0.00     0.002 A 
ATOM     44  C   UNL A   1      40.442  25.447  26.946  1.00  0.00     0.091 A 
ATOM     45  F   UNL A   1      39.665  25.729  29.183  1.00  0.00    -0.205 F 
ATOM     46  C   UNL A   1      41.101  25.975  25.824  1.00  0.00     0.022 A 
BRANCH  44  47
ATOM     47  S   UNL A   1      39.796  23.774  26.825  1.00  0.00     0.127 S 
ATOM     48  O   UNL A   1      40.541  23.250  25.683  1.00  0.00    -0.237 OA
ATOM     49  O   UNL A   1      40.172  23.193  28.115  1.00  0.00    -0.237 OA
ATOM     50  O   UNL A   1      38.360  23.929  26.635  1.00  0.00    -0.744 OA
ENDBRANCH  44  47
ENDBRANCH  26  40
BRANCH  27  51
ATOM     51  C   UNL A   1      39.976  32.775  36.592  1.00  0.00     0.023 A 
ATOM     52  C   UNL A   1      40.664  33.986  36.799  1.00  0.00     0.012 A 
ATOM     53  C   UNL A   1      39.027  32.349  37.543  1.00  0.00     0.148 A 
ATOM     54  C   UNL A   1      40.416  34.757  37.934  1.00  0.00     0.002 A 
ATOM     55  C   UNL A   1      38.745  33.149  38.644  1.00  0.00     0.091 A 
ATOM     56  F   UNL A   1      38.393  31.188  37.329  1.00  0.00    -0.205 F 
ATOM     57  C   UNL A   1      39.447  34.348  38.848  1.00  0.00     0.022 A 
BRANCH  55  58
ATOM     58  S   UNL A   1      37.413  32.776  39.790  1.00  0.00     0.127 S 
ATOM     59  O   UNL A   1      37.864  31.515  40.373  1.00  0.00    -0.237 OA
ATOM     60  O   UNL A   1      37.462  33.925  40.695  1.00  0.00    -0.237 OA
ATOM     61  O   UNL A   1      36.205  32.702  38.979  1.00  0.00    -0.744 OA
ENDBRANCH  55  58
ENDBRANCH  27  51
BRANCH  39  62
ATOM     62  C   UNL A   1      44.491  27.881  34.418  1.00  0.00     0.023 A 
ATOM     63  C   UNL A   1      45.769  28.468  34.346  1.00  0.00     0.012 A 
ATOM     64  C   UNL A   1      44.303  26.717  35.188  1.00  0.00     0.148 A 
ATOM     65  C   UNL A   1      46.848  27.897  35.021  1.00  0.00     0.002 A 
ATOM     66  C   UNL A   1      45.373  26.177  35.891  1.00  0.00     0.091 A 
ATOM     67  F   UNL A   1      43.080  26.166  35.224  1.00  0.00    -0.205 F 
ATOM     68  C   UNL A   1      46.647  26.762  35.803  1.00  0.00     0.022 A 
BRANCH  66  69
ATOM     69  S   UNL A   1      45.189  24.768  36.990  1.00  0.00     0.127 S 
ATOM     70  O   UNL A   1      44.101  25.208  37.861  1.00  0.00    -0.237 OA
ATOM     71  O   UNL A   1      44.832  23.694  36.063  1.00  0.00    -0.237 OA
ATOM     72  O   UNL A   1      46.481  24.597  37.641  1.00  0.00    -0.744 OA
ENDBRANCH  66  69
ENDBRANCH  39  62
ENDBRANCH  13  14
ENDBRANCH   6   8
ENDBRANCH   3   4
ENDBRANCH   2   3
ENDBRANCH   1   2
BRANCH   1  73
ATOM     73  C   UNL A   1      34.629  29.481  27.849  1.00  0.00     0.002 C 
BRANCH  73  74
ATOM     74  C   UNL A   1      34.277  28.501  26.726  1.00  0.00     0.021 C 
BRANCH  74  75
ATOM     75  C   UNL A   1      32.882  27.888  26.816  1.00  0.00     0.116 C 
BRANCH  75  76
ATOM     76  N   UNL A   1      31.894  28.712  26.150  1.00  0.00    -0.349 N 
ATOM     77  C   UNL A   1      31.624  28.811  24.809  1.00  0.00     0.286 C 
ATOM     78  H   UNL A   1      31.342  29.277  26.739  1.00  0.00     0.163 HD
ATOM     79  O   UNL A   1      30.898  29.744  24.444  1.00  0.00    -0.266 OA
BRANCH  77  80
ATOM     80  C   UNL A   1      32.170  27.830  23.900  1.00  0.00     0.191 A 
ATOM     81  C   UNL A   1      33.312  27.799  23.117  1.00  0.00     0.057 A 
ATOM     82  O   UNL A   1      31.518  26.635  23.781  1.00  0.00    -0.452 OA
ATOM     83  C   UNL A   1      33.349  26.532  22.486  1.00  0.00     0.050 A 
ATOM     84  C   UNL A   1      32.247  25.842  22.947  1.00  0.00     0.142 A 
BRANCH  84  85
ATOM     85  C   UNL A   1      31.780  24.439  22.787  1.00  0.00     0.304 C 
BRANCH  85  86
ATOM     86  O   UNL A   1      32.865  23.627  22.297  1.00  0.00    -0.484 OA
BRANCH  86  87
ATOM     87  C   UNL A   1      33.096  22.524  23.083  1.00  0.00     0.140 A 
ATOM     88  C   UNL A   1      32.236  21.426  22.966  1.00  0.00     0.048 A 
ATOM     89  C   UNL A   1      34.229  22.452  23.903  1.00  0.00     0.101 A 
ATOM     90  C   UNL A   1      32.454  20.279  23.723  1.00  0.00     0.005 A 
ATOM     91  C   UNL A   1      34.456  21.285  24.644  1.00  0.00     0.063 A 
ATOM     92  Cl  UNL A   1      35.314  23.800  23.979  1.00  0.00    -0.079 Cl
ATOM     93  C   UNL A   1      33.563  20.208  24.563  1.00  0.00     0.022 A 
ATOM     94  Cl  UNL A   1      35.833  21.095  25.676  1.00  0.00    -0.083 Cl
ENDBRANCH  86  87
ENDBRANCH  85  86
ENDBRANCH  84  85
ENDBRANCH  77  80
ENDBRANCH  75  76
ENDBRANCH  74  75
ENDBRANCH  73  74
ENDBRANCH   1  73
TORSDOF 19
ENDMDL
MODEL 3
REMARK VINA RESULT:     -10.5      1.975      7.832
REMARK SMILES O=C(NCCCCCCNC(=O)c1ccc(COc2cccc(Cl)c2Cl)o1)c1ccc(-c2c3nc(c(-c4cccc(S(=O)(=O)[O-])c4F)c4ccc([nH]4)c(-c4cccc(S(=O)(=O)[O-])c4F)c4nc(c(-c5cccc(S(=O)(=O)[O-])c5F)c5ccc2[nH]5)C=C4)C=C3)cc1
REMARK SMILES IDX 6 1 5 2 4 3 3 4 1 5 2 6 28 8 29 9 90 10 30 11 89 12 31 13
REMARK SMILES IDX 32 14 33 15 83 16 34 17 88 18 82 19 84 20 35 21 87 22 81 23
REMARK SMILES IDX 80 24 36 26 68 27 48 28 67 29 49 30 52 31 66 32 85 33 50 34
REMARK SMILES IDX 51 35 65 37 86 38 53 39 37 40 38 41 46 42 39 43 41 44 47 45
REMARK SMILES IDX 40 46 42 47 43 48 44 49 45 50 69 51 70 52 78 53 71 54 73 55
REMARK SMILES IDX 79 56 72 57 74 58 75 59 76 60 77 61 54 62 55 63 63 64 56 65
REMARK SMILES IDX 58 66 64 67 57 68 59 69 60 70 61 71 62 72 7 73 8 74 9 75
REMARK SMILES IDX 10 76 11 77 12 79 13 80 14 81 27 82 15 83 16 84 17 85 18 86
REMARK SMILES IDX 19 87 20 88 25 89 21 90 23 91 26 92 22 93 24 94
REMARK H PARENT 3 7 84 25 52 36 10 78
REMARK Flexibility Score: inf
ROOT
ATOM      1  C   UNL A   1      39.532  22.583  26.528  1.00  0.00     0.002 C 
ENDROOT
BRANCH   1   2
ATOM      2  C   UNL A   1      39.502  21.212  25.848  1.00  0.00     0.021 C 
BRANCH   2   3
ATOM      3  C   UNL A   1      40.045  20.057  26.683  1.00  0.00     0.116 C 
BRANCH   3   4
ATOM      4  N   UNL A   1      41.157  19.390  26.035  1.00  0.00    -0.352 N 
ATOM      5  O   UNL A   1      43.126  19.221  24.965  1.00  0.00    -0.269 OA
ATOM      6  C   UNL A   1      42.379  19.894  25.669  1.00  0.00     0.251 C 
ATOM      7  H   UNL A   1      41.016  18.437  25.831  1.00  0.00     0.163 HD
BRANCH   6   8
ATOM      8  C   UNL A   1      42.781  21.251  26.101  1.00  0.00     0.039 A 
ATOM      9  C   UNL A   1      43.021  21.542  27.449  1.00  0.00     0.014 A 
ATOM     10  C   UNL A   1      42.953  22.239  25.129  1.00  0.00     0.014 A 
ATOM     11  C   UNL A   1      43.337  22.843  27.834  1.00  0.00     0.010 A 
ATOM     12  C   UNL A   1      43.325  23.528  25.510  1.00  0.00     0.010 A 
ATOM     13  C   UNL A   1      43.499  23.845  26.867  1.00  0.00    -0.014 A 
BRANCH  13  14
ATOM     14  C   UNL A   1      43.923  25.213  27.258  1.00  0.00     0.031 A 
ATOM     15  C   UNL A   1      42.927  26.202  27.791  1.00  0.00     0.074 A 
ATOM     16  C   UNL A   1      45.203  25.580  27.056  1.00  0.00     0.049 A 
ATOM     17  N   UNL A   1      43.105  27.460  28.101  1.00  0.00    -0.248 NA
ATOM     18  C   UNL A   1      41.552  25.720  27.994  1.00  0.00     0.031 C 
ATOM     19  C   UNL A   1      46.244  24.717  26.496  1.00  0.00     0.029 A 
ATOM     20  N   UNL A   1      45.834  26.780  27.258  1.00  0.00    -0.354 N 
ATOM     21  C   UNL A   1      41.860  27.935  28.492  1.00  0.00     0.074 A 
ATOM     22  C   UNL A   1      40.933  26.828  28.382  1.00  0.00     0.031 C 
ATOM     23  C   UNL A   1      47.379  25.421  26.379  1.00  0.00     0.029 A 
ATOM     24  C   UNL A   1      47.136  26.792  26.816  1.00  0.00     0.049 A 
ATOM     25  H   UNL A   1      45.399  27.557  27.679  1.00  0.00     0.167 HD
ATOM     26  C   UNL A   1      41.524  29.176  28.920  1.00  0.00     0.034 A 
ATOM     27  C   UNL A   1      48.028  27.798  26.740  1.00  0.00     0.034 A 
ATOM     28  C   UNL A   1      42.457  30.260  29.062  1.00  0.00     0.049 A 
ATOM     29  C   UNL A   1      47.640  29.158  27.245  1.00  0.00     0.074 A 
ATOM     30  C   UNL A   1      42.231  31.528  29.568  1.00  0.00     0.029 A 
ATOM     31  N   UNL A   1      43.792  30.209  28.689  1.00  0.00    -0.354 N 
ATOM     32  N   UNL A   1      46.497  29.549  27.754  1.00  0.00    -0.248 NA
ATOM     33  C   UNL A   1      48.668  30.207  27.196  1.00  0.00     0.031 C 
ATOM     34  C   UNL A   1      43.428  32.248  29.491  1.00  0.00     0.029 A 
ATOM     35  C   UNL A   1      44.402  31.426  28.945  1.00  0.00     0.049 A 
ATOM     36  H   UNL A   1      44.240  29.424  28.300  1.00  0.00     0.167 HD
ATOM     37  C   UNL A   1      46.674  30.879  28.112  1.00  0.00     0.074 A 
ATOM     38  C   UNL A   1      48.040  31.224  27.774  1.00  0.00     0.031 C 
ATOM     39  C   UNL A   1      45.779  31.739  28.657  1.00  0.00     0.034 A 
BRANCH  26  40
ATOM     40  C   UNL A   1      40.090  29.414  29.310  1.00  0.00     0.023 A 
ATOM     41  C   UNL A   1      39.141  29.706  28.310  1.00  0.00     0.012 A 
ATOM     42  C   UNL A   1      39.670  29.303  30.649  1.00  0.00     0.148 A 
ATOM     43  C   UNL A   1      37.802  29.911  28.639  1.00  0.00     0.002 A 
ATOM     44  C   UNL A   1      38.326  29.475  30.965  1.00  0.00     0.091 A 
ATOM     45  F   UNL A   1      40.588  29.054  31.594  1.00  0.00    -0.205 F 
ATOM     46  C   UNL A   1      37.392  29.786  29.964  1.00  0.00     0.022 A 
BRANCH  44  47
ATOM     47  S   UNL A   1      37.715  29.265  32.642  1.00  0.00     0.127 S 
ATOM     48  O   UNL A   1      38.619  30.128  33.398  1.00  0.00    -0.237 OA
ATOM     49  O   UNL A   1      36.341  29.762  32.545  1.00  0.00    -0.237 OA
ATOM     50  O   UNL A   1      37.817  27.838  32.913  1.00  0.00    -0.744 OA
ENDBRANCH  44  47
ENDBRANCH  26  40
BRANCH  27  51
ATOM     51  C   UNL A   1      49.387  27.516  26.203  1.00  0.00     0.023 A 
ATOM     52  C   UNL A   1      49.593  27.514  24.811  1.00  0.00     0.012 A 
ATOM     53  C   UNL A   1      50.491  27.359  27.065  1.00  0.00     0.148 A 
ATOM     54  C   UNL A   1      50.876  27.354  24.285  1.00  0.00     0.002 A 
ATOM     55  C   UNL A   1      51.772  27.255  26.536  1.00  0.00     0.091 A 
ATOM     56  F   UNL A   1      50.269  27.354  28.387  1.00  0.00    -0.205 F 
ATOM     57  C   UNL A   1      51.965  27.241  25.145  1.00  0.00     0.022 A 
BRANCH  55  58
ATOM     58  S   UNL A   1      53.244  27.254  27.566  1.00  0.00     0.127 S 
ATOM     59  O   UNL A   1      53.135  28.542  28.244  1.00  0.00    -0.237 OA
ATOM     60  O   UNL A   1      53.014  26.087  28.420  1.00  0.00    -0.237 OA
ATOM     61  O   UNL A   1      54.366  27.114  26.649  1.00  0.00    -0.744 OA
ENDBRANCH  55  58
ENDBRANCH  27  51
BRANCH  39  62
ATOM     62  C   UNL A   1      46.242  33.139  28.953  1.00  0.00     0.023 A 
ATOM     63  C   UNL A   1      46.996  33.388  30.116  1.00  0.00     0.012 A 
ATOM     64  C   UNL A   1      46.024  34.180  28.029  1.00  0.00     0.148 A 
ATOM     65  C   UNL A   1      47.516  34.659  30.361  1.00  0.00     0.002 A 
ATOM     66  C   UNL A   1      46.579  35.433  28.260  1.00  0.00     0.091 A 
ATOM     67  F   UNL A   1      45.286  33.923  26.939  1.00  0.00    -0.205 F 
ATOM     68  C   UNL A   1      47.320  35.676  29.429  1.00  0.00     0.022 A 
BRANCH  66  69
ATOM     69  S   UNL A   1      46.451  36.776  27.075  1.00  0.00     0.127 S 
ATOM     70  O   UNL A   1      47.254  37.817  27.714  1.00  0.00    -0.237 OA
ATOM     71  O   UNL A   1      47.052  36.191  25.876  1.00  0.00    -0.237 OA
ATOM     72  O   UNL A   1      45.029  37.070  26.955  1.00  0.00    -0.744 OA
ENDBRANCH  66  69
ENDBRANCH  39  62
ENDBRANCH  13  14
ENDBRANCH   6   8
ENDBRANCH   3   4
ENDBRANCH   2   3
ENDBRANCH   1   2
BRANCH   1  73
ATOM     73  C   UNL A   1      38.448  23.570  26.081  1.00  0.00     0.002 C 
BRANCH  73  74
ATOM     74  C   UNL A   1      37.176  22.940  25.506  1.00  0.00     0.021 C 
BRANCH  74  75
ATOM     75  C   UNL A   1      35.871  23.458  26.104  1.00  0.00     0.116 C 
BRANCH  75  76
ATOM     76  N   UNL A   1      35.168  22.419  26.828  1.00  0.00    -0.349 N 
ATOM     77  C   UNL A   1      33.946  21.860  26.554  1.00  0.00     0.286 C 
ATOM     78  H   UNL A   1      35.629  22.066  27.624  1.00  0.00     0.163 HD
ATOM     79  O   UNL A   1      33.436  21.153  27.432  1.00  0.00    -0.266 OA
BRANCH  77  80
ATOM     80  C   UNL A   1      33.327  22.098  25.271  1.00  0.00     0.191 A 
ATOM     81  C   UNL A   1      33.300  21.380  24.086  1.00  0.00     0.057 A 
ATOM     82  O   UNL A   1      32.536  23.204  25.137  1.00  0.00    -0.452 OA
ATOM     83  C   UNL A   1      32.464  22.090  23.191  1.00  0.00     0.050 A 
ATOM     84  C   UNL A   1      31.994  23.183  23.888  1.00  0.00     0.142 A 
BRANCH  84  85
ATOM     85  C   UNL A   1      30.989  24.235  23.581  1.00  0.00     0.304 C 
BRANCH  85  86
ATOM     86  O   UNL A   1      31.576  25.217  22.707  1.00  0.00    -0.484 OA
BRANCH  86  87
ATOM     87  C   UNL A   1      31.400  26.502  23.162  1.00  0.00     0.140 A 
ATOM     88  C   UNL A   1      30.161  27.121  22.961  1.00  0.00     0.048 A 
ATOM     89  C   UNL A   1      32.398  27.142  23.907  1.00  0.00     0.101 A 
ATOM     90  C   UNL A   1      29.933  28.410  23.432  1.00  0.00     0.005 A 
ATOM     91  C   UNL A   1      32.154  28.431  24.401  1.00  0.00     0.063 A 
ATOM     92  Cl  UNL A   1      33.899  26.330  24.199  1.00  0.00    -0.079 Cl
ATOM     93  C   UNL A   1      30.930  29.066  24.151  1.00  0.00     0.022 A 
ATOM     94  Cl  UNL A   1      33.318  29.300  25.341  1.00  0.00    -0.083 Cl
ENDBRANCH  86  87
ENDBRANCH  85  86
ENDBRANCH  84  85
ENDBRANCH  77  80
ENDBRANCH  75  76
ENDBRANCH  74  75
ENDBRANCH  73  74
ENDBRANCH   1  73
TORSDOF 19
ENDMDL
