MODEL 1
REMARK VINA RESULT:     -10.2      0.000      0.000
REMARK SMILES [NH3+]CCOCC(=O)Nc1ccc(C(=O)NCCCCCCNC(=O)c2ccc(-c3c4nc(c(-c5cccc(S(=O)(=O)[O-])c5F)c5ccc([nH]5)c(-c5cccc(S(=O)(=O)[O-])c5F)c5nc(c(-c6cccc(S(=O)(=O)[O-])c6F)c6ccc3[nH]6)C=C5)C=C4)cc2)c(Cl)c1
REMARK SMILES IDX 17 1 16 2 15 3 13 4 14 5 12 7 9 8 10 9 90 10 11 11 88 12
REMARK SMILES IDX 89 13 8 14 6 15 7 16 5 18 4 19 3 20 2 21 1 22 18 26 19 27
REMARK SMILES IDX 20 28 21 29 22 30 23 31 24 33 25 34 26 35 87 36 27 37 86 38
REMARK SMILES IDX 28 39 29 40 30 41 80 42 31 43 85 44 79 45 81 46 32 47 84 48
REMARK SMILES IDX 78 49 77 50 33 52 65 53 45 54 64 55 46 56 49 57 63 58 82 59
REMARK SMILES IDX 47 60 48 61 62 63 83 64 50 65 34 66 35 67 43 68 36 69 38 70
REMARK SMILES IDX 44 71 37 72 39 73 40 74 41 75 42 76 66 77 67 78 75 79 68 80
REMARK SMILES IDX 70 81 76 82 69 83 71 84 72 85 73 86 74 87 51 88 52 89 60 90
REMARK SMILES IDX 53 91 55 92 61 93 54 94 56 95 57 96 58 97 59 98
REMARK H PARENT 15 6 8 17 1 23 1 24 1 25 22 32 81 51 49 62
REMARK Flexibility Score: inf
ROOT
ATOM      1  C   UNL A   1      33.888  22.332  23.680  1.00  0.00     0.021 C 
ENDROOT
BRANCH   1   2
ATOM      2  C   UNL A   1      32.406  22.441  23.300  1.00  0.00     0.116 C 
BRANCH   2   3
ATOM      3  N   UNL A   1      32.262  23.495  22.323  1.00  0.00    -0.352 N 
ATOM      4  C   UNL A   1      32.252  24.855  22.416  1.00  0.00     0.252 C 
ATOM      5  O   UNL A   1      31.911  25.461  21.395  1.00  0.00    -0.269 OA
ATOM      6  H   UNL A   1      32.146  23.163  21.403  1.00  0.00     0.163 HD
BRANCH   4   7
ATOM      7  C   UNL A   1      32.734  25.656  23.577  1.00  0.00     0.058 A 
ATOM      8  C   UNL A   1      33.647  27.577  25.436  1.00  0.00     0.042 A 
ATOM      9  C   UNL A   1      33.967  27.709  24.093  1.00  0.00     0.027 A 
ATOM     10  C   UNL A   1      32.961  26.454  25.874  1.00  0.00     0.047 A 
ATOM     11  C   UNL A   1      33.544  26.742  23.183  1.00  0.00     0.017 A 
ATOM     12  C   UNL A   1      32.415  25.555  24.940  1.00  0.00     0.055 A 
ATOM     13  Cl  UNL A   1      31.166  24.576  25.610  1.00  0.00    -0.083 Cl
BRANCH   8  14
ATOM     14  N   UNL A   1      33.891  28.597  26.359  1.00  0.00    -0.324 N 
ATOM     15  C   UNL A   1      33.022  29.608  26.689  1.00  0.00     0.250 C 
ATOM     16  O   UNL A   1      33.369  30.474  27.497  1.00  0.00    -0.272 OA
ATOM     17  H   UNL A   1      34.764  28.591  26.814  1.00  0.00     0.170 HD
BRANCH  15  18
ATOM     18  C   UNL A   1      31.596  29.615  26.090  1.00  0.00     0.260 C 
BRANCH  18  19
ATOM     19  O   UNL A   1      31.199  30.649  25.209  1.00  0.00    -0.366 OA
BRANCH  19  20
ATOM     20  C   UNL A   1      30.264  30.274  24.200  1.00  0.00     0.222 C 
BRANCH  20  21
ATOM     21  C   UNL A   1      30.830  29.320  23.142  1.00  0.00     0.287 C 
BRANCH  21  22
ATOM     22  N   UNL A   1      30.815  29.823  21.770  1.00  0.00    -0.356 N 
ATOM     23  H   UNL A   1      30.366  29.138  21.161  1.00  0.00     0.344 HD
ATOM     24  H   UNL A   1      31.772  29.982  21.455  1.00  0.00     0.344 HD
ATOM     25  H   UNL A   1      30.296  30.701  21.735  1.00  0.00     0.344 HD
ENDBRANCH  21  22
ENDBRANCH  20  21
ENDBRANCH  19  20
ENDBRANCH  18  19
ENDBRANCH  15  18
ENDBRANCH   8  14
ENDBRANCH   4   7
ENDBRANCH   2   3
ENDBRANCH   1   2
BRANCH   1  26
ATOM     26  C   UNL A   1      34.184  21.204  24.669  1.00  0.00     0.002 C 
BRANCH  26  27
ATOM     27  C   UNL A   1      34.989  21.650  25.893  1.00  0.00     0.002 C 
BRANCH  27  28
ATOM     28  C   UNL A   1      35.134  23.168  26.040  1.00  0.00     0.021 C 
BRANCH  28  29
ATOM     29  C   UNL A   1      36.553  23.679  25.813  1.00  0.00     0.116 C 
BRANCH  29  30
ATOM     30  N   UNL A   1      37.531  22.627  26.051  1.00  0.00    -0.352 N 
ATOM     31  C   UNL A   1      38.860  22.745  26.350  1.00  0.00     0.251 C 
ATOM     32  H   UNL A   1      37.188  21.705  25.989  1.00  0.00     0.163 HD
ATOM     33  O   UNL A   1      39.613  21.776  26.217  1.00  0.00    -0.269 OA
BRANCH  31  34
ATOM     34  C   UNL A   1      39.385  24.034  26.835  1.00  0.00     0.039 A 
ATOM     35  C   UNL A   1      39.968  24.922  25.930  1.00  0.00     0.014 A 
ATOM     36  C   UNL A   1      39.307  24.355  28.194  1.00  0.00     0.014 A 
ATOM     37  C   UNL A   1      40.434  26.157  26.383  1.00  0.00     0.010 A 
ATOM     38  C   UNL A   1      39.702  25.615  28.629  1.00  0.00     0.010 A 
ATOM     39  C   UNL A   1      40.282  26.522  27.732  1.00  0.00    -0.014 A 
BRANCH  39  40
ATOM     40  C   UNL A   1      40.718  27.852  28.223  1.00  0.00     0.031 A 
ATOM     41  C   UNL A   1      42.183  28.164  28.360  1.00  0.00     0.074 A 
ATOM     42  C   UNL A   1      39.792  28.743  28.630  1.00  0.00     0.049 A 
ATOM     43  N   UNL A   1      42.754  29.244  28.826  1.00  0.00    -0.248 NA
ATOM     44  C   UNL A   1      43.131  27.116  27.946  1.00  0.00     0.031 C 
ATOM     45  C   UNL A   1      38.344  28.522  28.620  1.00  0.00     0.029 A 
ATOM     46  N   UNL A   1      39.932  30.001  29.158  1.00  0.00    -0.354 N 
ATOM     47  C   UNL A   1      44.120  28.993  28.795  1.00  0.00     0.074 A 
ATOM     48  C   UNL A   1      44.293  27.646  28.298  1.00  0.00     0.031 C 
ATOM     49  C   UNL A   1      37.730  29.609  29.114  1.00  0.00     0.029 A 
ATOM     50  C   UNL A   1      38.737  30.588  29.507  1.00  0.00     0.049 A 
ATOM     51  H   UNL A   1      40.804  30.443  29.275  1.00  0.00     0.167 HD
ATOM     52  C   UNL A   1      45.142  29.820  29.123  1.00  0.00     0.034 A 
ATOM     53  C   UNL A   1      38.485  31.776  30.089  1.00  0.00     0.034 A 
ATOM     54  C   UNL A   1      44.963  31.171  29.581  1.00  0.00     0.049 A 
ATOM     55  C   UNL A   1      39.636  32.688  30.414  1.00  0.00     0.074 A 
ATOM     56  C   UNL A   1      45.932  32.121  29.854  1.00  0.00     0.029 A 
ATOM     57  N   UNL A   1      43.738  31.762  29.846  1.00  0.00    -0.354 N 
ATOM     58  N   UNL A   1      40.919  32.496  30.226  1.00  0.00    -0.248 NA
ATOM     59  C   UNL A   1      39.304  33.996  30.996  1.00  0.00     0.031 C 
ATOM     60  C   UNL A   1      45.291  33.276  30.315  1.00  0.00     0.029 A 
ATOM     61  C   UNL A   1      43.924  33.058  30.292  1.00  0.00     0.049 A 
ATOM     62  H   UNL A   1      42.863  31.323  29.731  1.00  0.00     0.167 HD
ATOM     63  C   UNL A   1      41.545  33.668  30.633  1.00  0.00     0.074 A 
ATOM     64  C   UNL A   1      40.496  34.574  31.057  1.00  0.00     0.031 C 
ATOM     65  C   UNL A   1      42.867  33.965  30.666  1.00  0.00     0.034 A 
BRANCH  52  66
ATOM     66  C   UNL A   1      46.547  29.302  28.956  1.00  0.00     0.023 A 
ATOM     67  C   UNL A   1      47.288  28.913  30.090  1.00  0.00     0.012 A 
ATOM     68  C   UNL A   1      47.112  29.146  27.675  1.00  0.00     0.148 A 
ATOM     69  C   UNL A   1      48.582  28.411  29.957  1.00  0.00     0.002 A 
ATOM     70  C   UNL A   1      48.385  28.599  27.547  1.00  0.00     0.091 A 
ATOM     71  F   UNL A   1      46.402  29.539  26.609  1.00  0.00    -0.205 F 
ATOM     72  C   UNL A   1      49.124  28.244  28.687  1.00  0.00     0.022 A 
BRANCH  70  73
ATOM     73  S   UNL A   1      49.142  28.267  25.952  1.00  0.00     0.127 S 
ATOM     74  O   UNL A   1      50.106  29.363  25.850  1.00  0.00    -0.237 OA
ATOM     75  O   UNL A   1      49.738  26.947  26.165  1.00  0.00    -0.237 OA
ATOM     76  O   UNL A   1      48.059  28.297  24.979  1.00  0.00    -0.744 OA
ENDBRANCH  70  73
ENDBRANCH  52  66
BRANCH  53  77
ATOM     77  C   UNL A   1      37.078  32.193  30.347  1.00  0.00     0.023 A 
ATOM     78  C   UNL A   1      36.482  31.890  31.587  1.00  0.00     0.012 A 
ATOM     79  C   UNL A   1      36.337  32.907  29.386  1.00  0.00     0.148 A 
ATOM     80  C   UNL A   1      35.164  32.261  31.852  1.00  0.00     0.002 A 
ATOM     81  C   UNL A   1      35.044  33.323  29.677  1.00  0.00     0.091 A 
ATOM     82  F   UNL A   1      36.919  33.178  28.208  1.00  0.00    -0.205 F 
ATOM     83  C   UNL A   1      34.447  32.985  30.903  1.00  0.00     0.022 A 
BRANCH  81  84
ATOM     84  S   UNL A   1      34.096  34.373  28.569  1.00  0.00     0.127 S 
ATOM     85  O   UNL A   1      33.908  33.497  27.415  1.00  0.00    -0.237 OA
ATOM     86  O   UNL A   1      32.888  34.629  29.355  1.00  0.00    -0.237 OA
ATOM     87  O   UNL A   1      34.922  35.551  28.339  1.00  0.00    -0.744 OA
ENDBRANCH  81  84
ENDBRANCH  53  77
BRANCH  65  88
ATOM     88  C   UNL A   1      43.264  35.338  31.139  1.00  0.00     0.023 A 
ATOM     89  C   UNL A   1      43.544  35.559  32.502  1.00  0.00     0.012 A 
ATOM     90  C   UNL A   1      43.433  36.391  30.219  1.00  0.00     0.148 A 
ATOM     91  C   UNL A   1      43.955  36.815  32.947  1.00  0.00     0.002 A 
ATOM     92  C   UNL A   1      43.893  37.626  30.660  1.00  0.00     0.091 A 
ATOM     93  F   UNL A   1      43.144  36.165  28.929  1.00  0.00    -0.205 F 
ATOM     94  C   UNL A   1      44.141  37.844  32.026  1.00  0.00     0.022 A 
BRANCH  92  95
ATOM     95  S   UNL A   1      44.257  38.978  29.536  1.00  0.00     0.127 S 
ATOM     96  O   UNL A   1      42.916  39.429  29.169  1.00  0.00    -0.237 OA
ATOM     97  O   UNL A   1      44.997  39.903  30.394  1.00  0.00    -0.237 OA
ATOM     98  O   UNL A   1      45.039  38.400  28.452  1.00  0.00    -0.744 OA
ENDBRANCH  92  95
ENDBRANCH  65  88
ENDBRANCH  39  40
ENDBRANCH  31  34
ENDBRANCH  29  30
ENDBRANCH  28  29
ENDBRANCH  27  28
ENDBRANCH  26  27
ENDBRANCH   1  26
TORSDOF 22
ENDMDL
MODEL 2
REMARK VINA RESULT:      -9.9      2.101      7.764
REMARK SMILES [NH3+]CCOCC(=O)Nc1ccc(C(=O)NCCCCCCNC(=O)c2ccc(-c3c4nc(c(-c5cccc(S(=O)(=O)[O-])c5F)c5ccc([nH]5)c(-c5cccc(S(=O)(=O)[O-])c5F)c5nc(c(-c6cccc(S(=O)(=O)[O-])c6F)c6ccc3[nH]6)C=C5)C=C4)cc2)c(Cl)c1
REMARK SMILES IDX 17 1 16 2 15 3 13 4 14 5 12 7 9 8 10 9 90 10 11 11 88 12
REMARK SMILES IDX 89 13 8 14 6 15 7 16 5 18 4 19 3 20 2 21 1 22 18 26 19 27
REMARK SMILES IDX 20 28 21 29 22 30 23 31 24 33 25 34 26 35 87 36 27 37 86 38
REMARK SMILES IDX 28 39 29 40 30 41 80 42 31 43 85 44 79 45 81 46 32 47 84 48
REMARK SMILES IDX 78 49 77 50 33 52 65 53 45 54 64 55 46 56 49 57 63 58 82 59
REMARK SMILES IDX 47 60 48 61 62 63 83 64 50 65 34 66 35 67 43 68 36 69 38 70
REMARK SMILES IDX 44 71 37 72 39 73 40 74 41 75 42 76 66 77 67 78 75 79 68 80
REMARK SMILES IDX 70 81 76 82 69 83 71 84 72 85 73 86 74 87 51 88 52 89 60 90
REMARK SMILES IDX 53 91 55 92 61 93 54 94 56 95 57 96 58 97 59 98
REMARK H PARENT 15 6 8 17 1 23 1 24 1 25 22 32 81 51 49 62
REMARK Flexibility Score: inf
ROOT
ATOM      1  C   UNL A   1      33.160  22.108  23.817  1.00  0.00     0.021 C 
ENDROOT
BRANCH   1   2
ATOM      2  C   UNL A   1      32.330  22.187  22.530  1.00  0.00     0.116 C 
BRANCH   2   3
ATOM      3  N   UNL A   1      32.851  23.260  21.716  1.00  0.00    -0.352 N 
ATOM      4  C   UNL A   1      32.882  24.614  21.870  1.00  0.00     0.252 C 
ATOM      5  O   UNL A   1      33.238  25.260  20.878  1.00  0.00    -0.269 OA
ATOM      6  H   UNL A   1      33.268  22.950  20.879  1.00  0.00     0.163 HD
BRANCH   4   7
ATOM      7  C   UNL A   1      32.654  25.355  23.143  1.00  0.00     0.058 A 
ATOM      8  C   UNL A   1      32.538  27.125  25.341  1.00  0.00     0.042 A 
ATOM      9  C   UNL A   1      33.678  27.079  24.551  1.00  0.00     0.027 A 
ATOM     10  C   UNL A   1      31.499  26.236  25.106  1.00  0.00     0.047 A 
ATOM     11  C   UNL A   1      33.745  26.182  23.488  1.00  0.00     0.017 A 
ATOM     12  C   UNL A   1      31.510  25.433  23.952  1.00  0.00     0.055 A 
ATOM     13  Cl  UNL A   1      29.946  24.837  23.541  1.00  0.00    -0.083 Cl
BRANCH   8  14
ATOM     14  N   UNL A   1      32.345  28.119  26.304  1.00  0.00    -0.324 N 
ATOM     15  C   UNL A   1      31.900  29.395  26.064  1.00  0.00     0.250 C 
ATOM     16  O   UNL A   1      31.803  30.195  26.999  1.00  0.00    -0.272 OA
ATOM     17  H   UNL A   1      32.546  27.883  27.239  1.00  0.00     0.170 HD
BRANCH  15  18
ATOM     18  C   UNL A   1      31.466  29.797  24.635  1.00  0.00     0.260 C 
BRANCH  18  19
ATOM     19  O   UNL A   1      30.318  29.215  24.050  1.00  0.00    -0.366 OA
BRANCH  19  20
ATOM     20  C   UNL A   1      29.537  30.081  23.229  1.00  0.00     0.222 C 
BRANCH  20  21
ATOM     21  C   UNL A   1      28.474  29.362  22.390  1.00  0.00     0.287 C 
BRANCH  21  22
ATOM     22  N   UNL A   1      27.570  28.488  23.136  1.00  0.00    -0.356 N 
ATOM     23  H   UNL A   1      27.951  28.320  24.067  1.00  0.00     0.344 HD
ATOM     24  H   UNL A   1      27.472  27.600  22.642  1.00  0.00     0.344 HD
ATOM     25  H   UNL A   1      26.656  28.934  23.217  1.00  0.00     0.344 HD
ENDBRANCH  21  22
ENDBRANCH  20  21
ENDBRANCH  19  20
ENDBRANCH  18  19
ENDBRANCH  15  18
ENDBRANCH   8  14
ENDBRANCH   4   7
ENDBRANCH   2   3
ENDBRANCH   1   2
BRANCH   1  26
ATOM     26  C   UNL A   1      33.138  20.727  24.474  1.00  0.00     0.002 C 
BRANCH  26  27
ATOM     27  C   UNL A   1      33.950  20.645  25.769  1.00  0.00     0.002 C 
BRANCH  27  28
ATOM     28  C   UNL A   1      34.259  22.001  26.413  1.00  0.00     0.021 C 
BRANCH  28  29
ATOM     29  C   UNL A   1      35.707  22.449  26.245  1.00  0.00     0.116 C 
BRANCH  29  30
ATOM     30  N   UNL A   1      36.580  21.311  25.993  1.00  0.00    -0.352 N 
ATOM     31  C   UNL A   1      37.929  21.300  25.770  1.00  0.00     0.251 C 
ATOM     32  H   UNL A   1      36.139  20.431  25.981  1.00  0.00     0.163 HD
ATOM     33  O   UNL A   1      38.467  20.307  25.271  1.00  0.00    -0.269 OA
BRANCH  31  34
ATOM     34  C   UNL A   1      38.736  22.479  26.134  1.00  0.00     0.039 A 
ATOM     35  C   UNL A   1      38.334  23.745  25.707  1.00  0.00     0.014 A 
ATOM     36  C   UNL A   1      39.902  22.322  26.892  1.00  0.00     0.014 A 
ATOM     37  C   UNL A   1      39.079  24.864  26.080  1.00  0.00     0.010 A 
ATOM     38  C   UNL A   1      40.599  23.444  27.326  1.00  0.00     0.010 A 
ATOM     39  C   UNL A   1      40.203  24.724  26.913  1.00  0.00    -0.014 A 
BRANCH  39  40
ATOM     40  C   UNL A   1      40.975  25.906  27.369  1.00  0.00     0.031 A 
ATOM     41  C   UNL A   1      40.296  26.996  28.152  1.00  0.00     0.074 A 
ATOM     42  C   UNL A   1      42.264  26.036  27.000  1.00  0.00     0.049 A 
ATOM     43  N   UNL A   1      40.788  28.127  28.584  1.00  0.00    -0.248 NA
ATOM     44  C   UNL A   1      38.871  26.803  28.468  1.00  0.00     0.031 C 
ATOM     45  C   UNL A   1      43.008  25.082  26.173  1.00  0.00     0.029 A 
ATOM     46  N   UNL A   1      43.169  27.036  27.247  1.00  0.00    -0.354 N 
ATOM     47  C   UNL A   1      39.730  28.795  29.188  1.00  0.00     0.074 A 
ATOM     48  C   UNL A   1      38.559  27.959  29.037  1.00  0.00     0.031 C 
ATOM     49  C   UNL A   1      44.255  25.542  25.986  1.00  0.00     0.029 A 
ATOM     50  C   UNL A   1      44.391  26.835  26.647  1.00  0.00     0.049 A 
ATOM     51  H   UNL A   1      42.965  27.824  27.801  1.00  0.00     0.167 HD
ATOM     52  C   UNL A   1      39.736  29.985  29.835  1.00  0.00     0.034 A 
ATOM     53  C   UNL A   1      45.492  27.611  26.624  1.00  0.00     0.034 A 
ATOM     54  C   UNL A   1      40.912  30.793  30.014  1.00  0.00     0.049 A 
ATOM     55  C   UNL A   1      45.482  28.912  27.378  1.00  0.00     0.074 A 
ATOM     56  C   UNL A   1      41.045  31.969  30.731  1.00  0.00     0.029 A 
ATOM     57  N   UNL A   1      42.154  30.517  29.462  1.00  0.00    -0.354 N 
ATOM     58  N   UNL A   1      44.516  29.451  28.081  1.00  0.00    -0.248 NA
ATOM     59  C   UNL A   1      46.726  29.695  27.367  1.00  0.00     0.031 C 
ATOM     60  C   UNL A   1      42.362  32.421  30.585  1.00  0.00     0.029 A 
ATOM     61  C   UNL A   1      43.056  31.507  29.809  1.00  0.00     0.049 A 
ATOM     62  H   UNL A   1      42.362  29.732  28.906  1.00  0.00     0.167 HD
ATOM     63  C   UNL A   1      45.043  30.616  28.625  1.00  0.00     0.074 A 
ATOM     64  C   UNL A   1      46.422  30.693  28.187  1.00  0.00     0.031 C 
ATOM     65  C   UNL A   1      44.438  31.545  29.405  1.00  0.00     0.034 A 
BRANCH  52  66
ATOM     66  C   UNL A   1      38.441  30.463  30.439  1.00  0.00     0.023 A 
ATOM     67  C   UNL A   1      38.106  30.089  31.757  1.00  0.00     0.012 A 
ATOM     68  C   UNL A   1      37.587  31.328  29.727  1.00  0.00     0.148 A 
ATOM     69  C   UNL A   1      36.923  30.538  32.343  1.00  0.00     0.002 A 
ATOM     70  C   UNL A   1      36.433  31.809  30.337  1.00  0.00     0.091 A 
ATOM     71  F   UNL A   1      37.911  31.656  28.470  1.00  0.00    -0.205 F 
ATOM     72  C   UNL A   1      36.094  31.405  31.638  1.00  0.00     0.022 A 
BRANCH  70  73
ATOM     73  S   UNL A   1      35.341  32.995  29.545  1.00  0.00     0.127 S 
ATOM     74  O   UNL A   1      34.267  33.110  30.530  1.00  0.00    -0.237 OA
ATOM     75  O   UNL A   1      36.198  34.177  29.436  1.00  0.00    -0.237 OA
ATOM     76  O   UNL A   1      34.958  32.402  28.271  1.00  0.00    -0.744 OA
ENDBRANCH  70  73
ENDBRANCH  52  66
BRANCH  53  77
ATOM     77  C   UNL A   1      46.712  27.147  25.906  1.00  0.00     0.023 A 
ATOM     78  C   UNL A   1      47.578  26.229  26.533  1.00  0.00     0.012 A 
ATOM     79  C   UNL A   1      47.007  27.587  24.602  1.00  0.00     0.148 A 
ATOM     80  C   UNL A   1      48.732  25.785  25.887  1.00  0.00     0.002 A 
ATOM     81  C   UNL A   1      48.128  27.098  23.942  1.00  0.00     0.091 A 
ATOM     82  F   UNL A   1      46.175  28.468  24.025  1.00  0.00    -0.205 F 
ATOM     83  C   UNL A   1      49.003  26.211  24.589  1.00  0.00     0.022 A 
BRANCH  81  84
ATOM     84  S   UNL A   1      48.482  27.487  22.224  1.00  0.00     0.127 S 
ATOM     85  O   UNL A   1      49.698  28.287  22.343  1.00  0.00    -0.237 OA
ATOM     86  O   UNL A   1      48.671  26.156  21.645  1.00  0.00    -0.237 OA
ATOM     87  O   UNL A   1      47.308  28.194  21.729  1.00  0.00    -0.744 OA
ENDBRANCH  81  84
ENDBRANCH  53  77
BRANCH  65  88
ATOM     88  C   UNL A   1      45.269  32.711  29.874  1.00  0.00     0.023 A 
ATOM     89  C   UNL A   1      46.019  32.608  31.062  1.00  0.00     0.012 A 
ATOM     90  C   UNL A   1      45.364  33.881  29.095  1.00  0.00     0.148 A 
ATOM     91  C   UNL A   1      46.826  33.664  31.484  1.00  0.00     0.002 A 
ATOM     92  C   UNL A   1      46.210  34.908  29.494  1.00  0.00     0.091 A 
ATOM     93  F   UNL A   1      44.628  33.966  27.978  1.00  0.00    -0.205 F 
ATOM     94  C   UNL A   1      46.932  34.808  30.695  1.00  0.00     0.022 A 
BRANCH  92  95
ATOM     95  S   UNL A   1      46.485  36.374  28.494  1.00  0.00     0.127 S 
ATOM     96  O   UNL A   1      47.524  37.064  29.256  1.00  0.00    -0.237 OA
ATOM     97  O   UNL A   1      46.938  35.802  27.225  1.00  0.00    -0.237 OA
ATOM     98  O   UNL A   1      45.202  37.061  28.424  1.00  0.00    -0.744 OA
ENDBRANCH  92  95
ENDBRANCH  65  88
ENDBRANCH  39  40
ENDBRANCH  31  34
ENDBRANCH  29  30
ENDBRANCH  28  29
ENDBRANCH  27  28
ENDBRANCH  26  27
ENDBRANCH   1  26
TORSDOF 22
ENDMDL
MODEL 3
REMARK VINA RESULT:      -9.8      2.223      3.126
REMARK SMILES [NH3+]CCOCC(=O)Nc1ccc(C(=O)NCCCCCCNC(=O)c2ccc(-c3c4nc(c(-c5cccc(S(=O)(=O)[O-])c5F)c5ccc([nH]5)c(-c5cccc(S(=O)(=O)[O-])c5F)c5nc(c(-c6cccc(S(=O)(=O)[O-])c6F)c6ccc3[nH]6)C=C5)C=C4)cc2)c(Cl)c1
REMARK SMILES IDX 17 1 16 2 15 3 13 4 14 5 12 7 9 8 10 9 90 10 11 11 88 12
REMARK SMILES IDX 89 13 8 14 6 15 7 16 5 18 4 19 3 20 2 21 1 22 18 26 19 27
REMARK SMILES IDX 20 28 21 29 22 30 23 31 24 33 25 34 26 35 87 36 27 37 86 38
REMARK SMILES IDX 28 39 29 40 30 41 80 42 31 43 85 44 79 45 81 46 32 47 84 48
REMARK SMILES IDX 78 49 77 50 33 52 65 53 45 54 64 55 46 56 49 57 63 58 82 59
REMARK SMILES IDX 47 60 48 61 62 63 83 64 50 65 34 66 35 67 43 68 36 69 38 70
REMARK SMILES IDX 44 71 37 72 39 73 40 74 41 75 42 76 66 77 67 78 75 79 68 80
REMARK SMILES IDX 70 81 76 82 69 83 71 84 72 85 73 86 74 87 51 88 52 89 60 90
REMARK SMILES IDX 53 91 55 92 61 93 54 94 56 95 57 96 58 97 59 98
REMARK H PARENT 15 6 8 17 1 23 1 24 1 25 22 32 81 51 49 62
REMARK Flexibility Score: inf
ROOT
ATOM      1  C   UNL A   1      36.429  22.788  25.503  1.00  0.00     0.021 C 
ENDROOT
BRANCH   1   2
ATOM      2  C   UNL A   1      35.177  21.904  25.566  1.00  0.00     0.116 C 
BRANCH   2   3
ATOM      3  N   UNL A   1      34.349  22.204  24.421  1.00  0.00    -0.352 N 
ATOM      4  C   UNL A   1      33.404  23.156  24.181  1.00  0.00     0.252 C 
ATOM      5  O   UNL A   1      32.742  23.008  23.148  1.00  0.00    -0.269 OA
ATOM      6  H   UNL A   1      34.498  21.598  23.660  1.00  0.00     0.163 HD
BRANCH   4   7
ATOM      7  C   UNL A   1      33.194  24.401  24.973  1.00  0.00     0.058 A 
ATOM      8  C   UNL A   1      32.964  27.008  26.037  1.00  0.00     0.042 A 
ATOM      9  C   UNL A   1      33.928  26.737  25.076  1.00  0.00     0.027 A 
ATOM     10  C   UNL A   1      32.182  25.978  26.539  1.00  0.00     0.047 A 
ATOM     11  C   UNL A   1      34.061  25.443  24.578  1.00  0.00     0.017 A 
ATOM     12  C   UNL A   1      32.221  24.708  25.937  1.00  0.00     0.055 A 
ATOM     13  Cl  UNL A   1      30.833  23.756  26.301  1.00  0.00    -0.083 Cl
BRANCH   8  14
ATOM     14  N   UNL A   1      32.669  28.312  26.442  1.00  0.00    -0.324 N 
ATOM     15  C   UNL A   1      32.062  29.274  25.673  1.00  0.00     0.250 C 
ATOM     16  O   UNL A   1      31.886  30.405  26.135  1.00  0.00    -0.272 OA
ATOM     17  H   UNL A   1      32.919  28.564  27.360  1.00  0.00     0.170 HD
BRANCH  15  18
ATOM     18  C   UNL A   1      31.549  28.912  24.260  1.00  0.00     0.260 C 
BRANCH  18  19
ATOM     19  O   UNL A   1      30.161  28.903  23.988  1.00  0.00    -0.366 OA
BRANCH  19  20
ATOM     20  C   UNL A   1      29.587  30.170  23.672  1.00  0.00     0.222 C 
BRANCH  20  21
ATOM     21  C   UNL A   1      29.197  30.334  22.199  1.00  0.00     0.287 C 
BRANCH  21  22
ATOM     22  N   UNL A   1      30.308  30.309  21.248  1.00  0.00    -0.356 N 
ATOM     23  H   UNL A   1      31.114  30.785  21.654  1.00  0.00     0.344 HD
ATOM     24  H   UNL A   1      30.030  30.784  20.388  1.00  0.00     0.344 HD
ATOM     25  H   UNL A   1      30.555  29.342  21.038  1.00  0.00     0.344 HD
ENDBRANCH  21  22
ENDBRANCH  20  21
ENDBRANCH  19  20
ENDBRANCH  18  19
ENDBRANCH  15  18
ENDBRANCH   8  14
ENDBRANCH   4   7
ENDBRANCH   2   3
ENDBRANCH   1   2
BRANCH   1  26
ATOM     26  C   UNL A   1      37.735  21.993  25.452  1.00  0.00     0.002 C 
BRANCH  26  27
ATOM     27  C   UNL A   1      37.645  20.708  24.625  1.00  0.00     0.002 C 
BRANCH  27  28
ATOM     28  C   UNL A   1      38.615  19.604  25.058  1.00  0.00     0.021 C 
BRANCH  28  29
ATOM     29  C   UNL A   1      39.531  20.002  26.210  1.00  0.00     0.116 C 
BRANCH  29  30
ATOM     30  N   UNL A   1      40.830  19.354  26.092  1.00  0.00    -0.352 N 
ATOM     31  C   UNL A   1      42.069  19.928  26.024  1.00  0.00     0.251 C 
ATOM     32  H   UNL A   1      40.813  18.370  26.056  1.00  0.00     0.163 HD
ATOM     33  O   UNL A   1      43.034  19.273  25.619  1.00  0.00    -0.269 OA
BRANCH  31  34
ATOM     34  C   UNL A   1      42.246  21.330  26.442  1.00  0.00     0.039 A 
ATOM     35  C   UNL A   1      42.341  21.635  27.801  1.00  0.00     0.014 A 
ATOM     36  C   UNL A   1      42.304  22.345  25.482  1.00  0.00     0.014 A 
ATOM     37  C   UNL A   1      42.543  22.958  28.195  1.00  0.00     0.010 A 
ATOM     38  C   UNL A   1      42.580  23.651  25.873  1.00  0.00     0.010 A 
ATOM     39  C   UNL A   1      42.688  23.972  27.233  1.00  0.00    -0.014 A 
BRANCH  39  40
ATOM     40  C   UNL A   1      42.960  25.376  27.629  1.00  0.00     0.031 A 
ATOM     41  C   UNL A   1      44.372  25.894  27.653  1.00  0.00     0.074 A 
ATOM     42  C   UNL A   1      41.943  26.153  28.051  1.00  0.00     0.049 A 
ATOM     43  N   UNL A   1      44.812  27.067  28.027  1.00  0.00    -0.248 NA
ATOM     44  C   UNL A   1      45.432  24.964  27.230  1.00  0.00     0.031 C 
ATOM     45  C   UNL A   1      40.542  25.734  28.148  1.00  0.00     0.029 A 
ATOM     46  N   UNL A   1      41.935  27.446  28.506  1.00  0.00    -0.354 N 
ATOM     47  C   UNL A   1      46.195  27.006  27.918  1.00  0.00     0.074 A 
ATOM     48  C   UNL A   1      46.527  25.669  27.478  1.00  0.00     0.031 C 
ATOM     49  C   UNL A   1      39.812  26.752  28.627  1.00  0.00     0.029 A 
ATOM     50  C   UNL A   1      40.692  27.882  28.904  1.00  0.00     0.049 A 
ATOM     51  H   UNL A   1      42.741  28.010  28.544  1.00  0.00     0.167 HD
ATOM     52  C   UNL A   1      47.107  27.982  28.138  1.00  0.00     0.034 A 
ATOM     53  C   UNL A   1      40.309  29.056  29.442  1.00  0.00     0.034 A 
ATOM     54  C   UNL A   1      46.767  29.321  28.539  1.00  0.00     0.049 A 
ATOM     55  C   UNL A   1      41.337  30.135  29.645  1.00  0.00     0.074 A 
ATOM     56  C   UNL A   1      47.607  30.409  28.701  1.00  0.00     0.029 A 
ATOM     57  N   UNL A   1      45.488  29.751  28.855  1.00  0.00    -0.354 N 
ATOM     58  N   UNL A   1      42.621  30.111  29.383  1.00  0.00    -0.248 NA
ATOM     59  C   UNL A   1      40.859  31.416  30.184  1.00  0.00     0.031 C 
ATOM     60  C   UNL A   1      46.837  31.490  29.145  1.00  0.00     0.029 A 
ATOM     61  C   UNL A   1      45.515  31.084  29.224  1.00  0.00     0.049 A 
ATOM     62  H   UNL A   1      44.679  29.191  28.820  1.00  0.00     0.167 HD
ATOM     63  C   UNL A   1      43.098  31.379  29.690  1.00  0.00     0.074 A 
ATOM     64  C   UNL A   1      41.959  32.155  30.137  1.00  0.00     0.031 C 
ATOM     65  C   UNL A   1      44.365  31.857  29.621  1.00  0.00     0.034 A 
BRANCH  52  66
ATOM     66  C   UNL A   1      48.559  27.654  27.904  1.00  0.00     0.023 A 
ATOM     67  C   UNL A   1      49.313  27.050  28.931  1.00  0.00     0.012 A 
ATOM     68  C   UNL A   1      49.161  27.888  26.651  1.00  0.00     0.148 A 
ATOM     69  C   UNL A   1      50.652  26.718  28.729  1.00  0.00     0.002 A 
ATOM     70  C   UNL A   1      50.483  27.510  26.443  1.00  0.00     0.091 A 
ATOM     71  F   UNL A   1      48.436  28.481  25.694  1.00  0.00    -0.205 F 
ATOM     72  C   UNL A   1      51.232  26.938  27.484  1.00  0.00     0.022 A 
BRANCH  70  73
ATOM     73  S   UNL A   1      51.299  27.675  24.851  1.00  0.00     0.127 S 
ATOM     74  O   UNL A   1      50.375  26.960  23.971  1.00  0.00    -0.237 OA
ATOM     75  O   UNL A   1      51.318  29.127  24.665  1.00  0.00    -0.237 OA
ATOM     76  O   UNL A   1      52.611  27.064  25.006  1.00  0.00    -0.744 OA
ENDBRANCH  70  73
ENDBRANCH  52  66
BRANCH  53  77
ATOM     77  C   UNL A   1      38.875  29.289  29.772  1.00  0.00     0.023 A 
ATOM     78  C   UNL A   1      38.408  29.010  31.071  1.00  0.00     0.012 A 
ATOM     79  C   UNL A   1      37.978  29.808  28.818  1.00  0.00     0.148 A 
ATOM     80  C   UNL A   1      37.069  29.212  31.405  1.00  0.00     0.002 A 
ATOM     81  C   UNL A   1      36.659  30.060  29.172  1.00  0.00     0.091 A 
ATOM     82  F   UNL A   1      38.440  30.059  27.584  1.00  0.00    -0.205 F 
ATOM     83  C   UNL A   1      36.196  29.745  30.460  1.00  0.00     0.022 A 
BRANCH  81  84
ATOM     84  S   UNL A   1      35.500  30.868  28.062  1.00  0.00     0.127 S 
ATOM     85  O   UNL A   1      35.270  29.829  27.061  1.00  0.00    -0.237 OA
ATOM     86  O   UNL A   1      34.367  31.133  28.949  1.00  0.00    -0.237 OA
ATOM     87  O   UNL A   1      36.180  32.064  27.584  1.00  0.00    -0.744 OA
ENDBRANCH  81  84
ENDBRANCH  53  77
BRANCH  65  88
ATOM     88  C   UNL A   1      44.591  33.297  29.999  1.00  0.00     0.023 A 
ATOM     89  C   UNL A   1      44.941  33.630  31.322  1.00  0.00     0.012 A 
ATOM     90  C   UNL A   1      44.531  34.311  29.023  1.00  0.00     0.148 A 
ATOM     91  C   UNL A   1      45.196  34.955  31.676  1.00  0.00     0.002 A 
ATOM     92  C   UNL A   1      44.837  35.621  29.370  1.00  0.00     0.091 A 
ATOM     93  F   UNL A   1      44.179  33.975  27.774  1.00  0.00    -0.205 F 
ATOM     94  C   UNL A   1      45.157  35.947  30.698  1.00  0.00     0.022 A 
BRANCH  92  95
ATOM     95  S   UNL A   1      44.909  36.947  28.161  1.00  0.00     0.127 S 
ATOM     96  O   UNL A   1      43.569  37.521  28.268  1.00  0.00    -0.237 OA
ATOM     97  O   UNL A   1      45.978  37.792  28.693  1.00  0.00    -0.237 OA
ATOM     98  O   UNL A   1      45.216  36.314  26.886  1.00  0.00    -0.744 OA
ENDBRANCH  92  95
ENDBRANCH  65  88
ENDBRANCH  39  40
ENDBRANCH  31  34
ENDBRANCH  29  30
ENDBRANCH  28  29
ENDBRANCH  27  28
ENDBRANCH  26  27
ENDBRANCH   1  26
TORSDOF 22
ENDMDL
