MODEL 1
REMARK VINA RESULT:     -10.2      0.000      0.000
REMARK SMILES CCCN(CCC)c1cc(C(=O)NCCCCCCNC(=O)c2ccc(-c3c4nc(c(-c5cccc(S(=O)(=O)[O-])c5F)c5ccc([nH]5)c(-c5cccc(S(=O)(=O)[O-])c5F)c5nc(c(-c6cccc(S(=O)(=O)[O-])c6F)c6ccc3[nH]6)C=C5)C=C4)cc2)cc(C(F)(F)F)c1
REMARK SMILES IDX 16 1 15 2 14 3 13 4 11 5 12 6 10 8 8 9 9 10 92 11 87 12
REMARK SMILES IDX 86 13 4 14 3 15 2 16 1 17 5 18 6 19 7 20 88 21 89 22 90 23
REMARK SMILES IDX 91 24 17 25 18 26 19 27 20 28 21 29 22 31 23 32 24 33 85 34
REMARK SMILES IDX 25 35 84 36 26 37 27 38 28 39 78 40 29 41 83 42 77 43 79 44
REMARK SMILES IDX 30 45 82 46 76 47 75 48 31 50 63 51 43 52 62 53 44 54 47 55
REMARK SMILES IDX 61 56 80 57 45 58 46 59 60 61 81 62 48 63 32 64 33 65 41 66
REMARK SMILES IDX 34 67 36 68 42 69 35 70 37 71 38 72 39 73 40 74 64 75 65 76
REMARK SMILES IDX 73 77 66 78 68 79 74 80 67 81 69 82 70 83 71 84 72 85 49 86
REMARK SMILES IDX 50 87 58 88 51 89 53 90 59 91 52 92 54 93 55 94 56 95 57 96
REMARK H PARENT 13 7 20 30 79 49 47 60
REMARK Flexibility Score: inf
ROOT
ATOM      1  C   UNL A   1      33.944  23.026  24.208  1.00  0.00     0.002 C 
ENDROOT
BRANCH   1   2
ATOM      2  C   UNL A   1      32.783  22.691  23.284  1.00  0.00     0.021 C 
BRANCH   2   3
ATOM      3  C   UNL A   1      31.873  23.840  22.880  1.00  0.00     0.116 C 
BRANCH   3   4
ATOM      4  N   UNL A   1      32.322  24.654  21.761  1.00  0.00    -0.352 N 
ATOM      5  C   UNL A   1      32.372  26.031  21.628  1.00  0.00     0.251 C 
ATOM      6  O   UNL A   1      32.876  26.517  20.617  1.00  0.00    -0.269 OA
ATOM      7  H   UNL A   1      32.637  24.148  20.978  1.00  0.00     0.163 HD
BRANCH   5   8
ATOM      8  C   UNL A   1      31.698  26.917  22.619  1.00  0.00     0.042 A 
ATOM      9  C   UNL A   1      32.065  28.347  24.552  1.00  0.00     0.038 A 
ATOM     10  C   UNL A   1      32.384  27.215  23.802  1.00  0.00     0.039 A 
ATOM     11  C   UNL A   1      31.068  29.185  24.043  1.00  0.00     0.039 A 
ATOM     12  C   UNL A   1      30.233  28.783  22.996  1.00  0.00     0.058 A 
ATOM     13  C   UNL A   1      30.509  27.580  22.348  1.00  0.00     0.027 A 
BRANCH   9  14
ATOM     14  N   UNL A   1      32.680  28.649  25.754  1.00  0.00    -0.372 N 
BRANCH  14  15
ATOM     15  C   UNL A   1      34.155  28.653  25.806  1.00  0.00     0.116 C 
BRANCH  15  16
ATOM     16  C   UNL A   1      34.724  28.782  27.229  1.00  0.00     0.018 C 
ATOM     17  C   UNL A   1      35.677  29.964  27.408  1.00  0.00     0.006 C 
ENDBRANCH  15  16
ENDBRANCH  14  15
BRANCH  14  18
ATOM     18  C   UNL A   1      31.907  29.070  26.930  1.00  0.00     0.116 C 
BRANCH  18  19
ATOM     19  C   UNL A   1      31.982  30.572  27.223  1.00  0.00     0.018 C 
ATOM     20  C   UNL A   1      31.344  31.425  26.129  1.00  0.00     0.006 C 
ENDBRANCH  18  19
ENDBRANCH  14  18
ENDBRANCH   9  14
BRANCH  12  21
ATOM     21  C   UNL A   1      29.124  29.671  22.502  1.00  0.00     0.416 C 
ATOM     22  F   UNL A   1      29.538  30.459  21.472  1.00  0.00    -0.166 F 
ATOM     23  F   UNL A   1      28.060  28.968  22.034  1.00  0.00    -0.166 F 
ATOM     24  F   UNL A   1      28.640  30.515  23.454  1.00  0.00    -0.166 F 
ENDBRANCH  12  21
ENDBRANCH   5   8
ENDBRANCH   3   4
ENDBRANCH   2   3
ENDBRANCH   1   2
BRANCH   1  25
ATOM     25  C   UNL A   1      34.311  21.965  25.246  1.00  0.00     0.002 C 
BRANCH  25  26
ATOM     26  C   UNL A   1      35.668  22.124  25.938  1.00  0.00     0.021 C 
BRANCH  26  27
ATOM     27  C   UNL A   1      36.892  21.965  25.044  1.00  0.00     0.116 C 
BRANCH  27  28
ATOM     28  N   UNL A   1      37.760  20.880  25.472  1.00  0.00    -0.352 N 
ATOM     29  C   UNL A   1      39.008  20.936  26.040  1.00  0.00     0.251 C 
ATOM     30  H   UNL A   1      37.401  19.975  25.335  1.00  0.00     0.163 HD
ATOM     31  O   UNL A   1      39.661  19.900  26.180  1.00  0.00    -0.269 OA
BRANCH  29  32
ATOM     32  C   UNL A   1      39.580  22.232  26.464  1.00  0.00     0.039 A 
ATOM     33  C   UNL A   1      40.617  22.240  27.400  1.00  0.00     0.014 A 
ATOM     34  C   UNL A   1      39.093  23.438  25.950  1.00  0.00     0.014 A 
ATOM     35  C   UNL A   1      41.202  23.451  27.779  1.00  0.00     0.010 A 
ATOM     36  C   UNL A   1      39.728  24.636  26.270  1.00  0.00     0.010 A 
ATOM     37  C   UNL A   1      40.785  24.658  27.192  1.00  0.00    -0.014 A 
BRANCH  37  38
ATOM     38  C   UNL A   1      41.447  25.947  27.524  1.00  0.00     0.031 A 
ATOM     39  C   UNL A   1      40.717  26.992  28.325  1.00  0.00     0.074 A 
ATOM     40  C   UNL A   1      42.674  26.211  27.035  1.00  0.00     0.049 A 
ATOM     41  N   UNL A   1      41.104  28.195  28.660  1.00  0.00    -0.248 NA
ATOM     42  C   UNL A   1      39.361  26.650  28.791  1.00  0.00     0.031 C 
ATOM     43  C   UNL A   1      43.458  25.312  26.186  1.00  0.00     0.029 A 
ATOM     44  N   UNL A   1      43.467  27.326  27.156  1.00  0.00    -0.354 N 
ATOM     45  C   UNL A   1      40.036  28.766  29.340  1.00  0.00     0.074 A 
ATOM     46  C   UNL A   1      38.968  27.789  29.342  1.00  0.00     0.031 C 
ATOM     47  C   UNL A   1      44.618  25.907  25.867  1.00  0.00     0.029 A 
ATOM     48  C   UNL A   1      44.647  27.242  26.454  1.00  0.00     0.049 A 
ATOM     49  H   UNL A   1      43.215  28.110  27.695  1.00  0.00     0.167 HD
ATOM     50  C   UNL A   1      39.956  29.983  29.931  1.00  0.00     0.034 A 
ATOM     51  C   UNL A   1      45.637  28.143  26.290  1.00  0.00     0.034 A 
ATOM     52  C   UNL A   1      41.031  30.938  29.956  1.00  0.00     0.049 A 
ATOM     53  C   UNL A   1      45.533  29.477  26.977  1.00  0.00     0.074 A 
ATOM     54  C   UNL A   1      41.078  32.162  30.600  1.00  0.00     0.029 A 
ATOM     55  N   UNL A   1      42.241  30.787  29.298  1.00  0.00    -0.354 N 
ATOM     56  N   UNL A   1      44.575  29.940  27.743  1.00  0.00    -0.248 NA
ATOM     57  C   UNL A   1      46.663  30.402  26.806  1.00  0.00     0.031 C 
ATOM     58  C   UNL A   1      42.303  32.766  30.302  1.00  0.00     0.029 A 
ATOM     59  C   UNL A   1      43.037  31.900  29.507  1.00  0.00     0.049 A 
ATOM     60  H   UNL A   1      42.497  30.003  28.759  1.00  0.00     0.167 HD
ATOM     61  C   UNL A   1      45.002  31.189  28.178  1.00  0.00     0.074 A 
ATOM     62  C   UNL A   1      46.314  31.403  27.603  1.00  0.00     0.031 C 
ATOM     63  C   UNL A   1      44.362  32.081  28.972  1.00  0.00     0.034 A 
BRANCH  50  64
ATOM     64  C   UNL A   1      38.672  30.337  30.638  1.00  0.00     0.023 A 
ATOM     65  C   UNL A   1      38.358  29.721  31.868  1.00  0.00     0.012 A 
ATOM     66  C   UNL A   1      37.808  31.321  30.119  1.00  0.00     0.148 A 
ATOM     67  C   UNL A   1      37.187  30.050  32.549  1.00  0.00     0.002 A 
ATOM     68  C   UNL A   1      36.668  31.679  30.829  1.00  0.00     0.091 A 
ATOM     69  F   UNL A   1      38.113  31.884  28.941  1.00  0.00    -0.205 F 
ATOM     70  C   UNL A   1      36.348  31.035  32.035  1.00  0.00     0.022 A 
BRANCH  68  71
ATOM     71  S   UNL A   1      35.566  32.995  30.296  1.00  0.00     0.127 S 
ATOM     72  O   UNL A   1      36.197  33.417  29.046  1.00  0.00    -0.237 OA
ATOM     73  O   UNL A   1      34.299  32.283  30.129  1.00  0.00    -0.237 OA
ATOM     74  O   UNL A   1      35.574  33.984  31.364  1.00  0.00    -0.744 OA
ENDBRANCH  68  71
ENDBRANCH  50  64
BRANCH  51  75
ATOM     75  C   UNL A   1      46.836  27.793  25.478  1.00  0.00     0.023 A 
ATOM     76  C   UNL A   1      46.810  27.983  24.083  1.00  0.00     0.012 A 
ATOM     77  C   UNL A   1      48.007  27.292  26.080  1.00  0.00     0.148 A 
ATOM     78  C   UNL A   1      47.913  27.646  23.297  1.00  0.00     0.002 A 
ATOM     79  C   UNL A   1      49.122  27.013  25.299  1.00  0.00     0.091 A 
ATOM     80  F   UNL A   1      48.010  27.109  27.408  1.00  0.00    -0.205 F 
ATOM     81  C   UNL A   1      49.072  27.171  23.906  1.00  0.00     0.022 A 
BRANCH  79  82
ATOM     82  S   UNL A   1      50.698  26.521  26.009  1.00  0.00     0.127 S 
ATOM     83  O   UNL A   1      50.381  25.203  26.553  1.00  0.00    -0.237 OA
ATOM     84  O   UNL A   1      51.567  26.510  24.831  1.00  0.00    -0.237 OA
ATOM     85  O   UNL A   1      51.028  27.547  26.988  1.00  0.00    -0.744 OA
ENDBRANCH  79  82
ENDBRANCH  51  75
BRANCH  63  86
ATOM     86  C   UNL A   1      45.084  33.359  29.314  1.00  0.00     0.023 A 
ATOM     87  C   UNL A   1      45.913  33.423  30.451  1.00  0.00     0.012 A 
ATOM     88  C   UNL A   1      44.996  34.478  28.461  1.00  0.00     0.148 A 
ATOM     89  C   UNL A   1      46.615  34.589  30.753  1.00  0.00     0.002 A 
ATOM     90  C   UNL A   1      45.739  35.619  28.738  1.00  0.00     0.091 A 
ATOM     91  F   UNL A   1      44.189  34.406  27.392  1.00  0.00    -0.205 F 
ATOM     92  C   UNL A   1      46.538  35.681  29.892  1.00  0.00     0.022 A 
BRANCH  90  93
ATOM     93  S   UNL A   1      45.781  37.035  27.635  1.00  0.00     0.127 S 
ATOM     94  O   UNL A   1      46.272  36.434  26.397  1.00  0.00    -0.237 OA
ATOM     95  O   UNL A   1      44.375  37.441  27.601  1.00  0.00    -0.237 OA
ATOM     96  O   UNL A   1      46.675  38.003  28.257  1.00  0.00    -0.744 OA
ENDBRANCH  90  93
ENDBRANCH  63  86
ENDBRANCH  37  38
ENDBRANCH  29  32
ENDBRANCH  27  28
ENDBRANCH  26  27
ENDBRANCH  25  26
ENDBRANCH   1  25
TORSDOF 22
ENDMDL
MODEL 2
REMARK VINA RESULT:     -10.0      0.907      7.710
REMARK SMILES CCCN(CCC)c1cc(C(=O)NCCCCCCNC(=O)c2ccc(-c3c4nc(c(-c5cccc(S(=O)(=O)[O-])c5F)c5ccc([nH]5)c(-c5cccc(S(=O)(=O)[O-])c5F)c5nc(c(-c6cccc(S(=O)(=O)[O-])c6F)c6ccc3[nH]6)C=C5)C=C4)cc2)cc(C(F)(F)F)c1
REMARK SMILES IDX 16 1 15 2 14 3 13 4 11 5 12 6 10 8 8 9 9 10 92 11 87 12
REMARK SMILES IDX 86 13 4 14 3 15 2 16 1 17 5 18 6 19 7 20 88 21 89 22 90 23
REMARK SMILES IDX 91 24 17 25 18 26 19 27 20 28 21 29 22 31 23 32 24 33 85 34
REMARK SMILES IDX 25 35 84 36 26 37 27 38 28 39 78 40 29 41 83 42 77 43 79 44
REMARK SMILES IDX 30 45 82 46 76 47 75 48 31 50 63 51 43 52 62 53 44 54 47 55
REMARK SMILES IDX 61 56 80 57 45 58 46 59 60 61 81 62 48 63 32 64 33 65 41 66
REMARK SMILES IDX 34 67 36 68 42 69 35 70 37 71 38 72 39 73 40 74 64 75 65 76
REMARK SMILES IDX 73 77 66 78 68 79 74 80 67 81 69 82 70 83 71 84 72 85 49 86
REMARK SMILES IDX 50 87 58 88 51 89 53 90 59 91 52 92 54 93 55 94 56 95 57 96
REMARK H PARENT 13 7 20 30 79 49 47 60
REMARK Flexibility Score: inf
ROOT
ATOM      1  C   UNL A   1      33.078  23.525  25.358  1.00  0.00     0.002 C 
ENDROOT
BRANCH   1   2
ATOM      2  C   UNL A   1      32.809  22.873  24.009  1.00  0.00     0.021 C 
BRANCH   2   3
ATOM      3  C   UNL A   1      31.842  23.591  23.082  1.00  0.00     0.116 C 
BRANCH   3   4
ATOM      4  N   UNL A   1      32.435  24.314  21.968  1.00  0.00    -0.352 N 
ATOM      5  C   UNL A   1      32.642  25.672  21.799  1.00  0.00     0.251 C 
ATOM      6  O   UNL A   1      33.247  26.066  20.804  1.00  0.00    -0.269 OA
ATOM      7  H   UNL A   1      32.733  23.751  21.218  1.00  0.00     0.163 HD
BRANCH   5   8
ATOM      8  C   UNL A   1      32.017  26.659  22.726  1.00  0.00     0.042 A 
ATOM      9  C   UNL A   1      32.456  28.166  24.583  1.00  0.00     0.038 A 
ATOM     10  C   UNL A   1      32.704  26.974  23.904  1.00  0.00     0.039 A 
ATOM     11  C   UNL A   1      31.530  29.043  24.009  1.00  0.00     0.039 A 
ATOM     12  C   UNL A   1      30.685  28.642  22.969  1.00  0.00     0.058 A 
ATOM     13  C   UNL A   1      30.884  27.388  22.394  1.00  0.00     0.027 A 
BRANCH   9  14
ATOM     14  N   UNL A   1      33.072  28.492  25.779  1.00  0.00    -0.372 N 
BRANCH  14  15
ATOM     15  C   UNL A   1      33.835  29.753  25.854  1.00  0.00     0.116 C 
BRANCH  15  16
ATOM     16  C   UNL A   1      33.290  30.744  26.896  1.00  0.00     0.018 C 
ATOM     17  C   UNL A   1      31.772  30.920  26.845  1.00  0.00     0.006 C 
ENDBRANCH  15  16
ENDBRANCH  14  15
BRANCH  14  18
ATOM     18  C   UNL A   1      32.888  27.676  26.986  1.00  0.00     0.116 C 
BRANCH  18  19
ATOM     19  C   UNL A   1      31.423  27.373  27.320  1.00  0.00     0.018 C 
ATOM     20  C   UNL A   1      30.934  26.058  26.718  1.00  0.00     0.006 C 
ENDBRANCH  18  19
ENDBRANCH  14  18
ENDBRANCH   9  14
BRANCH  12  21
ATOM     21  C   UNL A   1      29.650  29.577  22.405  1.00  0.00     0.416 C 
ATOM     22  F   UNL A   1      28.672  28.897  21.745  1.00  0.00    -0.166 F 
ATOM     23  F   UNL A   1      29.023  30.305  23.364  1.00  0.00    -0.166 F 
ATOM     24  F   UNL A   1      30.157  30.472  21.513  1.00  0.00    -0.166 F 
ENDBRANCH  12  21
ENDBRANCH   5   8
ENDBRANCH   3   4
ENDBRANCH   2   3
ENDBRANCH   1   2
BRANCH   1  25
ATOM     25  C   UNL A   1      33.572  22.599  26.470  1.00  0.00     0.002 C 
BRANCH  25  26
ATOM     26  C   UNL A   1      35.028  22.775  26.912  1.00  0.00     0.021 C 
BRANCH  26  27
ATOM     27  C   UNL A   1      36.067  22.765  25.796  1.00  0.00     0.116 C 
BRANCH  27  28
ATOM     28  N   UNL A   1      36.932  21.597  25.850  1.00  0.00    -0.352 N 
ATOM     29  C   UNL A   1      38.293  21.529  26.010  1.00  0.00     0.251 C 
ATOM     30  H   UNL A   1      36.475  20.730  25.757  1.00  0.00     0.163 HD
ATOM     31  O   UNL A   1      38.871  20.451  25.860  1.00  0.00    -0.269 OA
BRANCH  29  32
ATOM     32  C   UNL A   1      39.069  22.744  26.340  1.00  0.00     0.039 A 
ATOM     33  C   UNL A   1      38.698  23.961  25.764  1.00  0.00     0.014 A 
ATOM     34  C   UNL A   1      40.165  22.685  27.207  1.00  0.00     0.014 A 
ATOM     35  C   UNL A   1      39.389  25.128  26.100  1.00  0.00     0.010 A 
ATOM     36  C   UNL A   1      40.803  23.860  27.599  1.00  0.00     0.010 A 
ATOM     37  C   UNL A   1      40.428  25.094  27.046  1.00  0.00    -0.014 A 
BRANCH  37  38
ATOM     38  C   UNL A   1      41.124  26.335  27.473  1.00  0.00     0.031 A 
ATOM     39  C   UNL A   1      42.581  26.539  27.153  1.00  0.00     0.074 A 
ATOM     40  C   UNL A   1      40.468  27.243  28.221  1.00  0.00     0.049 A 
ATOM     41  N   UNL A   1      43.371  27.523  27.494  1.00  0.00    -0.248 NA
ATOM     42  C   UNL A   1      43.246  25.483  26.369  1.00  0.00     0.031 C 
ATOM     43  C   UNL A   1      39.075  27.131  28.660  1.00  0.00     0.029 A 
ATOM     44  N   UNL A   1      40.892  28.429  28.770  1.00  0.00    -0.354 N 
ATOM     45  C   UNL A   1      44.628  27.194  27.000  1.00  0.00     0.074 A 
ATOM     46  C   UNL A   1      44.504  25.900  26.364  1.00  0.00     0.031 C 
ATOM     47  C   UNL A   1      38.759  28.202  29.406  1.00  0.00     0.029 A 
ATOM     48  C   UNL A   1      39.933  29.058  29.531  1.00  0.00     0.049 A 
ATOM     49  H   UNL A   1      41.795  28.794  28.632  1.00  0.00     0.167 HD
ATOM     50  C   UNL A   1      45.776  27.912  27.048  1.00  0.00     0.034 A 
ATOM     51  C   UNL A   1      39.995  30.191  30.258  1.00  0.00     0.034 A 
ATOM     52  C   UNL A   1      45.888  29.212  27.652  1.00  0.00     0.049 A 
ATOM     53  C   UNL A   1      41.276  30.981  30.275  1.00  0.00     0.074 A 
ATOM     54  C   UNL A   1      46.983  30.056  27.678  1.00  0.00     0.029 A 
ATOM     55  N   UNL A   1      44.874  29.853  28.348  1.00  0.00    -0.354 N 
ATOM     56  N   UNL A   1      42.412  30.725  29.674  1.00  0.00    -0.248 NA
ATOM     57  C   UNL A   1      41.273  32.235  31.043  1.00  0.00     0.031 C 
ATOM     58  C   UNL A   1      46.644  31.191  28.421  1.00  0.00     0.029 A 
ATOM     59  C   UNL A   1      45.322  31.074  28.820  1.00  0.00     0.049 A 
ATOM     60  H   UNL A   1      43.968  29.492  28.486  1.00  0.00     0.167 HD
ATOM     61  C   UNL A   1      43.245  31.803  29.955  1.00  0.00     0.074 A 
ATOM     62  C   UNL A   1      42.476  32.722  30.768  1.00  0.00     0.031 C 
ATOM     63  C   UNL A   1      44.532  32.006  29.584  1.00  0.00     0.034 A 
BRANCH  50  64
ATOM     64  C   UNL A   1      47.000  27.323  26.394  1.00  0.00     0.023 A 
ATOM     65  C   UNL A   1      47.238  27.551  25.023  1.00  0.00     0.012 A 
ATOM     66  C   UNL A   1      47.945  26.597  27.147  1.00  0.00     0.148 A 
ATOM     67  C   UNL A   1      48.376  27.034  24.403  1.00  0.00     0.002 A 
ATOM     68  C   UNL A   1      49.099  26.127  26.533  1.00  0.00     0.091 A 
ATOM     69  F   UNL A   1      47.693  26.374  28.445  1.00  0.00    -0.205 F 
ATOM     70  C   UNL A   1      49.310  26.332  25.160  1.00  0.00     0.022 A 
BRANCH  68  71
ATOM     71  S   UNL A   1      50.405  25.285  27.436  1.00  0.00     0.127 S 
ATOM     72  O   UNL A   1      51.362  24.997  26.369  1.00  0.00    -0.237 OA
ATOM     73  O   UNL A   1      50.837  26.315  28.381  1.00  0.00    -0.237 OA
ATOM     74  O   UNL A   1      49.783  24.119  28.048  1.00  0.00    -0.744 OA
ENDBRANCH  68  71
ENDBRANCH  50  64
BRANCH  51  75
ATOM     75  C   UNL A   1      38.791  30.674  30.992  1.00  0.00     0.023 A 
ATOM     76  C   UNL A   1      38.569  30.250  32.317  1.00  0.00     0.012 A 
ATOM     77  C   UNL A   1      37.876  31.561  30.393  1.00  0.00     0.148 A 
ATOM     78  C   UNL A   1      37.440  30.672  33.019  1.00  0.00     0.002 A 
ATOM     79  C   UNL A   1      36.784  32.023  31.118  1.00  0.00     0.091 A 
ATOM     80  F   UNL A   1      38.099  31.946  29.128  1.00  0.00    -0.205 F 
ATOM     81  C   UNL A   1      36.553  31.566  32.424  1.00  0.00     0.022 A 
BRANCH  79  82
ATOM     82  S   UNL A   1      35.662  33.273  30.480  1.00  0.00     0.127 S 
ATOM     83  O   UNL A   1      36.199  33.500  29.141  1.00  0.00    -0.237 OA
ATOM     84  O   UNL A   1      34.378  32.571  30.520  1.00  0.00    -0.237 OA
ATOM     85  O   UNL A   1      35.760  34.398  31.400  1.00  0.00    -0.744 OA
ENDBRANCH  79  82
ENDBRANCH  51  75
BRANCH  63  86
ATOM     86  C   UNL A   1      45.189  33.295  30.008  1.00  0.00     0.023 A 
ATOM     87  C   UNL A   1      45.966  33.342  31.181  1.00  0.00     0.012 A 
ATOM     88  C   UNL A   1      45.092  34.444  29.197  1.00  0.00     0.148 A 
ATOM     89  C   UNL A   1      46.608  34.520  31.560  1.00  0.00     0.002 A 
ATOM     90  C   UNL A   1      45.777  35.599  29.552  1.00  0.00     0.091 A 
ATOM     91  F   UNL A   1      44.333  34.385  28.093  1.00  0.00    -0.205 F 
ATOM     92  C   UNL A   1      46.524  35.644  30.741  1.00  0.00     0.022 A 
BRANCH  90  93
ATOM     93  S   UNL A   1      45.809  37.061  28.509  1.00  0.00     0.127 S 
ATOM     94  O   UNL A   1      46.661  36.621  27.405  1.00  0.00    -0.237 OA
ATOM     95  O   UNL A   1      44.397  37.224  28.163  1.00  0.00    -0.237 OA
ATOM     96  O   UNL A   1      46.358  38.131  29.332  1.00  0.00    -0.744 OA
ENDBRANCH  90  93
ENDBRANCH  63  86
ENDBRANCH  37  38
ENDBRANCH  29  32
ENDBRANCH  27  28
ENDBRANCH  26  27
ENDBRANCH  25  26
ENDBRANCH   1  25
TORSDOF 22
ENDMDL
MODEL 3
REMARK VINA RESULT:     -10.0      1.664      2.047
REMARK SMILES CCCN(CCC)c1cc(C(=O)NCCCCCCNC(=O)c2ccc(-c3c4nc(c(-c5cccc(S(=O)(=O)[O-])c5F)c5ccc([nH]5)c(-c5cccc(S(=O)(=O)[O-])c5F)c5nc(c(-c6cccc(S(=O)(=O)[O-])c6F)c6ccc3[nH]6)C=C5)C=C4)cc2)cc(C(F)(F)F)c1
REMARK SMILES IDX 16 1 15 2 14 3 13 4 11 5 12 6 10 8 8 9 9 10 92 11 87 12
REMARK SMILES IDX 86 13 4 14 3 15 2 16 1 17 5 18 6 19 7 20 88 21 89 22 90 23
REMARK SMILES IDX 91 24 17 25 18 26 19 27 20 28 21 29 22 31 23 32 24 33 85 34
REMARK SMILES IDX 25 35 84 36 26 37 27 38 28 39 78 40 29 41 83 42 77 43 79 44
REMARK SMILES IDX 30 45 82 46 76 47 75 48 31 50 63 51 43 52 62 53 44 54 47 55
REMARK SMILES IDX 61 56 80 57 45 58 46 59 60 61 81 62 48 63 32 64 33 65 41 66
REMARK SMILES IDX 34 67 36 68 42 69 35 70 37 71 38 72 39 73 40 74 64 75 65 76
REMARK SMILES IDX 73 77 66 78 68 79 74 80 67 81 69 82 70 83 71 84 72 85 49 86
REMARK SMILES IDX 50 87 58 88 51 89 53 90 59 91 52 92 54 93 55 94 56 95 57 96
REMARK H PARENT 13 7 20 30 79 49 47 60
REMARK Flexibility Score: inf
ROOT
ATOM      1  C   UNL A   1      33.149  23.389  25.272  1.00  0.00     0.002 C 
ENDROOT
BRANCH   1   2
ATOM      2  C   UNL A   1      32.876  22.782  23.904  1.00  0.00     0.021 C 
BRANCH   2   3
ATOM      3  C   UNL A   1      31.909  23.531  23.001  1.00  0.00     0.116 C 
BRANCH   3   4
ATOM      4  N   UNL A   1      32.500  24.270  21.897  1.00  0.00    -0.352 N 
ATOM      5  C   UNL A   1      32.680  25.632  21.734  1.00  0.00     0.251 C 
ATOM      6  O   UNL A   1      33.289  26.043  20.748  1.00  0.00    -0.269 OA
ATOM      7  H   UNL A   1      32.820  23.716  21.149  1.00  0.00     0.163 HD
BRANCH   5   8
ATOM      8  C   UNL A   1      32.022  26.602  22.655  1.00  0.00     0.042 A 
ATOM      9  C   UNL A   1      32.401  28.099  24.535  1.00  0.00     0.038 A 
ATOM     10  C   UNL A   1      32.679  26.916  23.851  1.00  0.00     0.039 A 
ATOM     11  C   UNL A   1      31.476  28.968  23.948  1.00  0.00     0.039 A 
ATOM     12  C   UNL A   1      30.659  28.566  22.887  1.00  0.00     0.058 A 
ATOM     13  C   UNL A   1      30.886  27.320  22.306  1.00  0.00     0.027 A 
BRANCH   9  14
ATOM     14  N   UNL A   1      32.986  28.422  25.746  1.00  0.00    -0.372 N 
BRANCH  14  15
ATOM     15  C   UNL A   1      33.723  29.696  25.852  1.00  0.00     0.116 C 
BRANCH  15  16
ATOM     16  C   UNL A   1      33.159  30.650  26.919  1.00  0.00     0.018 C 
ATOM     17  C   UNL A   1      31.743  31.143  26.618  1.00  0.00     0.006 C 
ENDBRANCH  15  16
ENDBRANCH  14  15
BRANCH  14  18
ATOM     18  C   UNL A   1      32.795  27.588  26.941  1.00  0.00     0.116 C 
BRANCH  18  19
ATOM     19  C   UNL A   1      31.327  27.340  27.302  1.00  0.00     0.018 C 
ATOM     20  C   UNL A   1      30.751  26.093  26.634  1.00  0.00     0.006 C 
ENDBRANCH  18  19
ENDBRANCH  14  18
ENDBRANCH   9  14
BRANCH  12  21
ATOM     21  C   UNL A   1      29.625  29.493  22.308  1.00  0.00     0.416 C 
ATOM     22  F   UNL A   1      28.472  28.831  22.014  1.00  0.00    -0.166 F 
ATOM     23  F   UNL A   1      29.279  30.491  23.162  1.00  0.00    -0.166 F 
ATOM     24  F   UNL A   1      30.021  30.095  21.154  1.00  0.00    -0.166 F 
ENDBRANCH  12  21
ENDBRANCH   5   8
ENDBRANCH   3   4
ENDBRANCH   2   3
ENDBRANCH   1   2
BRANCH   1  25
ATOM     25  C   UNL A   1      33.620  22.423  26.359  1.00  0.00     0.002 C 
BRANCH  25  26
ATOM     26  C   UNL A   1      35.068  22.578  26.832  1.00  0.00     0.021 C 
BRANCH  26  27
ATOM     27  C   UNL A   1      36.117  22.700  25.732  1.00  0.00     0.116 C 
BRANCH  27  28
ATOM     28  N   UNL A   1      37.061  21.594  25.735  1.00  0.00    -0.352 N 
ATOM     29  C   UNL A   1      38.408  21.601  25.991  1.00  0.00     0.251 C 
ATOM     30  H   UNL A   1      36.677  20.713  25.521  1.00  0.00     0.163 HD
ATOM     31  O   UNL A   1      39.075  20.586  25.779  1.00  0.00    -0.269 OA
BRANCH  29  32
ATOM     32  C   UNL A   1      39.067  22.823  26.501  1.00  0.00     0.039 A 
ATOM     33  C   UNL A   1      40.191  22.695  27.320  1.00  0.00     0.014 A 
ATOM     34  C   UNL A   1      38.577  24.093  26.181  1.00  0.00     0.014 A 
ATOM     35  C   UNL A   1      40.856  23.837  27.773  1.00  0.00     0.010 A 
ATOM     36  C   UNL A   1      39.285  25.229  26.569  1.00  0.00     0.010 A 
ATOM     37  C   UNL A   1      40.428  25.115  27.375  1.00  0.00    -0.014 A 
BRANCH  37  38
ATOM     38  C   UNL A   1      41.166  26.338  27.783  1.00  0.00     0.031 A 
ATOM     39  C   UNL A   1      40.497  27.381  28.639  1.00  0.00     0.074 A 
ATOM     40  C   UNL A   1      42.412  26.552  27.316  1.00  0.00     0.049 A 
ATOM     41  N   UNL A   1      40.957  28.536  29.043  1.00  0.00    -0.248 NA
ATOM     42  C   UNL A   1      39.119  27.100  29.077  1.00  0.00     0.031 C 
ATOM     43  C   UNL A   1      43.146  25.653  26.422  1.00  0.00     0.029 A 
ATOM     44  N   UNL A   1      43.273  27.605  27.505  1.00  0.00    -0.354 N 
ATOM     45  C   UNL A   1      39.920  29.135  29.749  1.00  0.00     0.074 A 
ATOM     46  C   UNL A   1      38.793  28.229  29.690  1.00  0.00     0.031 C 
ATOM     47  C   UNL A   1      44.344  26.191  26.143  1.00  0.00     0.029 A 
ATOM     48  C   UNL A   1      44.452  27.486  26.805  1.00  0.00     0.049 A 
ATOM     49  H   UNL A   1      43.067  28.372  28.086  1.00  0.00     0.167 HD
ATOM     50  C   UNL A   1      39.912  30.318  30.408  1.00  0.00     0.034 A 
ATOM     51  C   UNL A   1      45.497  28.330  26.697  1.00  0.00     0.034 A 
ATOM     52  C   UNL A   1      41.045  31.201  30.493  1.00  0.00     0.049 A 
ATOM     53  C   UNL A   1      45.472  29.628  27.459  1.00  0.00     0.074 A 
ATOM     54  C   UNL A   1      41.163  32.380  31.205  1.00  0.00     0.029 A 
ATOM     55  N   UNL A   1      42.249  31.010  29.833  1.00  0.00    -0.354 N 
ATOM     56  N   UNL A   1      44.538  30.106  28.245  1.00  0.00    -0.248 NA
ATOM     57  C   UNL A   1      46.659  30.487  27.347  1.00  0.00     0.031 C 
ATOM     58  C   UNL A   1      42.427  32.922  30.948  1.00  0.00     0.029 A 
ATOM     59  C   UNL A   1      43.112  32.057  30.109  1.00  0.00     0.049 A 
ATOM     60  H   UNL A   1      42.459  30.243  29.252  1.00  0.00     0.167 HD
ATOM     61  C   UNL A   1      45.040  31.299  28.753  1.00  0.00     0.074 A 
ATOM     62  C   UNL A   1      46.368  31.462  28.198  1.00  0.00     0.031 C 
ATOM     63  C   UNL A   1      44.450  32.184  29.592  1.00  0.00     0.034 A 
BRANCH  50  64
ATOM     64  C   UNL A   1      38.647  30.713  31.127  1.00  0.00     0.023 A 
ATOM     65  C   UNL A   1      38.504  30.423  32.500  1.00  0.00     0.012 A 
ATOM     66  C   UNL A   1      37.627  31.423  30.462  1.00  0.00     0.148 A 
ATOM     67  C   UNL A   1      37.351  30.799  33.190  1.00  0.00     0.002 A 
ATOM     68  C   UNL A   1      36.504  31.836  31.168  1.00  0.00     0.091 A 
ATOM     69  F   UNL A   1      37.772  31.674  29.153  1.00  0.00    -0.205 F 
ATOM     70  C   UNL A   1      36.358  31.513  32.527  1.00  0.00     0.022 A 
BRANCH  68  71
ATOM     71  S   UNL A   1      35.206  32.834  30.428  1.00  0.00     0.127 S 
ATOM     72  O   UNL A   1      34.643  31.905  29.449  1.00  0.00    -0.237 OA
ATOM     73  O   UNL A   1      34.341  33.110  31.575  1.00  0.00    -0.237 OA
ATOM     74  O   UNL A   1      35.867  34.005  29.869  1.00  0.00    -0.744 OA
ENDBRANCH  68  71
ENDBRANCH  50  64
BRANCH  51  75
ATOM     75  C   UNL A   1      46.680  27.951  25.874  1.00  0.00     0.023 A 
ATOM     76  C   UNL A   1      46.616  28.072  24.472  1.00  0.00     0.012 A 
ATOM     77  C   UNL A   1      47.870  27.491  26.469  1.00  0.00     0.148 A 
ATOM     78  C   UNL A   1      47.703  27.706  23.676  1.00  0.00     0.002 A 
ATOM     79  C   UNL A   1      48.968  27.183  25.674  1.00  0.00     0.091 A 
ATOM     80  F   UNL A   1      47.908  27.374  27.804  1.00  0.00    -0.205 F 
ATOM     81  C   UNL A   1      48.881  27.272  24.278  1.00  0.00     0.022 A 
BRANCH  79  82
ATOM     82  S   UNL A   1      50.566  26.741  26.367  1.00  0.00     0.127 S 
ATOM     83  O   UNL A   1      50.312  26.856  27.801  1.00  0.00    -0.237 OA
ATOM     84  O   UNL A   1      50.735  25.372  25.878  1.00  0.00    -0.237 OA
ATOM     85  O   UNL A   1      51.515  27.697  25.814  1.00  0.00    -0.744 OA
ENDBRANCH  79  82
ENDBRANCH  51  75
BRANCH  63  86
ATOM     86  C   UNL A   1      45.248  33.392  30.010  1.00  0.00     0.023 A 
ATOM     87  C   UNL A   1      45.164  34.588  29.270  1.00  0.00     0.012 A 
ATOM     88  C   UNL A   1      46.027  33.361  31.185  1.00  0.00     0.148 A 
ATOM     89  C   UNL A   1      45.870  35.721  29.672  1.00  0.00     0.002 A 
ATOM     90  C   UNL A   1      46.685  34.509  31.608  1.00  0.00     0.091 A 
ATOM     91  F   UNL A   1      46.109  32.209  31.867  1.00  0.00    -0.205 F 
ATOM     92  C   UNL A   1      46.618  35.686  30.845  1.00  0.00     0.022 A 
BRANCH  90  93
ATOM     93  S   UNL A   1      47.590  34.587  33.158  1.00  0.00     0.127 S 
ATOM     94  O   UNL A   1      46.505  34.667  34.133  1.00  0.00    -0.237 OA
ATOM     95  O   UNL A   1      48.315  33.316  33.155  1.00  0.00    -0.237 OA
ATOM     96  O   UNL A   1      48.438  35.768  33.069  1.00  0.00    -0.744 OA
ENDBRANCH  90  93
ENDBRANCH  63  86
ENDBRANCH  37  38
ENDBRANCH  29  32
ENDBRANCH  27  28
ENDBRANCH  26  27
ENDBRANCH  25  26
ENDBRANCH   1  25
TORSDOF 22
ENDMDL
