MODEL 1
REMARK VINA RESULT:     -12.8      0.000      0.000
REMARK SMILES O=C(NCCCCCCNC(=O)c1nn(Cc2ccc(F)cc2)c2c1CN(C(=O)[C@H]1CC1(F)F)CC2)c1ccc(-c2c3nc(c(-c4cccc(S(=O)(=O)[O-])c4F)c4ccc([nH]4)c(-c4cccc(S(=O)(=O)[O-])c4F)c4nc(c(-c5cccc(S(=O)(=O)[O-])c5F)c5ccc2[nH]5)C=C4)C=C3)cc1
REMARK SMILES IDX 6 1 5 2 4 3 3 4 1 5 2 6 37 8 38 9 99 10 39 11 98 12 40 13
REMARK SMILES IDX 41 14 42 15 92 16 43 17 97 18 91 19 93 20 44 21 96 22 90 23
REMARK SMILES IDX 89 24 45 26 77 27 57 28 76 29 58 30 61 31 75 32 94 33 59 34
REMARK SMILES IDX 60 35 74 37 95 38 62 39 46 40 47 41 55 42 48 43 50 44 56 45
REMARK SMILES IDX 49 46 51 47 52 48 53 49 54 50 78 51 79 52 87 53 80 54 82 55
REMARK SMILES IDX 88 56 81 57 83 58 84 59 85 60 86 61 63 62 64 63 72 64 65 65
REMARK SMILES IDX 67 66 73 67 66 68 68 69 69 70 70 71 71 72 7 73 8 74 9 75
REMARK SMILES IDX 10 76 11 77 12 79 13 80 14 81 25 82 15 83 24 84 26 85 36 86
REMARK SMILES IDX 27 87 35 88 16 89 17 90 18 91 23 92 19 93 22 94 20 95 21 96
REMARK SMILES IDX 28 97 29 98 30 99 31 100 32 101 33 102 34 103
REMARK H PARENT 3 7 93 25 61 36 10 78
REMARK Flexibility Score: inf
ROOT
ATOM      1  C   UNL A   1      39.345  21.583  26.166  1.00  0.00     0.002 C 
ENDROOT
BRANCH   1   2
ATOM      2  C   UNL A   1      40.523  20.598  26.147  1.00  0.00     0.021 C 
BRANCH   2   3
ATOM      3  C   UNL A   1      41.884  21.197  26.496  1.00  0.00     0.116 C 
BRANCH   3   4
ATOM      4  N   UNL A   1      42.507  21.949  25.427  1.00  0.00    -0.352 N 
ATOM      5  O   UNL A   1      43.634  23.431  24.252  1.00  0.00    -0.269 OA
ATOM      6  C   UNL A   1      42.995  23.220  25.288  1.00  0.00     0.251 C 
ATOM      7  H   UNL A   1      42.600  21.419  24.602  1.00  0.00     0.163 HD
BRANCH   6   8
ATOM      8  C   UNL A   1      42.750  24.355  26.223  1.00  0.00     0.039 A 
ATOM      9  C   UNL A   1      43.241  24.475  27.524  1.00  0.00     0.014 A 
ATOM     10  C   UNL A   1      41.940  25.393  25.717  1.00  0.00     0.014 A 
ATOM     11  C   UNL A   1      42.866  25.564  28.318  1.00  0.00     0.010 A 
ATOM     12  C   UNL A   1      41.562  26.477  26.504  1.00  0.00     0.010 A 
ATOM     13  C   UNL A   1      42.003  26.552  27.820  1.00  0.00    -0.014 A 
BRANCH  13  14
ATOM     14  C   UNL A   1      41.796  27.775  28.605  1.00  0.00     0.031 A 
ATOM     15  C   UNL A   1      42.799  28.835  28.292  1.00  0.00     0.074 A 
ATOM     16  C   UNL A   1      40.744  28.016  29.421  1.00  0.00     0.049 A 
ATOM     17  N   UNL A   1      43.717  29.306  29.071  1.00  0.00    -0.248 NA
ATOM     18  C   UNL A   1      42.903  29.305  26.901  1.00  0.00     0.031 C 
ATOM     19  C   UNL A   1      39.549  27.187  29.602  1.00  0.00     0.029 A 
ATOM     20  N   UNL A   1      40.464  29.116  30.190  1.00  0.00    -0.354 N 
ATOM     21  C   UNL A   1      44.356  30.307  28.339  1.00  0.00     0.074 A 
ATOM     22  C   UNL A   1      43.955  30.122  26.972  1.00  0.00     0.031 C 
ATOM     23  C   UNL A   1      38.587  27.909  30.224  1.00  0.00     0.029 A 
ATOM     24  C   UNL A   1      39.132  29.200  30.609  1.00  0.00     0.049 A 
ATOM     25  H   UNL A   1      41.140  29.789  30.425  1.00  0.00     0.167 HD
ATOM     26  C   UNL A   1      44.957  31.357  28.964  1.00  0.00     0.034 A 
ATOM     27  C   UNL A   1      38.511  30.267  31.183  1.00  0.00     0.034 A 
ATOM     28  C   UNL A   1      45.178  31.065  30.359  1.00  0.00     0.049 A 
ATOM     29  C   UNL A   1      39.567  31.124  31.757  1.00  0.00     0.074 A 
ATOM     30  C   UNL A   1      45.894  30.126  31.072  1.00  0.00     0.029 A 
ATOM     31  N   UNL A   1      44.274  31.609  31.234  1.00  0.00    -0.354 N 
ATOM     32  N   UNL A   1      40.307  30.777  32.768  1.00  0.00    -0.248 NA
ATOM     33  C   UNL A   1      40.064  32.224  30.951  1.00  0.00     0.031 C 
ATOM     34  C   UNL A   1      45.092  29.843  32.217  1.00  0.00     0.029 A 
ATOM     35  C   UNL A   1      43.969  30.674  32.180  1.00  0.00     0.049 A 
ATOM     36  H   UNL A   1      43.907  32.521  31.188  1.00  0.00     0.167 HD
ATOM     37  C   UNL A   1      41.563  31.262  32.438  1.00  0.00     0.074 A 
ATOM     38  C   UNL A   1      41.326  32.247  31.385  1.00  0.00     0.031 C 
ATOM     39  C   UNL A   1      42.685  30.599  32.840  1.00  0.00     0.034 A 
BRANCH  26  40
ATOM     40  C   UNL A   1      44.965  32.792  28.460  1.00  0.00     0.023 A 
ATOM     41  C   UNL A   1      46.230  33.422  28.353  1.00  0.00     0.012 A 
ATOM     42  C   UNL A   1      43.833  33.634  28.367  1.00  0.00     0.148 A 
ATOM     43  C   UNL A   1      46.361  34.812  28.249  1.00  0.00     0.002 A 
ATOM     44  C   UNL A   1      43.967  35.008  28.188  1.00  0.00     0.091 A 
ATOM     45  F   UNL A   1      42.610  33.144  28.568  1.00  0.00    -0.205 F 
ATOM     46  C   UNL A   1      45.228  35.606  28.166  1.00  0.00     0.022 A 
BRANCH  44  47
ATOM     47  S   UNL A   1      42.539  36.090  28.024  1.00  0.00     0.127 S 
ATOM     48  O   UNL A   1      43.158  37.409  28.113  1.00  0.00    -0.237 OA
ATOM     49  O   UNL A   1      42.046  35.725  26.695  1.00  0.00    -0.237 OA
ATOM     50  O   UNL A   1      41.640  35.733  29.115  1.00  0.00    -0.744 OA
ENDBRANCH  44  47
ENDBRANCH  26  40
BRANCH  27  51
ATOM     51  C   UNL A   1      37.120  30.785  31.066  1.00  0.00     0.023 A 
ATOM     52  C   UNL A   1      36.458  31.282  32.214  1.00  0.00     0.012 A 
ATOM     53  C   UNL A   1      36.584  31.117  29.805  1.00  0.00     0.148 A 
ATOM     54  C   UNL A   1      35.342  32.125  32.107  1.00  0.00     0.002 A 
ATOM     55  C   UNL A   1      35.480  31.961  29.703  1.00  0.00     0.091 A 
ATOM     56  F   UNL A   1      37.215  30.685  28.706  1.00  0.00    -0.205 F 
ATOM     57  C   UNL A   1      34.864  32.479  30.850  1.00  0.00     0.022 A 
BRANCH  55  58
ATOM     58  S   UNL A   1      34.844  32.517  28.115  1.00  0.00     0.127 S 
ATOM     59  O   UNL A   1      35.980  33.269  27.582  1.00  0.00    -0.237 OA
ATOM     60  O   UNL A   1      34.578  31.250  27.439  1.00  0.00    -0.237 OA
ATOM     61  O   UNL A   1      33.673  33.328  28.417  1.00  0.00    -0.744 OA
ENDBRANCH  55  58
ENDBRANCH  27  51
BRANCH  39  62
ATOM     62  C   UNL A   1      42.546  29.532  33.895  1.00  0.00     0.023 A 
ATOM     63  C   UNL A   1      41.915  28.293  33.655  1.00  0.00     0.012 A 
ATOM     64  C   UNL A   1      43.253  29.716  35.094  1.00  0.00     0.148 A 
ATOM     65  C   UNL A   1      41.990  27.262  34.597  1.00  0.00     0.002 A 
ATOM     66  C   UNL A   1      43.376  28.671  35.997  1.00  0.00     0.091 A 
ATOM     67  F   UNL A   1      43.834  30.906  35.306  1.00  0.00    -0.205 F 
ATOM     68  C   UNL A   1      42.738  27.444  35.758  1.00  0.00     0.022 A 
BRANCH  66  69
ATOM     69  S   UNL A   1      44.454  28.793  37.426  1.00  0.00     0.127 S 
ATOM     70  O   UNL A   1      44.228  27.511  38.089  1.00  0.00    -0.237 OA
ATOM     71  O   UNL A   1      45.772  28.942  36.808  1.00  0.00    -0.237 OA
ATOM     72  O   UNL A   1      44.009  29.968  38.168  1.00  0.00    -0.744 OA
ENDBRANCH  66  69
ENDBRANCH  39  62
ENDBRANCH  13  14
ENDBRANCH   6   8
ENDBRANCH   3   4
ENDBRANCH   2   3
ENDBRANCH   1   2
BRANCH   1  73
ATOM     73  C   UNL A   1      39.549  22.888  26.948  1.00  0.00     0.002 C 
BRANCH  73  74
ATOM     74  C   UNL A   1      38.603  24.044  26.599  1.00  0.00     0.021 C 
BRANCH  74  75
ATOM     75  C   UNL A   1      37.257  23.638  25.988  1.00  0.00     0.116 C 
BRANCH  75  76
ATOM     76  N   UNL A   1      37.311  23.610  24.534  1.00  0.00    -0.351 N 
ATOM     77  C   UNL A   1      36.335  23.258  23.622  1.00  0.00     0.272 C 
ATOM     78  H   UNL A   1      38.172  23.884  24.140  1.00  0.00     0.163 HD
ATOM     79  O   UNL A   1      36.673  23.071  22.451  1.00  0.00    -0.267 OA
BRANCH  77  80
ATOM     80  C   UNL A   1      34.940  23.065  24.057  1.00  0.00     0.155 A 
ATOM     81  N   UNL A   1      34.380  21.846  24.200  1.00  0.00    -0.167 NA
ATOM     82  C   UNL A   1      34.016  24.078  24.441  1.00  0.00     0.026 A 
ATOM     83  N   UNL A   1      33.093  22.081  24.535  1.00  0.00    -0.264 N 
ATOM     84  C   UNL A   1      32.825  23.409  24.649  1.00  0.00     0.046 A 
ATOM     85  C   UNL A   1      34.168  25.563  24.535  1.00  0.00     0.159 C 
ATOM     86  C   UNL A   1      31.528  24.069  24.942  1.00  0.00     0.078 C 
ATOM     87  N   UNL A   1      32.893  26.143  25.026  1.00  0.00    -0.337 N 
ATOM     88  C   UNL A   1      31.651  25.541  24.498  1.00  0.00     0.126 C 
BRANCH  83  89
ATOM     89  C   UNL A   1      32.200  20.959  24.801  1.00  0.00     0.180 C 
BRANCH  89  90
ATOM     90  C   UNL A   1      32.754  19.660  24.268  1.00  0.00    -0.026 A 
ATOM     91  C   UNL A   1      32.229  19.108  23.087  1.00  0.00     0.008 A 
ATOM     92  C   UNL A   1      33.784  18.981  24.940  1.00  0.00     0.008 A 
ATOM     93  C   UNL A   1      32.721  17.903  22.586  1.00  0.00     0.039 A 
ATOM     94  C   UNL A   1      34.277  17.778  24.434  1.00  0.00     0.039 A 
ATOM     95  C   UNL A   1      33.741  17.250  23.264  1.00  0.00     0.123 A 
ATOM     96  F   UNL A   1      34.213  16.090  22.791  1.00  0.00    -0.207 F 
ENDBRANCH  89  90
ENDBRANCH  83  89
BRANCH  87  97
ATOM     97  C   UNL A   1      32.931  27.182  25.944  1.00  0.00     0.232 C 
ATOM     98  O   UNL A   1      33.902  27.430  26.657  1.00  0.00    -0.274 OA
BRANCH  97  99
ATOM     99  C   UNL A   1      31.747  28.064  26.007  1.00  0.00     0.154 C 
ATOM    100  C   UNL A   1      31.716  29.241  26.972  1.00  0.00     0.097 C 
ATOM    101  C   UNL A   1      31.797  29.459  25.509  1.00  0.00     0.260 C 
ATOM    102  F   UNL A   1      32.923  30.050  24.991  1.00  0.00    -0.206 F 
ATOM    103  F   UNL A   1      30.711  30.014  24.866  1.00  0.00    -0.206 F 
ENDBRANCH  97  99
ENDBRANCH  87  97
ENDBRANCH  77  80
ENDBRANCH  75  76
ENDBRANCH  74  75
ENDBRANCH  73  74
ENDBRANCH   1  73
TORSDOF 20
ENDMDL
MODEL 2
REMARK VINA RESULT:     -12.4      3.580      9.351
REMARK SMILES O=C(NCCCCCCNC(=O)c1nn(Cc2ccc(F)cc2)c2c1CN(C(=O)[C@H]1CC1(F)F)CC2)c1ccc(-c2c3nc(c(-c4cccc(S(=O)(=O)[O-])c4F)c4ccc([nH]4)c(-c4cccc(S(=O)(=O)[O-])c4F)c4nc(c(-c5cccc(S(=O)(=O)[O-])c5F)c5ccc2[nH]5)C=C4)C=C3)cc1
REMARK SMILES IDX 6 1 5 2 4 3 3 4 1 5 2 6 37 8 38 9 99 10 39 11 98 12 40 13
REMARK SMILES IDX 41 14 42 15 92 16 43 17 97 18 91 19 93 20 44 21 96 22 90 23
REMARK SMILES IDX 89 24 45 26 77 27 57 28 76 29 58 30 61 31 75 32 94 33 59 34
REMARK SMILES IDX 60 35 74 37 95 38 62 39 46 40 47 41 55 42 48 43 50 44 56 45
REMARK SMILES IDX 49 46 51 47 52 48 53 49 54 50 78 51 79 52 87 53 80 54 82 55
REMARK SMILES IDX 88 56 81 57 83 58 84 59 85 60 86 61 63 62 64 63 72 64 65 65
REMARK SMILES IDX 67 66 73 67 66 68 68 69 69 70 70 71 71 72 7 73 8 74 9 75
REMARK SMILES IDX 10 76 11 77 12 79 13 80 14 81 25 82 15 83 24 84 26 85 36 86
REMARK SMILES IDX 27 87 35 88 16 89 17 90 18 91 23 92 19 93 22 94 20 95 21 96
REMARK SMILES IDX 28 97 29 98 30 99 31 100 32 101 33 102 34 103
REMARK H PARENT 3 7 93 25 61 36 10 78
REMARK Flexibility Score: inf
ROOT
ATOM      1  C   UNL A   1      35.277  32.259  27.720  1.00  0.00     0.002 C 
ENDROOT
BRANCH   1   2
ATOM      2  C   UNL A   1      34.763  33.689  27.943  1.00  0.00     0.021 C 
BRANCH   2   3
ATOM      3  C   UNL A   1      34.964  34.247  29.351  1.00  0.00     0.116 C 
BRANCH   3   4
ATOM      4  N   UNL A   1      34.530  33.369  30.416  1.00  0.00    -0.352 N 
ATOM      5  O   UNL A   1      34.452  31.999  32.139  1.00  0.00    -0.269 OA
ATOM      6  C   UNL A   1      35.123  32.402  31.183  1.00  0.00     0.251 C 
ATOM      7  H   UNL A   1      33.580  33.496  30.644  1.00  0.00     0.163 HD
BRANCH   6   8
ATOM      8  C   UNL A   1      36.441  31.761  30.912  1.00  0.00     0.039 A 
ATOM      9  C   UNL A   1      37.674  32.409  30.826  1.00  0.00     0.014 A 
ATOM     10  C   UNL A   1      36.408  30.363  30.727  1.00  0.00     0.014 A 
ATOM     11  C   UNL A   1      38.825  31.688  30.488  1.00  0.00     0.010 A 
ATOM     12  C   UNL A   1      37.550  29.642  30.387  1.00  0.00     0.010 A 
ATOM     13  C   UNL A   1      38.760  30.309  30.239  1.00  0.00    -0.014 A 
BRANCH  13  14
ATOM     14  C   UNL A   1      40.011  29.556  30.088  1.00  0.00     0.031 A 
ATOM     15  C   UNL A   1      40.683  29.291  31.394  1.00  0.00     0.074 A 
ATOM     16  C   UNL A   1      40.466  29.013  28.936  1.00  0.00     0.049 A 
ATOM     17  N   UNL A   1      41.814  29.763  31.807  1.00  0.00    -0.248 NA
ATOM     18  C   UNL A   1      39.934  28.557  32.426  1.00  0.00     0.031 C 
ATOM     19  C   UNL A   1      39.772  28.948  27.646  1.00  0.00     0.029 A 
ATOM     20  N   UNL A   1      41.611  28.298  28.695  1.00  0.00    -0.354 N 
ATOM     21  C   UNL A   1      42.030  29.183  33.058  1.00  0.00     0.074 A 
ATOM     22  C   UNL A   1      40.770  28.625  33.463  1.00  0.00     0.031 C 
ATOM     23  C   UNL A   1      40.389  28.047  26.845  1.00  0.00     0.029 A 
ATOM     24  C   UNL A   1      41.593  27.568  27.501  1.00  0.00     0.049 A 
ATOM     25  H   UNL A   1      42.379  28.297  29.309  1.00  0.00     0.167 HD
ATOM     26  C   UNL A   1      43.292  28.992  33.533  1.00  0.00     0.034 A 
ATOM     27  C   UNL A   1      42.473  26.608  27.106  1.00  0.00     0.034 A 
ATOM     28  C   UNL A   1      44.241  29.796  32.804  1.00  0.00     0.049 A 
ATOM     29  C   UNL A   1      43.715  26.815  27.877  1.00  0.00     0.074 A 
ATOM     30  C   UNL A   1      44.439  31.144  32.592  1.00  0.00     0.029 A 
ATOM     31  N   UNL A   1      44.962  29.142  31.839  1.00  0.00    -0.354 N 
ATOM     32  N   UNL A   1      44.492  27.847  27.730  1.00  0.00    -0.248 NA
ATOM     33  C   UNL A   1      43.891  26.054  29.100  1.00  0.00     0.031 C 
ATOM     34  C   UNL A   1      44.909  31.240  31.249  1.00  0.00     0.029 A 
ATOM     35  C   UNL A   1      45.043  29.946  30.739  1.00  0.00     0.049 A 
ATOM     36  H   UNL A   1      45.355  28.243  31.924  1.00  0.00     0.167 HD
ATOM     37  C   UNL A   1      44.887  28.148  29.023  1.00  0.00     0.074 A 
ATOM     38  C   UNL A   1      44.598  26.944  29.800  1.00  0.00     0.031 C 
ATOM     39  C   UNL A   1      45.128  29.440  29.388  1.00  0.00     0.034 A 
BRANCH  26  40
ATOM     40  C   UNL A   1      43.752  27.791  34.346  1.00  0.00     0.023 A 
ATOM     41  C   UNL A   1      44.473  28.065  35.534  1.00  0.00     0.012 A 
ATOM     42  C   UNL A   1      43.780  26.454  33.886  1.00  0.00     0.148 A 
ATOM     43  C   UNL A   1      45.245  27.090  36.176  1.00  0.00     0.002 A 
ATOM     44  C   UNL A   1      44.489  25.469  34.570  1.00  0.00     0.091 A 
ATOM     45  F   UNL A   1      43.224  26.130  32.719  1.00  0.00    -0.205 F 
ATOM     46  C   UNL A   1      45.253  25.790  35.694  1.00  0.00     0.022 A 
BRANCH  44  47
ATOM     47  S   UNL A   1      44.501  23.755  34.027  1.00  0.00     0.127 S 
ATOM     48  O   UNL A   1      43.114  23.364  34.257  1.00  0.00    -0.237 OA
ATOM     49  O   UNL A   1      44.882  23.896  32.621  1.00  0.00    -0.237 OA
ATOM     50  O   UNL A   1      45.498  23.082  34.852  1.00  0.00    -0.744 OA
ENDBRANCH  44  47
ENDBRANCH  26  40
BRANCH  27  51
ATOM     51  C   UNL A   1      42.286  25.351  26.328  1.00  0.00     0.023 A 
ATOM     52  C   UNL A   1      43.249  24.975  25.362  1.00  0.00     0.012 A 
ATOM     53  C   UNL A   1      41.378  24.367  26.769  1.00  0.00     0.148 A 
ATOM     54  C   UNL A   1      43.341  23.654  24.900  1.00  0.00     0.002 A 
ATOM     55  C   UNL A   1      41.479  23.054  26.312  1.00  0.00     0.091 A 
ATOM     56  F   UNL A   1      40.481  24.695  27.707  1.00  0.00    -0.205 F 
ATOM     57  C   UNL A   1      42.468  22.689  25.389  1.00  0.00     0.022 A 
BRANCH  55  58
ATOM     58  S   UNL A   1      40.429  21.738  26.946  1.00  0.00     0.127 S 
ATOM     59  O   UNL A   1      40.903  20.581  26.184  1.00  0.00    -0.237 OA
ATOM     60  O   UNL A   1      40.786  21.726  28.362  1.00  0.00    -0.237 OA
ATOM     61  O   UNL A   1      39.062  22.140  26.643  1.00  0.00    -0.744 OA
ENDBRANCH  55  58
ENDBRANCH  27  51
BRANCH  39  62
ATOM     62  C   UNL A   1      45.263  30.476  28.302  1.00  0.00     0.023 A 
ATOM     63  C   UNL A   1      44.160  31.174  27.765  1.00  0.00     0.012 A 
ATOM     64  C   UNL A   1      46.562  30.891  27.965  1.00  0.00     0.148 A 
ATOM     65  C   UNL A   1      44.355  32.263  26.910  1.00  0.00     0.002 A 
ATOM     66  C   UNL A   1      46.750  32.010  27.167  1.00  0.00     0.091 A 
ATOM     67  F   UNL A   1      47.595  30.205  28.478  1.00  0.00    -0.205 F 
ATOM     68  C   UNL A   1      45.650  32.694  26.629  1.00  0.00     0.022 A 
BRANCH  66  69
ATOM     69  S   UNL A   1      48.383  32.703  26.902  1.00  0.00     0.127 S 
ATOM     70  O   UNL A   1      48.103  33.798  25.976  1.00  0.00    -0.237 OA
ATOM     71  O   UNL A   1      48.765  33.122  28.251  1.00  0.00    -0.237 OA
ATOM     72  O   UNL A   1      49.199  31.621  26.362  1.00  0.00    -0.744 OA
ENDBRANCH  66  69
ENDBRANCH  39  62
ENDBRANCH  13  14
ENDBRANCH   6   8
ENDBRANCH   3   4
ENDBRANCH   2   3
ENDBRANCH   1   2
BRANCH   1  73
ATOM     73  C   UNL A   1      34.218  31.151  27.631  1.00  0.00     0.002 C 
BRANCH  73  74
ATOM     74  C   UNL A   1      34.730  29.751  27.273  1.00  0.00     0.021 C 
BRANCH  74  75
ATOM     75  C   UNL A   1      33.852  28.951  26.303  1.00  0.00     0.116 C 
BRANCH  75  76
ATOM     76  N   UNL A   1      34.360  29.011  24.940  1.00  0.00    -0.351 N 
ATOM     77  C   UNL A   1      33.812  28.517  23.772  1.00  0.00     0.272 C 
ATOM     78  H   UNL A   1      35.224  29.474  24.834  1.00  0.00     0.163 HD
ATOM     79  O   UNL A   1      34.529  28.465  22.770  1.00  0.00    -0.267 OA
BRANCH  77  80
ATOM     80  C   UNL A   1      32.425  28.022  23.748  1.00  0.00     0.155 A 
ATOM     81  N   UNL A   1      31.443  28.626  23.047  1.00  0.00    -0.167 NA
ATOM     82  C   UNL A   1      31.926  26.846  24.378  1.00  0.00     0.026 A 
ATOM     83  N   UNL A   1      30.321  27.932  23.333  1.00  0.00    -0.264 N 
ATOM     84  C   UNL A   1      30.562  26.880  24.160  1.00  0.00     0.046 A 
ATOM     85  C   UNL A   1      32.616  25.800  25.195  1.00  0.00     0.159 C 
ATOM     86  C   UNL A   1      29.590  25.922  24.744  1.00  0.00     0.078 C 
ATOM     87  N   UNL A   1      31.624  24.764  25.580  1.00  0.00    -0.337 N 
ATOM     88  C   UNL A   1      30.278  25.248  25.950  1.00  0.00     0.126 C 
BRANCH  83  89
ATOM     89  C   UNL A   1      29.061  28.307  22.702  1.00  0.00     0.180 C 
BRANCH  89  90
ATOM     90  C   UNL A   1      28.871  29.804  22.668  1.00  0.00    -0.026 A 
ATOM     91  C   UNL A   1      28.339  30.416  21.520  1.00  0.00     0.008 A 
ATOM     92  C   UNL A   1      29.228  30.605  23.765  1.00  0.00     0.008 A 
ATOM     93  C   UNL A   1      28.166  31.799  21.468  1.00  0.00     0.039 A 
ATOM     94  C   UNL A   1      29.050  31.988  23.711  1.00  0.00     0.039 A 
ATOM     95  C   UNL A   1      28.523  32.571  22.564  1.00  0.00     0.123 A 
ATOM     96  F   UNL A   1      28.365  33.900  22.516  1.00  0.00    -0.207 F 
ENDBRANCH  89  90
ENDBRANCH  83  89
BRANCH  87  97
ATOM     97  C   UNL A   1      31.997  23.428  25.556  1.00  0.00     0.232 C 
ATOM     98  O   UNL A   1      32.599  22.870  26.471  1.00  0.00    -0.274 OA
BRANCH  97  99
ATOM     99  C   UNL A   1      31.582  22.638  24.379  1.00  0.00     0.154 C 
ATOM    100  C   UNL A   1      31.998  23.067  22.979  1.00  0.00     0.097 C 
ATOM    101  C   UNL A   1      32.562  21.845  23.598  1.00  0.00     0.260 C 
ATOM    102  F   UNL A   1      33.907  21.804  23.870  1.00  0.00    -0.206 F 
ATOM    103  F   UNL A   1      32.213  20.621  23.071  1.00  0.00    -0.206 F 
ENDBRANCH  97  99
ENDBRANCH  87  97
ENDBRANCH  77  80
ENDBRANCH  75  76
ENDBRANCH  74  75
ENDBRANCH  73  74
ENDBRANCH   1  73
TORSDOF 20
ENDMDL
MODEL 3
REMARK VINA RESULT:     -12.3      2.199      4.808
REMARK SMILES O=C(NCCCCCCNC(=O)c1nn(Cc2ccc(F)cc2)c2c1CN(C(=O)[C@H]1CC1(F)F)CC2)c1ccc(-c2c3nc(c(-c4cccc(S(=O)(=O)[O-])c4F)c4ccc([nH]4)c(-c4cccc(S(=O)(=O)[O-])c4F)c4nc(c(-c5cccc(S(=O)(=O)[O-])c5F)c5ccc2[nH]5)C=C4)C=C3)cc1
REMARK SMILES IDX 6 1 5 2 4 3 3 4 1 5 2 6 37 8 38 9 99 10 39 11 98 12 40 13
REMARK SMILES IDX 41 14 42 15 92 16 43 17 97 18 91 19 93 20 44 21 96 22 90 23
REMARK SMILES IDX 89 24 45 26 77 27 57 28 76 29 58 30 61 31 75 32 94 33 59 34
REMARK SMILES IDX 60 35 74 37 95 38 62 39 46 40 47 41 55 42 48 43 50 44 56 45
REMARK SMILES IDX 49 46 51 47 52 48 53 49 54 50 78 51 79 52 87 53 80 54 82 55
REMARK SMILES IDX 88 56 81 57 83 58 84 59 85 60 86 61 63 62 64 63 72 64 65 65
REMARK SMILES IDX 67 66 73 67 66 68 68 69 69 70 70 71 71 72 7 73 8 74 9 75
REMARK SMILES IDX 10 76 11 77 12 79 13 80 14 81 25 82 15 83 24 84 26 85 36 86
REMARK SMILES IDX 27 87 35 88 16 89 17 90 18 91 23 92 19 93 22 94 20 95 21 96
REMARK SMILES IDX 28 97 29 98 30 99 31 100 32 101 33 102 34 103
REMARK H PARENT 3 7 93 25 61 36 10 78
REMARK Flexibility Score: inf
ROOT
ATOM      1  C   UNL A   1      40.616  20.981  26.868  1.00  0.00     0.002 C 
ENDROOT
BRANCH   1   2
ATOM      2  C   UNL A   1      41.019  19.636  26.243  1.00  0.00     0.021 C 
BRANCH   2   3
ATOM      3  C   UNL A   1      42.507  19.299  26.314  1.00  0.00     0.116 C 
BRANCH   3   4
ATOM      4  N   UNL A   1      43.295  19.809  25.212  1.00  0.00    -0.352 N 
ATOM      5  O   UNL A   1      44.697  20.951  23.955  1.00  0.00    -0.269 OA
ATOM      6  C   UNL A   1      43.975  20.970  24.957  1.00  0.00     0.251 C 
ATOM      7  H   UNL A   1      43.356  19.168  24.466  1.00  0.00     0.163 HD
BRANCH   6   8
ATOM      8  C   UNL A   1      43.848  22.241  25.726  1.00  0.00     0.039 A 
ATOM      9  C   UNL A   1      44.461  22.534  26.945  1.00  0.00     0.014 A 
ATOM     10  C   UNL A   1      43.023  23.223  25.141  1.00  0.00     0.014 A 
ATOM     11  C   UNL A   1      44.192  23.744  27.594  1.00  0.00     0.010 A 
ATOM     12  C   UNL A   1      42.749  24.428  25.784  1.00  0.00     0.010 A 
ATOM     13  C   UNL A   1      43.312  24.680  27.029  1.00  0.00    -0.014 A 
BRANCH  13  14
ATOM     14  C   UNL A   1      43.212  26.014  27.633  1.00  0.00     0.031 A 
ATOM     15  C   UNL A   1      44.369  26.891  27.286  1.00  0.00     0.074 A 
ATOM     16  C   UNL A   1      42.143  26.491  28.312  1.00  0.00     0.049 A 
ATOM     17  N   UNL A   1      45.280  27.346  28.083  1.00  0.00    -0.248 NA
ATOM     18  C   UNL A   1      44.641  27.152  25.863  1.00  0.00     0.031 C 
ATOM     19  C   UNL A   1      40.837  25.848  28.481  1.00  0.00     0.029 A 
ATOM     20  N   UNL A   1      41.954  27.711  28.908  1.00  0.00    -0.354 N 
ATOM     21  C   UNL A   1      46.102  28.152  27.295  1.00  0.00     0.074 A 
ATOM     22  C   UNL A   1      45.785  27.835  25.930  1.00  0.00     0.031 C 
ATOM     23  C   UNL A   1      39.936  26.760  28.917  1.00  0.00     0.029 A 
ATOM     24  C   UNL A   1      40.618  28.014  29.188  1.00  0.00     0.049 A 
ATOM     25  H   UNL A   1      42.695  28.321  29.120  1.00  0.00     0.167 HD
ATOM     26  C   UNL A   1      46.788  29.195  27.838  1.00  0.00     0.034 A 
ATOM     27  C   UNL A   1      40.104  29.217  29.564  1.00  0.00     0.034 A 
ATOM     28  C   UNL A   1      46.861  29.069  29.273  1.00  0.00     0.049 A 
ATOM     29  C   UNL A   1      41.218  30.007  30.123  1.00  0.00     0.074 A 
ATOM     30  C   UNL A   1      47.388  28.155  30.161  1.00  0.00     0.029 A 
ATOM     31  N   UNL A   1      45.974  29.834  29.985  1.00  0.00    -0.354 N 
ATOM     32  N   UNL A   1      41.826  29.712  31.234  1.00  0.00    -0.248 NA
ATOM     33  C   UNL A   1      41.918  30.919  29.237  1.00  0.00     0.031 C 
ATOM     34  C   UNL A   1      46.470  28.130  31.252  1.00  0.00     0.029 A 
ATOM     35  C   UNL A   1      45.475  29.080  31.007  1.00  0.00     0.049 A 
ATOM     36  H   UNL A   1      45.737  30.770  29.793  1.00  0.00     0.167 HD
ATOM     37  C   UNL A   1      43.156  29.989  30.965  1.00  0.00     0.074 A 
ATOM     38  C   UNL A   1      43.135  30.845  29.780  1.00  0.00     0.031 C 
ATOM     39  C   UNL A   1      44.146  29.254  31.549  1.00  0.00     0.034 A 
BRANCH  26  40
ATOM     40  C   UNL A   1      47.028  30.537  27.163  1.00  0.00     0.023 A 
ATOM     41  C   UNL A   1      48.336  31.073  27.257  1.00  0.00     0.012 A 
ATOM     42  C   UNL A   1      46.018  31.418  26.710  1.00  0.00     0.148 A 
ATOM     43  C   UNL A   1      48.606  32.422  27.002  1.00  0.00     0.002 A 
ATOM     44  C   UNL A   1      46.305  32.741  26.385  1.00  0.00     0.091 A 
ATOM     45  F   UNL A   1      44.742  31.031  26.698  1.00  0.00    -0.205 F 
ATOM     46  C   UNL A   1      47.589  33.258  26.565  1.00  0.00     0.022 A 
BRANCH  44  47
ATOM     47  S   UNL A   1      45.044  33.864  25.765  1.00  0.00     0.127 S 
ATOM     48  O   UNL A   1      45.842  35.031  25.404  1.00  0.00    -0.237 OA
ATOM     49  O   UNL A   1      44.506  33.105  24.635  1.00  0.00    -0.237 OA
ATOM     50  O   UNL A   1      44.103  34.051  26.863  1.00  0.00    -0.744 OA
ENDBRANCH  44  47
ENDBRANCH  26  40
BRANCH  27  51
ATOM     51  C   UNL A   1      38.807  29.882  29.255  1.00  0.00     0.023 A 
ATOM     52  C   UNL A   1      38.000  29.390  28.202  1.00  0.00     0.012 A 
ATOM     53  C   UNL A   1      38.208  30.749  30.192  1.00  0.00     0.148 A 
ATOM     54  C   UNL A   1      36.635  29.702  28.122  1.00  0.00     0.002 A 
ATOM     55  C   UNL A   1      36.850  31.050  30.112  1.00  0.00     0.091 A 
ATOM     56  F   UNL A   1      38.947  31.199  31.213  1.00  0.00    -0.205 F 
ATOM     57  C   UNL A   1      36.056  30.517  29.087  1.00  0.00     0.022 A 
BRANCH  55  58
ATOM     58  S   UNL A   1      36.016  32.043  31.358  1.00  0.00     0.127 S 
ATOM     59  O   UNL A   1      34.697  32.237  30.756  1.00  0.00    -0.237 OA
ATOM     60  O   UNL A   1      36.035  31.150  32.514  1.00  0.00    -0.237 OA
ATOM     61  O   UNL A   1      36.804  33.261  31.489  1.00  0.00    -0.744 OA
ENDBRANCH  55  58
ENDBRANCH  27  51
BRANCH  39  62
ATOM     62  C   UNL A   1      43.784  28.364  32.711  1.00  0.00     0.023 A 
ATOM     63  C   UNL A   1      43.605  26.970  32.584  1.00  0.00     0.012 A 
ATOM     64  C   UNL A   1      43.828  28.932  33.995  1.00  0.00     0.148 A 
ATOM     65  C   UNL A   1      43.473  26.164  33.719  1.00  0.00     0.002 A 
ATOM     66  C   UNL A   1      43.758  28.120  35.117  1.00  0.00     0.091 A 
ATOM     67  F   UNL A   1      43.987  30.260  34.090  1.00  0.00    -0.205 F 
ATOM     68  C   UNL A   1      43.570  26.736  34.985  1.00  0.00     0.022 A 
BRANCH  66  69
ATOM     69  S   UNL A   1      44.037  28.777  36.763  1.00  0.00     0.127 S 
ATOM     70  O   UNL A   1      43.990  27.571  37.585  1.00  0.00    -0.237 OA
ATOM     71  O   UNL A   1      45.363  29.383  36.635  1.00  0.00    -0.237 OA
ATOM     72  O   UNL A   1      42.965  29.738  37.001  1.00  0.00    -0.744 OA
ENDBRANCH  66  69
ENDBRANCH  39  62
ENDBRANCH  13  14
ENDBRANCH   6   8
ENDBRANCH   3   4
ENDBRANCH   2   3
ENDBRANCH   1   2
BRANCH   1  73
ATOM     73  C   UNL A   1      39.690  21.878  26.035  1.00  0.00     0.002 C 
BRANCH  73  74
ATOM     74  C   UNL A   1      39.188  23.155  26.719  1.00  0.00     0.021 C 
BRANCH  74  75
ATOM     75  C   UNL A   1      37.817  23.662  26.256  1.00  0.00     0.116 C 
BRANCH  75  76
ATOM     76  N   UNL A   1      37.689  23.621  24.806  1.00  0.00    -0.351 N 
ATOM     77  C   UNL A   1      36.581  23.347  24.027  1.00  0.00     0.272 C 
ATOM     78  H   UNL A   1      38.514  23.819  24.306  1.00  0.00     0.163 HD
ATOM     79  O   UNL A   1      36.755  23.126  22.826  1.00  0.00    -0.267 OA
BRANCH  77  80
ATOM     80  C   UNL A   1      35.240  23.274  24.633  1.00  0.00     0.155 A 
ATOM     81  N   UNL A   1      34.606  24.351  25.142  1.00  0.00    -0.167 NA
ATOM     82  C   UNL A   1      34.404  22.125  24.721  1.00  0.00     0.026 A 
ATOM     83  N   UNL A   1      33.455  23.875  25.662  1.00  0.00    -0.264 N 
ATOM     84  C   UNL A   1      33.315  22.537  25.466  1.00  0.00     0.046 A 
ATOM     85  C   UNL A   1      34.604  20.723  24.240  1.00  0.00     0.159 C 
ATOM     86  C   UNL A   1      32.227  21.643  25.935  1.00  0.00     0.078 C 
ATOM     87  N   UNL A   1      33.392  19.929  24.564  1.00  0.00    -0.337 N 
ATOM     88  C   UNL A   1      32.762  20.197  25.874  1.00  0.00     0.126 C 
BRANCH  83  89
ATOM     89  C   UNL A   1      32.504  24.797  26.271  1.00  0.00     0.180 C 
BRANCH  89  90
ATOM     90  C   UNL A   1      31.805  25.649  25.239  1.00  0.00    -0.026 A 
ATOM     91  C   UNL A   1      31.685  27.034  25.441  1.00  0.00     0.008 A 
ATOM     92  C   UNL A   1      31.259  25.078  24.078  1.00  0.00     0.008 A 
ATOM     93  C   UNL A   1      31.034  27.835  24.503  1.00  0.00     0.039 A 
ATOM     94  C   UNL A   1      30.611  25.882  23.139  1.00  0.00     0.039 A 
ATOM     95  C   UNL A   1      30.503  27.251  23.361  1.00  0.00     0.123 A 
ATOM     96  F   UNL A   1      29.871  28.014  22.460  1.00  0.00    -0.207 F 
ENDBRANCH  89  90
ENDBRANCH  83  89
BRANCH  87  97
ATOM     97  C   UNL A   1      32.916  19.012  23.638  1.00  0.00     0.232 C 
ATOM     98  O   UNL A   1      32.054  19.270  22.801  1.00  0.00    -0.274 OA
BRANCH  97  99
ATOM     99  C   UNL A   1      33.539  17.672  23.641  1.00  0.00     0.154 C 
ATOM    100  C   UNL A   1      34.673  17.354  24.605  1.00  0.00     0.097 C 
ATOM    101  C   UNL A   1      33.339  16.731  24.769  1.00  0.00     0.260 C 
ATOM    102  F   UNL A   1      32.608  17.025  25.894  1.00  0.00    -0.206 F 
ATOM    103  F   UNL A   1      33.213  15.378  24.541  1.00  0.00    -0.206 F 
ENDBRANCH  97  99
ENDBRANCH  87  97
ENDBRANCH  77  80
ENDBRANCH  75  76
ENDBRANCH  74  75
ENDBRANCH  73  74
ENDBRANCH   1  73
TORSDOF 20
ENDMDL
