MODEL 1
REMARK VINA RESULT:     -13.0      0.000      0.000
REMARK SMILES Cc1cccc(OC2(C(=O)NCCCCCCNC(=O)c3ccc(-c4c5nc(c(-c6cccc(S(=O)(=O)[O-])c6F)c6ccc([nH]6)c(-c6cccc(S(=O)(=O)[O-])c6F)c6nc(c(-c7cccc(S(=O)(=O)[O-])c7F)c7ccc4[nH]7)C=C6)C=C5)cc3)CCN(C(=O)c3cnc[nH]c3=O)CC2)c1
REMARK SMILES IDX 15 1 14 2 13 3 12 4 11 5 9 6 10 7 8 9 84 10 97 11 85 12
REMARK SMILES IDX 96 13 86 14 87 15 88 16 7 17 6 18 1 19 2 20 3 21 98 22 4 23
REMARK SMILES IDX 5 24 89 25 90 26 94 27 91 28 93 29 95 30 92 31 16 33 17 34
REMARK SMILES IDX 18 35 19 36 20 38 21 39 22 40 83 41 23 42 82 43 24 44 25 45
REMARK SMILES IDX 26 46 76 47 27 48 81 49 75 50 77 51 28 52 80 53 74 54 73 55
REMARK SMILES IDX 29 57 61 58 41 59 60 60 42 61 45 62 59 63 78 64 43 65 44 66
REMARK SMILES IDX 58 68 79 69 46 70 30 71 31 72 39 73 32 74 34 75 40 76 33 77
REMARK SMILES IDX 35 78 36 79 37 80 38 81 62 82 63 83 71 84 64 85 66 86 72 87
REMARK SMILES IDX 65 88 67 89 68 90 69 91 70 92 47 93 48 94 56 95 49 96 51 97
REMARK SMILES IDX 57 98 50 99 52 100 53 101 54 102 55 103
REMARK H PARENT 11 8 93 32 18 37 77 56 45 67
REMARK Flexibility Score: inf
ROOT
ATOM      1  C   UNL A   1      36.082  21.097  25.116  1.00  0.00     0.002 C 
ENDROOT
BRANCH   1   2
ATOM      2  C   UNL A   1      35.589  22.450  24.603  1.00  0.00     0.002 C 
BRANCH   2   3
ATOM      3  C   UNL A   1      34.860  23.326  25.617  1.00  0.00     0.021 C 
BRANCH   3   4
ATOM      4  C   UNL A   1      34.591  24.785  25.206  1.00  0.00     0.116 C 
BRANCH   4   5
ATOM      5  N   UNL A   1      34.504  24.987  23.771  1.00  0.00    -0.353 N 
ATOM      6  C   UNL A   1      33.541  25.507  22.955  1.00  0.00     0.264 C 
ATOM      7  O   UNL A   1      33.928  25.743  21.801  1.00  0.00    -0.270 OA
ATOM      8  H   UNL A   1      35.308  24.689  23.285  1.00  0.00     0.163 HD
BRANCH   6   9
ATOM      9  C   UNL A   1      32.073  25.845  23.406  1.00  0.00     0.190 C 
ATOM     10  C   UNL A   1      32.035  26.537  24.775  1.00  0.00     0.080 C 
ATOM     11  C   UNL A   1      31.423  26.751  22.327  1.00  0.00     0.080 C 
ATOM     12  C   UNL A   1      30.731  27.215  25.151  1.00  0.00     0.124 C 
ATOM     13  C   UNL A   1      30.062  27.275  22.807  1.00  0.00     0.124 C 
ATOM     14  N   UNL A   1      30.274  28.018  24.039  1.00  0.00    -0.338 N 
ATOM     15  C   UNL A   1      30.484  29.385  24.042  1.00  0.00     0.261 C 
ATOM     16  O   UNL A   1      31.434  29.917  24.610  1.00  0.00    -0.269 OA
BRANCH   9  17
ATOM     17  O   UNL A   1      31.358  24.600  23.234  1.00  0.00    -0.477 OA
BRANCH  17  18
ATOM     18  C   UNL A   1      31.474  23.391  23.820  1.00  0.00     0.121 A 
ATOM     19  C   UNL A   1      32.859  19.872  23.484  1.00  0.00     0.044 C 
ATOM     20  C   UNL A   1      32.207  21.085  24.083  1.00  0.00    -0.047 A 
ATOM     21  C   UNL A   1      31.837  21.107  25.429  1.00  0.00     0.003 A 
ATOM     22  C   UNL A   1      31.988  22.219  23.288  1.00  0.00     0.049 A 
ATOM     23  C   UNL A   1      31.264  22.255  25.968  1.00  0.00     0.004 A 
ATOM     24  C   UNL A   1      31.095  23.388  25.168  1.00  0.00     0.046 A 
ENDBRANCH  17  18
ENDBRANCH   9  17
BRANCH  15  25
ATOM     25  C   UNL A   1      29.478  30.175  23.310  1.00  0.00     0.123 A 
ATOM     26  C   UNL A   1      28.434  30.709  23.960  1.00  0.00     0.132 A 
ATOM     27  C   UNL A   1      29.553  30.397  21.854  1.00  0.00     0.263 A 
ATOM     28  N   UNL A   1      27.453  31.482  23.380  1.00  0.00    -0.246 NA
ATOM     29  N   UNL A   1      28.519  31.116  21.325  1.00  0.00    -0.312 N 
ATOM     30  O   UNL A   1      30.470  29.997  21.146  1.00  0.00    -0.269 OA
ATOM     31  C   UNL A   1      27.526  31.635  22.102  1.00  0.00     0.199 A 
ATOM     32  H   UNL A   1      28.490  31.265  20.353  1.00  0.00     0.171 HD
ENDBRANCH  15  25
ENDBRANCH   6   9
ENDBRANCH   4   5
ENDBRANCH   3   4
ENDBRANCH   2   3
ENDBRANCH   1   2
BRANCH   1  33
ATOM     33  C   UNL A   1      37.594  20.968  25.289  1.00  0.00     0.021 C 
BRANCH  33  34
ATOM     34  C   UNL A   1      38.300  22.284  25.551  1.00  0.00     0.116 C 
BRANCH  34  35
ATOM     35  N   UNL A   1      39.259  22.145  26.623  1.00  0.00    -0.352 N 
ATOM     36  C   UNL A   1      40.123  23.076  27.171  1.00  0.00     0.251 C 
ATOM     37  H   UNL A   1      39.303  21.249  27.026  1.00  0.00     0.163 HD
ATOM     38  O   UNL A   1      41.124  22.669  27.722  1.00  0.00    -0.269 OA
BRANCH  36  39
ATOM     39  C   UNL A   1      39.686  24.496  27.291  1.00  0.00     0.039 A 
ATOM     40  C   UNL A   1      40.441  25.415  26.546  1.00  0.00     0.014 A 
ATOM     41  C   UNL A   1      38.906  24.938  28.352  1.00  0.00     0.014 A 
ATOM     42  C   UNL A   1      40.664  26.686  27.055  1.00  0.00     0.010 A 
ATOM     43  C   UNL A   1      39.206  26.150  28.916  1.00  0.00     0.010 A 
ATOM     44  C   UNL A   1      40.149  26.981  28.304  1.00  0.00    -0.014 A 
BRANCH  44  45
ATOM     45  C   UNL A   1      40.462  28.159  29.081  1.00  0.00     0.031 A 
ATOM     46  C   UNL A   1      39.573  29.318  28.947  1.00  0.00     0.074 A 
ATOM     47  C   UNL A   1      41.316  28.010  30.113  1.00  0.00     0.049 A 
ATOM     48  N   UNL A   1      39.712  30.413  29.600  1.00  0.00    -0.248 NA
ATOM     49  C   UNL A   1      38.444  29.326  28.025  1.00  0.00     0.031 C 
ATOM     50  C   UNL A   1      41.373  28.774  31.353  1.00  0.00     0.029 A 
ATOM     51  N   UNL A   1      42.461  27.222  30.146  1.00  0.00    -0.354 N 
ATOM     52  C   UNL A   1      38.568  31.155  29.407  1.00  0.00     0.074 A 
ATOM     53  C   UNL A   1      37.861  30.481  28.349  1.00  0.00     0.031 C 
ATOM     54  C   UNL A   1      42.581  28.602  31.918  1.00  0.00     0.029 A 
ATOM     55  C   UNL A   1      43.399  27.898  30.943  1.00  0.00     0.049 A 
ATOM     56  H   UNL A   1      42.590  26.355  29.697  1.00  0.00     0.167 HD
ATOM     57  C   UNL A   1      38.320  32.168  30.281  1.00  0.00     0.034 A 
ATOM     58  C   UNL A   1      44.520  28.426  30.362  1.00  0.00     0.034 A 
ATOM     59  C   UNL A   1      39.506  32.404  31.124  1.00  0.00     0.049 A 
ATOM     60  C   UNL A   1      44.604  29.940  30.461  1.00  0.00     0.074 A 
ATOM     61  C   UNL A   1      39.858  32.017  32.407  1.00  0.00     0.029 A 
ATOM     62  N   UNL A   1      40.673  32.859  30.517  1.00  0.00    -0.354 N 
ATOM     63  N   UNL A   1      43.603  30.722  30.768  1.00  0.00    -0.248 NA
ATOM     64  C   UNL A   1      45.840  30.690  30.264  1.00  0.00     0.031 C 
ATOM     65  C   UNL A   1      41.270  32.162  32.534  1.00  0.00     0.029 A 
ATOM     66  C   UNL A   1      41.767  32.672  31.346  1.00  0.00     0.049 A 
ATOM     67  H   UNL A   1      40.715  33.259  29.619  1.00  0.00     0.167 HD
ATOM     68  C   UNL A   1      43.996  32.036  30.738  1.00  0.00     0.074 A 
ATOM     69  C   UNL A   1      45.426  31.952  30.480  1.00  0.00     0.031 C 
ATOM     70  C   UNL A   1      43.101  33.067  30.896  1.00  0.00     0.034 A 
BRANCH  57  71
ATOM     71  C   UNL A   1      36.963  32.792  30.572  1.00  0.00     0.023 A 
ATOM     72  C   UNL A   1      36.452  32.616  31.879  1.00  0.00     0.012 A 
ATOM     73  C   UNL A   1      36.100  33.454  29.665  1.00  0.00     0.148 A 
ATOM     74  C   UNL A   1      35.158  33.003  32.245  1.00  0.00     0.002 A 
ATOM     75  C   UNL A   1      34.800  33.829  30.021  1.00  0.00     0.091 A 
ATOM     76  F   UNL A   1      36.516  33.758  28.439  1.00  0.00    -0.205 F 
ATOM     77  C   UNL A   1      34.324  33.596  31.312  1.00  0.00     0.022 A 
BRANCH  75  78
ATOM     78  S   UNL A   1      33.651  34.592  28.858  1.00  0.00     0.127 S 
ATOM     79  O   UNL A   1      32.558  35.011  29.739  1.00  0.00    -0.237 OA
ATOM     80  O   UNL A   1      34.443  35.693  28.310  1.00  0.00    -0.237 OA
ATOM     81  O   UNL A   1      33.283  33.561  27.896  1.00  0.00    -0.744 OA
ENDBRANCH  75  78
ENDBRANCH  57  71
BRANCH  58  82
ATOM     82  C   UNL A   1      45.013  27.581  29.223  1.00  0.00     0.023 A 
ATOM     83  C   UNL A   1      45.384  26.249  29.547  1.00  0.00     0.012 A 
ATOM     84  C   UNL A   1      44.713  27.890  27.884  1.00  0.00     0.148 A 
ATOM     85  C   UNL A   1      45.269  25.223  28.608  1.00  0.00     0.002 A 
ATOM     86  C   UNL A   1      44.630  26.860  26.943  1.00  0.00     0.091 A 
ATOM     87  F   UNL A   1      44.457  29.163  27.559  1.00  0.00    -0.205 F 
ATOM     88  C   UNL A   1      44.853  25.524  27.317  1.00  0.00     0.022 A 
BRANCH  86  89
ATOM     89  S   UNL A   1      44.133  27.166  25.241  1.00  0.00     0.127 S 
ATOM     90  O   UNL A   1      43.612  25.860  24.849  1.00  0.00    -0.237 OA
ATOM     91  O   UNL A   1      43.117  28.209  25.383  1.00  0.00    -0.237 OA
ATOM     92  O   UNL A   1      45.344  27.605  24.564  1.00  0.00    -0.744 OA
ENDBRANCH  86  89
ENDBRANCH  58  82
BRANCH  70  93
ATOM     93  C   UNL A   1      43.364  34.549  30.637  1.00  0.00     0.023 A 
ATOM     94  C   UNL A   1      43.701  35.457  31.657  1.00  0.00     0.012 A 
ATOM     95  C   UNL A   1      43.420  35.062  29.308  1.00  0.00     0.148 A 
ATOM     96  C   UNL A   1      44.034  36.793  31.393  1.00  0.00     0.002 A 
ATOM     97  C   UNL A   1      43.870  36.353  29.042  1.00  0.00     0.091 A 
ATOM     98  F   UNL A   1      43.006  34.311  28.277  1.00  0.00    -0.205 F 
ATOM     99  C   UNL A   1      44.150  37.234  30.084  1.00  0.00     0.022 A 
BRANCH  97 100
ATOM    100  S   UNL A   1      44.264  36.873  27.365  1.00  0.00     0.127 S 
ATOM    101  O   UNL A   1      44.762  38.231  27.577  1.00  0.00    -0.237 OA
ATOM    102  O   UNL A   1      45.289  35.904  26.969  1.00  0.00    -0.237 OA
ATOM    103  O   UNL A   1      43.015  36.753  26.626  1.00  0.00    -0.744 OA
ENDBRANCH  97 100
ENDBRANCH  70  93
ENDBRANCH  44  45
ENDBRANCH  36  39
ENDBRANCH  34  35
ENDBRANCH  33  34
ENDBRANCH   1  33
TORSDOF 19
ENDMDL
MODEL 2
REMARK VINA RESULT:     -12.8      4.123      9.889
REMARK SMILES Cc1cccc(OC2(C(=O)NCCCCCCNC(=O)c3ccc(-c4c5nc(c(-c6cccc(S(=O)(=O)[O-])c6F)c6ccc([nH]6)c(-c6cccc(S(=O)(=O)[O-])c6F)c6nc(c(-c7cccc(S(=O)(=O)[O-])c7F)c7ccc4[nH]7)C=C6)C=C5)cc3)CCN(C(=O)c3cnc[nH]c3=O)CC2)c1
REMARK SMILES IDX 15 1 14 2 13 3 12 4 11 5 9 6 10 7 8 9 84 10 97 11 85 12
REMARK SMILES IDX 96 13 86 14 87 15 88 16 7 17 6 18 1 19 2 20 3 21 98 22 4 23
REMARK SMILES IDX 5 24 89 25 90 26 94 27 91 28 93 29 95 30 92 31 16 33 17 34
REMARK SMILES IDX 18 35 19 36 20 38 21 39 22 40 83 41 23 42 82 43 24 44 25 45
REMARK SMILES IDX 26 46 76 47 27 48 81 49 75 50 77 51 28 52 80 53 74 54 73 55
REMARK SMILES IDX 29 57 61 58 41 59 60 60 42 61 45 62 59 63 78 64 43 65 44 66
REMARK SMILES IDX 58 68 79 69 46 70 30 71 31 72 39 73 32 74 34 75 40 76 33 77
REMARK SMILES IDX 35 78 36 79 37 80 38 81 62 82 63 83 71 84 64 85 66 86 72 87
REMARK SMILES IDX 65 88 67 89 68 90 69 91 70 92 47 93 48 94 56 95 49 96 51 97
REMARK SMILES IDX 57 98 50 99 52 100 53 101 54 102 55 103
REMARK H PARENT 11 8 93 32 18 37 77 56 45 67
REMARK Flexibility Score: inf
ROOT
ATOM      1  C   UNL A   1      33.864  28.739  25.916  1.00  0.00     0.002 C 
ENDROOT
BRANCH   1   2
ATOM      2  C   UNL A   1      33.308  27.935  24.742  1.00  0.00     0.002 C 
BRANCH   2   3
ATOM      3  C   UNL A   1      33.886  26.536  24.553  1.00  0.00     0.021 C 
BRANCH   3   4
ATOM      4  C   UNL A   1      34.143  25.715  25.830  1.00  0.00     0.116 C 
BRANCH   4   5
ATOM      5  N   UNL A   1      32.935  25.231  26.474  1.00  0.00    -0.353 N 
ATOM      6  C   UNL A   1      32.133  24.146  26.264  1.00  0.00     0.264 C 
ATOM      7  O   UNL A   1      31.323  23.931  27.178  1.00  0.00    -0.270 OA
ATOM      8  H   UNL A   1      32.632  25.802  27.216  1.00  0.00     0.163 HD
BRANCH   6   9
ATOM      9  C   UNL A   1      32.224  23.193  25.017  1.00  0.00     0.190 C 
ATOM     10  C   UNL A   1      33.654  23.100  24.465  1.00  0.00     0.080 C 
ATOM     11  C   UNL A   1      31.716  21.788  25.433  1.00  0.00     0.080 C 
ATOM     12  C   UNL A   1      33.931  21.962  23.501  1.00  0.00     0.124 C 
ATOM     13  C   UNL A   1      31.968  20.767  24.315  1.00  0.00     0.124 C 
ATOM     14  N   UNL A   1      33.397  20.734  24.047  1.00  0.00    -0.338 N 
ATOM     15  C   UNL A   1      34.239  19.834  24.673  1.00  0.00     0.261 C 
ATOM     16  O   UNL A   1      35.264  20.169  25.261  1.00  0.00    -0.269 OA
BRANCH   9  17
ATOM     17  O   UNL A   1      31.169  23.656  24.143  1.00  0.00    -0.477 OA
BRANCH  17  18
ATOM     18  C   UNL A   1      30.990  24.801  23.454  1.00  0.00     0.121 A 
ATOM     19  C   UNL A   1      29.510  28.296  23.524  1.00  0.00     0.044 C 
ATOM     20  C   UNL A   1      30.281  27.095  23.056  1.00  0.00    -0.047 A 
ATOM     21  C   UNL A   1      31.073  27.155  21.909  1.00  0.00     0.003 A 
ATOM     22  C   UNL A   1      30.225  25.904  23.795  1.00  0.00     0.049 A 
ATOM     23  C   UNL A   1      31.802  26.038  21.515  1.00  0.00     0.004 A 
ATOM     24  C   UNL A   1      31.765  24.876  22.290  1.00  0.00     0.046 A 
ENDBRANCH  17  18
ENDBRANCH   9  17
BRANCH  15  25
ATOM     25  C   UNL A   1      33.823  18.423  24.587  1.00  0.00     0.123 A 
ATOM     26  C   UNL A   1      34.261  17.647  23.585  1.00  0.00     0.132 A 
ATOM     27  C   UNL A   1      32.905  17.808  25.565  1.00  0.00     0.263 A 
ATOM     28  N   UNL A   1      33.954  16.315  23.424  1.00  0.00    -0.246 NA
ATOM     29  N   UNL A   1      32.587  16.503  25.317  1.00  0.00    -0.312 N 
ATOM     30  O   UNL A   1      32.459  18.391  26.547  1.00  0.00    -0.269 OA
ATOM     31  C   UNL A   1      33.127  15.811  24.275  1.00  0.00     0.199 A 
ATOM     32  H   UNL A   1      31.948  16.047  25.912  1.00  0.00     0.171 HD
ENDBRANCH  15  25
ENDBRANCH   6   9
ENDBRANCH   4   5
ENDBRANCH   3   4
ENDBRANCH   2   3
ENDBRANCH   1   2
BRANCH   1  33
ATOM     33  C   UNL A   1      33.232  30.112  26.135  1.00  0.00     0.021 C 
BRANCH  33  34
ATOM     34  C   UNL A   1      33.213  30.558  27.584  1.00  0.00     0.116 C 
BRANCH  34  35
ATOM     35  N   UNL A   1      34.198  31.589  27.815  1.00  0.00    -0.352 N 
ATOM     36  C   UNL A   1      35.375  31.550  28.539  1.00  0.00     0.251 C 
ATOM     37  H   UNL A   1      34.001  32.454  27.388  1.00  0.00     0.163 HD
ATOM     38  O   UNL A   1      35.811  32.595  28.976  1.00  0.00    -0.269 OA
BRANCH  36  39
ATOM     39  C   UNL A   1      36.187  30.300  28.547  1.00  0.00     0.039 A 
ATOM     40  C   UNL A   1      36.354  29.707  29.807  1.00  0.00     0.014 A 
ATOM     41  C   UNL A   1      37.056  29.982  27.511  1.00  0.00     0.014 A 
ATOM     42  C   UNL A   1      37.549  29.070  30.109  1.00  0.00     0.010 A 
ATOM     43  C   UNL A   1      38.278  29.452  27.829  1.00  0.00     0.010 A 
ATOM     44  C   UNL A   1      38.544  29.076  29.149  1.00  0.00    -0.014 A 
BRANCH  44  45
ATOM     45  C   UNL A   1      39.913  28.663  29.361  1.00  0.00     0.031 A 
ATOM     46  C   UNL A   1      40.255  27.266  29.073  1.00  0.00     0.074 A 
ATOM     47  C   UNL A   1      40.843  29.634  29.468  1.00  0.00     0.049 A 
ATOM     48  N   UNL A   1      41.433  26.774  29.183  1.00  0.00    -0.248 NA
ATOM     49  C   UNL A   1      39.254  26.297  28.645  1.00  0.00     0.031 C 
ATOM     50  C   UNL A   1      42.254  29.574  29.110  1.00  0.00     0.029 A 
ATOM     51  N   UNL A   1      40.710  30.851  30.127  1.00  0.00    -0.354 N 
ATOM     52  C   UNL A   1      41.417  25.529  28.593  1.00  0.00     0.074 A 
ATOM     53  C   UNL A   1      40.024  25.244  28.365  1.00  0.00     0.031 C 
ATOM     54  C   UNL A   1      42.906  30.569  29.734  1.00  0.00     0.029 A 
ATOM     55  C   UNL A   1      41.966  31.157  30.675  1.00  0.00     0.049 A 
ATOM     56  H   UNL A   1      39.893  31.395  30.196  1.00  0.00     0.167 HD
ATOM     57  C   UNL A   1      42.614  24.977  28.255  1.00  0.00     0.034 A 
ATOM     58  C   UNL A   1      42.131  31.137  32.034  1.00  0.00     0.034 A 
ATOM     59  C   UNL A   1      43.712  25.764  28.844  1.00  0.00     0.049 A 
ATOM     60  C   UNL A   1      43.118  30.085  32.514  1.00  0.00     0.074 A 
ATOM     61  C   UNL A   1      44.559  26.741  28.347  1.00  0.00     0.029 A 
ATOM     62  N   UNL A   1      43.827  25.813  30.229  1.00  0.00    -0.354 N 
ATOM     63  N   UNL A   1      43.544  29.082  31.794  1.00  0.00    -0.248 NA
ATOM     64  C   UNL A   1      43.737  30.110  33.835  1.00  0.00     0.031 C 
ATOM     65  C   UNL A   1      45.119  27.438  29.457  1.00  0.00     0.029 A 
ATOM     66  C   UNL A   1      44.642  26.862  30.623  1.00  0.00     0.049 A 
ATOM     67  H   UNL A   1      43.387  25.186  30.848  1.00  0.00     0.167 HD
ATOM     68  C   UNL A   1      44.398  28.296  32.526  1.00  0.00     0.074 A 
ATOM     69  C   UNL A   1      44.532  29.025  33.778  1.00  0.00     0.031 C 
ATOM     70  C   UNL A   1      44.885  27.106  32.044  1.00  0.00     0.034 A 
BRANCH  57  71
ATOM     71  C   UNL A   1      42.840  23.895  27.210  1.00  0.00     0.023 A 
ATOM     72  C   UNL A   1      43.458  24.300  26.004  1.00  0.00     0.012 A 
ATOM     73  C   UNL A   1      42.425  22.542  27.257  1.00  0.00     0.148 A 
ATOM     74  C   UNL A   1      43.594  23.451  24.900  1.00  0.00     0.002 A 
ATOM     75  C   UNL A   1      42.545  21.693  26.151  1.00  0.00     0.091 A 
ATOM     76  F   UNL A   1      41.921  22.030  28.377  1.00  0.00    -0.205 F 
ATOM     77  C   UNL A   1      43.123  22.150  24.966  1.00  0.00     0.022 A 
BRANCH  75  78
ATOM     78  S   UNL A   1      41.941  19.993  26.157  1.00  0.00     0.127 S 
ATOM     79  O   UNL A   1      42.691  19.399  25.048  1.00  0.00    -0.237 OA
ATOM     80  O   UNL A   1      42.345  19.521  27.481  1.00  0.00    -0.237 OA
ATOM     81  O   UNL A   1      40.502  20.058  25.940  1.00  0.00    -0.744 OA
ENDBRANCH  75  78
ENDBRANCH  57  71
BRANCH  58  82
ATOM     82  C   UNL A   1      40.896  31.592  32.756  1.00  0.00     0.023 A 
ATOM     83  C   UNL A   1      40.027  30.568  33.216  1.00  0.00     0.012 A 
ATOM     84  C   UNL A   1      40.807  32.866  33.347  1.00  0.00     0.148 A 
ATOM     85  C   UNL A   1      39.237  30.752  34.352  1.00  0.00     0.002 A 
ATOM     86  C   UNL A   1      39.990  33.050  34.465  1.00  0.00     0.091 A 
ATOM     87  F   UNL A   1      41.557  33.858  32.851  1.00  0.00    -0.205 F 
ATOM     88  C   UNL A   1      39.250  31.982  35.000  1.00  0.00     0.022 A 
BRANCH  86  89
ATOM     89  S   UNL A   1      39.921  34.619  35.343  1.00  0.00     0.127 S 
ATOM     90  O   UNL A   1      39.344  35.497  34.328  1.00  0.00    -0.237 OA
ATOM     91  O   UNL A   1      39.033  34.323  36.467  1.00  0.00    -0.237 OA
ATOM     92  O   UNL A   1      41.295  34.900  35.730  1.00  0.00    -0.744 OA
ENDBRANCH  86  89
ENDBRANCH  58  82
BRANCH  70  93
ATOM     93  C   UNL A   1      45.628  26.035  32.842  1.00  0.00     0.023 A 
ATOM     94  C   UNL A   1      47.030  25.992  32.947  1.00  0.00     0.012 A 
ATOM     95  C   UNL A   1      44.917  25.097  33.646  1.00  0.00     0.148 A 
ATOM     96  C   UNL A   1      47.694  25.063  33.760  1.00  0.00     0.002 A 
ATOM     97  C   UNL A   1      45.576  24.260  34.545  1.00  0.00     0.091 A 
ATOM     98  F   UNL A   1      43.587  24.979  33.531  1.00  0.00    -0.205 F 
ATOM     99  C   UNL A   1      46.967  24.217  34.583  1.00  0.00     0.022 A 
BRANCH  97 100
ATOM    100  S   UNL A   1      44.665  23.334  35.791  1.00  0.00     0.127 S 
ATOM    101  O   UNL A   1      43.882  22.411  34.972  1.00  0.00    -0.237 OA
ATOM    102  O   UNL A   1      45.740  22.704  36.560  1.00  0.00    -0.237 OA
ATOM    103  O   UNL A   1      43.912  24.336  36.533  1.00  0.00    -0.744 OA
ENDBRANCH  97 100
ENDBRANCH  70  93
ENDBRANCH  44  45
ENDBRANCH  36  39
ENDBRANCH  34  35
ENDBRANCH  33  34
ENDBRANCH   1  33
TORSDOF 19
ENDMDL
MODEL 3
REMARK VINA RESULT:     -12.3      3.692      5.175
REMARK SMILES Cc1cccc(OC2(C(=O)NCCCCCCNC(=O)c3ccc(-c4c5nc(c(-c6cccc(S(=O)(=O)[O-])c6F)c6ccc([nH]6)c(-c6cccc(S(=O)(=O)[O-])c6F)c6nc(c(-c7cccc(S(=O)(=O)[O-])c7F)c7ccc4[nH]7)C=C6)C=C5)cc3)CCN(C(=O)c3cnc[nH]c3=O)CC2)c1
REMARK SMILES IDX 15 1 14 2 13 3 12 4 11 5 9 6 10 7 8 9 84 10 97 11 85 12
REMARK SMILES IDX 96 13 86 14 87 15 88 16 7 17 6 18 1 19 2 20 3 21 98 22 4 23
REMARK SMILES IDX 5 24 89 25 90 26 94 27 91 28 93 29 95 30 92 31 16 33 17 34
REMARK SMILES IDX 18 35 19 36 20 38 21 39 22 40 83 41 23 42 82 43 24 44 25 45
REMARK SMILES IDX 26 46 76 47 27 48 81 49 75 50 77 51 28 52 80 53 74 54 73 55
REMARK SMILES IDX 29 57 61 58 41 59 60 60 42 61 45 62 59 63 78 64 43 65 44 66
REMARK SMILES IDX 58 68 79 69 46 70 30 71 31 72 39 73 32 74 34 75 40 76 33 77
REMARK SMILES IDX 35 78 36 79 37 80 38 81 62 82 63 83 71 84 64 85 66 86 72 87
REMARK SMILES IDX 65 88 67 89 68 90 69 91 70 92 47 93 48 94 56 95 49 96 51 97
REMARK SMILES IDX 57 98 50 99 52 100 53 101 54 102 55 103
REMARK H PARENT 11 8 93 32 18 37 77 56 45 67
REMARK Flexibility Score: inf
ROOT
ATOM      1  C   UNL A   1      39.319  22.143  26.430  1.00  0.00     0.002 C 
ENDROOT
BRANCH   1   2
ATOM      2  C   UNL A   1      38.277  21.443  25.558  1.00  0.00     0.002 C 
BRANCH   2   3
ATOM      3  C   UNL A   1      37.291  22.353  24.831  1.00  0.00     0.021 C 
BRANCH   3   4
ATOM      4  C   UNL A   1      36.558  23.403  25.685  1.00  0.00     0.116 C 
BRANCH   4   5
ATOM      5  N   UNL A   1      35.715  22.837  26.723  1.00  0.00    -0.353 N 
ATOM      6  C   UNL A   1      34.405  22.458  26.761  1.00  0.00     0.264 C 
ATOM      7  O   UNL A   1      34.101  21.784  27.756  1.00  0.00    -0.270 OA
ATOM      8  H   UNL A   1      36.187  22.696  27.576  1.00  0.00     0.163 HD
BRANCH   6   9
ATOM      9  C   UNL A   1      33.348  22.777  25.642  1.00  0.00     0.190 C 
ATOM     10  C   UNL A   1      31.907  22.615  26.146  1.00  0.00     0.080 C 
ATOM     11  C   UNL A   1      33.582  24.227  25.141  1.00  0.00     0.080 C 
ATOM     12  C   UNL A   1      30.818  23.222  25.282  1.00  0.00     0.124 C 
ATOM     13  C   UNL A   1      32.457  24.662  24.192  1.00  0.00     0.124 C 
ATOM     14  N   UNL A   1      31.197  24.568  24.913  1.00  0.00    -0.338 N 
ATOM     15  C   UNL A   1      30.659  25.646  25.592  1.00  0.00     0.261 C 
ATOM     16  O   UNL A   1      30.306  25.593  26.767  1.00  0.00    -0.269 OA
BRANCH   9  17
ATOM     17  O   UNL A   1      33.782  21.987  24.511  1.00  0.00    -0.477 OA
BRANCH  17  18
ATOM     18  C   UNL A   1      33.573  20.702  24.160  1.00  0.00     0.121 A 
ATOM     19  C   UNL A   1      34.384  17.075  24.929  1.00  0.00     0.044 C 
ATOM     20  C   UNL A   1      33.741  18.279  24.303  1.00  0.00    -0.047 A 
ATOM     21  C   UNL A   1      32.679  18.138  23.409  1.00  0.00     0.003 A 
ATOM     22  C   UNL A   1      34.195  19.562  24.640  1.00  0.00     0.049 A 
ATOM     23  C   UNL A   1      32.079  19.271  22.868  1.00  0.00     0.004 A 
ATOM     24  C   UNL A   1      32.520  20.540  23.251  1.00  0.00     0.046 A 
ENDBRANCH  17  18
ENDBRANCH   9  17
BRANCH  15  25
ATOM     25  C   UNL A   1      30.532  26.883  24.800  1.00  0.00     0.123 A 
ATOM     26  C   UNL A   1      31.402  27.889  24.972  1.00  0.00     0.132 A 
ATOM     27  C   UNL A   1      29.452  27.085  23.815  1.00  0.00     0.263 A 
ATOM     28  N   UNL A   1      31.389  29.074  24.271  1.00  0.00    -0.246 NA
ATOM     29  N   UNL A   1      29.453  28.304  23.199  1.00  0.00    -0.312 N 
ATOM     30  O   UNL A   1      28.613  26.236  23.535  1.00  0.00    -0.269 OA
ATOM     31  C   UNL A   1      30.418  29.236  23.439  1.00  0.00     0.199 A 
ATOM     32  H   UNL A   1      28.736  28.515  22.559  1.00  0.00     0.171 HD
ENDBRANCH  15  25
ENDBRANCH   6   9
ENDBRANCH   4   5
ENDBRANCH   3   4
ENDBRANCH   2   3
ENDBRANCH   1   2
BRANCH   1  33
ATOM     33  C   UNL A   1      40.642  21.400  26.603  1.00  0.00     0.021 C 
BRANCH  33  34
ATOM     34  C   UNL A   1      41.798  22.014  25.837  1.00  0.00     0.116 C 
BRANCH  34  35
ATOM     35  N   UNL A   1      42.769  21.005  25.482  1.00  0.00    -0.352 N 
ATOM     36  C   UNL A   1      44.080  21.139  25.063  1.00  0.00     0.251 C 
ATOM     37  H   UNL A   1      42.448  20.078  25.550  1.00  0.00     0.163 HD
ATOM     38  O   UNL A   1      44.563  20.242  24.403  1.00  0.00    -0.269 OA
BRANCH  36  39
ATOM     39  C   UNL A   1      44.921  22.231  25.631  1.00  0.00     0.039 A 
ATOM     40  C   UNL A   1      44.970  22.275  27.033  1.00  0.00     0.014 A 
ATOM     41  C   UNL A   1      45.267  23.353  24.890  1.00  0.00     0.014 A 
ATOM     42  C   UNL A   1      45.045  23.502  27.675  1.00  0.00     0.010 A 
ATOM     43  C   UNL A   1      45.234  24.575  25.509  1.00  0.00     0.010 A 
ATOM     44  C   UNL A   1      45.039  24.642  26.892  1.00  0.00    -0.014 A 
BRANCH  44  45
ATOM     45  C   UNL A   1      44.890  25.993  27.384  1.00  0.00     0.031 A 
ATOM     46  C   UNL A   1      43.559  26.604  27.301  1.00  0.00     0.074 A 
ATOM     47  C   UNL A   1      45.863  26.470  28.186  1.00  0.00     0.049 A 
ATOM     48  N   UNL A   1      43.277  27.779  27.729  1.00  0.00    -0.248 NA
ATOM     49  C   UNL A   1      42.427  25.915  26.694  1.00  0.00     0.031 C 
ATOM     50  C   UNL A   1      45.751  27.464  29.245  1.00  0.00     0.029 A 
ATOM     51  N   UNL A   1      47.232  26.266  28.054  1.00  0.00    -0.354 N 
ATOM     52  C   UNL A   1      41.906  27.905  27.714  1.00  0.00     0.074 A 
ATOM     53  C   UNL A   1      41.436  26.762  26.975  1.00  0.00     0.031 C 
ATOM     54  C   UNL A   1      46.972  27.955  29.516  1.00  0.00     0.029 A 
ATOM     55  C   UNL A   1      47.863  27.443  28.487  1.00  0.00     0.049 A 
ATOM     56  H   UNL A   1      47.675  25.452  27.721  1.00  0.00     0.167 HD
ATOM     57  C   UNL A   1      41.356  28.900  28.462  1.00  0.00     0.034 A 
ATOM     58  C   UNL A   1      48.513  28.233  27.576  1.00  0.00     0.034 A 
ATOM     59  C   UNL A   1      42.414  29.807  28.942  1.00  0.00     0.049 A 
ATOM     60  C   UNL A   1      47.905  29.617  27.425  1.00  0.00     0.074 A 
ATOM     61  C   UNL A   1      43.095  29.927  30.143  1.00  0.00     0.029 A 
ATOM     62  N   UNL A   1      43.133  30.545  28.008  1.00  0.00    -0.354 N 
ATOM     63  N   UNL A   1      46.718  29.959  27.847  1.00  0.00    -0.248 NA
ATOM     64  C   UNL A   1      48.613  30.742  26.821  1.00  0.00     0.031 C 
ATOM     65  C   UNL A   1      44.283  30.675  29.897  1.00  0.00     0.029 A 
ATOM     66  C   UNL A   1      44.303  31.040  28.561  1.00  0.00     0.049 A 
ATOM     67  H   UNL A   1      42.849  30.695  27.077  1.00  0.00     0.167 HD
ATOM     68  C   UNL A   1      46.453  31.266  27.527  1.00  0.00     0.074 A 
ATOM     69  C   UNL A   1      47.703  31.726  26.941  1.00  0.00     0.031 C 
ATOM     70  C   UNL A   1      45.220  31.833  27.744  1.00  0.00     0.034 A 
BRANCH  57  71
ATOM     71  C   UNL A   1      39.926  28.951  28.979  1.00  0.00     0.023 A 
ATOM     72  C   UNL A   1      38.907  29.093  28.009  1.00  0.00     0.012 A 
ATOM     73  C   UNL A   1      39.490  28.964  30.327  1.00  0.00     0.148 A 
ATOM     74  C   UNL A   1      37.565  29.304  28.345  1.00  0.00     0.002 A 
ATOM     75  C   UNL A   1      38.153  29.188  30.669  1.00  0.00     0.091 A 
ATOM     76  F   UNL A   1      40.352  28.740  31.315  1.00  0.00    -0.205 F 
ATOM     77  C   UNL A   1      37.188  29.367  29.676  1.00  0.00     0.022 A 
BRANCH  75  78
ATOM     78  S   UNL A   1      37.588  29.299  32.379  1.00  0.00     0.127 S 
ATOM     79  O   UNL A   1      38.514  30.286  32.942  1.00  0.00    -0.237 OA
ATOM     80  O   UNL A   1      36.215  29.777  32.225  1.00  0.00    -0.237 OA
ATOM     81  O   UNL A   1      37.715  27.965  32.950  1.00  0.00    -0.744 OA
ENDBRANCH  75  78
ENDBRANCH  57  71
BRANCH  58  82
ATOM     82  C   UNL A   1      49.160  27.422  26.490  1.00  0.00     0.023 A 
ATOM     83  C   UNL A   1      48.684  27.648  25.173  1.00  0.00     0.012 A 
ATOM     84  C   UNL A   1      50.427  26.833  26.657  1.00  0.00     0.148 A 
ATOM     85  C   UNL A   1      49.518  27.475  24.067  1.00  0.00     0.002 A 
ATOM     86  C   UNL A   1      51.245  26.635  25.541  1.00  0.00     0.091 A 
ATOM     87  F   UNL A   1      50.838  26.531  27.895  1.00  0.00    -0.205 F 
ATOM     88  C   UNL A   1      50.812  27.007  24.257  1.00  0.00     0.022 A 
BRANCH  86  89
ATOM     89  S   UNL A   1      52.921  26.000  25.693  1.00  0.00     0.127 S 
ATOM     90  O   UNL A   1      53.491  26.367  24.400  1.00  0.00    -0.237 OA
ATOM     91  O   UNL A   1      53.452  26.754  26.829  1.00  0.00    -0.237 OA
ATOM     92  O   UNL A   1      52.767  24.575  25.947  1.00  0.00    -0.744 OA
ENDBRANCH  86  89
ENDBRANCH  58  82
BRANCH  70  93
ATOM     93  C   UNL A   1      44.729  33.178  27.210  1.00  0.00     0.023 A 
ATOM     94  C   UNL A   1      44.167  33.336  25.931  1.00  0.00     0.012 A 
ATOM     95  C   UNL A   1      44.688  34.328  28.051  1.00  0.00     0.148 A 
ATOM     96  C   UNL A   1      43.633  34.555  25.490  1.00  0.00     0.002 A 
ATOM     97  C   UNL A   1      44.046  35.500  27.654  1.00  0.00     0.091 A 
ATOM     98  F   UNL A   1      45.300  34.316  29.244  1.00  0.00    -0.205 F 
ATOM     99  C   UNL A   1      43.543  35.629  26.362  1.00  0.00     0.022 A 
BRANCH  97 100
ATOM    100  S   UNL A   1      43.698  36.814  28.833  1.00  0.00     0.127 S 
ATOM    101  O   UNL A   1      43.072  36.079  29.931  1.00  0.00    -0.237 OA
ATOM    102  O   UNL A   1      45.036  37.330  29.131  1.00  0.00    -0.237 OA
ATOM    103  O   UNL A   1      42.845  37.752  28.116  1.00  0.00    -0.744 OA
ENDBRANCH  97 100
ENDBRANCH  70  93
ENDBRANCH  44  45
ENDBRANCH  36  39
ENDBRANCH  34  35
ENDBRANCH  33  34
ENDBRANCH   1  33
TORSDOF 19
ENDMDL
