MODEL 1
REMARK VINA RESULT:     -12.3      0.000      0.000
REMARK SMILES Cc1nc2n(n1)[C@@H](c1ccc([N+](=O)[O-])o1)CC(C(=O)NCCCCCCNC(=O)c1ccc(-c3c4nc(c(-c5cccc(S(=O)(=O)[O-])c5F)c5ccc([nH]5)c(-c5cccc(S(=O)(=O)[O-])c5F)c5nc(c(-c6cccc(S(=O)(=O)[O-])c6F)c6ccc3[nH]6)C=C5)C=C4)cc1)=N2
REMARK SMILES IDX 24 1 23 2 22 3 21 4 20 5 18 6 19 7 17 9 1 10 2 11 3 12 6 13
REMARK SMILES IDX 4 14 5 15 93 16 7 17 16 18 8 19 9 20 15 21 10 22 11 23 12 24
REMARK SMILES IDX 13 25 14 26 25 27 26 28 27 29 28 30 29 32 30 33 31 34 92 35
REMARK SMILES IDX 32 36 91 37 33 38 34 39 35 40 85 41 36 42 90 43 84 44 86 45
REMARK SMILES IDX 37 46 89 47 83 48 82 49 38 51 70 52 50 53 69 54 51 55 54 56
REMARK SMILES IDX 68 57 87 58 52 59 53 60 67 62 88 63 55 64 39 65 40 66 48 67
REMARK SMILES IDX 41 68 43 69 49 70 42 71 44 72 45 73 46 74 47 75 71 76 72 77
REMARK SMILES IDX 80 78 73 79 75 80 81 81 74 82 76 83 77 84 78 85 79 86 56 87
REMARK SMILES IDX 57 88 65 89 58 90 60 91 66 92 59 93 61 94 62 95 63 96 64 97
REMARK H PARENT 20 8 27 31 86 50 54 61
REMARK Flexibility Score: inf
ROOT
ATOM      1  C   UNL A   1      31.893  29.595  26.103  1.00  0.00     0.002 C 
ENDROOT
BRANCH   1   2
ATOM      2  C   UNL A   1      30.982  29.628  24.867  1.00  0.00     0.002 C 
BRANCH   2   3
ATOM      3  C   UNL A   1      31.509  28.869  23.640  1.00  0.00     0.021 C 
BRANCH   3   4
ATOM      4  C   UNL A   1      33.028  28.668  23.636  1.00  0.00     0.116 C 
BRANCH   4   5
ATOM      5  N   UNL A   1      33.435  27.638  22.692  1.00  0.00    -0.351 N 
ATOM      6  C   UNL A   1      33.535  26.268  22.705  1.00  0.00     0.265 C 
ATOM      7  O   UNL A   1      33.931  25.733  21.670  1.00  0.00    -0.268 OA
ATOM      8  H   UNL A   1      33.709  28.018  21.826  1.00  0.00     0.163 HD
BRANCH   6   9
ATOM      9  C   UNL A   1      33.172  25.359  23.900  1.00  0.00     0.112 C 
ATOM     10  C   UNL A   1      29.386  22.771  27.463  1.00  0.00     0.092 C 
ATOM     11  C   UNL A   1      30.503  23.309  26.663  1.00  0.00     0.149 A 
ATOM     12  N   UNL A   1      30.305  24.097  25.559  1.00  0.00    -0.195 NA
ATOM     13  N   UNL A   1      31.784  23.063  26.956  1.00  0.00    -0.154 NA
ATOM     14  C   UNL A   1      31.520  24.353  25.121  1.00  0.00     0.249 A 
ATOM     15  N   UNL A   1      32.400  23.701  25.941  1.00  0.00    -0.219 N 
ATOM     16  N   UNL A   1      31.906  25.108  24.070  1.00  0.00    -0.211 NA
ATOM     17  C   UNL A   1      33.837  23.785  25.818  1.00  0.00     0.184 C 
ATOM     18  C   UNL A   1      34.253  24.874  24.825  1.00  0.00     0.098 C 
BRANCH  17  19
ATOM     19  C   UNL A   1      34.461  22.465  25.468  1.00  0.00     0.136 A 
ATOM     20  C   UNL A   1      35.749  21.969  25.352  1.00  0.00     0.056 A 
ATOM     21  O   UNL A   1      33.565  21.473  25.162  1.00  0.00    -0.404 OA
ATOM     22  C   UNL A   1      35.634  20.597  24.992  1.00  0.00     0.134 A 
ATOM     23  C   UNL A   1      34.285  20.350  24.911  1.00  0.00     0.433 A 
BRANCH  23  24
ATOM     24  N   UNL A   1      33.529  19.153  24.715  1.00  0.00     0.102 N 
ATOM     25  O   UNL A   1      34.183  18.115  24.578  1.00  0.00    -0.256 OA
ATOM     26  O   UNL A   1      32.296  19.247  24.806  1.00  0.00    -0.256 OA
ENDBRANCH  23  24
ENDBRANCH  17  19
ENDBRANCH   6   9
ENDBRANCH   4   5
ENDBRANCH   3   4
ENDBRANCH   2   3
ENDBRANCH   1   2
BRANCH   1  27
ATOM     27  C   UNL A   1      32.297  30.964  26.683  1.00  0.00     0.021 C 
BRANCH  27  28
ATOM     28  C   UNL A   1      33.698  31.028  27.318  1.00  0.00     0.116 C 
BRANCH  28  29
ATOM     29  N   UNL A   1      33.877  32.301  28.001  1.00  0.00    -0.352 N 
ATOM     30  C   UNL A   1      34.620  32.666  29.089  1.00  0.00     0.251 C 
ATOM     31  H   UNL A   1      33.364  33.040  27.604  1.00  0.00     0.163 HD
ATOM     32  O   UNL A   1      34.276  33.685  29.691  1.00  0.00    -0.269 OA
BRANCH  30  33
ATOM     33  C   UNL A   1      35.812  31.921  29.562  1.00  0.00     0.039 A 
ATOM     34  C   UNL A   1      35.860  31.592  30.927  1.00  0.00     0.014 A 
ATOM     35  C   UNL A   1      36.936  31.690  28.768  1.00  0.00     0.014 A 
ATOM     36  C   UNL A   1      36.996  31.003  31.486  1.00  0.00     0.010 A 
ATOM     37  C   UNL A   1      38.077  31.099  29.332  1.00  0.00     0.010 A 
ATOM     38  C   UNL A   1      38.110  30.728  30.689  1.00  0.00    -0.014 A 
BRANCH  38  39
ATOM     39  C   UNL A   1      39.202  29.919  31.290  1.00  0.00     0.031 A 
ATOM     40  C   UNL A   1      39.388  28.581  30.658  1.00  0.00     0.074 A 
ATOM     41  C   UNL A   1      40.325  30.450  31.828  1.00  0.00     0.049 A 
ATOM     42  N   UNL A   1      40.064  28.470  29.557  1.00  0.00    -0.248 NA
ATOM     43  C   UNL A   1      38.658  27.371  31.017  1.00  0.00     0.031 C 
ATOM     44  C   UNL A   1      40.931  31.709  31.376  1.00  0.00     0.029 A 
ATOM     45  N   UNL A   1      41.285  29.884  32.647  1.00  0.00    -0.354 N 
ATOM     46  C   UNL A   1      39.806  27.225  29.017  1.00  0.00     0.074 A 
ATOM     47  C   UNL A   1      38.943  26.567  29.974  1.00  0.00     0.031 C 
ATOM     48  C   UNL A   1      42.218  31.736  31.781  1.00  0.00     0.029 A 
ATOM     49  C   UNL A   1      42.483  30.591  32.646  1.00  0.00     0.049 A 
ATOM     50  H   UNL A   1      41.136  29.068  33.175  1.00  0.00     0.167 HD
ATOM     51  C   UNL A   1      40.339  26.850  27.821  1.00  0.00     0.034 A 
ATOM     52  C   UNL A   1      43.711  30.087  32.944  1.00  0.00     0.034 A 
ATOM     53  C   UNL A   1      41.273  27.769  27.182  1.00  0.00     0.049 A 
ATOM     54  C   UNL A   1      44.121  29.462  31.638  1.00  0.00     0.074 A 
ATOM     55  C   UNL A   1      41.747  28.028  25.909  1.00  0.00     0.029 A 
ATOM     56  N   UNL A   1      41.958  28.645  27.981  1.00  0.00    -0.354 N 
ATOM     57  N   UNL A   1      44.602  30.101  30.602  1.00  0.00    -0.248 NA
ATOM     58  C   UNL A   1      43.695  28.081  31.362  1.00  0.00     0.031 C 
ATOM     59  C   UNL A   1      42.888  28.891  26.041  1.00  0.00     0.029 A 
ATOM     60  C   UNL A   1      43.107  29.093  27.392  1.00  0.00     0.049 A 
ATOM     61  H   UNL A   1      41.658  28.921  28.877  1.00  0.00     0.167 HD
ATOM     62  C   UNL A   1      44.247  29.311  29.515  1.00  0.00     0.074 A 
ATOM     63  C   UNL A   1      43.837  28.027  30.043  1.00  0.00     0.031 C 
ATOM     64  C   UNL A   1      44.037  29.780  28.251  1.00  0.00     0.034 A 
BRANCH  51  65
ATOM     65  C   UNL A   1      40.234  25.473  27.254  1.00  0.00     0.023 A 
ATOM     66  C   UNL A   1      38.928  25.063  26.901  1.00  0.00     0.012 A 
ATOM     67  C   UNL A   1      41.272  24.524  27.244  1.00  0.00     0.148 A 
ATOM     68  C   UNL A   1      38.642  23.738  26.585  1.00  0.00     0.002 A 
ATOM     69  C   UNL A   1      40.979  23.194  26.923  1.00  0.00     0.091 A 
ATOM     70  F   UNL A   1      42.504  24.915  27.595  1.00  0.00    -0.205 F 
ATOM     71  C   UNL A   1      39.667  22.802  26.604  1.00  0.00     0.022 A 
BRANCH  69  72
ATOM     72  S   UNL A   1      42.213  21.883  26.926  1.00  0.00     0.127 S 
ATOM     73  O   UNL A   1      41.524  20.816  27.658  1.00  0.00    -0.237 OA
ATOM     74  O   UNL A   1      42.380  21.619  25.493  1.00  0.00    -0.237 OA
ATOM     75  O   UNL A   1      43.386  22.433  27.576  1.00  0.00    -0.744 OA
ENDBRANCH  69  72
ENDBRANCH  51  65
BRANCH  52  76
ATOM     76  C   UNL A   1      43.879  29.448  34.291  1.00  0.00     0.023 A 
ATOM     77  C   UNL A   1      44.847  30.033  35.148  1.00  0.00     0.012 A 
ATOM     78  C   UNL A   1      43.202  28.314  34.770  1.00  0.00     0.148 A 
ATOM     79  C   UNL A   1      45.050  29.581  36.455  1.00  0.00     0.002 A 
ATOM     80  C   UNL A   1      43.352  27.910  36.098  1.00  0.00     0.091 A 
ATOM     81  F   UNL A   1      42.428  27.613  33.935  1.00  0.00    -0.205 F 
ATOM     82  C   UNL A   1      44.275  28.540  36.943  1.00  0.00     0.022 A 
BRANCH  80  83
ATOM     83  S   UNL A   1      42.319  26.639  36.843  1.00  0.00     0.127 S 
ATOM     84  O   UNL A   1      42.452  25.540  35.889  1.00  0.00    -0.237 OA
ATOM     85  O   UNL A   1      42.997  26.431  38.121  1.00  0.00    -0.237 OA
ATOM     86  O   UNL A   1      40.987  27.218  36.940  1.00  0.00    -0.744 OA
ENDBRANCH  80  83
ENDBRANCH  52  76
BRANCH  64  87
ATOM     87  C   UNL A   1      44.679  31.061  27.857  1.00  0.00     0.023 A 
ATOM     88  C   UNL A   1      45.922  31.000  27.195  1.00  0.00     0.012 A 
ATOM     89  C   UNL A   1      44.054  32.308  28.039  1.00  0.00     0.148 A 
ATOM     90  C   UNL A   1      46.537  32.153  26.718  1.00  0.00     0.002 A 
ATOM     91  C   UNL A   1      44.663  33.455  27.543  1.00  0.00     0.091 A 
ATOM     92  F   UNL A   1      42.882  32.355  28.687  1.00  0.00    -0.205 F 
ATOM     93  C   UNL A   1      45.903  33.380  26.883  1.00  0.00     0.022 A 
BRANCH  91  94
ATOM     94  S   UNL A   1      43.921  35.085  27.664  1.00  0.00     0.127 S 
ATOM     95  O   UNL A   1      43.449  35.105  29.048  1.00  0.00    -0.237 OA
ATOM     96  O   UNL A   1      45.068  35.956  27.401  1.00  0.00    -0.237 OA
ATOM     97  O   UNL A   1      42.866  35.133  26.661  1.00  0.00    -0.744 OA
ENDBRANCH  91  94
ENDBRANCH  64  87
ENDBRANCH  38  39
ENDBRANCH  30  33
ENDBRANCH  28  29
ENDBRANCH  27  28
ENDBRANCH   1  27
TORSDOF 18
ENDMDL
MODEL 2
REMARK VINA RESULT:     -12.3      2.931      8.688
REMARK SMILES Cc1nc2n(n1)[C@@H](c1ccc([N+](=O)[O-])o1)CC(C(=O)NCCCCCCNC(=O)c1ccc(-c3c4nc(c(-c5cccc(S(=O)(=O)[O-])c5F)c5ccc([nH]5)c(-c5cccc(S(=O)(=O)[O-])c5F)c5nc(c(-c6cccc(S(=O)(=O)[O-])c6F)c6ccc3[nH]6)C=C5)C=C4)cc1)=N2
REMARK SMILES IDX 24 1 23 2 22 3 21 4 20 5 18 6 19 7 17 9 1 10 2 11 3 12 6 13
REMARK SMILES IDX 4 14 5 15 93 16 7 17 16 18 8 19 9 20 15 21 10 22 11 23 12 24
REMARK SMILES IDX 13 25 14 26 25 27 26 28 27 29 28 30 29 32 30 33 31 34 92 35
REMARK SMILES IDX 32 36 91 37 33 38 34 39 35 40 85 41 36 42 90 43 84 44 86 45
REMARK SMILES IDX 37 46 89 47 83 48 82 49 38 51 70 52 50 53 69 54 51 55 54 56
REMARK SMILES IDX 68 57 87 58 52 59 53 60 67 62 88 63 55 64 39 65 40 66 48 67
REMARK SMILES IDX 41 68 43 69 49 70 42 71 44 72 45 73 46 74 47 75 71 76 72 77
REMARK SMILES IDX 80 78 73 79 75 80 81 81 74 82 76 83 77 84 78 85 79 86 56 87
REMARK SMILES IDX 57 88 65 89 58 90 60 91 66 92 59 93 61 94 62 95 63 96 64 97
REMARK H PARENT 20 8 27 31 86 50 54 61
REMARK Flexibility Score: inf
ROOT
ATOM      1  C   UNL A   1      36.270  20.526  25.015  1.00  0.00     0.002 C 
ENDROOT
BRANCH   1   2
ATOM      2  C   UNL A   1      34.992  21.365  24.874  1.00  0.00     0.002 C 
BRANCH   2   3
ATOM      3  C   UNL A   1      34.077  21.385  26.108  1.00  0.00     0.021 C 
BRANCH   3   4
ATOM      4  C   UNL A   1      33.968  22.756  26.781  1.00  0.00     0.116 C 
BRANCH   4   5
ATOM      5  N   UNL A   1      32.595  23.072  27.149  1.00  0.00    -0.351 N 
ATOM      6  C   UNL A   1      31.584  23.841  26.629  1.00  0.00     0.265 C 
ATOM      7  O   UNL A   1      30.521  23.851  27.250  1.00  0.00    -0.268 OA
ATOM      8  H   UNL A   1      32.323  22.619  27.980  1.00  0.00     0.163 HD
BRANCH   6   9
ATOM      9  C   UNL A   1      31.673  24.670  25.329  1.00  0.00     0.112 C 
ATOM     10  C   UNL A   1      32.874  25.319  19.684  1.00  0.00     0.092 C 
ATOM     11  C   UNL A   1      32.488  25.361  21.108  1.00  0.00     0.149 A 
ATOM     12  N   UNL A   1      32.532  24.255  21.915  1.00  0.00    -0.195 NA
ATOM     13  N   UNL A   1      32.065  26.479  21.708  1.00  0.00    -0.154 NA
ATOM     14  C   UNL A   1      32.104  24.687  23.082  1.00  0.00     0.249 A 
ATOM     15  N   UNL A   1      31.791  26.012  22.942  1.00  0.00    -0.219 N 
ATOM     16  N   UNL A   1      31.971  24.014  24.246  1.00  0.00    -0.211 NA
ATOM     17  C   UNL A   1      31.339  26.857  24.022  1.00  0.00     0.184 C 
ATOM     18  C   UNL A   1      31.485  26.161  25.379  1.00  0.00     0.098 C 
BRANCH  17  19
ATOM     19  C   UNL A   1      29.937  27.352  23.816  1.00  0.00     0.136 A 
ATOM     20  C   UNL A   1      28.667  26.799  23.850  1.00  0.00     0.056 A 
ATOM     21  O   UNL A   1      29.842  28.681  23.493  1.00  0.00    -0.404 OA
ATOM     22  C   UNL A   1      27.749  27.850  23.569  1.00  0.00     0.134 A 
ATOM     23  C   UNL A   1      28.521  28.971  23.382  1.00  0.00     0.433 A 
BRANCH  23  24
ATOM     24  N   UNL A   1      28.197  30.351  23.194  1.00  0.00     0.102 N 
ATOM     25  O   UNL A   1      29.005  31.164  23.654  1.00  0.00    -0.256 OA
ATOM     26  O   UNL A   1      27.201  30.605  22.501  1.00  0.00    -0.256 OA
ENDBRANCH  23  24
ENDBRANCH  17  19
ENDBRANCH   6   9
ENDBRANCH   4   5
ENDBRANCH   3   4
ENDBRANCH   2   3
ENDBRANCH   1   2
BRANCH   1  27
ATOM     27  C   UNL A   1      37.593  21.248  24.691  1.00  0.00     0.021 C 
BRANCH  27  28
ATOM     28  C   UNL A   1      38.090  22.235  25.764  1.00  0.00     0.116 C 
BRANCH  28  29
ATOM     29  N   UNL A   1      39.163  21.630  26.538  1.00  0.00    -0.352 N 
ATOM     30  C   UNL A   1      40.359  22.113  26.988  1.00  0.00     0.251 C 
ATOM     31  H   UNL A   1      38.995  20.693  26.784  1.00  0.00     0.163 HD
ATOM     32  O   UNL A   1      41.237  21.290  27.255  1.00  0.00    -0.269 OA
BRANCH  30  33
ATOM     33  C   UNL A   1      40.645  23.555  27.189  1.00  0.00     0.039 A 
ATOM     34  C   UNL A   1      41.784  24.076  26.553  1.00  0.00     0.014 A 
ATOM     35  C   UNL A   1      39.947  24.355  28.094  1.00  0.00     0.014 A 
ATOM     36  C   UNL A   1      42.200  25.389  26.784  1.00  0.00     0.010 A 
ATOM     37  C   UNL A   1      40.367  25.674  28.326  1.00  0.00     0.010 A 
ATOM     38  C   UNL A   1      41.482  26.211  27.656  1.00  0.00    -0.014 A 
BRANCH  38  39
ATOM     39  C   UNL A   1      41.851  27.649  27.703  1.00  0.00     0.031 A 
ATOM     40  C   UNL A   1      40.698  28.580  27.526  1.00  0.00     0.074 A 
ATOM     41  C   UNL A   1      42.865  28.144  28.451  1.00  0.00     0.049 A 
ATOM     42  N   UNL A   1      39.928  28.859  28.531  1.00  0.00    -0.248 NA
ATOM     43  C   UNL A   1      40.171  29.034  26.245  1.00  0.00     0.031 C 
ATOM     44  C   UNL A   1      43.309  27.552  29.719  1.00  0.00     0.029 A 
ATOM     45  N   UNL A   1      43.500  29.371  28.407  1.00  0.00    -0.354 N 
ATOM     46  C   UNL A   1      38.778  29.448  28.042  1.00  0.00     0.074 A 
ATOM     47  C   UNL A   1      38.986  29.557  26.614  1.00  0.00     0.031 C 
ATOM     48  C   UNL A   1      44.000  28.483  30.410  1.00  0.00     0.029 A 
ATOM     49  C   UNL A   1      44.187  29.669  29.580  1.00  0.00     0.049 A 
ATOM     50  H   UNL A   1      43.469  29.972  27.629  1.00  0.00     0.167 HD
ATOM     51  C   UNL A   1      37.757  29.798  28.871  1.00  0.00     0.034 A 
ATOM     52  C   UNL A   1      44.502  30.913  30.030  1.00  0.00     0.034 A 
ATOM     53  C   UNL A   1      37.961  29.624  30.304  1.00  0.00     0.049 A 
ATOM     54  C   UNL A   1      43.229  31.334  30.713  1.00  0.00     0.074 A 
ATOM     55  C   UNL A   1      37.187  29.467  31.439  1.00  0.00     0.029 A 
ATOM     56  N   UNL A   1      39.248  29.640  30.775  1.00  0.00    -0.354 N 
ATOM     57  N   UNL A   1      42.845  30.965  31.909  1.00  0.00    -0.248 NA
ATOM     58  C   UNL A   1      42.178  31.967  29.900  1.00  0.00     0.031 C 
ATOM     59  C   UNL A   1      38.047  29.645  32.576  1.00  0.00     0.029 A 
ATOM     60  C   UNL A   1      39.309  29.956  32.103  1.00  0.00     0.049 A 
ATOM     61  H   UNL A   1      40.037  29.448  30.219  1.00  0.00     0.167 HD
ATOM     62  C   UNL A   1      41.457  31.043  31.864  1.00  0.00     0.074 A 
ATOM     63  C   UNL A   1      41.115  31.800  30.678  1.00  0.00     0.031 C 
ATOM     64  C   UNL A   1      40.613  30.283  32.620  1.00  0.00     0.034 A 
BRANCH  51  65
ATOM     65  C   UNL A   1      36.557  30.577  28.439  1.00  0.00     0.023 A 
ATOM     66  C   UNL A   1      36.471  31.890  28.956  1.00  0.00     0.012 A 
ATOM     67  C   UNL A   1      35.454  30.041  27.752  1.00  0.00     0.148 A 
ATOM     68  C   UNL A   1      35.308  32.643  28.835  1.00  0.00     0.002 A 
ATOM     69  C   UNL A   1      34.288  30.804  27.632  1.00  0.00     0.091 A 
ATOM     70  F   UNL A   1      35.536  28.790  27.279  1.00  0.00    -0.205 F 
ATOM     71  C   UNL A   1      34.213  32.097  28.180  1.00  0.00     0.022 A 
BRANCH  69  72
ATOM     72  S   UNL A   1      32.795  30.207  26.820  1.00  0.00     0.127 S 
ATOM     73  O   UNL A   1      31.931  31.390  26.861  1.00  0.00    -0.237 OA
ATOM     74  O   UNL A   1      33.291  29.870  25.481  1.00  0.00    -0.237 OA
ATOM     75  O   UNL A   1      32.341  29.070  27.595  1.00  0.00    -0.744 OA
ENDBRANCH  69  72
ENDBRANCH  51  65
BRANCH  52  76
ATOM     76  C   UNL A   1      45.315  31.785  29.120  1.00  0.00     0.023 A 
ATOM     77  C   UNL A   1      46.694  31.906  29.430  1.00  0.00     0.012 A 
ATOM     78  C   UNL A   1      44.841  32.516  28.017  1.00  0.00     0.148 A 
ATOM     79  C   UNL A   1      47.576  32.628  28.620  1.00  0.00     0.002 A 
ATOM     80  C   UNL A   1      45.733  33.173  27.169  1.00  0.00     0.091 A 
ATOM     81  F   UNL A   1      43.524  32.591  27.800  1.00  0.00    -0.205 F 
ATOM     82  C   UNL A   1      47.101  33.233  27.466  1.00  0.00     0.022 A 
BRANCH  80  83
ATOM     83  S   UNL A   1      45.221  33.897  25.602  1.00  0.00     0.127 S 
ATOM     84  O   UNL A   1      44.317  34.960  26.038  1.00  0.00    -0.237 OA
ATOM     85  O   UNL A   1      46.502  34.358  25.068  1.00  0.00    -0.237 OA
ATOM     86  O   UNL A   1      44.594  32.818  24.854  1.00  0.00    -0.744 OA
ENDBRANCH  80  83
ENDBRANCH  52  76
BRANCH  64  87
ATOM     87  C   UNL A   1      41.125  29.713  33.893  1.00  0.00     0.023 A 
ATOM     88  C   UNL A   1      41.264  30.579  34.995  1.00  0.00     0.012 A 
ATOM     89  C   UNL A   1      41.384  28.340  34.057  1.00  0.00     0.148 A 
ATOM     90  C   UNL A   1      41.651  30.097  36.241  1.00  0.00     0.002 A 
ATOM     91  C   UNL A   1      41.751  27.860  35.309  1.00  0.00     0.091 A 
ATOM     92  F   UNL A   1      41.267  27.529  32.996  1.00  0.00    -0.205 F 
ATOM     93  C   UNL A   1      41.886  28.736  36.400  1.00  0.00     0.022 A 
BRANCH  91  94
ATOM     94  S   UNL A   1      42.042  26.120  35.641  1.00  0.00     0.127 S 
ATOM     95  O   UNL A   1      42.975  25.756  34.575  1.00  0.00    -0.237 OA
ATOM     96  O   UNL A   1      42.636  26.165  36.978  1.00  0.00    -0.237 OA
ATOM     97  O   UNL A   1      40.744  25.464  35.564  1.00  0.00    -0.744 OA
ENDBRANCH  91  94
ENDBRANCH  64  87
ENDBRANCH  38  39
ENDBRANCH  30  33
ENDBRANCH  28  29
ENDBRANCH  27  28
ENDBRANCH   1  27
TORSDOF 18
ENDMDL
MODEL 3
REMARK VINA RESULT:     -12.2      3.043      8.995
REMARK SMILES Cc1nc2n(n1)[C@@H](c1ccc([N+](=O)[O-])o1)CC(C(=O)NCCCCCCNC(=O)c1ccc(-c3c4nc(c(-c5cccc(S(=O)(=O)[O-])c5F)c5ccc([nH]5)c(-c5cccc(S(=O)(=O)[O-])c5F)c5nc(c(-c6cccc(S(=O)(=O)[O-])c6F)c6ccc3[nH]6)C=C5)C=C4)cc1)=N2
REMARK SMILES IDX 24 1 23 2 22 3 21 4 20 5 18 6 19 7 17 9 1 10 2 11 3 12 6 13
REMARK SMILES IDX 4 14 5 15 93 16 7 17 16 18 8 19 9 20 15 21 10 22 11 23 12 24
REMARK SMILES IDX 13 25 14 26 25 27 26 28 27 29 28 30 29 32 30 33 31 34 92 35
REMARK SMILES IDX 32 36 91 37 33 38 34 39 35 40 85 41 36 42 90 43 84 44 86 45
REMARK SMILES IDX 37 46 89 47 83 48 82 49 38 51 70 52 50 53 69 54 51 55 54 56
REMARK SMILES IDX 68 57 87 58 52 59 53 60 67 62 88 63 55 64 39 65 40 66 48 67
REMARK SMILES IDX 41 68 43 69 49 70 42 71 44 72 45 73 46 74 47 75 71 76 72 77
REMARK SMILES IDX 80 78 73 79 75 80 81 81 74 82 76 83 77 84 78 85 79 86 56 87
REMARK SMILES IDX 57 88 65 89 58 90 60 91 66 92 59 93 61 94 62 95 63 96 64 97
REMARK H PARENT 20 8 27 31 86 50 54 61
REMARK Flexibility Score: inf
ROOT
ATOM      1  C   UNL A   1      36.356  22.073  24.284  1.00  0.00     0.002 C 
ENDROOT
BRANCH   1   2
ATOM      2  C   UNL A   1      34.949  21.563  24.625  1.00  0.00     0.002 C 
BRANCH   2   3
ATOM      3  C   UNL A   1      33.821  22.597  24.480  1.00  0.00     0.021 C 
BRANCH   3   4
ATOM      4  C   UNL A   1      34.311  24.045  24.390  1.00  0.00     0.116 C 
BRANCH   4   5
ATOM      5  N   UNL A   1      34.058  24.622  23.078  1.00  0.00    -0.351 N 
ATOM      6  C   UNL A   1      33.466  25.764  22.598  1.00  0.00     0.265 C 
ATOM      7  O   UNL A   1      33.448  25.906  21.375  1.00  0.00    -0.268 OA
ATOM      8  H   UNL A   1      34.397  24.050  22.352  1.00  0.00     0.163 HD
BRANCH   6   9
ATOM      9  C   UNL A   1      32.845  26.880  23.467  1.00  0.00     0.112 C 
ATOM     10  C   UNL A   1      33.149  31.141  27.401  1.00  0.00     0.092 C 
ATOM     11  C   UNL A   1      32.860  30.120  26.376  1.00  0.00     0.149 A 
ATOM     12  N   UNL A   1      33.839  29.343  25.814  1.00  0.00    -0.195 NA
ATOM     13  N   UNL A   1      31.625  29.885  25.919  1.00  0.00    -0.154 NA
ATOM     14  C   UNL A   1      33.197  28.586  24.949  1.00  0.00     0.249 A 
ATOM     15  N   UNL A   1      31.876  28.941  24.991  1.00  0.00    -0.219 N 
ATOM     16  N   UNL A   1      33.679  27.619  24.139  1.00  0.00    -0.211 NA
ATOM     17  C   UNL A   1      30.838  28.295  24.223  1.00  0.00     0.184 C 
ATOM     18  C   UNL A   1      31.350  27.017  23.550  1.00  0.00     0.098 C 
BRANCH  17  19
ATOM     19  C   UNL A   1      30.204  29.217  23.223  1.00  0.00     0.136 A 
ATOM     20  C   UNL A   1      30.271  29.402  21.852  1.00  0.00     0.056 A 
ATOM     21  O   UNL A   1      29.343  30.139  23.762  1.00  0.00    -0.404 OA
ATOM     22  C   UNL A   1      29.381  30.467  21.533  1.00  0.00     0.134 A 
ATOM     23  C   UNL A   1      28.834  30.859  22.730  1.00  0.00     0.433 A 
BRANCH  23  24
ATOM     24  N   UNL A   1      27.795  31.782  23.065  1.00  0.00     0.102 N 
ATOM     25  O   UNL A   1      26.979  31.397  23.909  1.00  0.00    -0.256 OA
ATOM     26  O   UNL A   1      27.866  32.913  22.564  1.00  0.00    -0.256 OA
ENDBRANCH  23  24
ENDBRANCH  17  19
ENDBRANCH   6   9
ENDBRANCH   4   5
ENDBRANCH   3   4
ENDBRANCH   2   3
ENDBRANCH   1   2
BRANCH   1  27
ATOM     27  C   UNL A   1      37.530  21.219  24.803  1.00  0.00     0.021 C 
BRANCH  27  28
ATOM     28  C   UNL A   1      38.464  21.916  25.809  1.00  0.00     0.116 C 
BRANCH  28  29
ATOM     29  N   UNL A   1      39.614  21.069  26.089  1.00  0.00    -0.352 N 
ATOM     30  C   UNL A   1      40.943  21.344  26.246  1.00  0.00     0.251 C 
ATOM     31  H   UNL A   1      39.391  20.116  26.185  1.00  0.00     0.163 HD
ATOM     32  O   UNL A   1      41.736  20.416  26.069  1.00  0.00    -0.269 OA
BRANCH  30  33
ATOM     33  C   UNL A   1      41.472  22.675  26.632  1.00  0.00     0.039 A 
ATOM     34  C   UNL A   1      42.504  23.206  25.841  1.00  0.00     0.014 A 
ATOM     35  C   UNL A   1      41.117  23.326  27.813  1.00  0.00     0.014 A 
ATOM     36  C   UNL A   1      43.147  24.393  26.199  1.00  0.00     0.010 A 
ATOM     37  C   UNL A   1      41.765  24.518  28.173  1.00  0.00     0.010 A 
ATOM     38  C   UNL A   1      42.769  25.076  27.358  1.00  0.00    -0.014 A 
BRANCH  38  39
ATOM     39  C   UNL A   1      43.343  26.428  27.577  1.00  0.00     0.031 A 
ATOM     40  C   UNL A   1      42.326  27.518  27.652  1.00  0.00     0.074 A 
ATOM     41  C   UNL A   1      44.473  26.663  28.284  1.00  0.00     0.049 A 
ATOM     42  N   UNL A   1      41.685  27.733  28.759  1.00  0.00    -0.248 NA
ATOM     43  C   UNL A   1      41.771  28.232  26.509  1.00  0.00     0.031 C 
ATOM     44  C   UNL A   1      44.926  25.825  29.402  1.00  0.00     0.029 A 
ATOM     45  N   UNL A   1      45.273  27.788  28.356  1.00  0.00    -0.354 N 
ATOM     46  C   UNL A   1      40.597  28.536  28.477  1.00  0.00     0.074 A 
ATOM     47  C   UNL A   1      40.706  28.841  27.066  1.00  0.00     0.031 C 
ATOM     48  C   UNL A   1      45.796  26.538  30.148  1.00  0.00     0.029 A 
ATOM     49  C   UNL A   1      46.085  27.805  29.484  1.00  0.00     0.049 A 
ATOM     50  H   UNL A   1      45.268  28.503  27.679  1.00  0.00     0.167 HD
ATOM     51  C   UNL A   1      39.705  28.881  29.446  1.00  0.00     0.034 A 
ATOM     52  C   UNL A   1      46.610  28.911  30.077  1.00  0.00     0.034 A 
ATOM     53  C   UNL A   1      39.995  28.458  30.811  1.00  0.00     0.049 A 
ATOM     54  C   UNL A   1      45.469  29.381  30.937  1.00  0.00     0.074 A 
ATOM     55  C   UNL A   1      39.297  28.227  31.982  1.00  0.00     0.029 A 
ATOM     56  N   UNL A   1      41.303  28.233  31.148  1.00  0.00    -0.354 N 
ATOM     57  N   UNL A   1      45.131  28.883  32.099  1.00  0.00    -0.248 NA
ATOM     58  C   UNL A   1      44.460  30.267  30.333  1.00  0.00     0.031 C 
ATOM     59  C   UNL A   1      40.260  28.110  33.041  1.00  0.00     0.029 A 
ATOM     60  C   UNL A   1      41.513  28.324  32.495  1.00  0.00     0.049 A 
ATOM     61  H   UNL A   1      42.010  28.029  30.495  1.00  0.00     0.167 HD
ATOM     62  C   UNL A   1      43.769  29.146  32.204  1.00  0.00     0.074 A 
ATOM     63  C   UNL A   1      43.448  30.119  31.180  1.00  0.00     0.031 C 
ATOM     64  C   UNL A   1      42.887  28.393  32.922  1.00  0.00     0.034 A 
BRANCH  51  65
ATOM     65  C   UNL A   1      38.600  29.868  29.252  1.00  0.00     0.023 A 
ATOM     66  C   UNL A   1      37.555  29.444  28.401  1.00  0.00     0.012 A 
ATOM     67  C   UNL A   1      38.634  31.208  29.676  1.00  0.00     0.148 A 
ATOM     68  C   UNL A   1      36.586  30.332  27.942  1.00  0.00     0.002 A 
ATOM     69  C   UNL A   1      37.657  32.096  29.213  1.00  0.00     0.091 A 
ATOM     70  F   UNL A   1      39.637  31.607  30.469  1.00  0.00    -0.205 F 
ATOM     71  C   UNL A   1      36.642  31.660  28.341  1.00  0.00     0.022 A 
BRANCH  69  72
ATOM     72  S   UNL A   1      37.626  33.844  29.644  1.00  0.00     0.127 S 
ATOM     73  O   UNL A   1      38.888  34.323  29.072  1.00  0.00    -0.237 OA
ATOM     74  O   UNL A   1      36.429  34.310  28.936  1.00  0.00    -0.237 OA
ATOM     75  O   UNL A   1      37.530  33.902  31.089  1.00  0.00    -0.744 OA
ENDBRANCH  69  72
ENDBRANCH  51  65
BRANCH  52  76
ATOM     76  C   UNL A   1      47.467  29.802  29.226  1.00  0.00     0.023 A 
ATOM     77  C   UNL A   1      48.073  29.199  28.094  1.00  0.00     0.012 A 
ATOM     78  C   UNL A   1      47.753  31.158  29.458  1.00  0.00     0.148 A 
ATOM     79  C   UNL A   1      48.834  29.933  27.181  1.00  0.00     0.002 A 
ATOM     80  C   UNL A   1      48.449  31.906  28.507  1.00  0.00     0.091 A 
ATOM     81  F   UNL A   1      47.369  31.720  30.609  1.00  0.00    -0.205 F 
ATOM     82  C   UNL A   1      48.992  31.298  27.368  1.00  0.00     0.022 A 
BRANCH  80  83
ATOM     83  S   UNL A   1      48.615  33.694  28.618  1.00  0.00     0.127 S 
ATOM     84  O   UNL A   1      49.213  34.026  27.326  1.00  0.00    -0.237 OA
ATOM     85  O   UNL A   1      47.219  34.102  28.773  1.00  0.00    -0.237 OA
ATOM     86  O   UNL A   1      49.461  33.943  29.775  1.00  0.00    -0.744 OA
ENDBRANCH  80  83
ENDBRANCH  52  76
BRANCH  64  87
ATOM     87  C   UNL A   1      43.410  27.568  34.041  1.00  0.00     0.023 A 
ATOM     88  C   UNL A   1      43.477  28.157  35.320  1.00  0.00     0.012 A 
ATOM     89  C   UNL A   1      43.749  26.212  33.887  1.00  0.00     0.148 A 
ATOM     90  C   UNL A   1      43.869  27.416  36.430  1.00  0.00     0.002 A 
ATOM     91  C   UNL A   1      44.122  25.471  35.002  1.00  0.00     0.091 A 
ATOM     92  F   UNL A   1      43.700  25.668  32.663  1.00  0.00    -0.205 F 
ATOM     93  C   UNL A   1      44.184  26.071  36.273  1.00  0.00     0.022 A 
BRANCH  91  94
ATOM     94  S   UNL A   1      44.513  23.720  34.927  1.00  0.00     0.127 S 
ATOM     95  O   UNL A   1      43.208  23.128  34.629  1.00  0.00    -0.237 OA
ATOM     96  O   UNL A   1      45.467  23.674  33.818  1.00  0.00    -0.237 OA
ATOM     97  O   UNL A   1      45.060  23.364  36.228  1.00  0.00    -0.744 OA
ENDBRANCH  91  94
ENDBRANCH  64  87
ENDBRANCH  38  39
ENDBRANCH  30  33
ENDBRANCH  28  29
ENDBRANCH  27  28
ENDBRANCH   1  27
TORSDOF 18
ENDMDL
