MODEL 1
REMARK VINA RESULT:     -11.2      0.000      0.000
REMARK SMILES Cn1cc(S[C@@H]2CCC[C@]([NH2+]C3CC3)(C(=O)NCCCCCCNC(=O)c3ccc(-c4c5nc(c(-c6cccc(S(=O)(=O)[O-])c6F)c6ccc([nH]6)c(-c6cccc(S(=O)(=O)[O-])c6F)c6nc(c(-c7cccc(S(=O)(=O)[O-])c7F)c7ccc4[nH]7)C=C6)C=C5)cc3)C2)cn1
REMARK SMILES IDX 21 1 20 2 19 3 18 4 17 5 15 6 16 7 10 9 6 10 7 11 90 12 8 13
REMARK SMILES IDX 9 14 5 15 4 16 1 17 2 18 3 19 92 20 91 21 11 22 12 25 13 26
REMARK SMILES IDX 14 27 22 28 23 29 24 30 25 31 26 33 27 34 28 35 89 36 29 37
REMARK SMILES IDX 88 38 30 39 31 40 32 41 82 42 33 43 87 44 81 45 83 46 34 47
REMARK SMILES IDX 86 48 80 49 79 50 35 52 67 53 47 54 66 55 48 56 51 57 65 58
REMARK SMILES IDX 84 59 49 60 50 61 64 63 85 64 52 65 36 66 37 67 45 68 38 69
REMARK SMILES IDX 40 70 46 71 39 72 41 73 42 74 43 75 44 76 68 77 69 78 77 79
REMARK SMILES IDX 70 80 72 81 78 82 71 83 73 84 74 85 75 86 76 87 53 88 54 89
REMARK SMILES IDX 62 90 55 91 57 92 63 93 56 94 58 95 59 96 60 97 61 98
REMARK H PARENT 17 8 11 23 11 24 24 32 83 51 51 62
REMARK Flexibility Score: inf
ROOT
ATOM      1  C   UNL A   1      31.488  31.086  26.136  1.00  0.00     0.002 C 
ENDROOT
BRANCH   1   2
ATOM      2  C   UNL A   1      31.981  29.920  27.005  1.00  0.00     0.002 C 
BRANCH   2   3
ATOM      3  C   UNL A   1      33.508  29.807  27.133  1.00  0.00     0.021 C 
BRANCH   3   4
ATOM      4  C   UNL A   1      34.088  28.604  26.386  1.00  0.00     0.116 C 
BRANCH   4   5
ATOM      5  N   UNL A   1      34.311  28.927  24.989  1.00  0.00    -0.351 N 
ATOM      6  C   UNL A   1      33.715  28.623  23.813  1.00  0.00     0.281 C 
ATOM      7  O   UNL A   1      34.307  29.078  22.816  1.00  0.00    -0.268 OA
ATOM      8  H   UNL A   1      35.092  29.513  24.865  1.00  0.00     0.163 HD
BRANCH   6   9
ATOM      9  C   UNL A   1      32.390  27.777  23.578  1.00  0.00     0.176 C 
ATOM     10  C   UNL A   1      30.921  25.798  24.372  1.00  0.00     0.058 C 
ATOM     11  C   UNL A   1      31.230  24.996  23.107  1.00  0.00     0.015 C 
ATOM     12  C   UNL A   1      32.015  26.812  24.711  1.00  0.00     0.094 C 
ATOM     13  C   UNL A   1      31.654  25.879  21.933  1.00  0.00     0.008 C 
ATOM     14  C   UNL A   1      32.685  26.948  22.300  1.00  0.00     0.079 C 
BRANCH  10  15
ATOM     15  S   UNL A   1      30.468  24.778  25.815  1.00  0.00    -0.119 SA
BRANCH  15  16
ATOM     16  C   UNL A   1      31.650  23.519  26.006  1.00  0.00     0.046 A 
ATOM     17  C   UNL A   1      34.776  21.793  26.425  1.00  0.00     0.173 C 
ATOM     18  N   UNL A   1      33.419  22.255  26.262  1.00  0.00    -0.275 N 
ATOM     19  C   UNL A   1      32.950  23.527  26.448  1.00  0.00     0.123 A 
ATOM     20  N   UNL A   1      32.485  21.401  25.825  1.00  0.00    -0.181 NA
ATOM     21  C   UNL A   1      31.405  22.170  25.664  1.00  0.00     0.150 A 
ENDBRANCH  15  16
ENDBRANCH  10  15
BRANCH   9  22
ATOM     22  N   UNL A   1      31.385  28.857  23.355  1.00  0.00    -0.331 N 
ATOM     23  H   UNL A   1      31.900  29.645  22.963  1.00  0.00     0.347 HD
ATOM     24  H   UNL A   1      30.963  28.943  24.279  1.00  0.00     0.347 HD
BRANCH  22  25
ATOM     25  C   UNL A   1      30.220  28.674  22.509  1.00  0.00     0.183 C 
ATOM     26  C   UNL A   1      28.880  29.130  23.021  1.00  0.00     0.071 C 
ATOM     27  C   UNL A   1      29.558  29.894  21.926  1.00  0.00     0.071 C 
ENDBRANCH  22  25
ENDBRANCH   9  22
ENDBRANCH   6   9
ENDBRANCH   4   5
ENDBRANCH   3   4
ENDBRANCH   2   3
ENDBRANCH   1   2
BRANCH   1  28
ATOM     28  C   UNL A   1      31.367  32.431  26.859  1.00  0.00     0.021 C 
BRANCH  28  29
ATOM     29  C   UNL A   1      32.702  33.087  27.195  1.00  0.00     0.116 C 
BRANCH  29  30
ATOM     30  N   UNL A   1      32.519  34.412  27.769  1.00  0.00    -0.352 N 
ATOM     31  C   UNL A   1      33.095  34.959  28.885  1.00  0.00     0.251 C 
ATOM     32  H   UNL A   1      31.893  34.999  27.286  1.00  0.00     0.163 HD
ATOM     33  O   UNL A   1      32.641  36.005  29.359  1.00  0.00    -0.269 OA
BRANCH  31  34
ATOM     34  C   UNL A   1      34.253  34.299  29.521  1.00  0.00     0.039 A 
ATOM     35  C   UNL A   1      35.538  34.571  29.046  1.00  0.00     0.014 A 
ATOM     36  C   UNL A   1      34.065  33.394  30.569  1.00  0.00     0.014 A 
ATOM     37  C   UNL A   1      36.641  33.968  29.655  1.00  0.00     0.010 A 
ATOM     38  C   UNL A   1      35.169  32.847  31.218  1.00  0.00     0.010 A 
ATOM     39  C   UNL A   1      36.467  33.118  30.759  1.00  0.00    -0.014 A 
BRANCH  39  40
ATOM     40  C   UNL A   1      37.628  32.507  31.453  1.00  0.00     0.031 A 
ATOM     41  C   UNL A   1      38.367  31.357  30.823  1.00  0.00     0.074 A 
ATOM     42  C   UNL A   1      37.958  32.926  32.691  1.00  0.00     0.049 A 
ATOM     43  N   UNL A   1      39.363  30.657  31.300  1.00  0.00    -0.248 NA
ATOM     44  C   UNL A   1      37.910  30.920  29.492  1.00  0.00     0.031 C 
ATOM     45  C   UNL A   1      37.265  33.977  33.439  1.00  0.00     0.029 A 
ATOM     46  N   UNL A   1      38.941  32.500  33.548  1.00  0.00    -0.354 N 
ATOM     47  C   UNL A   1      39.626  29.674  30.351  1.00  0.00     0.074 A 
ATOM     48  C   UNL A   1      38.665  29.851  29.284  1.00  0.00     0.031 C 
ATOM     49  C   UNL A   1      37.843  34.113  34.643  1.00  0.00     0.029 A 
ATOM     50  C   UNL A   1      38.930  33.146  34.763  1.00  0.00     0.049 A 
ATOM     51  H   UNL A   1      39.593  31.800  33.316  1.00  0.00     0.167 HD
ATOM     52  C   UNL A   1      40.597  28.731  30.354  1.00  0.00     0.034 A 
ATOM     53  C   UNL A   1      39.703  32.973  35.852  1.00  0.00     0.034 A 
ATOM     54  C   UNL A   1      41.580  28.593  31.395  1.00  0.00     0.049 A 
ATOM     55  C   UNL A   1      40.807  31.950  35.808  1.00  0.00     0.074 A 
ATOM     56  C   UNL A   1      42.665  27.734  31.446  1.00  0.00     0.029 A 
ATOM     57  N   UNL A   1      41.598  29.330  32.569  1.00  0.00    -0.354 N 
ATOM     58  N   UNL A   1      41.148  31.145  34.831  1.00  0.00    -0.248 NA
ATOM     59  C   UNL A   1      41.658  31.839  37.001  1.00  0.00     0.031 C 
ATOM     60  C   UNL A   1      43.327  27.940  32.660  1.00  0.00     0.029 A 
ATOM     61  C   UNL A   1      42.668  28.941  33.356  1.00  0.00     0.049 A 
ATOM     62  H   UNL A   1      40.945  30.026  32.808  1.00  0.00     0.167 HD
ATOM     63  C   UNL A   1      42.272  30.458  35.275  1.00  0.00     0.074 A 
ATOM     64  C   UNL A   1      42.567  30.958  36.603  1.00  0.00     0.031 C 
ATOM     65  C   UNL A   1      42.984  29.490  34.649  1.00  0.00     0.034 A 
BRANCH  52  66
ATOM     66  C   UNL A   1      40.682  27.808  29.167  1.00  0.00     0.023 A 
ATOM     67  C   UNL A   1      39.840  26.678  29.105  1.00  0.00     0.012 A 
ATOM     68  C   UNL A   1      41.543  28.086  28.087  1.00  0.00     0.148 A 
ATOM     69  C   UNL A   1      39.878  25.821  28.006  1.00  0.00     0.002 A 
ATOM     70  C   UNL A   1      41.544  27.251  26.976  1.00  0.00     0.091 A 
ATOM     71  F   UNL A   1      42.352  29.152  28.171  1.00  0.00    -0.205 F 
ATOM     72  C   UNL A   1      40.722  26.112  26.939  1.00  0.00     0.022 A 
BRANCH  70  73
ATOM     73  S   UNL A   1      42.539  27.581  25.517  1.00  0.00     0.127 S 
ATOM     74  O   UNL A   1      43.887  27.633  26.085  1.00  0.00    -0.237 OA
ATOM     75  O   UNL A   1      42.272  26.404  24.688  1.00  0.00    -0.237 OA
ATOM     76  O   UNL A   1      42.044  28.835  24.968  1.00  0.00    -0.744 OA
ENDBRANCH  70  73
ENDBRANCH  52  66
BRANCH  53  77
ATOM     77  C   UNL A   1      39.511  33.841  37.048  1.00  0.00     0.023 A 
ATOM     78  C   UNL A   1      39.979  35.170  37.015  1.00  0.00     0.012 A 
ATOM     79  C   UNL A   1      38.847  33.377  38.200  1.00  0.00     0.148 A 
ATOM     80  C   UNL A   1      39.819  36.010  38.117  1.00  0.00     0.002 A 
ATOM     81  C   UNL A   1      38.643  34.236  39.275  1.00  0.00     0.091 A 
ATOM     82  F   UNL A   1      38.420  32.107  38.218  1.00  0.00    -0.205 F 
ATOM     83  C   UNL A   1      39.143  35.547  39.241  1.00  0.00     0.022 A 
BRANCH  81  84
ATOM     84  S   UNL A   1      37.670  33.766  40.709  1.00  0.00     0.127 S 
ATOM     85  O   UNL A   1      38.626  32.960  41.467  1.00  0.00    -0.237 OA
ATOM     86  O   UNL A   1      37.358  35.067  41.303  1.00  0.00    -0.237 OA
ATOM     87  O   UNL A   1      36.515  33.055  40.185  1.00  0.00    -0.744 OA
ENDBRANCH  81  84
ENDBRANCH  53  77
BRANCH  65  88
ATOM     88  C   UNL A   1      44.179  28.924  35.372  1.00  0.00     0.023 A 
ATOM     89  C   UNL A   1      45.438  29.539  35.228  1.00  0.00     0.012 A 
ATOM     90  C   UNL A   1      44.038  27.833  36.252  1.00  0.00     0.148 A 
ATOM     91  C   UNL A   1      46.545  29.057  35.926  1.00  0.00     0.002 A 
ATOM     92  C   UNL A   1      45.135  27.389  36.981  1.00  0.00     0.091 A 
ATOM     93  F   UNL A   1      42.835  27.250  36.360  1.00  0.00    -0.205 F 
ATOM     94  C   UNL A   1      46.392  27.992  36.810  1.00  0.00     0.022 A 
BRANCH  92  95
ATOM     95  S   UNL A   1      45.007  26.088  38.213  1.00  0.00     0.127 S 
ATOM     96  O   UNL A   1      46.402  25.925  38.619  1.00  0.00    -0.237 OA
ATOM     97  O   UNL A   1      44.145  26.701  39.225  1.00  0.00    -0.237 OA
ATOM     98  O   UNL A   1      44.415  24.947  37.529  1.00  0.00    -0.744 OA
ENDBRANCH  92  95
ENDBRANCH  65  88
ENDBRANCH  39  40
ENDBRANCH  31  34
ENDBRANCH  29  30
ENDBRANCH  28  29
ENDBRANCH   1  28
TORSDOF 20
ENDMDL
MODEL 2
REMARK VINA RESULT:     -11.0      6.268     11.659
REMARK SMILES Cn1cc(S[C@@H]2CCC[C@]([NH2+]C3CC3)(C(=O)NCCCCCCNC(=O)c3ccc(-c4c5nc(c(-c6cccc(S(=O)(=O)[O-])c6F)c6ccc([nH]6)c(-c6cccc(S(=O)(=O)[O-])c6F)c6nc(c(-c7cccc(S(=O)(=O)[O-])c7F)c7ccc4[nH]7)C=C6)C=C5)cc3)C2)cn1
REMARK SMILES IDX 21 1 20 2 19 3 18 4 17 5 15 6 16 7 10 9 6 10 7 11 90 12 8 13
REMARK SMILES IDX 9 14 5 15 4 16 1 17 2 18 3 19 92 20 91 21 11 22 12 25 13 26
REMARK SMILES IDX 14 27 22 28 23 29 24 30 25 31 26 33 27 34 28 35 89 36 29 37
REMARK SMILES IDX 88 38 30 39 31 40 32 41 82 42 33 43 87 44 81 45 83 46 34 47
REMARK SMILES IDX 86 48 80 49 79 50 35 52 67 53 47 54 66 55 48 56 51 57 65 58
REMARK SMILES IDX 84 59 49 60 50 61 64 63 85 64 52 65 36 66 37 67 45 68 38 69
REMARK SMILES IDX 40 70 46 71 39 72 41 73 42 74 43 75 44 76 68 77 69 78 77 79
REMARK SMILES IDX 70 80 72 81 78 82 71 83 73 84 74 85 75 86 76 87 53 88 54 89
REMARK SMILES IDX 62 90 55 91 57 92 63 93 56 94 58 95 59 96 60 97 61 98
REMARK H PARENT 17 8 11 23 11 24 24 32 83 51 51 62
REMARK Flexibility Score: inf
ROOT
ATOM      1  C   UNL A   1      37.364  20.288  24.635  1.00  0.00     0.002 C 
ENDROOT
BRANCH   1   2
ATOM      2  C   UNL A   1      37.546  21.711  25.181  1.00  0.00     0.002 C 
BRANCH   2   3
ATOM      3  C   UNL A   1      36.866  22.815  24.357  1.00  0.00     0.021 C 
BRANCH   3   4
ATOM      4  C   UNL A   1      36.185  23.880  25.221  1.00  0.00     0.116 C 
BRANCH   4   5
ATOM      5  N   UNL A   1      35.585  23.278  26.397  1.00  0.00    -0.351 N 
ATOM      6  C   UNL A   1      34.329  23.003  26.816  1.00  0.00     0.281 C 
ATOM      7  O   UNL A   1      34.275  22.529  27.968  1.00  0.00    -0.268 OA
ATOM      8  H   UNL A   1      36.262  23.001  27.057  1.00  0.00     0.163 HD
BRANCH   6   9
ATOM      9  C   UNL A   1      32.966  23.214  26.026  1.00  0.00     0.176 C 
ATOM     10  C   UNL A   1      31.350  24.908  24.922  1.00  0.00     0.058 C 
ATOM     11  C   UNL A   1      30.279  24.655  25.983  1.00  0.00     0.015 C 
ATOM     12  C   UNL A   1      32.763  24.611  25.425  1.00  0.00     0.094 C 
ATOM     13  C   UNL A   1      30.430  23.296  26.667  1.00  0.00     0.008 C 
ATOM     14  C   UNL A   1      31.863  22.968  27.090  1.00  0.00     0.079 C 
BRANCH  10  15
ATOM     15  S   UNL A   1      31.242  26.544  24.123  1.00  0.00    -0.119 SA
BRANCH  15  16
ATOM     16  C   UNL A   1      31.450  27.774  25.332  1.00  0.00     0.046 A 
ATOM     17  C   UNL A   1      32.293  30.867  26.960  1.00  0.00     0.173 C 
ATOM     18  N   UNL A   1      31.871  29.555  26.534  1.00  0.00    -0.275 N 
ATOM     19  C   UNL A   1      31.664  29.128  25.251  1.00  0.00     0.123 A 
ATOM     20  N   UNL A   1      31.707  28.592  27.450  1.00  0.00    -0.181 NA
ATOM     21  C   UNL A   1      31.453  27.502  26.719  1.00  0.00     0.150 A 
ENDBRANCH  15  16
ENDBRANCH  10  15
BRANCH   9  22
ATOM     22  N   UNL A   1      33.046  22.130  25.005  1.00  0.00    -0.331 N 
ATOM     23  H   UNL A   1      34.014  22.112  24.685  1.00  0.00     0.347 HD
ATOM     24  H   UNL A   1      32.307  22.399  24.356  1.00  0.00     0.347 HD
BRANCH  22  25
ATOM     25  C   UNL A   1      32.694  20.753  25.303  1.00  0.00     0.183 C 
ATOM     26  C   UNL A   1      32.592  19.774  24.165  1.00  0.00     0.071 C 
ATOM     27  C   UNL A   1      33.743  19.688  25.119  1.00  0.00     0.071 C 
ENDBRANCH  22  25
ENDBRANCH   9  22
ENDBRANCH   6   9
ENDBRANCH   4   5
ENDBRANCH   3   4
ENDBRANCH   2   3
ENDBRANCH   1   2
BRANCH   1  28
ATOM     28  C   UNL A   1      38.401  19.268  25.115  1.00  0.00     0.021 C 
BRANCH  28  29
ATOM     29  C   UNL A   1      39.416  19.824  26.109  1.00  0.00     0.116 C 
BRANCH  29  30
ATOM     30  N   UNL A   1      40.633  19.026  26.135  1.00  0.00    -0.352 N 
ATOM     31  C   UNL A   1      41.938  19.438  26.179  1.00  0.00     0.251 C 
ATOM     32  H   UNL A   1      40.498  18.050  26.120  1.00  0.00     0.163 HD
ATOM     33  O   UNL A   1      42.844  18.631  25.952  1.00  0.00    -0.269 OA
BRANCH  31  34
ATOM     34  C   UNL A   1      42.261  20.844  26.495  1.00  0.00     0.039 A 
ATOM     35  C   UNL A   1      42.464  21.214  27.826  1.00  0.00     0.014 A 
ATOM     36  C   UNL A   1      42.339  21.799  25.478  1.00  0.00     0.014 A 
ATOM     37  C   UNL A   1      42.791  22.537  28.134  1.00  0.00     0.010 A 
ATOM     38  C   UNL A   1      42.731  23.101  25.779  1.00  0.00     0.010 A 
ATOM     39  C   UNL A   1      42.949  23.485  27.111  1.00  0.00    -0.014 A 
BRANCH  39  40
ATOM     40  C   UNL A   1      43.345  24.884  27.409  1.00  0.00     0.031 A 
ATOM     41  C   UNL A   1      42.343  25.849  27.986  1.00  0.00     0.074 A 
ATOM     42  C   UNL A   1      44.580  25.310  27.076  1.00  0.00     0.049 A 
ATOM     43  N   UNL A   1      42.484  27.120  28.257  1.00  0.00    -0.248 NA
ATOM     44  C   UNL A   1      40.998  25.321  28.271  1.00  0.00     0.031 C 
ATOM     45  C   UNL A   1      45.611  24.491  26.437  1.00  0.00     0.029 A 
ATOM     46  N   UNL A   1      45.165  26.544  27.201  1.00  0.00    -0.354 N 
ATOM     47  C   UNL A   1      41.241  27.554  28.705  1.00  0.00     0.074 A 
ATOM     48  C   UNL A   1      40.350  26.416  28.641  1.00  0.00     0.031 C 
ATOM     49  C   UNL A   1      46.703  25.245  26.226  1.00  0.00     0.029 A 
ATOM     50  C   UNL A   1      46.441  26.603  26.690  1.00  0.00     0.049 A 
ATOM     51  H   UNL A   1      44.716  27.315  27.619  1.00  0.00     0.167 HD
ATOM     52  C   UNL A   1      40.883  28.779  29.156  1.00  0.00     0.034 A 
ATOM     53  C   UNL A   1      47.300  27.637  26.600  1.00  0.00     0.034 A 
ATOM     54  C   UNL A   1      41.787  29.892  29.263  1.00  0.00     0.049 A 
ATOM     55  C   UNL A   1      46.892  28.975  27.155  1.00  0.00     0.074 A 
ATOM     56  C   UNL A   1      41.548  31.146  29.799  1.00  0.00     0.029 A 
ATOM     57  N   UNL A   1      43.102  29.888  28.826  1.00  0.00    -0.354 N 
ATOM     58  N   UNL A   1      45.766  29.321  27.733  1.00  0.00    -0.248 NA
ATOM     59  C   UNL A   1      47.886  30.056  27.084  1.00  0.00     0.031 C 
ATOM     60  C   UNL A   1      42.715  31.906  29.667  1.00  0.00     0.029 A 
ATOM     61  C   UNL A   1      43.686  31.119  29.070  1.00  0.00     0.049 A 
ATOM     62  H   UNL A   1      43.554  29.123  28.402  1.00  0.00     0.167 HD
ATOM     63  C   UNL A   1      45.928  30.645  28.124  1.00  0.00     0.074 A 
ATOM     64  C   UNL A   1      47.270  31.033  27.737  1.00  0.00     0.031 C 
ATOM     65  C   UNL A   1      45.041  31.471  28.732  1.00  0.00     0.034 A 
BRANCH  52  66
ATOM     66  C   UNL A   1      39.463  28.966  29.623  1.00  0.00     0.023 A 
ATOM     67  C   UNL A   1      39.114  28.607  30.941  1.00  0.00     0.012 A 
ATOM     68  C   UNL A   1      38.491  29.552  28.788  1.00  0.00     0.148 A 
ATOM     69  C   UNL A   1      37.814  28.794  31.410  1.00  0.00     0.002 A 
ATOM     70  C   UNL A   1      37.209  29.775  29.276  1.00  0.00     0.091 A 
ATOM     71  F   UNL A   1      38.834  29.868  27.531  1.00  0.00    -0.205 F 
ATOM     72  C   UNL A   1      36.866  29.386  30.582  1.00  0.00     0.022 A 
BRANCH  70  73
ATOM     73  S   UNL A   1      35.936  30.601  28.313  1.00  0.00     0.127 S 
ATOM     74  O   UNL A   1      34.944  30.914  29.344  1.00  0.00    -0.237 OA
ATOM     75  O   UNL A   1      36.653  31.763  27.786  1.00  0.00    -0.237 OA
ATOM     76  O   UNL A   1      35.509  29.642  27.306  1.00  0.00    -0.744 OA
ENDBRANCH  70  73
ENDBRANCH  52  66
BRANCH  53  77
ATOM     77  C   UNL A   1      48.661  27.427  26.030  1.00  0.00     0.023 A 
ATOM     78  C   UNL A   1      49.707  27.016  26.880  1.00  0.00     0.012 A 
ATOM     79  C   UNL A   1      48.921  27.601  24.657  1.00  0.00     0.148 A 
ATOM     80  C   UNL A   1      50.993  26.813  26.381  1.00  0.00     0.002 A 
ATOM     81  C   UNL A   1      50.194  27.345  24.156  1.00  0.00     0.091 A 
ATOM     82  F   UNL A   1      47.918  28.003  23.866  1.00  0.00    -0.205 F 
ATOM     83  C   UNL A   1      51.234  26.967  25.019  1.00  0.00     0.022 A 
BRANCH  81  84
ATOM     84  S   UNL A   1      50.562  27.390  22.399  1.00  0.00     0.127 S 
ATOM     85  O   UNL A   1      50.456  28.820  22.109  1.00  0.00    -0.237 OA
ATOM     86  O   UNL A   1      51.925  26.856  22.361  1.00  0.00    -0.237 OA
ATOM     87  O   UNL A   1      49.568  26.539  21.767  1.00  0.00    -0.744 OA
ENDBRANCH  81  84
ENDBRANCH  53  77
BRANCH  65  88
ATOM     88  C   UNL A   1      45.498  32.870  29.055  1.00  0.00     0.023 A 
ATOM     89  C   UNL A   1      46.184  33.121  30.259  1.00  0.00     0.012 A 
ATOM     90  C   UNL A   1      45.314  33.917  28.130  1.00  0.00     0.148 A 
ATOM     91  C   UNL A   1      46.654  34.401  30.552  1.00  0.00     0.002 A 
ATOM     92  C   UNL A   1      45.829  35.178  28.407  1.00  0.00     0.091 A 
ATOM     93  F   UNL A   1      44.642  33.661  26.998  1.00  0.00    -0.205 F 
ATOM     94  C   UNL A   1      46.488  35.425  29.622  1.00  0.00     0.022 A 
BRANCH  92  95
ATOM     95  S   UNL A   1      45.746  36.530  27.227  1.00  0.00     0.127 S 
ATOM     96  O   UNL A   1      46.518  37.568  27.908  1.00  0.00    -0.237 OA
ATOM     97  O   UNL A   1      46.402  35.956  26.050  1.00  0.00    -0.237 OA
ATOM     98  O   UNL A   1      44.330  36.818  27.047  1.00  0.00    -0.744 OA
ENDBRANCH  92  95
ENDBRANCH  65  88
ENDBRANCH  39  40
ENDBRANCH  31  34
ENDBRANCH  29  30
ENDBRANCH  28  29
ENDBRANCH   1  28
TORSDOF 20
ENDMDL
MODEL 3
REMARK VINA RESULT:     -10.8      3.818      8.722
REMARK SMILES Cn1cc(S[C@@H]2CCC[C@]([NH2+]C3CC3)(C(=O)NCCCCCCNC(=O)c3ccc(-c4c5nc(c(-c6cccc(S(=O)(=O)[O-])c6F)c6ccc([nH]6)c(-c6cccc(S(=O)(=O)[O-])c6F)c6nc(c(-c7cccc(S(=O)(=O)[O-])c7F)c7ccc4[nH]7)C=C6)C=C5)cc3)C2)cn1
REMARK SMILES IDX 21 1 20 2 19 3 18 4 17 5 15 6 16 7 10 9 6 10 7 11 90 12 8 13
REMARK SMILES IDX 9 14 5 15 4 16 1 17 2 18 3 19 92 20 91 21 11 22 12 25 13 26
REMARK SMILES IDX 14 27 22 28 23 29 24 30 25 31 26 33 27 34 28 35 89 36 29 37
REMARK SMILES IDX 88 38 30 39 31 40 32 41 82 42 33 43 87 44 81 45 83 46 34 47
REMARK SMILES IDX 86 48 80 49 79 50 35 52 67 53 47 54 66 55 48 56 51 57 65 58
REMARK SMILES IDX 84 59 49 60 50 61 64 63 85 64 52 65 36 66 37 67 45 68 38 69
REMARK SMILES IDX 40 70 46 71 39 72 41 73 42 74 43 75 44 76 68 77 69 78 77 79
REMARK SMILES IDX 70 80 72 81 78 82 71 83 73 84 74 85 75 86 76 87 53 88 54 89
REMARK SMILES IDX 62 90 55 91 57 92 63 93 56 94 58 95 59 96 60 97 61 98
REMARK H PARENT 17 8 11 23 11 24 24 32 83 51 51 62
REMARK Flexibility Score: inf
ROOT
ATOM      1  C   UNL A   1      31.433  28.015  26.054  1.00  0.00     0.002 C 
ENDROOT
BRANCH   1   2
ATOM      2  C   UNL A   1      31.375  29.001  24.879  1.00  0.00     0.002 C 
BRANCH   2   3
ATOM      3  C   UNL A   1      30.924  28.393  23.542  1.00  0.00     0.021 C 
BRANCH   3   4
ATOM      4  C   UNL A   1      30.971  26.863  23.529  1.00  0.00     0.116 C 
BRANCH   4   5
ATOM      5  N   UNL A   1      31.830  26.386  22.461  1.00  0.00    -0.351 N 
ATOM      6  C   UNL A   1      32.832  25.484  22.348  1.00  0.00     0.281 C 
ATOM      7  O   UNL A   1      33.353  25.450  21.217  1.00  0.00    -0.268 OA
ATOM      8  H   UNL A   1      31.637  26.831  21.605  1.00  0.00     0.163 HD
BRANCH   6   9
ATOM      9  C   UNL A   1      33.394  24.502  23.465  1.00  0.00     0.176 C 
ATOM     10  C   UNL A   1      32.877  22.542  25.076  1.00  0.00     0.058 C 
ATOM     11  C   UNL A   1      33.027  23.444  26.301  1.00  0.00     0.015 C 
ATOM     12  C   UNL A   1      32.485  23.316  23.817  1.00  0.00     0.094 C 
ATOM     13  C   UNL A   1      33.888  24.678  26.029  1.00  0.00     0.008 C 
ATOM     14  C   UNL A   1      33.547  25.398  24.723  1.00  0.00     0.079 C 
BRANCH  10  15
ATOM     15  S   UNL A   1      31.809  21.088  25.341  1.00  0.00    -0.119 SA
BRANCH  15  16
ATOM     16  C   UNL A   1      32.665  19.663  24.837  1.00  0.00     0.046 A 
ATOM     17  C   UNL A   1      33.447  16.255  24.001  1.00  0.00     0.173 C 
ATOM     18  N   UNL A   1      33.373  17.670  24.271  1.00  0.00    -0.275 N 
ATOM     19  C   UNL A   1      32.242  18.425  24.419  1.00  0.00     0.123 A 
ATOM     20  N   UNL A   1      34.504  18.359  24.466  1.00  0.00    -0.181 NA
ATOM     21  C   UNL A   1      34.076  19.576  24.815  1.00  0.00     0.150 A 
ENDBRANCH  15  16
ENDBRANCH  10  15
BRANCH   9  22
ATOM     22  N   UNL A   1      34.702  24.098  22.873  1.00  0.00    -0.331 N 
ATOM     23  H   UNL A   1      35.000  24.878  22.287  1.00  0.00     0.347 HD
ATOM     24  H   UNL A   1      34.468  23.206  22.438  1.00  0.00     0.347 HD
BRANCH  22  25
ATOM     25  C   UNL A   1      35.849  23.743  23.688  1.00  0.00     0.183 C 
ATOM     26  C   UNL A   1      36.042  22.300  24.069  1.00  0.00     0.071 C 
ATOM     27  C   UNL A   1      36.951  22.931  23.060  1.00  0.00     0.071 C 
ENDBRANCH  22  25
ENDBRANCH   9  22
ENDBRANCH   6   9
ENDBRANCH   4   5
ENDBRANCH   3   4
ENDBRANCH   2   3
ENDBRANCH   1   2
BRANCH   1  28
ATOM     28  C   UNL A   1      32.645  28.172  26.978  1.00  0.00     0.021 C 
BRANCH  28  29
ATOM     29  C   UNL A   1      33.810  28.938  26.361  1.00  0.00     0.116 C 
BRANCH  29  30
ATOM     30  N   UNL A   1      33.795  30.341  26.748  1.00  0.00    -0.352 N 
ATOM     31  C   UNL A   1      34.595  31.000  27.645  1.00  0.00     0.251 C 
ATOM     32  H   UNL A   1      33.115  30.894  26.301  1.00  0.00     0.163 HD
ATOM     33  O   UNL A   1      34.283  32.132  28.026  1.00  0.00    -0.269 OA
BRANCH  31  34
ATOM     34  C   UNL A   1      35.822  30.359  28.155  1.00  0.00     0.039 A 
ATOM     35  C   UNL A   1      36.983  30.395  27.380  1.00  0.00     0.014 A 
ATOM     36  C   UNL A   1      35.818  29.701  29.388  1.00  0.00     0.014 A 
ATOM     37  C   UNL A   1      38.156  29.810  27.864  1.00  0.00     0.010 A 
ATOM     38  C   UNL A   1      37.003  29.177  29.898  1.00  0.00     0.010 A 
ATOM     39  C   UNL A   1      38.181  29.216  29.136  1.00  0.00    -0.014 A 
BRANCH  39  40
ATOM     40  C   UNL A   1      39.427  28.632  29.691  1.00  0.00     0.031 A 
ATOM     41  C   UNL A   1      40.078  29.249  30.900  1.00  0.00     0.074 A 
ATOM     42  C   UNL A   1      40.021  27.604  29.054  1.00  0.00     0.049 A 
ATOM     43  N   UNL A   1      41.196  28.920  31.493  1.00  0.00    -0.248 NA
ATOM     44  C   UNL A   1      39.397  30.405  31.508  1.00  0.00     0.031 C 
ATOM     45  C   UNL A   1      39.530  26.975  27.827  1.00  0.00     0.029 A 
ATOM     46  N   UNL A   1      41.183  26.929  29.332  1.00  0.00    -0.354 N 
ATOM     47  C   UNL A   1      41.374  29.847  32.514  1.00  0.00     0.074 A 
ATOM     48  C   UNL A   1      40.263  30.771  32.442  1.00  0.00     0.031 C 
ATOM     49  C   UNL A   1      40.383  26.006  27.458  1.00  0.00     0.029 A 
ATOM     50  C   UNL A   1      41.492  25.961  28.404  1.00  0.00     0.049 A 
ATOM     51  H   UNL A   1      41.741  27.118  30.120  1.00  0.00     0.167 HD
ATOM     52  C   UNL A   1      42.356  29.906  33.444  1.00  0.00     0.034 A 
ATOM     53  C   UNL A   1      42.554  25.136  28.323  1.00  0.00     0.034 A 
ATOM     54  C   UNL A   1      43.430  28.955  33.540  1.00  0.00     0.049 A 
ATOM     55  C   UNL A   1      43.605  25.192  29.400  1.00  0.00     0.074 A 
ATOM     56  C   UNL A   1      44.419  28.869  34.505  1.00  0.00     0.029 A 
ATOM     57  N   UNL A   1      43.659  27.927  32.640  1.00  0.00    -0.354 N 
ATOM     58  N   UNL A   1      43.665  25.966  30.456  1.00  0.00    -0.248 NA
ATOM     59  C   UNL A   1      44.714  24.232  29.296  1.00  0.00     0.031 C 
ATOM     60  C   UNL A   1      45.257  27.799  34.176  1.00  0.00     0.029 A 
ATOM     61  C   UNL A   1      44.778  27.206  33.019  1.00  0.00     0.049 A 
ATOM     62  H   UNL A   1      43.108  27.738  31.847  1.00  0.00     0.167 HD
ATOM     63  C   UNL A   1      44.794  25.566  31.160  1.00  0.00     0.074 A 
ATOM     64  C   UNL A   1      45.378  24.464  30.421  1.00  0.00     0.031 C 
ATOM     65  C   UNL A   1      45.312  26.075  32.305  1.00  0.00     0.034 A 
BRANCH  52  66
ATOM     66  C   UNL A   1      42.282  31.005  34.472  1.00  0.00     0.023 A 
ATOM     67  C   UNL A   1      41.630  30.765  35.699  1.00  0.00     0.012 A 
ATOM     68  C   UNL A   1      42.907  32.249  34.256  1.00  0.00     0.148 A 
ATOM     69  C   UNL A   1      41.570  31.754  36.679  1.00  0.00     0.002 A 
ATOM     70  C   UNL A   1      42.880  33.215  35.254  1.00  0.00     0.091 A 
ATOM     71  F   UNL A   1      43.505  32.469  33.075  1.00  0.00    -0.205 F 
ATOM     72  C   UNL A   1      42.203  32.974  36.461  1.00  0.00     0.022 A 
BRANCH  70  73
ATOM     73  S   UNL A   1      43.730  34.792  35.101  1.00  0.00     0.127 S 
ATOM     74  O   UNL A   1      45.119  34.362  34.932  1.00  0.00    -0.237 OA
ATOM     75  O   UNL A   1      43.117  35.357  33.898  1.00  0.00    -0.237 OA
ATOM     76  O   UNL A   1      43.447  35.522  36.328  1.00  0.00    -0.744 OA
ENDBRANCH  70  73
ENDBRANCH  52  66
BRANCH  53  77
ATOM     77  C   UNL A   1      42.636  24.134  27.224  1.00  0.00     0.023 A 
ATOM     78  C   UNL A   1      43.361  24.449  26.058  1.00  0.00     0.012 A 
ATOM     79  C   UNL A   1      42.031  22.866  27.333  1.00  0.00     0.148 A 
ATOM     80  C   UNL A   1      43.456  23.536  25.008  1.00  0.00     0.002 A 
ATOM     81  C   UNL A   1      42.175  21.940  26.305  1.00  0.00     0.091 A 
ATOM     82  F   UNL A   1      41.336  22.588  28.443  1.00  0.00    -0.205 F 
ATOM     83  C   UNL A   1      42.872  22.280  25.135  1.00  0.00     0.022 A 
BRANCH  81  84
ATOM     84  S   UNL A   1      41.569  20.255  26.438  1.00  0.00     0.127 S 
ATOM     85  O   UNL A   1      40.121  20.453  26.381  1.00  0.00    -0.237 OA
ATOM     86  O   UNL A   1      42.150  19.629  25.249  1.00  0.00    -0.237 OA
ATOM     87  O   UNL A   1      42.091  19.748  27.697  1.00  0.00    -0.744 OA
ENDBRANCH  81  84
ENDBRANCH  53  77
BRANCH  65  88
ATOM     88  C   UNL A   1      46.556  25.427  32.858  1.00  0.00     0.023 A 
ATOM     89  C   UNL A   1      47.822  25.851  32.409  1.00  0.00     0.012 A 
ATOM     90  C   UNL A   1      46.470  24.457  33.875  1.00  0.00     0.148 A 
ATOM     91  C   UNL A   1      48.984  25.295  32.943  1.00  0.00     0.002 A 
ATOM     92  C   UNL A   1      47.632  23.943  34.437  1.00  0.00     0.091 A 
ATOM     93  F   UNL A   1      45.254  24.054  34.274  1.00  0.00    -0.205 F 
ATOM     94  C   UNL A   1      48.890  24.352  33.965  1.00  0.00     0.022 A 
BRANCH  92  95
ATOM     95  S   UNL A   1      47.606  22.799  35.822  1.00  0.00     0.127 S 
ATOM     96  O   UNL A   1      49.031  22.545  36.026  1.00  0.00    -0.237 OA
ATOM     97  O   UNL A   1      46.972  23.596  36.873  1.00  0.00    -0.237 OA
ATOM     98  O   UNL A   1      46.822  21.654  35.379  1.00  0.00    -0.744 OA
ENDBRANCH  92  95
ENDBRANCH  65  88
ENDBRANCH  39  40
ENDBRANCH  31  34
ENDBRANCH  29  30
ENDBRANCH  28  29
ENDBRANCH   1  28
TORSDOF 20
ENDMDL
