MODEL 1
REMARK VINA RESULT:     -12.3      0.000      0.000
REMARK SMILES C[C@H]1CCC[C@@]1(C(=O)NCCCCCCNC(=O)c1ccc(-c2c3nc(c(-c4cccc(S(=O)(=O)[O-])c4F)c4ccc([nH]4)c(-c4cccc(S(=O)(=O)[O-])c4F)c4nc(c(-c5cccc(S(=O)(=O)[O-])c5F)c5ccc2[nH]5)C=C4)C=C3)cc1)S(=O)(=O)c1cc(F)ccc1F
REMARK SMILES IDX 13 1 12 2 11 3 10 4 9 5 7 6 8 7 6 9 1 10 2 11 3 12 4 13 5 14
REMARK SMILES IDX 82 15 83 16 84 17 85 18 86 19 91 20 87 21 90 22 92 23 88 24
REMARK SMILES IDX 89 25 14 26 15 27 16 28 17 29 18 31 19 32 20 33 81 34 21 35
REMARK SMILES IDX 80 36 22 37 23 38 24 39 74 40 25 41 79 42 73 43 75 44 26 45
REMARK SMILES IDX 78 46 72 47 71 48 27 50 59 51 39 52 58 53 40 54 43 55 57 56
REMARK SMILES IDX 76 57 41 58 42 59 56 61 77 62 44 63 28 64 29 65 37 66 30 67
REMARK SMILES IDX 32 68 38 69 31 70 33 71 34 72 35 73 36 74 60 75 61 76 69 77
REMARK SMILES IDX 62 78 64 79 70 80 63 81 65 82 66 83 67 84 68 85 45 86 46 87
REMARK SMILES IDX 54 88 47 89 49 90 55 91 48 92 50 93 51 94 52 95 53 96
REMARK H PARENT 9 8 16 30 75 49 43 60
REMARK Flexibility Score: inf
ROOT
ATOM      1  C   UNL A   1      31.078  29.273  24.617  1.00  0.00     0.002 C 
ENDROOT
BRANCH   1   2
ATOM      2  C   UNL A   1      30.494  28.241  23.641  1.00  0.00     0.002 C 
BRANCH   2   3
ATOM      3  C   UNL A   1      31.499  27.523  22.740  1.00  0.00     0.021 C 
BRANCH   3   4
ATOM      4  C   UNL A   1      31.525  26.016  22.919  1.00  0.00     0.116 C 
BRANCH   4   5
ATOM      5  N   UNL A   1      32.459  25.336  22.058  1.00  0.00    -0.355 N 
ATOM      6  C   UNL A   1      33.180  24.202  22.273  1.00  0.00     0.242 C 
ATOM      7  O   UNL A   1      33.587  23.656  21.240  1.00  0.00    -0.273 OA
ATOM      8  H   UNL A   1      32.597  25.758  21.179  1.00  0.00     0.163 HD
BRANCH   6   9
ATOM      9  C   UNL A   1      33.555  23.681  23.661  1.00  0.00     0.157 C 
ATOM     10  C   UNL A   1      33.663  25.879  25.262  1.00  0.00     0.010 C 
ATOM     11  C   UNL A   1      34.339  24.734  24.519  1.00  0.00     0.017 C 
ATOM     12  C   UNL A   1      35.178  23.909  25.499  1.00  0.00     0.005 C 
ATOM     13  C   UNL A   1      35.588  22.670  24.729  1.00  0.00     0.003 C 
ATOM     14  C   UNL A   1      34.744  22.664  23.457  1.00  0.00     0.034 C 
BRANCH   9  15
ATOM     15  S   UNL A   1      32.204  22.773  24.486  1.00  0.00     0.196 S 
ATOM     16  O   UNL A   1      32.260  22.983  25.922  1.00  0.00    -0.222 OA
ATOM     17  O   UNL A   1      30.969  23.118  23.802  1.00  0.00    -0.222 OA
BRANCH  15  18
ATOM     18  C   UNL A   1      32.350  21.013  24.295  1.00  0.00     0.107 A 
ATOM     19  C   UNL A   1      32.610  20.209  25.415  1.00  0.00     0.062 A 
ATOM     20  C   UNL A   1      32.248  20.429  23.037  1.00  0.00     0.142 A 
ATOM     21  C   UNL A   1      32.668  18.827  25.261  1.00  0.00     0.124 A 
ATOM     22  C   UNL A   1      32.296  19.041  22.894  1.00  0.00     0.043 A 
ATOM     23  F   UNL A   1      32.051  21.175  21.944  1.00  0.00    -0.206 F 
ATOM     24  F   UNL A   1      32.835  18.050  26.338  1.00  0.00    -0.207 F 
ATOM     25  C   UNL A   1      32.493  18.233  24.015  1.00  0.00     0.042 A 
ENDBRANCH  15  18
ENDBRANCH   9  15
ENDBRANCH   6   9
ENDBRANCH   4   5
ENDBRANCH   3   4
ENDBRANCH   2   3
ENDBRANCH   1   2
BRANCH   1  26
ATOM     26  C   UNL A   1      32.606  29.340  24.686  1.00  0.00     0.021 C 
BRANCH  26  27
ATOM     27  C   UNL A   1      33.177  29.656  26.062  1.00  0.00     0.116 C 
BRANCH  27  28
ATOM     28  N   UNL A   1      32.960  31.041  26.438  1.00  0.00    -0.352 N 
ATOM     29  C   UNL A   1      33.624  31.799  27.368  1.00  0.00     0.251 C 
ATOM     30  H   UNL A   1      32.235  31.501  25.957  1.00  0.00     0.163 HD
ATOM     31  O   UNL A   1      33.177  32.886  27.708  1.00  0.00    -0.269 OA
BRANCH  29  32
ATOM     32  C   UNL A   1      34.875  31.282  27.959  1.00  0.00     0.039 A 
ATOM     33  C   UNL A   1      35.990  32.118  28.020  1.00  0.00     0.014 A 
ATOM     34  C   UNL A   1      34.938  29.976  28.455  1.00  0.00     0.014 A 
ATOM     35  C   UNL A   1      37.163  31.655  28.617  1.00  0.00     0.010 A 
ATOM     36  C   UNL A   1      36.077  29.549  29.126  1.00  0.00     0.010 A 
ATOM     37  C   UNL A   1      37.207  30.377  29.197  1.00  0.00    -0.014 A 
BRANCH  37  38
ATOM     38  C   UNL A   1      38.432  29.876  29.867  1.00  0.00     0.031 A 
ATOM     39  C   UNL A   1      38.800  30.385  31.235  1.00  0.00     0.074 A 
ATOM     40  C   UNL A   1      39.249  29.028  29.214  1.00  0.00     0.049 A 
ATOM     41  N   UNL A   1      39.855  30.113  31.959  1.00  0.00    -0.248 NA
ATOM     42  C   UNL A   1      37.879  31.350  31.858  1.00  0.00     0.031 C 
ATOM     43  C   UNL A   1      39.033  28.522  27.857  1.00  0.00     0.029 A 
ATOM     44  N   UNL A   1      40.438  28.460  29.595  1.00  0.00    -0.354 N 
ATOM     45  C   UNL A   1      39.742  30.896  33.102  1.00  0.00     0.074 A 
ATOM     46  C   UNL A   1      38.540  31.687  32.955  1.00  0.00     0.031 C 
ATOM     47  C   UNL A   1      40.047  27.709  27.523  1.00  0.00     0.029 A 
ATOM     48  C   UNL A   1      41.002  27.664  28.626  1.00  0.00     0.049 A 
ATOM     49  H   UNL A   1      40.847  28.607  30.478  1.00  0.00     0.167 HD
ATOM     50  C   UNL A   1      40.547  30.932  34.190  1.00  0.00     0.034 A 
ATOM     51  C   UNL A   1      42.164  26.982  28.624  1.00  0.00     0.034 A 
ATOM     52  C   UNL A   1      41.722  30.117  34.341  1.00  0.00     0.049 A 
ATOM     53  C   UNL A   1      43.032  27.021  29.853  1.00  0.00     0.074 A 
ATOM     54  C   UNL A   1      42.565  30.018  35.433  1.00  0.00     0.029 A 
ATOM     55  N   UNL A   1      42.228  29.270  33.366  1.00  0.00    -0.354 N 
ATOM     56  N   UNL A   1      42.834  27.655  30.984  1.00  0.00    -0.248 NA
ATOM     57  C   UNL A   1      44.266  26.224  29.818  1.00  0.00     0.031 C 
ATOM     58  C   UNL A   1      43.599  29.135  35.105  1.00  0.00     0.029 A 
ATOM     59  C   UNL A   1      43.377  28.653  33.825  1.00  0.00     0.049 A 
ATOM     60  H   UNL A   1      41.827  29.130  32.477  1.00  0.00     0.167 HD
ATOM     61  C   UNL A   1      43.895  27.301  31.810  1.00  0.00     0.074 A 
ATOM     62  C   UNL A   1      44.723  26.385  31.053  1.00  0.00     0.031 C 
ATOM     63  C   UNL A   1      44.164  27.705  33.076  1.00  0.00     0.034 A 
BRANCH  50  64
ATOM     64  C   UNL A   1      40.156  31.854  35.317  1.00  0.00     0.023 A 
ATOM     65  C   UNL A   1      40.756  33.128  35.419  1.00  0.00     0.012 A 
ATOM     66  C   UNL A   1      39.174  31.479  36.254  1.00  0.00     0.148 A 
ATOM     67  C   UNL A   1      40.420  33.991  36.460  1.00  0.00     0.002 A 
ATOM     68  C   UNL A   1      38.807  32.366  37.260  1.00  0.00     0.091 A 
ATOM     69  F   UNL A   1      38.629  30.258  36.156  1.00  0.00    -0.205 F 
ATOM     70  C   UNL A   1      39.440  33.615  37.374  1.00  0.00     0.022 A 
BRANCH  68  71
ATOM     71  S   UNL A   1      37.499  32.009  38.436  1.00  0.00     0.127 S 
ATOM     72  O   UNL A   1      37.185  30.617  38.114  1.00  0.00    -0.237 OA
ATOM     73  O   UNL A   1      38.178  32.200  39.718  1.00  0.00    -0.237 OA
ATOM     74  O   UNL A   1      36.439  32.968  38.162  1.00  0.00    -0.744 OA
ENDBRANCH  68  71
ENDBRANCH  50  64
BRANCH  51  75
ATOM     75  C   UNL A   1      42.537  26.149  27.447  1.00  0.00     0.023 A 
ATOM     76  C   UNL A   1      43.330  26.710  26.427  1.00  0.00     0.012 A 
ATOM     77  C   UNL A   1      42.140  24.802  27.344  1.00  0.00     0.148 A 
ATOM     78  C   UNL A   1      43.694  25.957  25.310  1.00  0.00     0.002 A 
ATOM     79  C   UNL A   1      42.552  24.040  26.257  1.00  0.00     0.091 A 
ATOM     80  F   UNL A   1      41.381  24.288  28.323  1.00  0.00    -0.205 F 
ATOM     81  C   UNL A   1      43.313  24.620  25.230  1.00  0.00     0.022 A 
BRANCH  79  82
ATOM     82  S   UNL A   1      42.220  22.280  26.128  1.00  0.00     0.127 S 
ATOM     83  O   UNL A   1      40.764  22.258  26.015  1.00  0.00    -0.237 OA
ATOM     84  O   UNL A   1      42.940  21.928  24.905  1.00  0.00    -0.237 OA
ATOM     85  O   UNL A   1      42.767  21.685  27.341  1.00  0.00    -0.744 OA
ENDBRANCH  79  82
ENDBRANCH  51  75
BRANCH  63  86
ATOM     86  C   UNL A   1      45.379  27.125  33.750  1.00  0.00     0.023 A 
ATOM     87  C   UNL A   1      46.607  27.814  33.708  1.00  0.00     0.012 A 
ATOM     88  C   UNL A   1      45.282  25.930  34.491  1.00  0.00     0.148 A 
ATOM     89  C   UNL A   1      47.728  27.304  34.363  1.00  0.00     0.002 A 
ATOM     90  C   UNL A   1      46.388  25.456  35.186  1.00  0.00     0.091 A 
ATOM     91  F   UNL A   1      44.109  25.281  34.505  1.00  0.00    -0.205 F 
ATOM     92  C   UNL A   1      47.615  26.134  35.111  1.00  0.00     0.022 A 
BRANCH  90  93
ATOM     93  S   UNL A   1      46.309  24.016  36.255  1.00  0.00     0.127 S 
ATOM     94  O   UNL A   1      46.439  22.923  35.293  1.00  0.00    -0.237 OA
ATOM     95  O   UNL A   1      47.474  24.210  37.120  1.00  0.00    -0.237 OA
ATOM     96  O   UNL A   1      45.027  24.093  36.942  1.00  0.00    -0.744 OA
ENDBRANCH  90  93
ENDBRANCH  63  86
ENDBRANCH  37  38
ENDBRANCH  29  32
ENDBRANCH  27  28
ENDBRANCH  26  27
ENDBRANCH   1  26
TORSDOF 18
ENDMDL
MODEL 2
REMARK VINA RESULT:     -12.1      2.090      3.027
REMARK SMILES C[C@H]1CCC[C@@]1(C(=O)NCCCCCCNC(=O)c1ccc(-c2c3nc(c(-c4cccc(S(=O)(=O)[O-])c4F)c4ccc([nH]4)c(-c4cccc(S(=O)(=O)[O-])c4F)c4nc(c(-c5cccc(S(=O)(=O)[O-])c5F)c5ccc2[nH]5)C=C4)C=C3)cc1)S(=O)(=O)c1cc(F)ccc1F
REMARK SMILES IDX 13 1 12 2 11 3 10 4 9 5 7 6 8 7 6 9 1 10 2 11 3 12 4 13 5 14
REMARK SMILES IDX 82 15 83 16 84 17 85 18 86 19 91 20 87 21 90 22 92 23 88 24
REMARK SMILES IDX 89 25 14 26 15 27 16 28 17 29 18 31 19 32 20 33 81 34 21 35
REMARK SMILES IDX 80 36 22 37 23 38 24 39 74 40 25 41 79 42 73 43 75 44 26 45
REMARK SMILES IDX 78 46 72 47 71 48 27 50 59 51 39 52 58 53 40 54 43 55 57 56
REMARK SMILES IDX 76 57 41 58 42 59 56 61 77 62 44 63 28 64 29 65 37 66 30 67
REMARK SMILES IDX 32 68 38 69 31 70 33 71 34 72 35 73 36 74 60 75 61 76 69 77
REMARK SMILES IDX 62 78 64 79 70 80 63 81 65 82 66 83 67 84 68 85 45 86 46 87
REMARK SMILES IDX 54 88 47 89 49 90 55 91 48 92 50 93 51 94 52 95 53 96
REMARK H PARENT 9 8 16 30 75 49 43 60
REMARK Flexibility Score: inf
ROOT
ATOM      1  C   UNL A   1      31.324  30.735  26.195  1.00  0.00     0.002 C 
ENDROOT
BRANCH   1   2
ATOM      2  C   UNL A   1      32.247  29.849  27.042  1.00  0.00     0.002 C 
BRANCH   2   3
ATOM      3  C   UNL A   1      31.651  28.527  27.527  1.00  0.00     0.021 C 
BRANCH   3   4
ATOM      4  C   UNL A   1      31.437  27.503  26.427  1.00  0.00     0.116 C 
BRANCH   4   5
ATOM      5  N   UNL A   1      31.041  26.202  26.901  1.00  0.00    -0.355 N 
ATOM      6  C   UNL A   1      31.403  24.964  26.466  1.00  0.00     0.242 C 
ATOM      7  O   UNL A   1      31.218  24.061  27.290  1.00  0.00    -0.273 OA
ATOM      8  H   UNL A   1      30.410  26.210  27.657  1.00  0.00     0.163 HD
BRANCH   6   9
ATOM      9  C   UNL A   1      31.905  24.673  25.050  1.00  0.00     0.157 C 
ATOM     10  C   UNL A   1      30.483  26.321  23.417  1.00  0.00     0.010 C 
ATOM     11  C   UNL A   1      30.818  24.934  23.950  1.00  0.00     0.017 C 
ATOM     12  C   UNL A   1      31.196  24.013  22.786  1.00  0.00     0.005 C 
ATOM     13  C   UNL A   1      31.752  22.761  23.432  1.00  0.00     0.003 C 
ATOM     14  C   UNL A   1      31.963  23.103  24.905  1.00  0.00     0.034 C 
BRANCH   9  15
ATOM     15  S   UNL A   1      33.586  25.306  24.730  1.00  0.00     0.196 S 
ATOM     16  O   UNL A   1      33.658  25.892  23.403  1.00  0.00    -0.222 OA
ATOM     17  O   UNL A   1      33.956  26.144  25.858  1.00  0.00    -0.222 OA
BRANCH  15  18
ATOM     18  C   UNL A   1      34.807  24.016  24.704  1.00  0.00     0.107 A 
ATOM     19  C   UNL A   1      35.433  23.671  23.498  1.00  0.00     0.062 A 
ATOM     20  C   UNL A   1      35.118  23.318  25.866  1.00  0.00     0.142 A 
ATOM     21  C   UNL A   1      36.427  22.697  23.501  1.00  0.00     0.124 A 
ATOM     22  C   UNL A   1      36.126  22.350  25.863  1.00  0.00     0.043 A 
ATOM     23  F   UNL A   1      34.501  23.590  27.021  1.00  0.00    -0.206 F 
ATOM     24  F   UNL A   1      37.084  22.421  22.369  1.00  0.00    -0.207 F 
ATOM     25  C   UNL A   1      36.794  22.047  24.675  1.00  0.00     0.042 A 
ENDBRANCH  15  18
ENDBRANCH   9  15
ENDBRANCH   6   9
ENDBRANCH   4   5
ENDBRANCH   3   4
ENDBRANCH   2   3
ENDBRANCH   1   2
BRANCH   1  26
ATOM     26  C   UNL A   1      31.358  32.234  26.511  1.00  0.00     0.021 C 
BRANCH  26  27
ATOM     27  C   UNL A   1      32.707  32.765  26.977  1.00  0.00     0.116 C 
BRANCH  27  28
ATOM     28  N   UNL A   1      32.587  34.054  27.634  1.00  0.00    -0.352 N 
ATOM     29  C   UNL A   1      33.258  34.531  28.730  1.00  0.00     0.251 C 
ATOM     30  H   UNL A   1      31.934  34.672  27.236  1.00  0.00     0.163 HD
ATOM     31  O   UNL A   1      32.886  35.560  29.279  1.00  0.00    -0.269 OA
BRANCH  29  32
ATOM     32  C   UNL A   1      34.423  33.783  29.245  1.00  0.00     0.039 A 
ATOM     33  C   UNL A   1      35.705  34.280  29.006  1.00  0.00     0.014 A 
ATOM     34  C   UNL A   1      34.244  32.598  29.964  1.00  0.00     0.014 A 
ATOM     35  C   UNL A   1      36.810  33.606  29.525  1.00  0.00     0.010 A 
ATOM     36  C   UNL A   1      35.338  31.978  30.554  1.00  0.00     0.010 A 
ATOM     37  C   UNL A   1      36.634  32.464  30.324  1.00  0.00    -0.014 A 
BRANCH  37  38
ATOM     38  C   UNL A   1      37.791  31.751  30.916  1.00  0.00     0.031 A 
ATOM     39  C   UNL A   1      38.193  32.023  32.340  1.00  0.00     0.074 A 
ATOM     40  C   UNL A   1      38.526  30.922  30.149  1.00  0.00     0.049 A 
ATOM     41  N   UNL A   1      39.204  31.544  33.017  1.00  0.00    -0.248 NA
ATOM     42  C   UNL A   1      37.368  32.981  33.095  1.00  0.00     0.031 C 
ATOM     43  C   UNL A   1      38.276  30.636  28.734  1.00  0.00     0.029 A 
ATOM     44  N   UNL A   1      39.644  30.186  30.444  1.00  0.00    -0.354 N 
ATOM     45  C   UNL A   1      39.158  32.167  34.259  1.00  0.00     0.074 A 
ATOM     46  C   UNL A   1      38.046  33.091  34.227  1.00  0.00     0.031 C 
ATOM     47  C   UNL A   1      39.205  29.777  28.288  1.00  0.00     0.029 A 
ATOM     48  C   UNL A   1      40.136  29.479  29.372  1.00  0.00     0.049 A 
ATOM     49  H   UNL A   1      40.055  30.164  31.338  1.00  0.00     0.167 HD
ATOM     50  C   UNL A   1      39.948  31.967  35.340  1.00  0.00     0.034 A 
ATOM     51  C   UNL A   1      41.221  28.687  29.273  1.00  0.00     0.034 A 
ATOM     52  C   UNL A   1      41.031  31.021  35.373  1.00  0.00     0.049 A 
ATOM     53  C   UNL A   1      42.073  28.464  30.494  1.00  0.00     0.074 A 
ATOM     54  C   UNL A   1      41.845  30.683  36.439  1.00  0.00     0.029 A 
ATOM     55  N   UNL A   1      41.459  30.271  34.288  1.00  0.00    -0.354 N 
ATOM     56  N   UNL A   1      41.926  28.950  31.703  1.00  0.00    -0.248 NA
ATOM     57  C   UNL A   1      43.219  27.556  30.345  1.00  0.00     0.031 C 
ATOM     58  C   UNL A   1      42.787  29.752  35.989  1.00  0.00     0.029 A 
ATOM     59  C   UNL A   1      42.533  29.480  34.654  1.00  0.00     0.049 A 
ATOM     60  H   UNL A   1      41.058  30.299  33.390  1.00  0.00     0.167 HD
ATOM     61  C   UNL A   1      42.935  28.377  32.469  1.00  0.00     0.074 A 
ATOM     62  C   UNL A   1      43.674  27.494  31.589  1.00  0.00     0.031 C 
ATOM     63  C   UNL A   1      43.228  28.569  33.778  1.00  0.00     0.034 A 
BRANCH  50  64
ATOM     64  C   UNL A   1      39.640  32.758  36.586  1.00  0.00     0.023 A 
ATOM     65  C   UNL A   1      40.306  33.980  36.822  1.00  0.00     0.012 A 
ATOM     66  C   UNL A   1      38.670  32.315  37.505  1.00  0.00     0.148 A 
ATOM     67  C   UNL A   1      40.047  34.721  37.973  1.00  0.00     0.002 A 
ATOM     68  C   UNL A   1      38.380  33.085  38.626  1.00  0.00     0.091 A 
ATOM     69  F   UNL A   1      38.061  31.142  37.278  1.00  0.00    -0.205 F 
ATOM     70  C   UNL A   1      39.078  34.280  38.869  1.00  0.00     0.022 A 
BRANCH  68  71
ATOM     71  S   UNL A   1      37.092  32.645  39.798  1.00  0.00     0.127 S 
ATOM     72  O   UNL A   1      35.906  32.641  38.943  1.00  0.00    -0.237 OA
ATOM     73  O   UNL A   1      37.525  31.320  40.245  1.00  0.00    -0.237 OA
ATOM     74  O   UNL A   1      37.117  33.672  40.828  1.00  0.00    -0.744 OA
ENDBRANCH  68  71
ENDBRANCH  50  64
BRANCH  51  75
ATOM     75  C   UNL A   1      41.522  27.992  27.989  1.00  0.00     0.023 A 
ATOM     76  C   UNL A   1      41.963  28.745  26.884  1.00  0.00     0.012 A 
ATOM     77  C   UNL A   1      41.405  26.594  27.865  1.00  0.00     0.148 A 
ATOM     78  C   UNL A   1      42.249  28.124  25.667  1.00  0.00     0.002 A 
ATOM     79  C   UNL A   1      41.745  25.976  26.669  1.00  0.00     0.091 A 
ATOM     80  F   UNL A   1      40.978  25.897  28.928  1.00  0.00    -0.205 F 
ATOM     81  C   UNL A   1      42.150  26.739  25.563  1.00  0.00     0.022 A 
BRANCH  79  82
ATOM     82  S   UNL A   1      41.772  24.190  26.476  1.00  0.00     0.127 S 
ATOM     83  O   UNL A   1      42.416  24.039  25.174  1.00  0.00    -0.237 OA
ATOM     84  O   UNL A   1      42.586  23.778  27.620  1.00  0.00    -0.237 OA
ATOM     85  O   UNL A   1      40.380  23.764  26.544  1.00  0.00    -0.744 OA
ENDBRANCH  79  82
ENDBRANCH  51  75
BRANCH  63  86
ATOM     86  C   UNL A   1      44.368  27.778  34.362  1.00  0.00     0.023 A 
ATOM     87  C   UNL A   1      45.688  28.259  34.259  1.00  0.00     0.012 A 
ATOM     88  C   UNL A   1      44.119  26.592  35.082  1.00  0.00     0.148 A 
ATOM     89  C   UNL A   1      46.746  27.552  34.831  1.00  0.00     0.002 A 
ATOM     90  C   UNL A   1      45.170  25.922  35.696  1.00  0.00     0.091 A 
ATOM     91  F   UNL A   1      42.857  26.142  35.154  1.00  0.00    -0.205 F 
ATOM     92  C   UNL A   1      46.486  26.393  35.560  1.00  0.00     0.022 A 
BRANCH  90  93
ATOM     93  S   UNL A   1      44.917  24.481  36.736  1.00  0.00     0.127 S 
ATOM     94  O   UNL A   1      44.353  23.523  35.786  1.00  0.00    -0.237 OA
ATOM     95  O   UNL A   1      46.279  24.175  37.175  1.00  0.00    -0.237 OA
ATOM     96  O   UNL A   1      44.019  24.905  37.802  1.00  0.00    -0.744 OA
ENDBRANCH  90  93
ENDBRANCH  63  86
ENDBRANCH  37  38
ENDBRANCH  29  32
ENDBRANCH  27  28
ENDBRANCH  26  27
ENDBRANCH   1  26
TORSDOF 18
ENDMDL
MODEL 3
REMARK VINA RESULT:     -12.0      1.819      2.694
REMARK SMILES C[C@H]1CCC[C@@]1(C(=O)NCCCCCCNC(=O)c1ccc(-c2c3nc(c(-c4cccc(S(=O)(=O)[O-])c4F)c4ccc([nH]4)c(-c4cccc(S(=O)(=O)[O-])c4F)c4nc(c(-c5cccc(S(=O)(=O)[O-])c5F)c5ccc2[nH]5)C=C4)C=C3)cc1)S(=O)(=O)c1cc(F)ccc1F
REMARK SMILES IDX 13 1 12 2 11 3 10 4 9 5 7 6 8 7 6 9 1 10 2 11 3 12 4 13 5 14
REMARK SMILES IDX 82 15 83 16 84 17 85 18 86 19 91 20 87 21 90 22 92 23 88 24
REMARK SMILES IDX 89 25 14 26 15 27 16 28 17 29 18 31 19 32 20 33 81 34 21 35
REMARK SMILES IDX 80 36 22 37 23 38 24 39 74 40 25 41 79 42 73 43 75 44 26 45
REMARK SMILES IDX 78 46 72 47 71 48 27 50 59 51 39 52 58 53 40 54 43 55 57 56
REMARK SMILES IDX 76 57 41 58 42 59 56 61 77 62 44 63 28 64 29 65 37 66 30 67
REMARK SMILES IDX 32 68 38 69 31 70 33 71 34 72 35 73 36 74 60 75 61 76 69 77
REMARK SMILES IDX 62 78 64 79 70 80 63 81 65 82 66 83 67 84 68 85 45 86 46 87
REMARK SMILES IDX 54 88 47 89 49 90 55 91 48 92 50 93 51 94 52 95 53 96
REMARK H PARENT 9 8 16 30 75 49 43 60
REMARK Flexibility Score: inf
ROOT
ATOM      1  C   UNL A   1      31.246  29.144  23.957  1.00  0.00     0.002 C 
ENDROOT
BRANCH   1   2
ATOM      2  C   UNL A   1      30.515  27.794  23.984  1.00  0.00     0.002 C 
BRANCH   2   3
ATOM      3  C   UNL A   1      30.508  27.058  25.324  1.00  0.00     0.021 C 
BRANCH   3   4
ATOM      4  C   UNL A   1      29.775  25.730  25.298  1.00  0.00     0.116 C 
BRANCH   4   5
ATOM      5  N   UNL A   1      30.158  24.824  26.350  1.00  0.00    -0.355 N 
ATOM      6  C   UNL A   1      31.261  24.035  26.469  1.00  0.00     0.242 C 
ATOM      7  O   UNL A   1      31.505  23.673  27.625  1.00  0.00    -0.273 OA
ATOM      8  H   UNL A   1      29.522  24.766  27.100  1.00  0.00     0.163 HD
BRANCH   6   9
ATOM      9  C   UNL A   1      32.087  23.543  25.278  1.00  0.00     0.157 C 
ATOM     10  C   UNL A   1      30.431  23.701  23.125  1.00  0.00     0.010 C 
ATOM     11  C   UNL A   1      31.210  22.891  24.153  1.00  0.00     0.017 C 
ATOM     12  C   UNL A   1      32.142  21.909  23.437  1.00  0.00     0.005 C 
ATOM     13  C   UNL A   1      33.042  21.350  24.520  1.00  0.00     0.003 C 
ATOM     14  C   UNL A   1      32.818  22.227  25.750  1.00  0.00     0.034 C 
BRANCH   9  15
ATOM     15  S   UNL A   1      33.379  24.719  24.754  1.00  0.00     0.196 S 
ATOM     16  O   UNL A   1      33.132  25.163  23.392  1.00  0.00    -0.222 OA
ATOM     17  O   UNL A   1      33.483  25.738  25.786  1.00  0.00    -0.222 OA
BRANCH  15  18
ATOM     18  C   UNL A   1      34.991  23.977  24.686  1.00  0.00     0.107 A 
ATOM     19  C   UNL A   1      35.853  24.077  25.788  1.00  0.00     0.062 A 
ATOM     20  C   UNL A   1      35.421  23.331  23.531  1.00  0.00     0.142 A 
ATOM     21  C   UNL A   1      37.092  23.445  25.742  1.00  0.00     0.124 A 
ATOM     22  C   UNL A   1      36.661  22.689  23.499  1.00  0.00     0.043 A 
ATOM     23  F   UNL A   1      34.641  23.264  22.447  1.00  0.00    -0.206 F 
ATOM     24  F   UNL A   1      37.884  23.468  26.820  1.00  0.00    -0.207 F 
ATOM     25  C   UNL A   1      37.496  22.734  24.617  1.00  0.00     0.042 A 
ENDBRANCH  15  18
ENDBRANCH   9  15
ENDBRANCH   6   9
ENDBRANCH   4   5
ENDBRANCH   3   4
ENDBRANCH   2   3
ENDBRANCH   1   2
BRANCH   1  26
ATOM     26  C   UNL A   1      32.767  29.086  24.121  1.00  0.00     0.021 C 
BRANCH  26  27
ATOM     27  C   UNL A   1      33.278  29.385  25.524  1.00  0.00     0.116 C 
BRANCH  27  28
ATOM     28  N   UNL A   1      32.898  30.712  25.971  1.00  0.00    -0.352 N 
ATOM     29  C   UNL A   1      33.400  31.450  27.012  1.00  0.00     0.251 C 
ATOM     30  H   UNL A   1      32.181  31.143  25.454  1.00  0.00     0.163 HD
ATOM     31  O   UNL A   1      32.823  32.465  27.381  1.00  0.00    -0.269 OA
BRANCH  29  32
ATOM     32  C   UNL A   1      34.635  31.000  27.686  1.00  0.00     0.039 A 
ATOM     33  C   UNL A   1      35.693  31.898  27.829  1.00  0.00     0.014 A 
ATOM     34  C   UNL A   1      34.739  29.695  28.178  1.00  0.00     0.014 A 
ATOM     35  C   UNL A   1      36.847  31.496  28.504  1.00  0.00     0.010 A 
ATOM     36  C   UNL A   1      35.851  29.327  28.924  1.00  0.00     0.010 A 
ATOM     37  C   UNL A   1      36.924  30.217  29.079  1.00  0.00    -0.014 A 
BRANCH  37  38
ATOM     38  C   UNL A   1      38.125  29.781  29.829  1.00  0.00     0.031 A 
ATOM     39  C   UNL A   1      38.393  30.332  31.204  1.00  0.00     0.074 A 
ATOM     40  C   UNL A   1      39.013  28.954  29.244  1.00  0.00     0.049 A 
ATOM     41  N   UNL A   1      39.412  30.118  31.994  1.00  0.00    -0.248 NA
ATOM     42  C   UNL A   1      37.398  31.270  31.751  1.00  0.00     0.031 C 
ATOM     43  C   UNL A   1      38.897  28.412  27.888  1.00  0.00     0.029 A 
ATOM     44  N   UNL A   1      40.199  28.442  29.706  1.00  0.00    -0.354 N 
ATOM     45  C   UNL A   1      39.202  30.918  33.111  1.00  0.00     0.074 A 
ATOM     46  C   UNL A   1      37.980  31.656  32.877  1.00  0.00     0.031 C 
ATOM     47  C   UNL A   1      39.961  27.635  27.633  1.00  0.00     0.029 A 
ATOM     48  C   UNL A   1      40.850  27.651  28.789  1.00  0.00     0.049 A 
ATOM     49  H   UNL A   1      40.549  28.624  30.607  1.00  0.00     0.167 HD
ATOM     50  C   UNL A   1      39.939  31.009  34.243  1.00  0.00     0.034 A 
ATOM     51  C   UNL A   1      42.036  27.017  28.871  1.00  0.00     0.034 A 
ATOM     52  C   UNL A   1      41.135  30.246  34.480  1.00  0.00     0.049 A 
ATOM     53  C   UNL A   1      42.828  27.117  30.147  1.00  0.00     0.074 A 
ATOM     54  C   UNL A   1      41.915  30.203  35.621  1.00  0.00     0.029 A 
ATOM     55  N   UNL A   1      41.730  29.401  33.555  1.00  0.00    -0.354 N 
ATOM     56  N   UNL A   1      42.539  27.764  31.250  1.00  0.00    -0.248 NA
ATOM     57  C   UNL A   1      44.093  26.371  30.201  1.00  0.00     0.031 C 
ATOM     58  C   UNL A   1      43.001  29.357  35.374  1.00  0.00     0.029 A 
ATOM     59  C   UNL A   1      42.874  28.841  34.094  1.00  0.00     0.049 A 
ATOM     60  H   UNL A   1      41.388  29.227  32.648  1.00  0.00     0.167 HD
ATOM     61  C   UNL A   1      43.563  27.471  32.144  1.00  0.00     0.074 A 
ATOM     62  C   UNL A   1      44.470  26.574  31.456  1.00  0.00     0.031 C 
ATOM     63  C   UNL A   1      43.741  27.911  33.413  1.00  0.00     0.034 A 
BRANCH  50  64
ATOM     64  C   UNL A   1      39.446  31.937  35.324  1.00  0.00     0.023 A 
ATOM     65  C   UNL A   1      38.506  31.473  36.269  1.00  0.00     0.012 A 
ATOM     66  C   UNL A   1      39.935  33.253  35.430  1.00  0.00     0.148 A 
ATOM     67  C   UNL A   1      38.026  32.316  37.269  1.00  0.00     0.002 A 
ATOM     68  C   UNL A   1      39.489  34.073  36.461  1.00  0.00     0.091 A 
ATOM     69  F   UNL A   1      40.812  33.686  34.512  1.00  0.00    -0.205 F 
ATOM     70  C   UNL A   1      38.524  33.612  37.371  1.00  0.00     0.022 A 
BRANCH  68  71
ATOM     71  S   UNL A   1      40.130  35.729  36.727  1.00  0.00     0.127 S 
ATOM     72  O   UNL A   1      39.653  36.425  35.532  1.00  0.00    -0.237 OA
ATOM     73  O   UNL A   1      39.461  36.121  37.968  1.00  0.00    -0.237 OA
ATOM     74  O   UNL A   1      41.575  35.589  36.834  1.00  0.00    -0.744 OA
ENDBRANCH  68  71
ENDBRANCH  50  64
BRANCH  51  75
ATOM     75  C   UNL A   1      42.511  26.176  27.736  1.00  0.00     0.023 A 
ATOM     76  C   UNL A   1      43.456  26.703  26.834  1.00  0.00     0.012 A 
ATOM     77  C   UNL A   1      42.058  24.854  27.561  1.00  0.00     0.148 A 
ATOM     78  C   UNL A   1      43.918  25.942  25.760  1.00  0.00     0.002 A 
ATOM     79  C   UNL A   1      42.563  24.082  26.522  1.00  0.00     0.091 A 
ATOM     80  F   UNL A   1      41.155  24.374  28.427  1.00  0.00    -0.205 F 
ATOM     81  C   UNL A   1      43.479  24.629  25.610  1.00  0.00     0.022 A 
BRANCH  79  82
ATOM     82  S   UNL A   1      42.157  22.344  26.322  1.00  0.00     0.127 S 
ATOM     83  O   UNL A   1      42.929  21.991  25.134  1.00  0.00    -0.237 OA
ATOM     84  O   UNL A   1      42.654  21.775  27.574  1.00  0.00    -0.237 OA
ATOM     85  O   UNL A   1      40.708  22.292  26.171  1.00  0.00    -0.744 OA
ENDBRANCH  79  82
ENDBRANCH  51  75
BRANCH  63  86
ATOM     86  C   UNL A   1      44.936  27.395  34.170  1.00  0.00     0.023 A 
ATOM     87  C   UNL A   1      46.142  28.124  34.168  1.00  0.00     0.012 A 
ATOM     88  C   UNL A   1      44.838  26.222  34.945  1.00  0.00     0.148 A 
ATOM     89  C   UNL A   1      47.242  27.674  34.898  1.00  0.00     0.002 A 
ATOM     90  C   UNL A   1      45.920  25.809  35.712  1.00  0.00     0.091 A 
ATOM     91  F   UNL A   1      43.687  25.534  34.919  1.00  0.00    -0.205 F 
ATOM     92  C   UNL A   1      47.127  26.526  35.679  1.00  0.00     0.022 A 
BRANCH  90  93
ATOM     93  S   UNL A   1      45.831  24.403  36.825  1.00  0.00     0.127 S 
ATOM     94  O   UNL A   1      45.776  23.283  35.886  1.00  0.00    -0.237 OA
ATOM     95  O   UNL A   1      47.087  24.516  37.567  1.00  0.00    -0.237 OA
ATOM     96  O   UNL A   1      44.633  24.600  37.630  1.00  0.00    -0.744 OA
ENDBRANCH  90  93
ENDBRANCH  63  86
ENDBRANCH  37  38
ENDBRANCH  29  32
ENDBRANCH  27  28
ENDBRANCH  26  27
ENDBRANCH   1  26
TORSDOF 18
ENDMDL
