MODEL 1
REMARK VINA RESULT:     -12.5      0.000      0.000
REMARK SMILES Cc1ccc(NC(=O)C[C@H]2SC[C@H](C(=O)NCCCCCCNC(=O)c3ccc(-c4c5nc(c(-c6cccc(S(=O)(=O)[O-])c6F)c6ccc([nH]6)c(-c6cccc(S(=O)(=O)[O-])c6F)c6nc(c(-c7cccc(S(=O)(=O)[O-])c7F)c7ccc4[nH]7)C=C6)C=C5)cc3)NC2=O)cc1
REMARK SMILES IDX 19 1 18 2 17 3 16 4 14 5 15 6 13 8 10 9 11 10 90 11 12 12
REMARK SMILES IDX 89 13 91 14 9 16 7 17 6 18 8 20 5 21 1 22 2 23 3 24 93 25
REMARK SMILES IDX 4 26 92 27 20 28 21 29 22 30 23 31 24 32 25 34 26 35 27 36
REMARK SMILES IDX 88 37 28 38 87 39 29 40 30 41 31 42 81 43 32 44 86 45 80 46
REMARK SMILES IDX 82 47 33 48 85 49 79 50 78 51 34 53 66 54 46 55 65 56 47 57
REMARK SMILES IDX 50 58 64 59 83 60 48 61 49 62 63 64 84 65 51 66 35 67 36 68
REMARK SMILES IDX 44 69 37 70 39 71 45 72 38 73 40 74 41 75 42 76 43 77 67 78
REMARK SMILES IDX 68 79 76 80 69 81 71 82 77 83 70 84 72 85 73 86 74 87 75 88
REMARK SMILES IDX 52 89 53 90 61 91 54 92 56 93 62 94 55 95 57 96 58 97 59 98
REMARK SMILES IDX 60 99
REMARK H PARENT 16 7 89 15 6 19 23 33 82 52 50 63
REMARK Flexibility Score: inf
ROOT
ATOM      1  C   UNL A   1      33.941  28.672  26.039  1.00  0.00     0.002 C 
ENDROOT
BRANCH   1   2
ATOM      2  C   UNL A   1      32.930  29.345  25.096  1.00  0.00     0.021 C 
BRANCH   2   3
ATOM      3  C   UNL A   1      33.129  29.035  23.611  1.00  0.00     0.116 C 
BRANCH   3   4
ATOM      4  N   UNL A   1      31.877  29.143  22.888  1.00  0.00    -0.354 N 
ATOM      5  C   UNL A   1      30.893  28.230  22.667  1.00  0.00     0.243 C 
ATOM      6  O   UNL A   1      29.940  28.576  21.964  1.00  0.00    -0.273 OA
ATOM      7  H   UNL A   1      31.711  30.027  22.490  1.00  0.00     0.163 HD
BRANCH   5   8
ATOM      8  C   UNL A   1      30.923  26.837  23.311  1.00  0.00     0.181 C 
ATOM      9  C   UNL A   1      31.856  25.096  25.610  1.00  0.00     0.145 C 
ATOM     10  S   UNL A   1      32.227  24.468  23.912  1.00  0.00    -0.145 SA
ATOM     11  C   UNL A   1      30.549  25.902  25.587  1.00  0.00     0.234 C 
ATOM     12  C   UNL A   1      32.217  26.073  23.043  1.00  0.00     0.105 C 
ATOM     13  N   UNL A   1      30.499  26.952  24.705  1.00  0.00    -0.343 N 
ATOM     14  O   UNL A   1      29.601  25.754  26.352  1.00  0.00    -0.274 OA
ATOM     15  H   UNL A   1      30.161  27.820  25.025  1.00  0.00     0.164 HD
BRANCH   9  16
ATOM     16  C   UNL A   1      31.996  23.957  26.627  1.00  0.00     0.124 C 
BRANCH  16  17
ATOM     17  C   UNL A   1      31.386  22.610  26.299  1.00  0.00     0.226 C 
ATOM     18  N   UNL A   1      32.116  21.514  25.962  1.00  0.00    -0.326 N 
ATOM     19  H   UNL A   1      31.573  20.698  25.871  1.00  0.00     0.169 HD
ATOM     20  O   UNL A   1      30.156  22.475  26.345  1.00  0.00    -0.275 OA
BRANCH  18  21
ATOM     21  C   UNL A   1      33.477  21.303  25.718  1.00  0.00     0.041 A 
ATOM     22  C   UNL A   1      37.603  20.325  24.915  1.00  0.00     0.044 C 
ATOM     23  C   UNL A   1      36.165  20.670  25.167  1.00  0.00    -0.051 A 
ATOM     24  C   UNL A   1      35.830  21.854  25.833  1.00  0.00     0.005 A 
ATOM     25  C   UNL A   1      35.143  19.813  24.758  1.00  0.00     0.005 A 
ATOM     26  C   UNL A   1      34.493  22.173  26.101  1.00  0.00     0.026 A 
ATOM     27  C   UNL A   1      33.810  20.138  25.016  1.00  0.00     0.026 A 
ENDBRANCH  18  21
ENDBRANCH  16  17
ENDBRANCH   9  16
ENDBRANCH   5   8
ENDBRANCH   3   4
ENDBRANCH   2   3
ENDBRANCH   1   2
BRANCH   1  28
ATOM     28  C   UNL A   1      34.333  29.462  27.297  1.00  0.00     0.002 C 
BRANCH  28  29
ATOM     29  C   UNL A   1      33.640  30.811  27.492  1.00  0.00     0.021 C 
BRANCH  29  30
ATOM     30  C   UNL A   1      34.584  31.965  27.795  1.00  0.00     0.116 C 
BRANCH  30  31
ATOM     31  N   UNL A   1      33.959  33.086  28.468  1.00  0.00    -0.352 N 
ATOM     32  C   UNL A   1      34.344  33.748  29.618  1.00  0.00     0.251 C 
ATOM     33  H   UNL A   1      33.139  33.427  28.041  1.00  0.00     0.163 HD
ATOM     34  O   UNL A   1      33.545  34.539  30.118  1.00  0.00    -0.269 OA
BRANCH  32  35
ATOM     35  C   UNL A   1      35.720  33.600  30.170  1.00  0.00     0.039 A 
ATOM     36  C   UNL A   1      36.796  34.048  29.388  1.00  0.00     0.014 A 
ATOM     37  C   UNL A   1      35.981  32.886  31.337  1.00  0.00     0.014 A 
ATOM     38  C   UNL A   1      38.085  33.573  29.633  1.00  0.00     0.010 A 
ATOM     39  C   UNL A   1      37.237  32.355  31.544  1.00  0.00     0.010 A 
ATOM     40  C   UNL A   1      38.268  32.638  30.646  1.00  0.00    -0.014 A 
BRANCH  40  41
ATOM     41  C   UNL A   1      39.429  31.768  30.765  1.00  0.00     0.031 A 
ATOM     42  C   UNL A   1      39.512  30.474  30.073  1.00  0.00     0.074 A 
ATOM     43  C   UNL A   1      40.527  32.286  31.359  1.00  0.00     0.049 A 
ATOM     44  N   UNL A   1      40.311  29.525  30.427  1.00  0.00    -0.248 NA
ATOM     45  C   UNL A   1      38.696  30.158  28.910  1.00  0.00     0.031 C 
ATOM     46  C   UNL A   1      41.904  31.822  31.250  1.00  0.00     0.029 A 
ATOM     47  N   UNL A   1      40.574  33.265  32.357  1.00  0.00    -0.354 N 
ATOM     48  C   UNL A   1      40.330  28.610  29.397  1.00  0.00     0.074 A 
ATOM     49  C   UNL A   1      39.252  29.006  28.517  1.00  0.00     0.031 C 
ATOM     50  C   UNL A   1      42.599  32.295  32.297  1.00  0.00     0.029 A 
ATOM     51  C   UNL A   1      41.643  32.917  33.197  1.00  0.00     0.049 A 
ATOM     52  H   UNL A   1      39.977  34.042  32.450  1.00  0.00     0.167 HD
ATOM     53  C   UNL A   1      41.365  27.729  29.294  1.00  0.00     0.034 A 
ATOM     54  C   UNL A   1      41.501  32.641  34.527  1.00  0.00     0.034 A 
ATOM     55  C   UNL A   1      42.346  27.922  30.368  1.00  0.00     0.049 A 
ATOM     56  C   UNL A   1      42.023  31.268  34.912  1.00  0.00     0.074 A 
ATOM     57  C   UNL A   1      43.544  28.618  30.423  1.00  0.00     0.029 A 
ATOM     58  N   UNL A   1      42.019  27.602  31.679  1.00  0.00    -0.354 N 
ATOM     59  N   UNL A   1      42.418  30.368  34.055  1.00  0.00    -0.248 NA
ATOM     60  C   UNL A   1      42.092  30.782  36.287  1.00  0.00     0.031 C 
ATOM     61  C   UNL A   1      43.904  28.771  31.786  1.00  0.00     0.029 A 
ATOM     62  C   UNL A   1      42.937  28.156  32.561  1.00  0.00     0.049 A 
ATOM     63  H   UNL A   1      41.242  27.059  31.946  1.00  0.00     0.167 HD
ATOM     64  C   UNL A   1      42.611  29.171  34.696  1.00  0.00     0.074 A 
ATOM     65  C   UNL A   1      42.494  29.511  36.103  1.00  0.00     0.031 C 
ATOM     66  C   UNL A   1      42.768  28.000  34.002  1.00  0.00     0.034 A 
BRANCH  53  67
ATOM     67  C   UNL A   1      41.670  26.968  28.018  1.00  0.00     0.023 A 
ATOM     68  C   UNL A   1      41.603  27.675  26.796  1.00  0.00     0.012 A 
ATOM     69  C   UNL A   1      41.956  25.588  27.926  1.00  0.00     0.148 A 
ATOM     70  C   UNL A   1      41.686  27.040  25.554  1.00  0.00     0.002 A 
ATOM     71  C   UNL A   1      41.965  24.939  26.686  1.00  0.00     0.091 A 
ATOM     72  F   UNL A   1      42.281  24.908  29.033  1.00  0.00    -0.205 F 
ATOM     73  C   UNL A   1      41.824  25.663  25.498  1.00  0.00     0.022 A 
BRANCH  71  74
ATOM     74  S   UNL A   1      42.011  23.144  26.543  1.00  0.00     0.127 S 
ATOM     75  O   UNL A   1      42.543  22.952  25.192  1.00  0.00    -0.237 OA
ATOM     76  O   UNL A   1      42.926  22.764  27.615  1.00  0.00    -0.237 OA
ATOM     77  O   UNL A   1      40.629  22.704  26.696  1.00  0.00    -0.744 OA
ENDBRANCH  71  74
ENDBRANCH  53  67
BRANCH  54  78
ATOM     78  C   UNL A   1      40.321  33.309  35.155  1.00  0.00     0.023 A 
ATOM     79  C   UNL A   1      39.064  32.672  35.006  1.00  0.00     0.012 A 
ATOM     80  C   UNL A   1      40.479  34.262  36.175  1.00  0.00     0.148 A 
ATOM     81  C   UNL A   1      38.044  32.873  35.938  1.00  0.00     0.002 A 
ATOM     82  C   UNL A   1      39.452  34.463  37.097  1.00  0.00     0.091 A 
ATOM     83  F   UNL A   1      41.651  34.901  36.284  1.00  0.00    -0.205 F 
ATOM     84  C   UNL A   1      38.252  33.742  37.005  1.00  0.00     0.022 A 
BRANCH  82  85
ATOM     85  S   UNL A   1      39.685  35.556  38.505  1.00  0.00     0.127 S 
ATOM     86  O   UNL A   1      39.421  36.862  37.910  1.00  0.00    -0.237 OA
ATOM     87  O   UNL A   1      38.664  35.093  39.445  1.00  0.00    -0.237 OA
ATOM     88  O   UNL A   1      41.050  35.299  38.939  1.00  0.00    -0.744 OA
ENDBRANCH  82  85
ENDBRANCH  54  78
BRANCH  66  89
ATOM     89  C   UNL A   1      42.753  26.600  34.594  1.00  0.00     0.023 A 
ATOM     90  C   UNL A   1      41.652  26.089  35.306  1.00  0.00     0.012 A 
ATOM     91  C   UNL A   1      43.807  25.686  34.321  1.00  0.00     0.148 A 
ATOM     92  C   UNL A   1      41.614  24.768  35.769  1.00  0.00     0.002 A 
ATOM     93  C   UNL A   1      43.712  24.345  34.684  1.00  0.00     0.091 A 
ATOM     94  F   UNL A   1      44.928  26.115  33.723  1.00  0.00    -0.205 F 
ATOM     95  C   UNL A   1      42.630  23.886  35.435  1.00  0.00     0.022 A 
BRANCH  93  96
ATOM     96  S   UNL A   1      44.893  23.140  34.056  1.00  0.00     0.127 S 
ATOM     97  O   UNL A   1      44.331  21.880  34.536  1.00  0.00    -0.237 OA
ATOM     98  O   UNL A   1      44.804  23.331  32.606  1.00  0.00    -0.237 OA
ATOM     99  O   UNL A   1      46.170  23.542  34.631  1.00  0.00    -0.744 OA
ENDBRANCH  93  96
ENDBRANCH  66  89
ENDBRANCH  40  41
ENDBRANCH  32  35
ENDBRANCH  30  31
ENDBRANCH  29  30
ENDBRANCH  28  29
ENDBRANCH   1  28
TORSDOF 19
ENDMDL
MODEL 2
REMARK VINA RESULT:     -12.4      5.193     11.113
REMARK SMILES Cc1ccc(NC(=O)C[C@H]2SC[C@H](C(=O)NCCCCCCNC(=O)c3ccc(-c4c5nc(c(-c6cccc(S(=O)(=O)[O-])c6F)c6ccc([nH]6)c(-c6cccc(S(=O)(=O)[O-])c6F)c6nc(c(-c7cccc(S(=O)(=O)[O-])c7F)c7ccc4[nH]7)C=C6)C=C5)cc3)NC2=O)cc1
REMARK SMILES IDX 19 1 18 2 17 3 16 4 14 5 15 6 13 8 10 9 11 10 90 11 12 12
REMARK SMILES IDX 89 13 91 14 9 16 7 17 6 18 8 20 5 21 1 22 2 23 3 24 93 25
REMARK SMILES IDX 4 26 92 27 20 28 21 29 22 30 23 31 24 32 25 34 26 35 27 36
REMARK SMILES IDX 88 37 28 38 87 39 29 40 30 41 31 42 81 43 32 44 86 45 80 46
REMARK SMILES IDX 82 47 33 48 85 49 79 50 78 51 34 53 66 54 46 55 65 56 47 57
REMARK SMILES IDX 50 58 64 59 83 60 48 61 49 62 63 64 84 65 51 66 35 67 36 68
REMARK SMILES IDX 44 69 37 70 39 71 45 72 38 73 40 74 41 75 42 76 43 77 67 78
REMARK SMILES IDX 68 79 76 80 69 81 71 82 77 83 70 84 72 85 73 86 74 87 75 88
REMARK SMILES IDX 52 89 53 90 61 91 54 92 56 93 62 94 55 95 57 96 58 97 59 98
REMARK SMILES IDX 60 99
REMARK H PARENT 16 7 89 15 6 19 23 33 82 52 50 63
REMARK Flexibility Score: inf
ROOT
ATOM      1  C   UNL A   1      39.077  22.073  26.052  1.00  0.00     0.002 C 
ENDROOT
BRANCH   1   2
ATOM      2  C   UNL A   1      38.346  20.788  25.631  1.00  0.00     0.021 C 
BRANCH   2   3
ATOM      3  C   UNL A   1      37.041  21.012  24.864  1.00  0.00     0.116 C 
BRANCH   3   4
ATOM      4  N   UNL A   1      35.895  20.860  25.740  1.00  0.00    -0.354 N 
ATOM      5  C   UNL A   1      34.688  21.486  25.745  1.00  0.00     0.243 C 
ATOM      6  O   UNL A   1      33.898  21.197  26.648  1.00  0.00    -0.273 OA
ATOM      7  H   UNL A   1      36.011  20.190  26.451  1.00  0.00     0.163 HD
BRANCH   5   8
ATOM      8  C   UNL A   1      34.283  22.472  24.642  1.00  0.00     0.181 C 
ATOM      9  C   UNL A   1      32.117  24.204  23.419  1.00  0.00     0.145 C 
ATOM     10  S   UNL A   1      32.989  23.056  22.263  1.00  0.00    -0.145 SA
ATOM     11  C   UNL A   1      33.081  24.648  24.528  1.00  0.00     0.234 C 
ATOM     12  C   UNL A   1      33.521  21.817  23.493  1.00  0.00     0.105 C 
ATOM     13  N   UNL A   1      33.670  23.647  25.258  1.00  0.00    -0.343 N 
ATOM     14  O   UNL A   1      33.285  25.806  24.880  1.00  0.00    -0.274 OA
ATOM     15  H   UNL A   1      33.680  23.724  26.240  1.00  0.00     0.164 HD
BRANCH   9  16
ATOM     16  C   UNL A   1      31.374  25.281  22.620  1.00  0.00     0.124 C 
BRANCH  16  17
ATOM     17  C   UNL A   1      32.183  26.354  21.919  1.00  0.00     0.226 C 
ATOM     18  N   UNL A   1      31.819  27.662  21.873  1.00  0.00    -0.326 N 
ATOM     19  H   UNL A   1      32.500  28.241  21.460  1.00  0.00     0.169 HD
ATOM     20  O   UNL A   1      33.243  26.044  21.361  1.00  0.00    -0.275 OA
BRANCH  18  21
ATOM     21  C   UNL A   1      30.680  28.360  22.290  1.00  0.00     0.041 A 
ATOM     22  C   UNL A   1      27.344  30.795  23.541  1.00  0.00     0.044 C 
ATOM     23  C   UNL A   1      28.495  29.951  23.080  1.00  0.00    -0.051 A 
ATOM     24  C   UNL A   1      28.526  28.582  23.369  1.00  0.00     0.005 A 
ATOM     25  C   UNL A   1      29.557  30.516  22.374  1.00  0.00     0.005 A 
ATOM     26  C   UNL A   1      29.608  27.789  22.970  1.00  0.00     0.026 A 
ATOM     27  C   UNL A   1      30.631  29.722  21.966  1.00  0.00     0.026 A 
ENDBRANCH  18  21
ENDBRANCH  16  17
ENDBRANCH   9  16
ENDBRANCH   5   8
ENDBRANCH   3   4
ENDBRANCH   2   3
ENDBRANCH   1   2
BRANCH   1  28
ATOM     28  C   UNL A   1      40.491  21.899  26.628  1.00  0.00     0.002 C 
BRANCH  28  29
ATOM     29  C   UNL A   1      40.850  20.498  27.125  1.00  0.00     0.021 C 
BRANCH  29  30
ATOM     30  C   UNL A   1      42.335  20.279  27.369  1.00  0.00     0.116 C 
BRANCH  30  31
ATOM     31  N   UNL A   1      43.055  19.747  26.230  1.00  0.00    -0.352 N 
ATOM     32  C   UNL A   1      43.739  20.413  25.230  1.00  0.00     0.251 C 
ATOM     33  H   UNL A   1      43.058  18.765  26.157  1.00  0.00     0.163 HD
ATOM     34  O   UNL A   1      44.099  19.762  24.250  1.00  0.00    -0.269 OA
BRANCH  32  35
ATOM     35  C   UNL A   1      44.131  21.842  25.384  1.00  0.00     0.039 A 
ATOM     36  C   UNL A   1      45.171  22.149  26.276  1.00  0.00     0.014 A 
ATOM     37  C   UNL A   1      43.397  22.881  24.815  1.00  0.00     0.014 A 
ATOM     38  C   UNL A   1      45.301  23.444  26.780  1.00  0.00     0.010 A 
ATOM     39  C   UNL A   1      43.472  24.146  25.361  1.00  0.00     0.010 A 
ATOM     40  C   UNL A   1      44.372  24.405  26.396  1.00  0.00    -0.014 A 
BRANCH  40  41
ATOM     41  C   UNL A   1      44.128  25.648  27.112  1.00  0.00     0.031 A 
ATOM     42  C   UNL A   1      42.806  26.289  27.140  1.00  0.00     0.074 A 
ATOM     43  C   UNL A   1      45.106  26.084  27.937  1.00  0.00     0.049 A 
ATOM     44  N   UNL A   1      42.621  27.535  27.422  1.00  0.00    -0.248 NA
ATOM     45  C   UNL A   1      41.579  25.558  26.859  1.00  0.00     0.031 C 
ATOM     46  C   UNL A   1      44.986  27.022  29.046  1.00  0.00     0.029 A 
ATOM     47  N   UNL A   1      46.483  25.885  27.804  1.00  0.00    -0.354 N 
ATOM     48  C   UNL A   1      41.272  27.702  27.642  1.00  0.00     0.074 A 
ATOM     49  C   UNL A   1      40.659  26.468  27.201  1.00  0.00     0.031 C 
ATOM     50  C   UNL A   1      46.202  27.524  29.315  1.00  0.00     0.029 A 
ATOM     51  C   UNL A   1      47.096  27.060  28.267  1.00  0.00     0.049 A 
ATOM     52  H   UNL A   1      46.933  25.081  27.457  1.00  0.00     0.167 HD
ATOM     53  C   UNL A   1      40.830  28.785  28.343  1.00  0.00     0.034 A 
ATOM     54  C   UNL A   1      47.898  27.851  27.494  1.00  0.00     0.034 A 
ATOM     55  C   UNL A   1      41.943  29.640  28.772  1.00  0.00     0.049 A 
ATOM     56  C   UNL A   1      47.418  29.289  27.410  1.00  0.00     0.074 A 
ATOM     57  C   UNL A   1      42.646  29.727  29.964  1.00  0.00     0.029 A 
ATOM     58  N   UNL A   1      42.669  30.365  27.836  1.00  0.00    -0.354 N 
ATOM     59  N   UNL A   1      46.278  29.710  27.883  1.00  0.00    -0.248 NA
ATOM     60  C   UNL A   1      48.161  30.355  26.744  1.00  0.00     0.031 C 
ATOM     61  C   UNL A   1      43.836  30.459  29.723  1.00  0.00     0.029 A 
ATOM     62  C   UNL A   1      43.853  30.831  28.390  1.00  0.00     0.049 A 
ATOM     63  H   UNL A   1      42.384  30.524  26.907  1.00  0.00     0.167 HD
ATOM     64  C   UNL A   1      46.042  30.991  27.452  1.00  0.00     0.074 A 
ATOM     65  C   UNL A   1      47.295  31.381  26.831  1.00  0.00     0.031 C 
ATOM     66  C   UNL A   1      44.809  31.576  27.578  1.00  0.00     0.034 A 
BRANCH  53  67
ATOM     67  C   UNL A   1      39.445  28.855  28.957  1.00  0.00     0.023 A 
ATOM     68  C   UNL A   1      38.348  29.048  28.088  1.00  0.00     0.012 A 
ATOM     69  C   UNL A   1      39.149  28.809  30.336  1.00  0.00     0.148 A 
ATOM     70  C   UNL A   1      37.056  29.307  28.554  1.00  0.00     0.002 A 
ATOM     71  C   UNL A   1      37.874  29.142  30.807  1.00  0.00     0.091 A 
ATOM     72  F   UNL A   1      40.084  28.385  31.197  1.00  0.00    -0.205 F 
ATOM     73  C   UNL A   1      36.826  29.397  29.916  1.00  0.00     0.022 A 
BRANCH  71  74
ATOM     74  S   UNL A   1      37.534  29.403  32.557  1.00  0.00     0.127 S 
ATOM     75  O   UNL A   1      38.670  30.230  32.975  1.00  0.00    -0.237 OA
ATOM     76  O   UNL A   1      36.253  30.103  32.530  1.00  0.00    -0.237 OA
ATOM     77  O   UNL A   1      37.525  28.075  33.157  1.00  0.00    -0.744 OA
ENDBRANCH  71  74
ENDBRANCH  53  67
BRANCH  54  78
ATOM     78  C   UNL A   1      48.573  27.114  26.383  1.00  0.00     0.023 A 
ATOM     79  C   UNL A   1      48.048  27.289  25.079  1.00  0.00     0.012 A 
ATOM     80  C   UNL A   1      49.881  26.620  26.524  1.00  0.00     0.148 A 
ATOM     81  C   UNL A   1      48.854  27.117  23.952  1.00  0.00     0.002 A 
ATOM     82  C   UNL A   1      50.677  26.443  25.393  1.00  0.00     0.091 A 
ATOM     83  F   UNL A   1      50.360  26.407  27.757  1.00  0.00    -0.205 F 
ATOM     84  C   UNL A   1      50.181  26.729  24.113  1.00  0.00     0.022 A 
BRANCH  82  85
ATOM     85  S   UNL A   1      52.404  25.968  25.553  1.00  0.00     0.127 S 
ATOM     86  O   UNL A   1      52.290  24.658  26.185  1.00  0.00    -0.237 OA
ATOM     87  O   UNL A   1      52.861  25.942  24.164  1.00  0.00    -0.237 OA
ATOM     88  O   UNL A   1      52.997  27.030  26.352  1.00  0.00    -0.744 OA
ENDBRANCH  82  85
ENDBRANCH  54  78
BRANCH  66  89
ATOM     89  C   UNL A   1      44.370  32.882  26.935  1.00  0.00     0.023 A 
ATOM     90  C   UNL A   1      44.229  33.033  25.543  1.00  0.00     0.012 A 
ATOM     91  C   UNL A   1      43.935  33.974  27.735  1.00  0.00     0.148 A 
ATOM     92  C   UNL A   1      43.737  34.211  24.969  1.00  0.00     0.002 A 
ATOM     93  C   UNL A   1      43.341  35.097  27.165  1.00  0.00     0.091 A 
ATOM     94  F   UNL A   1      44.114  33.943  29.064  1.00  0.00    -0.205 F 
ATOM     95  C   UNL A   1      43.266  35.234  25.779  1.00  0.00     0.022 A 
BRANCH  93  96
ATOM     96  S   UNL A   1      42.510  36.316  28.195  1.00  0.00     0.127 S 
ATOM     97  O   UNL A   1      41.922  37.209  27.199  1.00  0.00    -0.237 OA
ATOM     98  O   UNL A   1      41.538  35.505  28.931  1.00  0.00    -0.237 OA
ATOM     99  O   UNL A   1      43.566  36.877  29.027  1.00  0.00    -0.744 OA
ENDBRANCH  93  96
ENDBRANCH  66  89
ENDBRANCH  40  41
ENDBRANCH  32  35
ENDBRANCH  30  31
ENDBRANCH  29  30
ENDBRANCH  28  29
ENDBRANCH   1  28
TORSDOF 19
ENDMDL
MODEL 3
REMARK VINA RESULT:     -12.3      3.966      9.610
REMARK SMILES Cc1ccc(NC(=O)C[C@H]2SC[C@H](C(=O)NCCCCCCNC(=O)c3ccc(-c4c5nc(c(-c6cccc(S(=O)(=O)[O-])c6F)c6ccc([nH]6)c(-c6cccc(S(=O)(=O)[O-])c6F)c6nc(c(-c7cccc(S(=O)(=O)[O-])c7F)c7ccc4[nH]7)C=C6)C=C5)cc3)NC2=O)cc1
REMARK SMILES IDX 19 1 18 2 17 3 16 4 14 5 15 6 13 8 10 9 11 10 90 11 12 12
REMARK SMILES IDX 89 13 91 14 9 16 7 17 6 18 8 20 5 21 1 22 2 23 3 24 93 25
REMARK SMILES IDX 4 26 92 27 20 28 21 29 22 30 23 31 24 32 25 34 26 35 27 36
REMARK SMILES IDX 88 37 28 38 87 39 29 40 30 41 31 42 81 43 32 44 86 45 80 46
REMARK SMILES IDX 82 47 33 48 85 49 79 50 78 51 34 53 66 54 46 55 65 56 47 57
REMARK SMILES IDX 50 58 64 59 83 60 48 61 49 62 63 64 84 65 51 66 35 67 36 68
REMARK SMILES IDX 44 69 37 70 39 71 45 72 38 73 40 74 41 75 42 76 43 77 67 78
REMARK SMILES IDX 68 79 76 80 69 81 71 82 77 83 70 84 72 85 73 86 74 87 75 88
REMARK SMILES IDX 52 89 53 90 61 91 54 92 56 93 62 94 55 95 57 96 58 97 59 98
REMARK SMILES IDX 60 99
REMARK H PARENT 16 7 89 15 6 19 23 33 82 52 50 63
REMARK Flexibility Score: inf
ROOT
ATOM      1  C   UNL A   1      35.174  21.104  24.883  1.00  0.00     0.002 C 
ENDROOT
BRANCH   1   2
ATOM      2  C   UNL A   1      34.227  21.066  26.094  1.00  0.00     0.021 C 
BRANCH   2   3
ATOM      3  C   UNL A   1      32.738  21.128  25.748  1.00  0.00     0.116 C 
BRANCH   3   4
ATOM      4  N   UNL A   1      32.514  20.768  24.361  1.00  0.00    -0.354 N 
ATOM      5  C   UNL A   1      32.310  21.542  23.261  1.00  0.00     0.243 C 
ATOM      6  O   UNL A   1      32.093  20.968  22.190  1.00  0.00    -0.273 OA
ATOM      7  H   UNL A   1      32.509  19.800  24.186  1.00  0.00     0.163 HD
BRANCH   5   8
ATOM      8  C   UNL A   1      32.405  23.072  23.320  1.00  0.00     0.181 C 
ATOM      9  C   UNL A   1      31.316  25.745  22.394  1.00  0.00     0.145 C 
ATOM     10  S   UNL A   1      33.139  25.503  22.214  1.00  0.00    -0.145 SA
ATOM     11  C   UNL A   1      30.811  24.960  23.614  1.00  0.00     0.234 C 
ATOM     12  C   UNL A   1      33.143  23.680  22.131  1.00  0.00     0.105 C 
ATOM     13  N   UNL A   1      31.083  23.616  23.627  1.00  0.00    -0.343 N 
ATOM     14  O   UNL A   1      30.104  25.407  24.512  1.00  0.00    -0.274 OA
ATOM     15  H   UNL A   1      30.357  22.990  23.853  1.00  0.00     0.164 HD
BRANCH   9  16
ATOM     16  C   UNL A   1      30.976  27.237  22.292  1.00  0.00     0.124 C 
BRANCH  16  17
ATOM     17  C   UNL A   1      29.890  27.798  23.186  1.00  0.00     0.226 C 
ATOM     18  N   UNL A   1      30.134  28.420  24.369  1.00  0.00    -0.326 N 
ATOM     19  H   UNL A   1      29.327  28.807  24.779  1.00  0.00     0.169 HD
ATOM     20  O   UNL A   1      28.707  27.707  22.832  1.00  0.00    -0.275 OA
BRANCH  18  21
ATOM     21  C   UNL A   1      31.292  28.625  25.128  1.00  0.00     0.041 A 
ATOM     22  C   UNL A   1      34.694  29.138  27.733  1.00  0.00     0.044 C 
ATOM     23  C   UNL A   1      33.520  28.934  26.822  1.00  0.00    -0.051 A 
ATOM     24  C   UNL A   1      33.448  29.616  25.602  1.00  0.00     0.005 A 
ATOM     25  C   UNL A   1      32.478  28.078  27.180  1.00  0.00     0.005 A 
ATOM     26  C   UNL A   1      32.343  29.457  24.755  1.00  0.00     0.026 A 
ATOM     27  C   UNL A   1      31.383  27.912  26.330  1.00  0.00     0.026 A 
ENDBRANCH  18  21
ENDBRANCH  16  17
ENDBRANCH   9  16
ENDBRANCH   5   8
ENDBRANCH   3   4
ENDBRANCH   2   3
ENDBRANCH   1   2
BRANCH   1  28
ATOM     28  C   UNL A   1      36.566  20.484  25.084  1.00  0.00     0.002 C 
BRANCH  28  29
ATOM     29  C   UNL A   1      37.759  21.376  24.736  1.00  0.00     0.021 C 
BRANCH  29  30
ATOM     30  C   UNL A   1      38.205  22.296  25.863  1.00  0.00     0.116 C 
BRANCH  30  31
ATOM     31  N   UNL A   1      39.612  22.196  26.194  1.00  0.00    -0.352 N 
ATOM     32  C   UNL A   1      40.513  23.192  26.519  1.00  0.00     0.251 C 
ATOM     33  H   UNL A   1      39.980  21.283  26.186  1.00  0.00     0.163 HD
ATOM     34  O   UNL A   1      41.706  22.893  26.560  1.00  0.00    -0.269 OA
BRANCH  32  35
ATOM     35  C   UNL A   1      40.051  24.550  26.921  1.00  0.00     0.039 A 
ATOM     36  C   UNL A   1      40.626  25.659  26.281  1.00  0.00     0.014 A 
ATOM     37  C   UNL A   1      39.210  24.757  28.011  1.00  0.00     0.014 A 
ATOM     38  C   UNL A   1      40.566  26.920  26.877  1.00  0.00     0.010 A 
ATOM     39  C   UNL A   1      39.205  25.983  28.644  1.00  0.00     0.010 A 
ATOM     40  C   UNL A   1      39.947  27.041  28.117  1.00  0.00    -0.014 A 
BRANCH  40  41
ATOM     41  C   UNL A   1      40.143  28.157  29.030  1.00  0.00     0.031 A 
ATOM     42  C   UNL A   1      39.325  29.376  28.964  1.00  0.00     0.074 A 
ATOM     43  C   UNL A   1      40.959  27.950  30.087  1.00  0.00     0.049 A 
ATOM     44  N   UNL A   1      39.685  30.506  29.471  1.00  0.00    -0.248 NA
ATOM     45  C   UNL A   1      38.019  29.405  28.322  1.00  0.00     0.031 C 
ATOM     46  C   UNL A   1      41.013  28.702  31.334  1.00  0.00     0.029 A 
ATOM     47  N   UNL A   1      42.060  27.091  30.158  1.00  0.00    -0.354 N 
ATOM     48  C   UNL A   1      38.570  31.316  29.483  1.00  0.00     0.074 A 
ATOM     49  C   UNL A   1      37.585  30.617  28.686  1.00  0.00     0.031 C 
ATOM     50  C   UNL A   1      42.205  28.485  31.914  1.00  0.00     0.029 A 
ATOM     51  C   UNL A   1      43.011  27.737  30.963  1.00  0.00     0.049 A 
ATOM     52  H   UNL A   1      42.149  26.209  29.729  1.00  0.00     0.167 HD
ATOM     53  C   UNL A   1      38.527  32.397  30.313  1.00  0.00     0.034 A 
ATOM     54  C   UNL A   1      44.260  28.081  30.531  1.00  0.00     0.034 A 
ATOM     55  C   UNL A   1      39.757  32.517  31.104  1.00  0.00     0.049 A 
ATOM     56  C   UNL A   1      44.557  29.563  30.677  1.00  0.00     0.074 A 
ATOM     57  C   UNL A   1      40.082  32.115  32.391  1.00  0.00     0.029 A 
ATOM     58  N   UNL A   1      40.954  32.860  30.488  1.00  0.00    -0.354 N 
ATOM     59  N   UNL A   1      43.673  30.457  31.023  1.00  0.00    -0.248 NA
ATOM     60  C   UNL A   1      45.859  30.161  30.397  1.00  0.00     0.031 C 
ATOM     61  C   UNL A   1      41.492  32.158  32.525  1.00  0.00     0.029 A 
ATOM     62  C   UNL A   1      42.028  32.600  31.328  1.00  0.00     0.049 A 
ATOM     63  H   UNL A   1      41.029  33.233  29.580  1.00  0.00     0.167 HD
ATOM     64  C   UNL A   1      44.190  31.714  30.844  1.00  0.00     0.074 A 
ATOM     65  C   UNL A   1      45.592  31.471  30.551  1.00  0.00     0.031 C 
ATOM     66  C   UNL A   1      43.395  32.830  30.875  1.00  0.00     0.034 A 
BRANCH  53  67
ATOM     67  C   UNL A   1      37.235  33.101  30.676  1.00  0.00     0.023 A 
ATOM     68  C   UNL A   1      36.847  33.109  32.035  1.00  0.00     0.012 A 
ATOM     69  C   UNL A   1      36.338  33.704  29.768  1.00  0.00     0.148 A 
ATOM     70  C   UNL A   1      35.596  33.566  32.458  1.00  0.00     0.002 A 
ATOM     71  C   UNL A   1      35.057  34.093  30.177  1.00  0.00     0.091 A 
ATOM     72  F   UNL A   1      36.740  33.958  28.516  1.00  0.00    -0.205 F 
ATOM     73  C   UNL A   1      34.682  34.020  31.522  1.00  0.00     0.022 A 
BRANCH  71  74
ATOM     74  S   UNL A   1      33.778  34.569  29.001  1.00  0.00     0.127 S 
ATOM     75  O   UNL A   1      32.643  34.868  29.879  1.00  0.00    -0.237 OA
ATOM     76  O   UNL A   1      34.364  35.736  28.350  1.00  0.00    -0.237 OA
ATOM     77  O   UNL A   1      33.570  33.401  28.154  1.00  0.00    -0.744 OA
ENDBRANCH  71  74
ENDBRANCH  53  67
BRANCH  54  78
ATOM     78  C   UNL A   1      44.769  27.217  29.423  1.00  0.00     0.023 A 
ATOM     79  C   UNL A   1      45.015  25.855  29.727  1.00  0.00     0.012 A 
ATOM     80  C   UNL A   1      44.620  27.593  28.078  1.00  0.00     0.148 A 
ATOM     81  C   UNL A   1      44.966  24.878  28.730  1.00  0.00     0.002 A 
ATOM     82  C   UNL A   1      44.581  26.612  27.087  1.00  0.00     0.091 A 
ATOM     83  F   UNL A   1      44.439  28.887  27.786  1.00  0.00    -0.205 F 
ATOM     84  C   UNL A   1      44.712  25.254  27.415  1.00  0.00     0.022 A 
BRANCH  82  85
ATOM     85  S   UNL A   1      44.231  27.047  25.379  1.00  0.00     0.127 S 
ATOM     86  O   UNL A   1      45.566  27.347  24.873  1.00  0.00    -0.237 OA
ATOM     87  O   UNL A   1      43.635  25.820  24.849  1.00  0.00    -0.237 OA
ATOM     88  O   UNL A   1      43.302  28.163  25.474  1.00  0.00    -0.744 OA
ENDBRANCH  82  85
ENDBRANCH  54  78
BRANCH  66  89
ATOM     89  C   UNL A   1      43.809  34.233  30.463  1.00  0.00     0.023 A 
ATOM     90  C   UNL A   1      44.408  35.141  31.356  1.00  0.00     0.012 A 
ATOM     91  C   UNL A   1      43.742  34.639  29.102  1.00  0.00     0.148 A 
ATOM     92  C   UNL A   1      44.868  36.398  30.943  1.00  0.00     0.002 A 
ATOM     93  C   UNL A   1      44.303  35.840  28.677  1.00  0.00     0.091 A 
ATOM     94  F   UNL A   1      43.110  33.869  28.204  1.00  0.00    -0.205 F 
ATOM     95  C   UNL A   1      44.842  36.738  29.599  1.00  0.00     0.022 A 
BRANCH  93  96
ATOM     96  S   UNL A   1      44.498  36.191  26.922  1.00  0.00     0.127 S 
ATOM     97  O   UNL A   1      45.206  35.003  26.449  1.00  0.00    -0.237 OA
ATOM     98  O   UNL A   1      43.112  36.295  26.461  1.00  0.00    -0.237 OA
ATOM     99  O   UNL A   1      45.236  37.446  26.877  1.00  0.00    -0.744 OA
ENDBRANCH  93  96
ENDBRANCH  66  89
ENDBRANCH  40  41
ENDBRANCH  32  35
ENDBRANCH  30  31
ENDBRANCH  29  30
ENDBRANCH  28  29
ENDBRANCH   1  28
TORSDOF 19
ENDMDL
