MODEL 1
REMARK VINA RESULT:     -11.9      0.000      0.000
REMARK SMILES Cc1ccc(N)cc1S(=O)(=O)Nc1cccc(C(=O)NCCCCCCNC(=O)c2ccc(-c3c4nc(c(-c5cccc(S(=O)(=O)[O-])c5F)c5ccc([nH]5)c(-c5cccc(S(=O)(=O)[O-])c5F)c5nc(c(-c6cccc(S(=O)(=O)[O-])c6F)c6ccc3[nH]6)C=C5)C=C4)cc2)c1
REMARK SMILES IDX 23 1 22 2 21 3 20 4 18 5 19 6 17 8 13 9 14 10 93 11 15 12
REMARK SMILES IDX 16 13 12 14 9 16 10 17 11 18 8 19 1 20 2 21 3 22 4 23 7 24
REMARK SMILES IDX 5 25 6 26 24 29 25 30 26 31 27 32 28 33 29 35 30 36 31 37
REMARK SMILES IDX 92 38 32 39 91 40 33 41 34 42 35 43 85 44 36 45 90 46 84 47
REMARK SMILES IDX 86 48 37 49 89 50 83 51 82 52 38 54 70 55 50 56 69 57 51 58
REMARK SMILES IDX 54 59 68 60 87 61 52 62 53 63 67 65 88 66 55 67 39 68 40 69
REMARK SMILES IDX 48 70 41 71 43 72 49 73 42 74 44 75 45 76 46 77 47 78 71 79
REMARK SMILES IDX 72 80 80 81 73 82 75 83 81 84 74 85 76 86 77 87 78 88 79 89
REMARK SMILES IDX 56 90 57 91 65 92 58 93 60 94 66 95 59 96 61 97 62 98 63 99
REMARK SMILES IDX 64 100
REMARK H PARENT 20 7 12 15 6 27 6 28 27 34 86 53 54 64
REMARK Flexibility Score: inf
ROOT
ATOM      1  C   UNL A   1      36.318  22.293  25.569  1.00  0.00     0.002 C 
ENDROOT
BRANCH   1   2
ATOM      2  C   UNL A   1      35.225  22.885  26.467  1.00  0.00     0.021 C 
BRANCH   2   3
ATOM      3  C   UNL A   1      34.514  21.815  27.297  1.00  0.00     0.116 C 
BRANCH   3   4
ATOM      4  N   UNL A   1      33.172  22.262  27.632  1.00  0.00    -0.352 N 
ATOM      5  C   UNL A   1      32.061  22.544  26.880  1.00  0.00     0.251 C 
ATOM      6  O   UNL A   1      31.068  22.966  27.477  1.00  0.00    -0.269 OA
ATOM      7  H   UNL A   1      33.031  22.386  28.598  1.00  0.00     0.163 HD
BRANCH   5   8
ATOM      8  C   UNL A   1      31.956  22.274  25.417  1.00  0.00     0.041 A 
ATOM      9  C   UNL A   1      31.893  22.963  23.102  1.00  0.00     0.050 A 
ATOM     10  C   UNL A   1      32.150  21.651  22.695  1.00  0.00     0.027 A 
ATOM     11  C   UNL A   1      31.666  23.238  24.449  1.00  0.00     0.040 A 
ATOM     12  C   UNL A   1      32.311  20.645  23.641  1.00  0.00     0.003 A 
ATOM     13  C   UNL A   1      32.254  20.967  24.996  1.00  0.00     0.014 A 
BRANCH   9  14
ATOM     14  N   UNL A   1      32.038  23.968  22.112  1.00  0.00    -0.280 N 
ATOM     15  H   UNL A   1      31.369  23.971  21.391  1.00  0.00     0.180 HD
BRANCH  14  16
ATOM     16  S   UNL A   1      33.216  25.147  22.031  1.00  0.00     0.262 S 
ATOM     17  O   UNL A   1      33.277  25.607  20.659  1.00  0.00    -0.201 OA
ATOM     18  O   UNL A   1      34.366  24.543  22.673  1.00  0.00    -0.201 OA
BRANCH  16  19
ATOM     19  C   UNL A   1      32.795  26.579  23.023  1.00  0.00     0.092 A 
ATOM     20  C   UNL A   1      33.801  25.918  25.321  1.00  0.00     0.046 C 
ATOM     21  C   UNL A   1      32.988  26.771  24.399  1.00  0.00    -0.030 A 
ATOM     22  C   UNL A   1      32.358  27.880  25.004  1.00  0.00     0.007 A 
ATOM     23  C   UNL A   1      31.683  28.843  24.250  1.00  0.00     0.026 A 
ATOM     24  C   UNL A   1      32.141  27.585  22.274  1.00  0.00     0.048 A 
ATOM     25  C   UNL A   1      31.649  28.748  22.867  1.00  0.00     0.033 A 
BRANCH  25  26
ATOM     26  N   UNL A   1      30.988  29.703  22.107  1.00  0.00    -0.399 N 
ATOM     27  H   UNL A   1      31.276  30.645  22.141  1.00  0.00     0.156 HD
ATOM     28  H   UNL A   1      30.232  29.441  21.534  1.00  0.00     0.156 HD
ENDBRANCH  25  26
ENDBRANCH  16  19
ENDBRANCH  14  16
ENDBRANCH   9  14
ENDBRANCH   5   8
ENDBRANCH   3   4
ENDBRANCH   2   3
ENDBRANCH   1   2
BRANCH   1  29
ATOM     29  C   UNL A   1      36.078  20.832  25.165  1.00  0.00     0.002 C 
BRANCH  29  30
ATOM     30  C   UNL A   1      37.345  19.989  24.993  1.00  0.00     0.021 C 
BRANCH  30  31
ATOM     31  C   UNL A   1      38.574  20.538  25.711  1.00  0.00     0.116 C 
BRANCH  31  32
ATOM     32  N   UNL A   1      39.588  19.512  25.909  1.00  0.00    -0.352 N 
ATOM     33  C   UNL A   1      40.932  19.663  26.145  1.00  0.00     0.251 C 
ATOM     34  H   UNL A   1      39.267  18.582  25.868  1.00  0.00     0.163 HD
ATOM     35  O   UNL A   1      41.682  18.693  26.092  1.00  0.00    -0.269 OA
BRANCH  33  36
ATOM     36  C   UNL A   1      41.471  21.004  26.450  1.00  0.00     0.039 A 
ATOM     37  C   UNL A   1      41.765  21.875  25.397  1.00  0.00     0.014 A 
ATOM     38  C   UNL A   1      41.695  21.393  27.773  1.00  0.00     0.014 A 
ATOM     39  C   UNL A   1      42.243  23.158  25.674  1.00  0.00     0.010 A 
ATOM     40  C   UNL A   1      42.115  22.690  28.049  1.00  0.00     0.010 A 
ATOM     41  C   UNL A   1      42.403  23.580  27.003  1.00  0.00    -0.014 A 
BRANCH  41  42
ATOM     42  C   UNL A   1      42.890  24.940  27.335  1.00  0.00     0.031 A 
ATOM     43  C   UNL A   1      41.951  25.936  27.956  1.00  0.00     0.074 A 
ATOM     44  C   UNL A   1      44.135  25.310  26.980  1.00  0.00     0.049 A 
ATOM     45  N   UNL A   1      42.143  27.203  28.215  1.00  0.00    -0.248 NA
ATOM     46  C   UNL A   1      40.606  25.449  28.306  1.00  0.00     0.031 C 
ATOM     47  C   UNL A   1      45.115  24.451  26.312  1.00  0.00     0.029 A 
ATOM     48  N   UNL A   1      44.777  26.517  27.099  1.00  0.00    -0.354 N 
ATOM     49  C   UNL A   1      40.934  27.676  28.710  1.00  0.00     0.074 A 
ATOM     50  C   UNL A   1      40.006  26.565  28.694  1.00  0.00     0.031 C 
ATOM     51  C   UNL A   1      46.231  25.158  26.077  1.00  0.00     0.029 A 
ATOM     52  C   UNL A   1      46.039  26.527  26.550  1.00  0.00     0.049 A 
ATOM     53  H   UNL A   1      44.374  27.302  27.535  1.00  0.00     0.167 HD
ATOM     54  C   UNL A   1      40.630  28.914  29.165  1.00  0.00     0.034 A 
ATOM     55  C   UNL A   1      46.934  27.527  26.437  1.00  0.00     0.034 A 
ATOM     56  C   UNL A   1      41.573  29.997  29.233  1.00  0.00     0.049 A 
ATOM     57  C   UNL A   1      46.592  28.880  27.000  1.00  0.00     0.074 A 
ATOM     58  C   UNL A   1      41.392  31.265  29.756  1.00  0.00     0.029 A 
ATOM     59  N   UNL A   1      42.877  29.938  28.766  1.00  0.00    -0.354 N 
ATOM     60  N   UNL A   1      45.494  29.268  27.602  1.00  0.00    -0.248 NA
ATOM     61  C   UNL A   1      47.625  29.922  26.904  1.00  0.00     0.031 C 
ATOM     62  C   UNL A   1      42.589  31.974  29.603  1.00  0.00     0.029 A 
ATOM     63  C   UNL A   1      43.516  31.144  28.992  1.00  0.00     0.049 A 
ATOM     64  H   UNL A   1      43.288  29.153  28.338  1.00  0.00     0.167 HD
ATOM     65  C   UNL A   1      45.716  30.585  27.990  1.00  0.00     0.074 A 
ATOM     66  C   UNL A   1      47.060  30.923  27.567  1.00  0.00     0.031 C 
ATOM     67  C   UNL A   1      44.878  31.440  28.627  1.00  0.00     0.034 A 
BRANCH  54  68
ATOM     68  C   UNL A   1      39.235  29.141  29.684  1.00  0.00     0.023 A 
ATOM     69  C   UNL A   1      38.925  28.778  31.010  1.00  0.00     0.012 A 
ATOM     70  C   UNL A   1      38.244  29.739  28.882  1.00  0.00     0.148 A 
ATOM     71  C   UNL A   1      37.643  28.969  31.520  1.00  0.00     0.002 A 
ATOM     72  C   UNL A   1      36.977  29.965  29.411  1.00  0.00     0.091 A 
ATOM     73  F   UNL A   1      38.545  30.055  27.615  1.00  0.00    -0.205 F 
ATOM     74  C   UNL A   1      36.671  29.571  30.725  1.00  0.00     0.022 A 
BRANCH  72  75
ATOM     75  S   UNL A   1      35.687  30.803  28.481  1.00  0.00     0.127 S 
ATOM     76  O   UNL A   1      35.188  29.726  27.628  1.00  0.00    -0.237 OA
ATOM     77  O   UNL A   1      34.762  31.221  29.536  1.00  0.00    -0.237 OA
ATOM     78  O   UNL A   1      36.349  31.902  27.794  1.00  0.00    -0.744 OA
ENDBRANCH  72  75
ENDBRANCH  54  68
BRANCH  55  79
ATOM     79  C   UNL A   1      48.276  27.254  25.848  1.00  0.00     0.023 A 
ATOM     80  C   UNL A   1      49.285  26.718  26.672  1.00  0.00     0.012 A 
ATOM     81  C   UNL A   1      48.544  27.464  24.482  1.00  0.00     0.148 A 
ATOM     82  C   UNL A   1      50.545  26.418  26.152  1.00  0.00     0.002 A 
ATOM     83  C   UNL A   1      49.785  27.115  23.959  1.00  0.00     0.091 A 
ATOM     84  F   UNL A   1      47.575  27.985  23.716  1.00  0.00    -0.205 F 
ATOM     85  C   UNL A   1      50.791  26.607  24.795  1.00  0.00     0.022 A 
BRANCH  83  86
ATOM     86  S   UNL A   1      50.147  27.193  22.200  1.00  0.00     0.127 S 
ATOM     87  O   UNL A   1      49.091  26.356  21.638  1.00  0.00    -0.237 OA
ATOM     88  O   UNL A   1      50.011  28.624  21.925  1.00  0.00    -0.237 OA
ATOM     89  O   UNL A   1      51.505  26.687  22.059  1.00  0.00    -0.744 OA
ENDBRANCH  83  86
ENDBRANCH  55  79
BRANCH  67  90
ATOM     90  C   UNL A   1      45.393  32.818  28.947  1.00  0.00     0.023 A 
ATOM     91  C   UNL A   1      46.046  33.050  30.172  1.00  0.00     0.012 A 
ATOM     92  C   UNL A   1      45.313  33.853  27.995  1.00  0.00     0.148 A 
ATOM     93  C   UNL A   1      46.595  34.300  30.455  1.00  0.00     0.002 A 
ATOM     94  C   UNL A   1      45.900  35.084  28.267  1.00  0.00     0.091 A 
ATOM     95  F   UNL A   1      44.667  33.618  26.843  1.00  0.00    -0.205 F 
ATOM     96  C   UNL A   1      46.534  35.311  29.499  1.00  0.00     0.022 A 
BRANCH  94  97
ATOM     97  S   UNL A   1      45.946  36.411  27.055  1.00  0.00     0.127 S 
ATOM     98  O   UNL A   1      44.720  37.142  27.367  1.00  0.00    -0.237 OA
ATOM     99  O   UNL A   1      47.181  37.114  27.407  1.00  0.00    -0.237 OA
ATOM    100  O   UNL A   1      45.977  35.759  25.753  1.00  0.00    -0.744 OA
ENDBRANCH  94  97
ENDBRANCH  67  90
ENDBRANCH  41  42
ENDBRANCH  33  36
ENDBRANCH  31  32
ENDBRANCH  30  31
ENDBRANCH  29  30
ENDBRANCH   1  29
TORSDOF 20
ENDMDL
MODEL 2
REMARK VINA RESULT:     -11.5      1.697      7.640
REMARK SMILES Cc1ccc(N)cc1S(=O)(=O)Nc1cccc(C(=O)NCCCCCCNC(=O)c2ccc(-c3c4nc(c(-c5cccc(S(=O)(=O)[O-])c5F)c5ccc([nH]5)c(-c5cccc(S(=O)(=O)[O-])c5F)c5nc(c(-c6cccc(S(=O)(=O)[O-])c6F)c6ccc3[nH]6)C=C5)C=C4)cc2)c1
REMARK SMILES IDX 23 1 22 2 21 3 20 4 18 5 19 6 17 8 13 9 14 10 93 11 15 12
REMARK SMILES IDX 16 13 12 14 9 16 10 17 11 18 8 19 1 20 2 21 3 22 4 23 7 24
REMARK SMILES IDX 5 25 6 26 24 29 25 30 26 31 27 32 28 33 29 35 30 36 31 37
REMARK SMILES IDX 92 38 32 39 91 40 33 41 34 42 35 43 85 44 36 45 90 46 84 47
REMARK SMILES IDX 86 48 37 49 89 50 83 51 82 52 38 54 70 55 50 56 69 57 51 58
REMARK SMILES IDX 54 59 68 60 87 61 52 62 53 63 67 65 88 66 55 67 39 68 40 69
REMARK SMILES IDX 48 70 41 71 43 72 49 73 42 74 44 75 45 76 46 77 47 78 71 79
REMARK SMILES IDX 72 80 80 81 73 82 75 83 81 84 74 85 76 86 77 87 78 88 79 89
REMARK SMILES IDX 56 90 57 91 65 92 58 93 60 94 66 95 59 96 61 97 62 98 63 99
REMARK SMILES IDX 64 100
REMARK H PARENT 20 7 12 15 6 27 6 28 27 34 86 53 54 64
REMARK Flexibility Score: inf
ROOT
ATOM      1  C   UNL A   1      37.079  21.638  24.901  1.00  0.00     0.002 C 
ENDROOT
BRANCH   1   2
ATOM      2  C   UNL A   1      36.205  22.541  25.781  1.00  0.00     0.021 C 
BRANCH   2   3
ATOM      3  C   UNL A   1      35.105  21.760  26.501  1.00  0.00     0.116 C 
BRANCH   3   4
ATOM      4  N   UNL A   1      34.654  20.660  25.664  1.00  0.00    -0.352 N 
ATOM      5  C   UNL A   1      33.714  20.558  24.672  1.00  0.00     0.251 C 
ATOM      6  O   UNL A   1      33.526  19.441  24.185  1.00  0.00    -0.269 OA
ATOM      7  H   UNL A   1      35.122  19.813  25.846  1.00  0.00     0.163 HD
BRANCH   5   8
ATOM      8  C   UNL A   1      32.989  21.725  24.089  1.00  0.00     0.041 A 
ATOM      9  C   UNL A   1      31.285  23.437  24.129  1.00  0.00     0.050 A 
ATOM     10  C   UNL A   1      31.951  24.136  23.117  1.00  0.00     0.027 A 
ATOM     11  C   UNL A   1      31.737  22.175  24.511  1.00  0.00     0.040 A 
ATOM     12  C   UNL A   1      33.136  23.637  22.588  1.00  0.00     0.003 A 
ATOM     13  C   UNL A   1      33.671  22.457  23.102  1.00  0.00     0.014 A 
BRANCH   9  14
ATOM     14  N   UNL A   1      30.266  24.144  24.816  1.00  0.00    -0.280 N 
ATOM     15  H   UNL A   1      29.355  24.059  24.454  1.00  0.00     0.180 HD
BRANCH  14  16
ATOM     16  S   UNL A   1      30.437  25.105  26.169  1.00  0.00     0.262 S 
ATOM     17  O   UNL A   1      31.586  24.617  26.906  1.00  0.00    -0.201 OA
ATOM     18  O   UNL A   1      29.116  25.121  26.762  1.00  0.00    -0.201 OA
BRANCH  16  19
ATOM     19  C   UNL A   1      30.803  26.805  25.737  1.00  0.00     0.092 A 
ATOM     20  C   UNL A   1      29.618  27.010  23.439  1.00  0.00     0.046 C 
ATOM     21  C   UNL A   1      30.509  27.482  24.543  1.00  0.00    -0.030 A 
ATOM     22  C   UNL A   1      31.107  28.743  24.338  1.00  0.00     0.007 A 
ATOM     23  C   UNL A   1      31.850  29.376  25.336  1.00  0.00     0.026 A 
ATOM     24  C   UNL A   1      31.525  27.480  26.749  1.00  0.00     0.048 A 
ATOM     25  C   UNL A   1      31.987  28.786  26.585  1.00  0.00     0.033 A 
BRANCH  25  26
ATOM     26  N   UNL A   1      32.716  29.409  27.587  1.00  0.00    -0.399 N 
ATOM     27  H   UNL A   1      33.520  29.932  27.359  1.00  0.00     0.156 HD
ATOM     28  H   UNL A   1      32.431  29.330  28.526  1.00  0.00     0.156 HD
ENDBRANCH  25  26
ENDBRANCH  16  19
ENDBRANCH  14  16
ENDBRANCH   9  14
ENDBRANCH   5   8
ENDBRANCH   3   4
ENDBRANCH   2   3
ENDBRANCH   1   2
BRANCH   1  29
ATOM     29  C   UNL A   1      38.522  21.483  25.397  1.00  0.00     0.002 C 
BRANCH  29  30
ATOM     30  C   UNL A   1      39.093  20.065  25.299  1.00  0.00     0.021 C 
BRANCH  30  31
ATOM     31  C   UNL A   1      39.861  19.603  26.534  1.00  0.00     0.116 C 
BRANCH  31  32
ATOM     32  N   UNL A   1      41.124  18.970  26.180  1.00  0.00    -0.352 N 
ATOM     33  C   UNL A   1      42.349  19.551  25.965  1.00  0.00     0.251 C 
ATOM     34  H   UNL A   1      41.096  17.990  26.081  1.00  0.00     0.163 HD
ATOM     35  O   UNL A   1      43.268  18.897  25.482  1.00  0.00    -0.269 OA
BRANCH  33  36
ATOM     36  C   UNL A   1      42.549  20.974  26.309  1.00  0.00     0.039 A 
ATOM     37  C   UNL A   1      42.653  21.341  27.654  1.00  0.00     0.014 A 
ATOM     38  C   UNL A   1      42.621  21.941  25.304  1.00  0.00     0.014 A 
ATOM     39  C   UNL A   1      42.876  22.678  27.990  1.00  0.00     0.010 A 
ATOM     40  C   UNL A   1      42.901  23.263  25.638  1.00  0.00     0.010 A 
ATOM     41  C   UNL A   1      43.019  23.645  26.983  1.00  0.00    -0.014 A 
BRANCH  41  42
ATOM     42  C   UNL A   1      43.275  25.070  27.301  1.00  0.00     0.031 A 
ATOM     43  C   UNL A   1      44.671  25.617  27.198  1.00  0.00     0.074 A 
ATOM     44  C   UNL A   1      42.279  25.836  27.787  1.00  0.00     0.049 A 
ATOM     45  N   UNL A   1      45.124  26.795  27.539  1.00  0.00    -0.248 NA
ATOM     46  C   UNL A   1      45.701  24.709  26.665  1.00  0.00     0.031 C 
ATOM     47  C   UNL A   1      40.898  25.396  27.994  1.00  0.00     0.029 A 
ATOM     48  N   UNL A   1      42.284  27.136  28.226  1.00  0.00    -0.354 N 
ATOM     49  C   UNL A   1      46.495  26.754  27.311  1.00  0.00     0.074 A 
ATOM     50  C   UNL A   1      46.803  25.427  26.822  1.00  0.00     0.031 C 
ATOM     51  C   UNL A   1      40.191  26.406  28.525  1.00  0.00     0.029 A 
ATOM     52  C   UNL A   1      41.071  27.555  28.721  1.00  0.00     0.049 A 
ATOM     53  H   UNL A   1      43.080  27.714  28.192  1.00  0.00     0.167 HD
ATOM     54  C   UNL A   1      47.410  27.739  27.465  1.00  0.00     0.034 A 
ATOM     55  C   UNL A   1      40.712  28.730  29.274  1.00  0.00     0.034 A 
ATOM     56  C   UNL A   1      47.088  29.073  27.894  1.00  0.00     0.049 A 
ATOM     57  C   UNL A   1      41.737  29.828  29.383  1.00  0.00     0.074 A 
ATOM     58  C   UNL A   1      47.925  30.170  28.000  1.00  0.00     0.029 A 
ATOM     59  N   UNL A   1      45.825  29.492  28.284  1.00  0.00    -0.354 N 
ATOM     60  N   UNL A   1      42.996  29.818  29.021  1.00  0.00    -0.248 NA
ATOM     61  C   UNL A   1      41.281  31.110  29.941  1.00  0.00     0.031 C 
ATOM     62  C   UNL A   1      47.166  31.253  28.458  1.00  0.00     0.029 A 
ATOM     63  C   UNL A   1      45.857  30.832  28.628  1.00  0.00     0.049 A 
ATOM     64  H   UNL A   1      45.024  28.921  28.311  1.00  0.00     0.167 HD
ATOM     65  C   UNL A   1      43.475  31.100  29.270  1.00  0.00     0.074 A 
ATOM     66  C   UNL A   1      42.364  31.863  29.801  1.00  0.00     0.031 C 
ATOM     67  C   UNL A   1      44.724  31.595  29.088  1.00  0.00     0.034 A 
BRANCH  54  68
ATOM     68  C   UNL A   1      48.838  27.425  27.103  1.00  0.00     0.023 A 
ATOM     69  C   UNL A   1      49.671  26.809  28.059  1.00  0.00     0.012 A 
ATOM     70  C   UNL A   1      49.346  27.702  25.819  1.00  0.00     0.148 A 
ATOM     71  C   UNL A   1      50.998  26.509  27.758  1.00  0.00     0.002 A 
ATOM     72  C   UNL A   1      50.659  27.362  25.513  1.00  0.00     0.091 A 
ATOM     73  F   UNL A   1      48.550  28.312  24.930  1.00  0.00    -0.205 F 
ATOM     74  C   UNL A   1      51.490  26.776  26.483  1.00  0.00     0.022 A 
BRANCH  72  75
ATOM     75  S   UNL A   1      51.353  27.603  23.873  1.00  0.00     0.127 S 
ATOM     76  O   UNL A   1      52.683  27.018  24.024  1.00  0.00    -0.237 OA
ATOM     77  O   UNL A   1      50.440  26.829  23.030  1.00  0.00    -0.237 OA
ATOM     78  O   UNL A   1      51.314  29.039  23.637  1.00  0.00    -0.744 OA
ENDBRANCH  72  75
ENDBRANCH  54  68
BRANCH  55  79
ATOM     79  C   UNL A   1      39.295  28.954  29.677  1.00  0.00     0.023 A 
ATOM     80  C   UNL A   1      38.874  28.529  30.952  1.00  0.00     0.012 A 
ATOM     81  C   UNL A   1      38.383  29.627  28.841  1.00  0.00     0.148 A 
ATOM     82  C   UNL A   1      37.564  28.749  31.379  1.00  0.00     0.002 A 
ATOM     83  C   UNL A   1      37.094  29.889  29.293  1.00  0.00     0.091 A 
ATOM     84  F   UNL A   1      38.798  30.013  27.626  1.00  0.00    -0.205 F 
ATOM     85  C   UNL A   1      36.679  29.437  30.555  1.00  0.00     0.022 A 
BRANCH  83  86
ATOM     86  S   UNL A   1      35.928  30.887  28.358  1.00  0.00     0.127 S 
ATOM     87  O   UNL A   1      36.696  32.105  28.122  1.00  0.00    -0.237 OA
ATOM     88  O   UNL A   1      35.703  30.059  27.171  1.00  0.00    -0.237 OA
ATOM     89  O   UNL A   1      34.759  31.026  29.216  1.00  0.00    -0.744 OA
ENDBRANCH  83  86
ENDBRANCH  55  79
BRANCH  67  90
ATOM     90  C   UNL A   1      44.960  33.043  29.426  1.00  0.00     0.023 A 
ATOM     91  C   UNL A   1      45.372  33.397  30.724  1.00  0.00     0.012 A 
ATOM     92  C   UNL A   1      44.866  34.037  28.432  1.00  0.00     0.148 A 
ATOM     93  C   UNL A   1      45.668  34.724  31.036  1.00  0.00     0.002 A 
ATOM     94  C   UNL A   1      45.203  35.350  28.739  1.00  0.00     0.091 A 
ATOM     95  F   UNL A   1      44.450  33.682  27.207  1.00  0.00    -0.205 F 
ATOM     96  C   UNL A   1      45.596  35.696  30.041  1.00  0.00     0.022 A 
BRANCH  94  97
ATOM     97  S   UNL A   1      45.227  36.648  27.495  1.00  0.00     0.127 S 
ATOM     98  O   UNL A   1      46.207  36.130  26.543  1.00  0.00    -0.237 OA
ATOM     99  O   UNL A   1      43.845  36.642  27.011  1.00  0.00    -0.237 OA
ATOM    100  O   UNL A   1      45.612  37.864  28.197  1.00  0.00    -0.744 OA
ENDBRANCH  94  97
ENDBRANCH  67  90
ENDBRANCH  41  42
ENDBRANCH  33  36
ENDBRANCH  31  32
ENDBRANCH  30  31
ENDBRANCH  29  30
ENDBRANCH   1  29
TORSDOF 20
ENDMDL
MODEL 3
REMARK VINA RESULT:     -11.4      6.421     10.066
REMARK SMILES Cc1ccc(N)cc1S(=O)(=O)Nc1cccc(C(=O)NCCCCCCNC(=O)c2ccc(-c3c4nc(c(-c5cccc(S(=O)(=O)[O-])c5F)c5ccc([nH]5)c(-c5cccc(S(=O)(=O)[O-])c5F)c5nc(c(-c6cccc(S(=O)(=O)[O-])c6F)c6ccc3[nH]6)C=C5)C=C4)cc2)c1
REMARK SMILES IDX 23 1 22 2 21 3 20 4 18 5 19 6 17 8 13 9 14 10 93 11 15 12
REMARK SMILES IDX 16 13 12 14 9 16 10 17 11 18 8 19 1 20 2 21 3 22 4 23 7 24
REMARK SMILES IDX 5 25 6 26 24 29 25 30 26 31 27 32 28 33 29 35 30 36 31 37
REMARK SMILES IDX 92 38 32 39 91 40 33 41 34 42 35 43 85 44 36 45 90 46 84 47
REMARK SMILES IDX 86 48 37 49 89 50 83 51 82 52 38 54 70 55 50 56 69 57 51 58
REMARK SMILES IDX 54 59 68 60 87 61 52 62 53 63 67 65 88 66 55 67 39 68 40 69
REMARK SMILES IDX 48 70 41 71 43 72 49 73 42 74 44 75 45 76 46 77 47 78 71 79
REMARK SMILES IDX 72 80 80 81 73 82 75 83 81 84 74 85 76 86 77 87 78 88 79 89
REMARK SMILES IDX 56 90 57 91 65 92 58 93 60 94 66 95 59 96 61 97 62 98 63 99
REMARK SMILES IDX 64 100
REMARK H PARENT 20 7 12 15 6 27 6 28 27 34 86 53 54 64
REMARK Flexibility Score: inf
ROOT
ATOM      1  C   UNL A   1      32.902  30.675  27.077  1.00  0.00     0.002 C 
ENDROOT
BRANCH   1   2
ATOM      2  C   UNL A   1      32.859  29.153  26.893  1.00  0.00     0.021 C 
BRANCH   2   3
ATOM      3  C   UNL A   1      33.926  28.656  25.918  1.00  0.00     0.116 C 
BRANCH   3   4
ATOM      4  N   UNL A   1      33.598  29.083  24.568  1.00  0.00    -0.352 N 
ATOM      5  C   UNL A   1      32.941  28.482  23.526  1.00  0.00     0.251 C 
ATOM      6  O   UNL A   1      32.875  29.106  22.465  1.00  0.00    -0.269 OA
ATOM      7  H   UNL A   1      33.909  29.993  24.359  1.00  0.00     0.163 HD
BRANCH   5   8
ATOM      8  C   UNL A   1      32.224  27.177  23.636  1.00  0.00     0.041 A 
ATOM      9  C   UNL A   1      32.136  24.801  24.061  1.00  0.00     0.050 A 
ATOM     10  C   UNL A   1      30.747  24.868  24.203  1.00  0.00     0.027 A 
ATOM     11  C   UNL A   1      32.845  25.927  23.648  1.00  0.00     0.040 A 
ATOM     12  C   UNL A   1      30.089  26.086  24.064  1.00  0.00     0.003 A 
ATOM     13  C   UNL A   1      30.832  27.240  23.821  1.00  0.00     0.014 A 
BRANCH   9  14
ATOM     14  N   UNL A   1      32.756  23.606  24.507  1.00  0.00    -0.280 N 
ATOM     15  H   UNL A   1      32.776  23.462  25.480  1.00  0.00     0.180 HD
BRANCH  14  16
ATOM     16  S   UNL A   1      33.457  22.418  23.569  1.00  0.00     0.262 S 
ATOM     17  O   UNL A   1      34.894  22.547  23.707  1.00  0.00    -0.201 OA
ATOM     18  O   UNL A   1      32.811  22.556  22.280  1.00  0.00    -0.201 OA
BRANCH  16  19
ATOM     19  C   UNL A   1      33.041  20.776  24.153  1.00  0.00     0.092 A 
ATOM     20  C   UNL A   1      33.502  21.011  26.695  1.00  0.00     0.046 C 
ATOM     21  C   UNL A   1      33.184  20.251  25.447  1.00  0.00    -0.030 A 
ATOM     22  C   UNL A   1      33.015  18.860  25.614  1.00  0.00     0.007 A 
ATOM     23  C   UNL A   1      32.579  18.041  24.571  1.00  0.00     0.026 A 
ATOM     24  C   UNL A   1      32.562  19.936  23.120  1.00  0.00     0.048 A 
ATOM     25  C   UNL A   1      32.262  18.592  23.337  1.00  0.00     0.033 A 
BRANCH  25  26
ATOM     26  N   UNL A   1      31.820  17.789  22.295  1.00  0.00    -0.399 N 
ATOM     27  H   UNL A   1      32.216  16.897  22.159  1.00  0.00     0.156 HD
ATOM     28  H   UNL A   1      31.111  18.109  21.692  1.00  0.00     0.156 HD
ENDBRANCH  25  26
ENDBRANCH  16  19
ENDBRANCH  14  16
ENDBRANCH   9  14
ENDBRANCH   5   8
ENDBRANCH   3   4
ENDBRANCH   2   3
ENDBRANCH   1   2
BRANCH   1  29
ATOM     29  C   UNL A   1      31.583  31.387  26.750  1.00  0.00     0.002 C 
BRANCH  29  30
ATOM     30  C   UNL A   1      31.659  32.916  26.724  1.00  0.00     0.021 C 
BRANCH  30  31
ATOM     31  C   UNL A   1      32.911  33.501  27.371  1.00  0.00     0.116 C 
BRANCH  31  32
ATOM     32  N   UNL A   1      32.615  34.706  28.132  1.00  0.00    -0.352 N 
ATOM     33  C   UNL A   1      33.108  35.097  29.352  1.00  0.00     0.251 C 
ATOM     34  H   UNL A   1      31.973  35.326  27.716  1.00  0.00     0.163 HD
ATOM     35  O   UNL A   1      32.607  36.047  29.946  1.00  0.00    -0.269 OA
BRANCH  33  36
ATOM     36  C   UNL A   1      34.239  34.359  29.950  1.00  0.00     0.039 A 
ATOM     37  C   UNL A   1      35.525  34.552  29.436  1.00  0.00     0.014 A 
ATOM     38  C   UNL A   1      34.025  33.470  31.006  1.00  0.00     0.014 A 
ATOM     39  C   UNL A   1      36.608  33.885  30.015  1.00  0.00     0.010 A 
ATOM     40  C   UNL A   1      35.111  32.852  31.618  1.00  0.00     0.010 A 
ATOM     41  C   UNL A   1      36.409  33.045  31.122  1.00  0.00    -0.014 A 
BRANCH  41  42
ATOM     42  C   UNL A   1      37.536  32.335  31.773  1.00  0.00     0.031 A 
ATOM     43  C   UNL A   1      38.034  32.801  33.113  1.00  0.00     0.074 A 
ATOM     44  C   UNL A   1      38.177  31.351  31.114  1.00  0.00     0.049 A 
ATOM     45  N   UNL A   1      39.073  32.395  33.795  1.00  0.00    -0.248 NA
ATOM     46  C   UNL A   1      37.279  33.888  33.759  1.00  0.00     0.031 C 
ATOM     47  C   UNL A   1      37.827  30.858  29.781  1.00  0.00     0.029 A 
ATOM     48  N   UNL A   1      39.280  30.613  31.463  1.00  0.00    -0.354 N 
ATOM     49  C   UNL A   1      39.127  33.206  34.922  1.00  0.00     0.074 A 
ATOM     50  C   UNL A   1      38.028  34.143  34.822  1.00  0.00     0.031 C 
ATOM     51  C   UNL A   1      38.700  29.903  29.423  1.00  0.00     0.029 A 
ATOM     52  C   UNL A   1      39.687  29.735  30.485  1.00  0.00     0.049 A 
ATOM     53  H   UNL A   1      39.738  30.704  32.329  1.00  0.00     0.167 HD
ATOM     54  C   UNL A   1      39.992  33.157  35.961  1.00  0.00     0.034 A 
ATOM     55  C   UNL A   1      40.739  28.894  30.450  1.00  0.00     0.034 A 
ATOM     56  C   UNL A   1      41.045  32.186  36.083  1.00  0.00     0.049 A 
ATOM     57  C   UNL A   1      41.655  28.820  31.642  1.00  0.00     0.074 A 
ATOM     58  C   UNL A   1      41.923  31.995  37.136  1.00  0.00     0.029 A 
ATOM     59  N   UNL A   1      41.359  31.239  35.120  1.00  0.00    -0.354 N 
ATOM     60  N   UNL A   1      41.600  29.493  32.766  1.00  0.00    -0.248 NA
ATOM     61  C   UNL A   1      42.755  27.846  31.577  1.00  0.00     0.031 C 
ATOM     62  C   UNL A   1      42.771  30.931  36.806  1.00  0.00     0.029 A 
ATOM     63  C   UNL A   1      42.416  30.456  35.553  1.00  0.00     0.049 A 
ATOM     64  H   UNL A   1      40.899  31.138  34.256  1.00  0.00     0.167 HD
ATOM     65  C   UNL A   1      42.631  28.998  33.558  1.00  0.00     0.074 A 
ATOM     66  C   UNL A   1      43.285  27.959  32.788  1.00  0.00     0.031 C 
ATOM     67  C   UNL A   1      43.009  29.379  34.802  1.00  0.00     0.034 A 
BRANCH  54  68
ATOM     68  C   UNL A   1      39.792  34.146  37.079  1.00  0.00     0.023 A 
ATOM     69  C   UNL A   1      40.146  35.496  36.878  1.00  0.00     0.012 A 
ATOM     70  C   UNL A   1      39.227  33.756  38.309  1.00  0.00     0.148 A 
ATOM     71  C   UNL A   1      39.979  36.435  37.893  1.00  0.00     0.002 A 
ATOM     72  C   UNL A   1      39.024  34.707  39.303  1.00  0.00     0.091 A 
ATOM     73  F   UNL A   1      38.920  32.465  38.496  1.00  0.00    -0.205 F 
ATOM     74  C   UNL A   1      39.409  36.044  39.102  1.00  0.00     0.022 A 
BRANCH  72  75
ATOM     75  S   UNL A   1      38.228  34.306  40.864  1.00  0.00     0.127 S 
ATOM     76  O   UNL A   1      39.308  33.635  41.584  1.00  0.00    -0.237 OA
ATOM     77  O   UNL A   1      37.878  35.628  41.386  1.00  0.00    -0.237 OA
ATOM     78  O   UNL A   1      37.083  33.475  40.518  1.00  0.00    -0.744 OA
ENDBRANCH  72  75
ENDBRANCH  54  68
BRANCH  55  79
ATOM     79  C   UNL A   1      40.922  27.988  29.280  1.00  0.00     0.023 A 
ATOM     80  C   UNL A   1      40.218  26.769  29.247  1.00  0.00     0.012 A 
ATOM     81  C   UNL A   1      41.733  28.344  28.185  1.00  0.00     0.148 A 
ATOM     82  C   UNL A   1      40.337  25.907  28.155  1.00  0.00     0.002 A 
ATOM     83  C   UNL A   1      41.805  27.505  27.078  1.00  0.00     0.091 A 
ATOM     84  F   UNL A   1      42.404  29.503  28.239  1.00  0.00    -0.205 F 
ATOM     85  C   UNL A   1      41.121  26.280  27.068  1.00  0.00     0.022 A 
BRANCH  83  86
ATOM     86  S   UNL A   1      42.679  27.964  25.576  1.00  0.00     0.127 S 
ATOM     87  O   UNL A   1      42.546  26.755  24.769  1.00  0.00    -0.237 OA
ATOM     88  O   UNL A   1      41.896  29.109  25.106  1.00  0.00    -0.237 OA
ATOM     89  O   UNL A   1      44.031  28.303  25.999  1.00  0.00    -0.744 OA
ENDBRANCH  83  86
ENDBRANCH  55  79
BRANCH  67  90
ATOM     90  C   UNL A   1      44.161  28.649  35.440  1.00  0.00     0.023 A 
ATOM     91  C   UNL A   1      45.481  29.042  35.150  1.00  0.00     0.012 A 
ATOM     92  C   UNL A   1      43.930  27.639  36.396  1.00  0.00     0.148 A 
ATOM     93  C   UNL A   1      46.558  28.427  35.787  1.00  0.00     0.002 A 
ATOM     94  C   UNL A   1      45.008  27.061  37.057  1.00  0.00     0.091 A 
ATOM     95  F   UNL A   1      42.666  27.265  36.641  1.00  0.00    -0.205 F 
ATOM     96  C   UNL A   1      46.321  27.447  36.748  1.00  0.00     0.022 A 
BRANCH  94  97
ATOM     97  S   UNL A   1      44.787  25.858  38.374  1.00  0.00     0.127 S 
ATOM     98  O   UNL A   1      43.809  26.527  39.229  1.00  0.00    -0.237 OA
ATOM     99  O   UNL A   1      44.269  24.694  37.652  1.00  0.00    -0.237 OA
ATOM    100  O   UNL A   1      46.106  25.662  38.960  1.00  0.00    -0.744 OA
ENDBRANCH  94  97
ENDBRANCH  67  90
ENDBRANCH  41  42
ENDBRANCH  33  36
ENDBRANCH  31  32
ENDBRANCH  30  31
ENDBRANCH  29  30
ENDBRANCH   1  29
TORSDOF 20
ENDMDL
