MODEL 1
REMARK VINA RESULT:     -11.7      0.000      0.000
REMARK SMILES O=C(NCCCCCCNC(=O)c1cccc2nc(Cl)c(Cl)nc12)c1ccc(-c2c3nc(c(-c4cccc(S(=O)(=O)[O-])c4F)c4ccc([nH]4)c(-c4cccc(S(=O)(=O)[O-])c4F)c4nc(c(-c5cccc(S(=O)(=O)[O-])c5F)c5ccc2[nH]5)C=C4)C=C3)cc1
REMARK SMILES IDX 5 1 4 2 3 3 1 4 2 5 25 7 26 8 87 9 27 10 86 11 28 12 29 13
REMARK SMILES IDX 30 14 80 15 31 16 85 17 79 18 81 19 32 20 84 21 78 22 77 23
REMARK SMILES IDX 33 25 65 26 45 27 64 28 46 29 49 30 63 31 82 32 47 33 48 34
REMARK SMILES IDX 62 36 83 37 50 38 34 39 35 40 43 41 36 42 38 43 44 44 37 45
REMARK SMILES IDX 39 46 40 47 41 48 42 49 66 50 67 51 75 52 68 53 70 54 76 55
REMARK SMILES IDX 69 56 71 57 72 58 73 59 74 60 51 61 52 62 60 63 53 64 55 65
REMARK SMILES IDX 61 66 54 67 56 68 57 69 58 70 59 71 6 72 7 73 8 74 9 75
REMARK SMILES IDX 10 76 11 77 12 79 13 80 14 81 24 82 15 83 17 84 23 85 16 86
REMARK SMILES IDX 18 87 21 88 19 89 22 90 20 91
REMARK H PARENT 3 6 81 24 49 35 10 78
REMARK Flexibility Score: inf
ROOT
ATOM      1  C   UNL A   1      31.518  31.964  26.507  1.00  0.00     0.021 C 
ENDROOT
BRANCH   1   2
ATOM      2  C   UNL A   1      32.712  32.562  27.248  1.00  0.00     0.116 C 
BRANCH   2   3
ATOM      3  N   UNL A   1      32.493  33.946  27.627  1.00  0.00    -0.352 N 
ATOM      4  O   UNL A   1      32.635  35.801  28.888  1.00  0.00    -0.269 OA
ATOM      5  C   UNL A   1      33.074  34.681  28.631  1.00  0.00     0.251 C 
ATOM      6  H   UNL A   1      31.830  34.430  27.085  1.00  0.00     0.163 HD
BRANCH   5   7
ATOM      7  C   UNL A   1      34.211  34.141  29.414  1.00  0.00     0.039 A 
ATOM      8  C   UNL A   1      35.512  34.419  28.978  1.00  0.00     0.014 A 
ATOM      9  C   UNL A   1      34.013  33.311  30.521  1.00  0.00     0.014 A 
ATOM     10  C   UNL A   1      36.610  33.891  29.665  1.00  0.00     0.010 A 
ATOM     11  C   UNL A   1      35.110  32.820  31.233  1.00  0.00     0.010 A 
ATOM     12  C   UNL A   1      36.417  33.091  30.801  1.00  0.00    -0.014 A 
BRANCH  12  13
ATOM     13  C   UNL A   1      37.569  32.488  31.521  1.00  0.00     0.031 A 
ATOM     14  C   UNL A   1      38.329  31.349  30.895  1.00  0.00     0.074 A 
ATOM     15  C   UNL A   1      37.908  32.931  32.747  1.00  0.00     0.049 A 
ATOM     16  N   UNL A   1      39.308  30.641  31.394  1.00  0.00    -0.248 NA
ATOM     17  C   UNL A   1      37.930  30.944  29.535  1.00  0.00     0.031 C 
ATOM     18  C   UNL A   1      37.237  34.010  33.474  1.00  0.00     0.029 A 
ATOM     19  N   UNL A   1      38.899  32.519  33.605  1.00  0.00    -0.354 N 
ATOM     20  C   UNL A   1      39.615  29.685  30.434  1.00  0.00     0.074 A 
ATOM     21  C   UNL A   1      38.715  29.896  29.321  1.00  0.00     0.031 C 
ATOM     22  C   UNL A   1      37.844  34.184  34.661  1.00  0.00     0.029 A 
ATOM     23  C   UNL A   1      38.930  33.215  34.791  1.00  0.00     0.049 A 
ATOM     24  H   UNL A   1      39.528  31.793  33.390  1.00  0.00     0.167 HD
ATOM     25  C   UNL A   1      40.579  28.737  30.462  1.00  0.00     0.034 A 
ATOM     26  C   UNL A   1      39.744  33.091  35.858  1.00  0.00     0.034 A 
ATOM     27  C   UNL A   1      41.522  28.569  31.532  1.00  0.00     0.049 A 
ATOM     28  C   UNL A   1      40.835  32.057  35.840  1.00  0.00     0.074 A 
ATOM     29  C   UNL A   1      42.558  27.656  31.625  1.00  0.00     0.029 A 
ATOM     30  N   UNL A   1      41.562  29.343  32.678  1.00  0.00    -0.354 N 
ATOM     31  N   UNL A   1      41.151  31.212  34.890  1.00  0.00    -0.248 NA
ATOM     32  C   UNL A   1      41.698  31.973  37.029  1.00  0.00     0.031 C 
ATOM     33  C   UNL A   1      43.235  27.888  32.825  1.00  0.00     0.029 A 
ATOM     34  C   UNL A   1      42.617  28.942  33.477  1.00  0.00     0.049 A 
ATOM     35  H   UNL A   1      40.933  30.069  32.894  1.00  0.00     0.167 HD
ATOM     36  C   UNL A   1      42.268  30.523  35.350  1.00  0.00     0.074 A 
ATOM     37  C   UNL A   1      42.579  31.051  36.660  1.00  0.00     0.031 C 
ATOM     38  C   UNL A   1      42.960  29.530  34.744  1.00  0.00     0.034 A 
BRANCH  25  39
ATOM     39  C   UNL A   1      40.727  27.841  29.265  1.00  0.00     0.023 A 
ATOM     40  C   UNL A   1      39.912  26.695  29.169  1.00  0.00     0.012 A 
ATOM     41  C   UNL A   1      41.571  28.190  28.194  1.00  0.00     0.148 A 
ATOM     42  C   UNL A   1      39.938  25.906  28.021  1.00  0.00     0.002 A 
ATOM     43  C   UNL A   1      41.572  27.412  27.042  1.00  0.00     0.091 A 
ATOM     44  F   UNL A   1      42.338  29.283  28.316  1.00  0.00    -0.205 F 
ATOM     45  C   UNL A   1      40.759  26.270  26.956  1.00  0.00     0.022 A 
BRANCH  43  46
ATOM     46  S   UNL A   1      42.551  27.816  25.592  1.00  0.00     0.127 S 
ATOM     47  O   UNL A   1      43.889  27.953  26.168  1.00  0.00    -0.237 OA
ATOM     48  O   UNL A   1      42.364  26.630  24.758  1.00  0.00    -0.237 OA
ATOM     49  O   UNL A   1      41.989  29.047  25.052  1.00  0.00    -0.744 OA
ENDBRANCH  43  46
ENDBRANCH  25  39
BRANCH  26  50
ATOM     50  C   UNL A   1      39.616  34.039  36.999  1.00  0.00     0.023 A 
ATOM     51  C   UNL A   1      40.040  35.371  36.824  1.00  0.00     0.012 A 
ATOM     52  C   UNL A   1      39.054  33.649  38.228  1.00  0.00     0.148 A 
ATOM     53  C   UNL A   1      39.921  36.295  37.862  1.00  0.00     0.002 A 
ATOM     54  C   UNL A   1      38.903  34.585  39.245  1.00  0.00     0.091 A 
ATOM     55  F   UNL A   1      38.676  32.371  38.377  1.00  0.00    -0.205 F 
ATOM     56  C   UNL A   1      39.344  35.905  39.067  1.00  0.00     0.022 A 
BRANCH  54  57
ATOM     57  S   UNL A   1      38.076  34.197  40.792  1.00  0.00     0.127 S 
ATOM     58  O   UNL A   1      39.114  33.464  41.511  1.00  0.00    -0.237 OA
ATOM     59  O   UNL A   1      37.781  35.528  41.324  1.00  0.00    -0.237 OA
ATOM     60  O   UNL A   1      36.895  33.428  40.421  1.00  0.00    -0.744 OA
ENDBRANCH  54  57
ENDBRANCH  26  50
BRANCH  38  61
ATOM     61  C   UNL A   1      44.151  28.956  35.457  1.00  0.00     0.023 A 
ATOM     62  C   UNL A   1      45.403  29.584  35.323  1.00  0.00     0.012 A 
ATOM     63  C   UNL A   1      43.999  27.885  36.360  1.00  0.00     0.148 A 
ATOM     64  C   UNL A   1      46.492  29.154  36.079  1.00  0.00     0.002 A 
ATOM     65  C   UNL A   1      45.083  27.481  37.131  1.00  0.00     0.091 A 
ATOM     66  F   UNL A   1      42.798  27.297  36.457  1.00  0.00    -0.205 F 
ATOM     67  C   UNL A   1      46.329  28.112  36.989  1.00  0.00     0.022 A 
BRANCH  65  68
ATOM     68  S   UNL A   1      44.951  26.199  38.383  1.00  0.00     0.127 S 
ATOM     69  O   UNL A   1      46.325  26.121  38.875  1.00  0.00    -0.237 OA
ATOM     70  O   UNL A   1      43.997  26.784  39.326  1.00  0.00    -0.237 OA
ATOM     71  O   UNL A   1      44.467  25.010  37.693  1.00  0.00    -0.744 OA
ENDBRANCH  65  68
ENDBRANCH  38  61
ENDBRANCH  12  13
ENDBRANCH   5   7
ENDBRANCH   2   3
ENDBRANCH   1   2
BRANCH   1  72
ATOM     72  C   UNL A   1      31.605  30.464  26.206  1.00  0.00     0.002 C 
BRANCH  72  73
ATOM     73  C   UNL A   1      32.776  29.717  26.850  1.00  0.00     0.002 C 
BRANCH  73  74
ATOM     74  C   UNL A   1      32.444  28.359  27.478  1.00  0.00     0.021 C 
BRANCH  74  75
ATOM     75  C   UNL A   1      31.058  27.801  27.160  1.00  0.00     0.116 C 
BRANCH  75  76
ATOM     76  N   UNL A   1      31.111  26.480  26.556  1.00  0.00    -0.352 N 
ATOM     77  C   UNL A   1      31.440  26.123  25.272  1.00  0.00     0.253 C 
ATOM     78  H   UNL A   1      30.879  25.733  27.154  1.00  0.00     0.163 HD
ATOM     79  O   UNL A   1      31.464  24.940  24.942  1.00  0.00    -0.269 OA
BRANCH  77  80
ATOM     80  C   UNL A   1      31.846  27.157  24.307  1.00  0.00     0.067 A 
ATOM     81  C   UNL A   1      33.216  27.320  24.055  1.00  0.00     0.016 A 
ATOM     82  C   UNL A   1      30.864  27.886  23.621  1.00  0.00     0.103 A 
ATOM     83  C   UNL A   1      33.629  28.253  23.118  1.00  0.00     0.003 A 
ATOM     84  C   UNL A   1      31.311  28.819  22.648  1.00  0.00     0.091 A 
ATOM     85  N   UNL A   1      29.534  27.738  23.858  1.00  0.00    -0.230 NA
ATOM     86  C   UNL A   1      32.672  28.991  22.424  1.00  0.00     0.031 A 
ATOM     87  N   UNL A   1      30.454  29.558  21.917  1.00  0.00    -0.231 NA
ATOM     88  C   UNL A   1      28.685  28.480  23.113  1.00  0.00     0.167 A 
ATOM     89  C   UNL A   1      29.137  29.372  22.159  1.00  0.00     0.167 A 
ATOM     90  Cl  UNL A   1      27.028  28.202  23.463  1.00  0.00    -0.059 Cl
ATOM     91  Cl  UNL A   1      28.113  30.330  21.169  1.00  0.00    -0.059 Cl
ENDBRANCH  77  80
ENDBRANCH  75  76
ENDBRANCH  74  75
ENDBRANCH  73  74
ENDBRANCH  72  73
ENDBRANCH   1  72
TORSDOF 16
ENDMDL
MODEL 2
REMARK VINA RESULT:     -11.7      3.295      4.446
REMARK SMILES O=C(NCCCCCCNC(=O)c1cccc2nc(Cl)c(Cl)nc12)c1ccc(-c2c3nc(c(-c4cccc(S(=O)(=O)[O-])c4F)c4ccc([nH]4)c(-c4cccc(S(=O)(=O)[O-])c4F)c4nc(c(-c5cccc(S(=O)(=O)[O-])c5F)c5ccc2[nH]5)C=C4)C=C3)cc1
REMARK SMILES IDX 5 1 4 2 3 3 1 4 2 5 25 7 26 8 87 9 27 10 86 11 28 12 29 13
REMARK SMILES IDX 30 14 80 15 31 16 85 17 79 18 81 19 32 20 84 21 78 22 77 23
REMARK SMILES IDX 33 25 65 26 45 27 64 28 46 29 49 30 63 31 82 32 47 33 48 34
REMARK SMILES IDX 62 36 83 37 50 38 34 39 35 40 43 41 36 42 38 43 44 44 37 45
REMARK SMILES IDX 39 46 40 47 41 48 42 49 66 50 67 51 75 52 68 53 70 54 76 55
REMARK SMILES IDX 69 56 71 57 72 58 73 59 74 60 51 61 52 62 60 63 53 64 55 65
REMARK SMILES IDX 61 66 54 67 56 68 57 69 58 70 59 71 6 72 7 73 8 74 9 75
REMARK SMILES IDX 10 76 11 77 12 79 13 80 14 81 24 82 15 83 17 84 23 85 16 86
REMARK SMILES IDX 18 87 21 88 19 89 22 90 20 91
REMARK H PARENT 3 6 81 24 49 35 10 78
REMARK Flexibility Score: inf
ROOT
ATOM      1  C   UNL A   1      31.966  28.476  24.307  1.00  0.00     0.021 C 
ENDROOT
BRANCH   1   2
ATOM      2  C   UNL A   1      32.944  29.198  25.232  1.00  0.00     0.116 C 
BRANCH   2   3
ATOM      3  N   UNL A   1      32.414  30.454  25.731  1.00  0.00    -0.352 N 
ATOM      4  O   UNL A   1      32.160  32.189  27.136  1.00  0.00    -0.269 OA
ATOM      5  C   UNL A   1      32.845  31.233  26.776  1.00  0.00     0.251 C 
ATOM      6  H   UNL A   1      31.628  30.799  25.250  1.00  0.00     0.163 HD
BRANCH   5   7
ATOM      7  C   UNL A   1      34.116  30.934  27.479  1.00  0.00     0.039 A 
ATOM      8  C   UNL A   1      34.327  29.631  27.948  1.00  0.00     0.014 A 
ATOM      9  C   UNL A   1      35.061  31.928  27.745  1.00  0.00     0.014 A 
ATOM     10  C   UNL A   1      35.493  29.321  28.655  1.00  0.00     0.010 A 
ATOM     11  C   UNL A   1      36.246  31.608  28.411  1.00  0.00     0.010 A 
ATOM     12  C   UNL A   1      36.464  30.307  28.887  1.00  0.00    -0.014 A 
BRANCH  12  13
ATOM     13  C   UNL A   1      37.691  30.007  29.670  1.00  0.00     0.031 A 
ATOM     14  C   UNL A   1      38.751  29.111  29.086  1.00  0.00     0.074 A 
ATOM     15  C   UNL A   1      37.838  30.501  30.915  1.00  0.00     0.049 A 
ATOM     16  N   UNL A   1      39.850  28.668  29.639  1.00  0.00    -0.248 NA
ATOM     17  C   UNL A   1      38.543  28.639  27.705  1.00  0.00     0.031 C 
ATOM     18  C   UNL A   1      36.875  31.360  31.605  1.00  0.00     0.029 A 
ATOM     19  N   UNL A   1      38.854  30.342  31.826  1.00  0.00    -0.354 N 
ATOM     20  C   UNL A   1      40.444  27.839  28.695  1.00  0.00     0.074 A 
ATOM     21  C   UNL A   1      39.582  27.831  27.534  1.00  0.00     0.031 C 
ATOM     22  C   UNL A   1      37.352  31.663  32.825  1.00  0.00     0.029 A 
ATOM     23  C   UNL A   1      38.641  31.003  33.014  1.00  0.00     0.049 A 
ATOM     24  H   UNL A   1      39.659  29.804  31.647  1.00  0.00     0.167 HD
ATOM     25  C   UNL A   1      41.615  27.168  28.776  1.00  0.00     0.034 A 
ATOM     26  C   UNL A   1      39.400  31.073  34.125  1.00  0.00     0.034 A 
ATOM     27  C   UNL A   1      42.510  27.229  29.897  1.00  0.00     0.049 A 
ATOM     28  C   UNL A   1      40.719  30.353  34.168  1.00  0.00     0.074 A 
ATOM     29  C   UNL A   1      43.739  26.610  30.047  1.00  0.00     0.029 A 
ATOM     30  N   UNL A   1      42.289  27.968  31.046  1.00  0.00    -0.354 N 
ATOM     31  N   UNL A   1      41.293  29.633  33.235  1.00  0.00    -0.248 NA
ATOM     32  C   UNL A   1      41.509  30.473  35.403  1.00  0.00     0.031 C 
ATOM     33  C   UNL A   1      44.268  26.988  31.284  1.00  0.00     0.029 A 
ATOM     34  C   UNL A   1      43.366  27.838  31.902  1.00  0.00     0.049 A 
ATOM     35  H   UNL A   1      41.483  28.506  31.227  1.00  0.00     0.167 HD
ATOM     36  C   UNL A   1      42.522  29.245  33.756  1.00  0.00     0.074 A 
ATOM     37  C   UNL A   1      42.616  29.814  35.083  1.00  0.00     0.031 C 
ATOM     38  C   UNL A   1      43.478  28.472  33.188  1.00  0.00     0.034 A 
BRANCH  25  39
ATOM     39  C   UNL A   1      42.053  26.360  27.587  1.00  0.00     0.023 A 
ATOM     40  C   UNL A   1      42.899  26.958  26.633  1.00  0.00     0.012 A 
ATOM     41  C   UNL A   1      41.733  24.993  27.478  1.00  0.00     0.148 A 
ATOM     42  C   UNL A   1      43.420  26.207  25.582  1.00  0.00     0.002 A 
ATOM     43  C   UNL A   1      42.278  24.244  26.442  1.00  0.00     0.091 A 
ATOM     44  F   UNL A   1      40.923  24.452  28.399  1.00  0.00    -0.205 F 
ATOM     45  C   UNL A   1      43.118  24.850  25.492  1.00  0.00     0.022 A 
BRANCH  43  46
ATOM     46  S   UNL A   1      41.996  22.479  26.260  1.00  0.00     0.127 S 
ATOM     47  O   UNL A   1      42.687  22.199  25.001  1.00  0.00    -0.237 OA
ATOM     48  O   UNL A   1      42.653  21.942  27.450  1.00  0.00    -0.237 OA
ATOM     49  O   UNL A   1      40.552  22.302  26.217  1.00  0.00    -0.744 OA
ENDBRANCH  43  46
ENDBRANCH  25  39
BRANCH  26  50
ATOM     50  C   UNL A   1      38.972  31.938  35.259  1.00  0.00     0.023 A 
ATOM     51  C   UNL A   1      39.172  33.329  35.164  1.00  0.00     0.012 A 
ATOM     52  C   UNL A   1      38.344  31.407  36.400  1.00  0.00     0.148 A 
ATOM     53  C   UNL A   1      38.769  34.176  36.197  1.00  0.00     0.002 A 
ATOM     54  C   UNL A   1      37.909  32.261  37.408  1.00  0.00     0.091 A 
ATOM     55  F   UNL A   1      38.181  30.078  36.477  1.00  0.00    -0.205 F 
ATOM     56  C   UNL A   1      38.130  33.643  37.313  1.00  0.00     0.022 A 
BRANCH  54  57
ATOM     57  S   UNL A   1      36.984  31.673  38.832  1.00  0.00     0.127 S 
ATOM     58  O   UNL A   1      36.773  30.268  38.494  1.00  0.00    -0.237 OA
ATOM     59  O   UNL A   1      37.926  31.909  39.927  1.00  0.00    -0.237 OA
ATOM     60  O   UNL A   1      35.786  32.501  38.887  1.00  0.00    -0.744 OA
ENDBRANCH  54  57
ENDBRANCH  26  50
BRANCH  38  61
ATOM     61  C   UNL A   1      44.735  28.210  33.966  1.00  0.00     0.023 A 
ATOM     62  C   UNL A   1      45.799  29.128  33.886  1.00  0.00     0.012 A 
ATOM     63  C   UNL A   1      44.806  27.136  34.875  1.00  0.00     0.148 A 
ATOM     64  C   UNL A   1      46.920  28.980  34.700  1.00  0.00     0.002 A 
ATOM     65  C   UNL A   1      45.915  27.011  35.703  1.00  0.00     0.091 A 
ATOM     66  F   UNL A   1      43.783  26.270  34.920  1.00  0.00    -0.205 F 
ATOM     67  C   UNL A   1      46.973  27.930  35.615  1.00  0.00     0.022 A 
BRANCH  65  68
ATOM     68  S   UNL A   1      46.039  25.738  36.964  1.00  0.00     0.127 S 
ATOM     69  O   UNL A   1      47.269  26.121  37.654  1.00  0.00    -0.237 OA
ATOM     70  O   UNL A   1      44.814  25.946  37.737  1.00  0.00    -0.237 OA
ATOM     71  O   UNL A   1      46.095  24.468  36.250  1.00  0.00    -0.744 OA
ENDBRANCH  65  68
ENDBRANCH  38  61
ENDBRANCH  12  13
ENDBRANCH   5   7
ENDBRANCH   2   3
ENDBRANCH   1   2
BRANCH   1  72
ATOM     72  C   UNL A   1      30.995  27.508  24.990  1.00  0.00     0.002 C 
BRANCH  72  73
ATOM     73  C   UNL A   1      30.145  26.641  24.057  1.00  0.00     0.002 C 
BRANCH  73  74
ATOM     74  C   UNL A   1      30.903  25.582  23.248  1.00  0.00     0.021 C 
BRANCH  74  75
ATOM     75  C   UNL A   1      30.653  24.131  23.654  1.00  0.00     0.116 C 
BRANCH  75  76
ATOM     76  N   UNL A   1      30.456  23.976  25.086  1.00  0.00    -0.352 N 
ATOM     77  C   UNL A   1      31.386  23.783  26.076  1.00  0.00     0.253 C 
ATOM     78  H   UNL A   1      29.520  24.016  25.389  1.00  0.00     0.163 HD
ATOM     79  O   UNL A   1      31.038  23.704  27.251  1.00  0.00    -0.269 OA
BRANCH  77  80
ATOM     80  C   UNL A   1      32.818  23.750  25.737  1.00  0.00     0.067 A 
ATOM     81  C   UNL A   1      33.532  24.957  25.782  1.00  0.00     0.016 A 
ATOM     82  C   UNL A   1      33.435  22.523  25.459  1.00  0.00     0.103 A 
ATOM     83  C   UNL A   1      34.891  24.954  25.513  1.00  0.00     0.003 A 
ATOM     84  C   UNL A   1      34.834  22.541  25.211  1.00  0.00     0.091 A 
ATOM     85  N   UNL A   1      32.754  21.348  25.411  1.00  0.00    -0.230 NA
ATOM     86  C   UNL A   1      35.527  23.747  25.232  1.00  0.00     0.031 A 
ATOM     87  N   UNL A   1      35.531  21.419  24.952  1.00  0.00    -0.231 NA
ATOM     88  C   UNL A   1      33.466  20.228  25.158  1.00  0.00     0.167 A 
ATOM     89  C   UNL A   1      34.830  20.263  24.935  1.00  0.00     0.167 A 
ATOM     90  Cl  UNL A   1      32.527  18.792  25.148  1.00  0.00    -0.059 Cl
ATOM     91  Cl  UNL A   1      35.795  18.877  24.626  1.00  0.00    -0.059 Cl
ENDBRANCH  77  80
ENDBRANCH  75  76
ENDBRANCH  74  75
ENDBRANCH  73  74
ENDBRANCH  72  73
ENDBRANCH   1  72
TORSDOF 16
ENDMDL
MODEL 3
REMARK VINA RESULT:     -11.5      3.464      8.688
REMARK SMILES O=C(NCCCCCCNC(=O)c1cccc2nc(Cl)c(Cl)nc12)c1ccc(-c2c3nc(c(-c4cccc(S(=O)(=O)[O-])c4F)c4ccc([nH]4)c(-c4cccc(S(=O)(=O)[O-])c4F)c4nc(c(-c5cccc(S(=O)(=O)[O-])c5F)c5ccc2[nH]5)C=C4)C=C3)cc1
REMARK SMILES IDX 5 1 4 2 3 3 1 4 2 5 25 7 26 8 87 9 27 10 86 11 28 12 29 13
REMARK SMILES IDX 30 14 80 15 31 16 85 17 79 18 81 19 32 20 84 21 78 22 77 23
REMARK SMILES IDX 33 25 65 26 45 27 64 28 46 29 49 30 63 31 82 32 47 33 48 34
REMARK SMILES IDX 62 36 83 37 50 38 34 39 35 40 43 41 36 42 38 43 44 44 37 45
REMARK SMILES IDX 39 46 40 47 41 48 42 49 66 50 67 51 75 52 68 53 70 54 76 55
REMARK SMILES IDX 69 56 71 57 72 58 73 59 74 60 51 61 52 62 60 63 53 64 55 65
REMARK SMILES IDX 61 66 54 67 56 68 57 69 58 70 59 71 6 72 7 73 8 74 9 75
REMARK SMILES IDX 10 76 11 77 12 79 13 80 14 81 24 82 15 83 17 84 23 85 16 86
REMARK SMILES IDX 18 87 21 88 19 89 22 90 20 91
REMARK H PARENT 3 6 81 24 49 35 10 78
REMARK Flexibility Score: inf
ROOT
ATOM      1  C   UNL A   1      31.683  28.369  25.464  1.00  0.00     0.021 C 
ENDROOT
BRANCH   1   2
ATOM      2  C   UNL A   1      32.810  29.395  25.362  1.00  0.00     0.116 C 
BRANCH   2   3
ATOM      3  N   UNL A   1      32.420  30.701  25.863  1.00  0.00    -0.352 N 
ATOM      4  O   UNL A   1      32.389  32.468  27.250  1.00  0.00    -0.269 OA
ATOM      5  C   UNL A   1      32.967  31.449  26.876  1.00  0.00     0.251 C 
ATOM      6  H   UNL A   1      31.649  31.111  25.410  1.00  0.00     0.163 HD
BRANCH   5   7
ATOM      7  C   UNL A   1      34.235  31.041  27.528  1.00  0.00     0.039 A 
ATOM      8  C   UNL A   1      34.359  29.721  27.977  1.00  0.00     0.014 A 
ATOM      9  C   UNL A   1      35.266  31.955  27.766  1.00  0.00     0.014 A 
ATOM     10  C   UNL A   1      35.522  29.312  28.638  1.00  0.00     0.010 A 
ATOM     11  C   UNL A   1      36.444  31.534  28.385  1.00  0.00     0.010 A 
ATOM     12  C   UNL A   1      36.576  30.214  28.842  1.00  0.00    -0.014 A 
BRANCH  12  13
ATOM     13  C   UNL A   1      37.803  29.809  29.575  1.00  0.00     0.031 A 
ATOM     14  C   UNL A   1      38.069  30.360  30.951  1.00  0.00     0.074 A 
ATOM     15  C   UNL A   1      38.696  28.982  28.996  1.00  0.00     0.049 A 
ATOM     16  N   UNL A   1      39.115  30.191  31.717  1.00  0.00    -0.248 NA
ATOM     17  C   UNL A   1      37.031  31.225  31.539  1.00  0.00     0.031 C 
ATOM     18  C   UNL A   1      38.569  28.399  27.660  1.00  0.00     0.029 A 
ATOM     19  N   UNL A   1      39.896  28.497  29.458  1.00  0.00    -0.354 N 
ATOM     20  C   UNL A   1      38.882  30.954  32.854  1.00  0.00     0.074 A 
ATOM     21  C   UNL A   1      37.598  31.596  32.679  1.00  0.00     0.031 C 
ATOM     22  C   UNL A   1      39.641  27.625  27.415  1.00  0.00     0.029 A 
ATOM     23  C   UNL A   1      40.541  27.675  28.564  1.00  0.00     0.049 A 
ATOM     24  H   UNL A   1      40.260  28.719  30.345  1.00  0.00     0.167 HD
ATOM     25  C   UNL A   1      39.653  31.086  33.957  1.00  0.00     0.034 A 
ATOM     26  C   UNL A   1      41.720  27.029  28.662  1.00  0.00     0.034 A 
ATOM     27  C   UNL A   1      40.894  30.395  34.167  1.00  0.00     0.049 A 
ATOM     28  C   UNL A   1      42.534  27.159  29.919  1.00  0.00     0.074 A 
ATOM     29  C   UNL A   1      41.724  30.441  35.275  1.00  0.00     0.029 A 
ATOM     30  N   UNL A   1      41.472  29.517  33.268  1.00  0.00    -0.354 N 
ATOM     31  N   UNL A   1      42.258  27.831  31.010  1.00  0.00    -0.248 NA
ATOM     32  C   UNL A   1      43.808  26.425  29.973  1.00  0.00     0.031 C 
ATOM     33  C   UNL A   1      42.798  29.576  35.050  1.00  0.00     0.029 A 
ATOM     34  C   UNL A   1      42.637  28.998  33.802  1.00  0.00     0.049 A 
ATOM     35  H   UNL A   1      41.108  29.295  32.380  1.00  0.00     0.167 HD
ATOM     36  C   UNL A   1      43.303  27.572  31.890  1.00  0.00     0.074 A 
ATOM     37  C   UNL A   1      44.215  26.679  31.210  1.00  0.00     0.031 C 
ATOM     38  C   UNL A   1      43.494  28.050  33.143  1.00  0.00     0.034 A 
BRANCH  25  39
ATOM     39  C   UNL A   1      39.150  31.955  35.074  1.00  0.00     0.023 A 
ATOM     40  C   UNL A   1      38.203  31.427  35.973  1.00  0.00     0.012 A 
ATOM     41  C   UNL A   1      39.696  33.233  35.306  1.00  0.00     0.148 A 
ATOM     42  C   UNL A   1      37.801  32.159  37.088  1.00  0.00     0.002 A 
ATOM     43  C   UNL A   1      39.310  33.947  36.434  1.00  0.00     0.091 A 
ATOM     44  F   UNL A   1      40.592  33.711  34.431  1.00  0.00    -0.205 F 
ATOM     45  C   UNL A   1      38.362  33.413  37.323  1.00  0.00     0.022 A 
BRANCH  43  46
ATOM     46  S   UNL A   1      40.004  35.547  36.861  1.00  0.00     0.127 S 
ATOM     47  O   UNL A   1      39.333  35.830  38.130  1.00  0.00    -0.237 OA
ATOM     48  O   UNL A   1      41.429  35.240  36.979  1.00  0.00    -0.237 OA
ATOM     49  O   UNL A   1      39.653  36.446  35.770  1.00  0.00    -0.744 OA
ENDBRANCH  43  46
ENDBRANCH  25  39
BRANCH  26  50
ATOM     50  C   UNL A   1      42.158  26.121  27.566  1.00  0.00     0.023 A 
ATOM     51  C   UNL A   1      42.995  26.633  26.555  1.00  0.00     0.012 A 
ATOM     52  C   UNL A   1      41.789  24.764  27.535  1.00  0.00     0.148 A 
ATOM     53  C   UNL A   1      43.443  25.811  25.521  1.00  0.00     0.002 A 
ATOM     54  C   UNL A   1      42.271  23.942  26.523  1.00  0.00     0.091 A 
ATOM     55  F   UNL A   1      40.977  24.304  28.497  1.00  0.00    -0.205 F 
ATOM     56  C   UNL A   1      43.090  24.465  25.510  1.00  0.00     0.022 A 
BRANCH  54  57
ATOM     57  S   UNL A   1      41.952  22.173  26.489  1.00  0.00     0.127 S 
ATOM     58  O   UNL A   1      42.451  21.753  27.795  1.00  0.00    -0.237 OA
ATOM     59  O   UNL A   1      40.497  22.128  26.341  1.00  0.00    -0.237 OA
ATOM     60  O   UNL A   1      42.684  21.667  25.335  1.00  0.00    -0.744 OA
ENDBRANCH  54  57
ENDBRANCH  26  50
BRANCH  38  61
ATOM     61  C   UNL A   1      44.713  27.600  33.896  1.00  0.00     0.023 A 
ATOM     62  C   UNL A   1      45.876  28.392  33.860  1.00  0.00     0.012 A 
ATOM     63  C   UNL A   1      44.660  26.474  34.742  1.00  0.00     0.148 A 
ATOM     64  C   UNL A   1      46.973  28.069  34.656  1.00  0.00     0.002 A 
ATOM     65  C   UNL A   1      45.747  26.176  35.553  1.00  0.00     0.091 A 
ATOM     66  F   UNL A   1      43.544  25.731  34.745  1.00  0.00    -0.205 F 
ATOM     67  C   UNL A   1      46.905  26.970  35.510  1.00  0.00     0.022 A 
BRANCH  65  68
ATOM     68  S   UNL A   1      45.724  24.826  36.739  1.00  0.00     0.127 S 
ATOM     69  O   UNL A   1      46.941  25.084  37.507  1.00  0.00    -0.237 OA
ATOM     70  O   UNL A   1      44.479  25.073  37.466  1.00  0.00    -0.237 OA
ATOM     71  O   UNL A   1      45.733  23.599  35.952  1.00  0.00    -0.744 OA
ENDBRANCH  65  68
ENDBRANCH  38  61
ENDBRANCH  12  13
ENDBRANCH   5   7
ENDBRANCH   2   3
ENDBRANCH   1   2
BRANCH   1  72
ATOM     72  C   UNL A   1      30.876  28.135  24.183  1.00  0.00     0.002 C 
BRANCH  72  73
ATOM     73  C   UNL A   1      30.193  26.771  24.060  1.00  0.00     0.002 C 
BRANCH  73  74
ATOM     74  C   UNL A   1      30.961  25.701  23.277  1.00  0.00     0.021 C 
BRANCH  74  75
ATOM     75  C   UNL A   1      30.660  24.253  23.659  1.00  0.00     0.116 C 
BRANCH  75  76
ATOM     76  N   UNL A   1      30.468  24.079  25.089  1.00  0.00    -0.352 N 
ATOM     77  C   UNL A   1      31.401  23.868  26.072  1.00  0.00     0.253 C 
ATOM     78  H   UNL A   1      29.534  24.121  25.398  1.00  0.00     0.163 HD
ATOM     79  O   UNL A   1      31.058  23.775  27.248  1.00  0.00    -0.269 OA
BRANCH  77  80
ATOM     80  C   UNL A   1      32.832  23.831  25.727  1.00  0.00     0.067 A 
ATOM     81  C   UNL A   1      33.547  25.037  25.761  1.00  0.00     0.016 A 
ATOM     82  C   UNL A   1      33.446  22.602  25.454  1.00  0.00     0.103 A 
ATOM     83  C   UNL A   1      34.905  25.031  25.485  1.00  0.00     0.003 A 
ATOM     84  C   UNL A   1      34.843  22.617  25.199  1.00  0.00     0.091 A 
ATOM     85  N   UNL A   1      32.764  21.427  25.416  1.00  0.00    -0.230 NA
ATOM     86  C   UNL A   1      35.538  23.822  25.209  1.00  0.00     0.031 A 
ATOM     87  N   UNL A   1      35.539  21.492  24.943  1.00  0.00    -0.231 NA
ATOM     88  C   UNL A   1      33.473  20.304  25.167  1.00  0.00     0.167 A 
ATOM     89  C   UNL A   1      34.836  20.336  24.937  1.00  0.00     0.167 A 
ATOM     90  Cl  UNL A   1      32.532  18.870  25.170  1.00  0.00    -0.059 Cl
ATOM     91  Cl  UNL A   1      35.798  18.947  24.632  1.00  0.00    -0.059 Cl
ENDBRANCH  77  80
ENDBRANCH  75  76
ENDBRANCH  74  75
ENDBRANCH  73  74
ENDBRANCH  72  73
ENDBRANCH   1  72
TORSDOF 16
ENDMDL
