MODEL 1
REMARK VINA RESULT:     -11.5      0.000      0.000
REMARK SMILES O=C(Cc1cccn(C(F)F)c1=O)NCCCCCCNC(=O)c1ccc(-c2c3nc(c(-c4cccc(S(=O)(=O)[O-])c4F)c4ccc([nH]4)c(-c4cccc(S(=O)(=O)[O-])c4F)c4nc(c(-c5cccc(S(=O)(=O)[O-])c5F)c5ccc2[nH]5)C=C4)C=C3)cc1
REMARK SMILES IDX 18 1 17 2 16 3 15 4 14 5 1 6 2 7 3 9 4 10 5 11 12 12 6 13
REMARK SMILES IDX 8 14 13 15 7 16 9 17 10 18 11 19 19 20 20 21 21 22 22 23
REMARK SMILES IDX 23 25 24 26 25 27 86 28 26 29 85 30 27 31 28 32 29 33 79 34
REMARK SMILES IDX 30 35 84 36 78 37 80 38 31 39 83 40 77 41 76 42 32 44 64 45
REMARK SMILES IDX 44 46 63 47 45 48 48 49 62 50 81 51 46 52 47 53 61 55 82 56
REMARK SMILES IDX 49 57 33 58 34 59 42 60 35 61 37 62 43 63 36 64 38 65 39 66
REMARK SMILES IDX 40 67 41 68 65 69 66 70 74 71 67 72 69 73 75 74 68 75 70 76
REMARK SMILES IDX 71 77 72 78 73 79 50 80 51 81 59 82 52 83 54 84 60 85 53 86
REMARK SMILES IDX 55 87 56 88 57 89 58 90
REMARK H PARENT 14 8 21 24 80 43 48 54
REMARK Flexibility Score: inf
ROOT
ATOM      1  C   UNL A   1      32.419  29.311  24.714  1.00  0.00     0.002 C 
ENDROOT
BRANCH   1   2
ATOM      2  C   UNL A   1      33.725  28.840  25.357  1.00  0.00     0.002 C 
BRANCH   2   3
ATOM      3  C   UNL A   1      33.662  27.482  26.074  1.00  0.00     0.021 C 
BRANCH   3   4
ATOM      4  C   UNL A   1      33.546  26.264  25.157  1.00  0.00     0.116 C 
BRANCH   4   5
ATOM      5  N   UNL A   1      33.345  25.051  25.919  1.00  0.00    -0.356 N 
ATOM      6  O   UNL A   1      31.491  24.297  24.787  1.00  0.00    -0.275 OA
ATOM      7  C   UNL A   1      32.327  24.154  25.671  1.00  0.00     0.224 C 
ATOM      8  H   UNL A   1      33.970  24.853  26.654  1.00  0.00     0.163 HD
BRANCH   7   9
ATOM      9  C   UNL A   1      32.356  22.953  26.607  1.00  0.00     0.141 C 
BRANCH   9  10
ATOM     10  C   UNL A   1      32.961  21.773  25.905  1.00  0.00     0.027 A 
ATOM     11  C   UNL A   1      32.237  20.825  25.279  1.00  0.00     0.011 A 
ATOM     12  C   UNL A   1      34.460  21.685  25.861  1.00  0.00     0.258 A 
ATOM     13  C   UNL A   1      32.866  19.704  24.635  1.00  0.00     0.019 A 
ATOM     14  N   UNL A   1      34.985  20.577  25.215  1.00  0.00    -0.258 N 
ATOM     15  O   UNL A   1      35.151  22.575  26.347  1.00  0.00    -0.269 OA
ATOM     16  C   UNL A   1      34.199  19.608  24.621  1.00  0.00     0.095 A 
BRANCH  14  17
ATOM     17  C   UNL A   1      36.418  20.469  25.137  1.00  0.00     0.451 C 
ATOM     18  F   UNL A   1      36.767  19.196  24.807  1.00  0.00    -0.185 F 
ATOM     19  F   UNL A   1      36.873  21.256  24.123  1.00  0.00    -0.185 F 
ENDBRANCH  14  17
ENDBRANCH   9  10
ENDBRANCH   7   9
ENDBRANCH   4   5
ENDBRANCH   3   4
ENDBRANCH   2   3
ENDBRANCH   1   2
BRANCH   1  20
ATOM     20  C   UNL A   1      31.590  30.279  25.558  1.00  0.00     0.021 C 
BRANCH  20  21
ATOM     21  C   UNL A   1      32.251  30.743  26.851  1.00  0.00     0.116 C 
BRANCH  21  22
ATOM     22  N   UNL A   1      32.241  32.190  27.015  1.00  0.00    -0.352 N 
ATOM     23  C   UNL A   1      33.219  32.996  27.553  1.00  0.00     0.251 C 
ATOM     24  H   UNL A   1      31.429  32.650  26.702  1.00  0.00     0.163 HD
ATOM     25  O   UNL A   1      33.009  34.195  27.721  1.00  0.00    -0.269 OA
BRANCH  23  26
ATOM     26  C   UNL A   1      34.503  32.390  27.966  1.00  0.00     0.039 A 
ATOM     27  C   UNL A   1      34.579  31.023  28.245  1.00  0.00     0.014 A 
ATOM     28  C   UNL A   1      35.619  33.211  28.142  1.00  0.00     0.014 A 
ATOM     29  C   UNL A   1      35.719  30.511  28.857  1.00  0.00     0.010 A 
ATOM     30  C   UNL A   1      36.788  32.677  28.692  1.00  0.00     0.010 A 
ATOM     31  C   UNL A   1      36.829  31.336  29.103  1.00  0.00    -0.014 A 
BRANCH  31  32
ATOM     32  C   UNL A   1      38.015  30.778  29.804  1.00  0.00     0.031 A 
ATOM     33  C   UNL A   1      38.303  31.134  31.238  1.00  0.00     0.074 A 
ATOM     34  C   UNL A   1      38.816  29.912  29.153  1.00  0.00     0.049 A 
ATOM     35  N   UNL A   1      39.283  30.726  32.003  1.00  0.00    -0.248 NA
ATOM     36  C   UNL A   1      37.374  32.063  31.904  1.00  0.00     0.031 C 
ATOM     37  C   UNL A   1      38.650  29.498  27.759  1.00  0.00     0.029 A 
ATOM     38  N   UNL A   1      39.917  29.215  29.580  1.00  0.00    -0.354 N 
ATOM     39  C   UNL A   1      39.116  31.376  33.220  1.00  0.00     0.074 A 
ATOM     40  C   UNL A   1      37.939  32.207  33.097  1.00  0.00     0.031 C 
ATOM     41  C   UNL A   1      39.591  28.592  27.456  1.00  0.00     0.029 A 
ATOM     42  C   UNL A   1      40.453  28.392  28.618  1.00  0.00     0.049 A 
ATOM     43  H   UNL A   1      40.288  29.294  30.489  1.00  0.00     0.167 HD
ATOM     44  C   UNL A   1      39.862  31.272  34.345  1.00  0.00     0.034 A 
ATOM     45  C   UNL A   1      41.519  27.570  28.659  1.00  0.00     0.034 A 
ATOM     46  C   UNL A   1      40.999  30.405  34.490  1.00  0.00     0.049 A 
ATOM     47  C   UNL A   1      42.312  27.454  29.928  1.00  0.00     0.074 A 
ATOM     48  C   UNL A   1      41.798  30.218  35.606  1.00  0.00     0.029 A 
ATOM     49  N   UNL A   1      41.491  29.571  33.500  1.00  0.00    -0.354 N 
ATOM     50  N   UNL A   1      42.099  28.033  31.083  1.00  0.00    -0.248 NA
ATOM     51  C   UNL A   1      43.480  26.562  29.904  1.00  0.00     0.031 C 
ATOM     52  C   UNL A   1      42.770  29.263  35.291  1.00  0.00     0.029 A 
ATOM     53  C   UNL A   1      42.576  28.859  33.981  1.00  0.00     0.049 A 
ATOM     54  H   UNL A   1      41.124  29.497  32.590  1.00  0.00     0.167 HD
ATOM     55  C   UNL A   1      43.099  27.571  31.929  1.00  0.00     0.074 A 
ATOM     56  C   UNL A   1      43.905  26.645  31.160  1.00  0.00     0.031 C 
ATOM     57  C   UNL A   1      43.338  27.903  33.220  1.00  0.00     0.034 A 
BRANCH  44  58
ATOM     58  C   UNL A   1      39.444  32.075  35.546  1.00  0.00     0.023 A 
ATOM     59  C   UNL A   1      39.766  33.445  35.598  1.00  0.00     0.012 A 
ATOM     60  C   UNL A   1      38.653  31.507  36.563  1.00  0.00     0.148 A 
ATOM     61  C   UNL A   1      39.312  34.240  36.649  1.00  0.00     0.002 A 
ATOM     62  C   UNL A   1      38.183  32.311  37.595  1.00  0.00     0.091 A 
ATOM     63  F   UNL A   1      38.373  30.197  36.498  1.00  0.00    -0.205 F 
ATOM     64  C   UNL A   1      38.514  33.675  37.641  1.00  0.00     0.022 A 
BRANCH  62  65
ATOM     65  S   UNL A   1      37.105  31.696  38.895  1.00  0.00     0.127 S 
ATOM     66  O   UNL A   1      37.934  31.898  40.083  1.00  0.00    -0.237 OA
ATOM     67  O   UNL A   1      35.956  32.594  38.793  1.00  0.00    -0.237 OA
ATOM     68  O   UNL A   1      36.825  30.306  38.562  1.00  0.00    -0.744 OA
ENDBRANCH  62  65
ENDBRANCH  44  58
BRANCH  45  69
ATOM     69  C   UNL A   1      41.845  26.751  27.461  1.00  0.00     0.023 A 
ATOM     70  C   UNL A   1      42.497  27.359  26.373  1.00  0.00     0.012 A 
ATOM     71  C   UNL A   1      41.599  25.366  27.437  1.00  0.00     0.148 A 
ATOM     72  C   UNL A   1      42.901  26.597  25.276  1.00  0.00     0.002 A 
ATOM     73  C   UNL A   1      42.044  24.606  26.363  1.00  0.00     0.091 A 
ATOM     74  F   UNL A   1      40.966  24.817  28.483  1.00  0.00    -0.205 F 
ATOM     75  C   UNL A   1      42.688  25.221  25.277  1.00  0.00     0.022 A 
BRANCH  73  76
ATOM     76  S   UNL A   1      41.928  22.814  26.332  1.00  0.00     0.127 S 
ATOM     77  O   UNL A   1      42.567  22.452  27.595  1.00  0.00    -0.237 OA
ATOM     78  O   UNL A   1      40.479  22.608  26.292  1.00  0.00    -0.237 OA
ATOM     79  O   UNL A   1      42.630  22.393  25.128  1.00  0.00    -0.744 OA
ENDBRANCH  73  76
ENDBRANCH  45  69
BRANCH  57  80
ATOM     80  C   UNL A   1      44.517  27.270  33.900  1.00  0.00     0.023 A 
ATOM     81  C   UNL A   1      45.761  27.929  33.869  1.00  0.00     0.012 A 
ATOM     82  C   UNL A   1      44.369  26.094  34.661  1.00  0.00     0.148 A 
ATOM     83  C   UNL A   1      46.847  27.419  34.579  1.00  0.00     0.002 A 
ATOM     84  C   UNL A   1      45.448  25.608  35.389  1.00  0.00     0.091 A 
ATOM     85  F   UNL A   1      43.177  25.480  34.661  1.00  0.00    -0.205 F 
ATOM     86  C   UNL A   1      46.688  26.268  35.348  1.00  0.00     0.022 A 
BRANCH  84  87
ATOM     87  S   UNL A   1      45.322  24.173  36.461  1.00  0.00     0.127 S 
ATOM     88  O   UNL A   1      46.722  23.943  36.817  1.00  0.00    -0.237 OA
ATOM     89  O   UNL A   1      44.488  24.672  37.554  1.00  0.00    -0.237 OA
ATOM     90  O   UNL A   1      44.704  23.125  35.659  1.00  0.00    -0.744 OA
ENDBRANCH  84  87
ENDBRANCH  57  80
ENDBRANCH  31  32
ENDBRANCH  23  26
ENDBRANCH  21  22
ENDBRANCH  20  21
ENDBRANCH   1  20
TORSDOF 18
ENDMDL
MODEL 2
REMARK VINA RESULT:     -11.4      2.835      4.245
REMARK SMILES O=C(Cc1cccn(C(F)F)c1=O)NCCCCCCNC(=O)c1ccc(-c2c3nc(c(-c4cccc(S(=O)(=O)[O-])c4F)c4ccc([nH]4)c(-c4cccc(S(=O)(=O)[O-])c4F)c4nc(c(-c5cccc(S(=O)(=O)[O-])c5F)c5ccc2[nH]5)C=C4)C=C3)cc1
REMARK SMILES IDX 18 1 17 2 16 3 15 4 14 5 1 6 2 7 3 9 4 10 5 11 12 12 6 13
REMARK SMILES IDX 8 14 13 15 7 16 9 17 10 18 11 19 19 20 20 21 21 22 22 23
REMARK SMILES IDX 23 25 24 26 25 27 86 28 26 29 85 30 27 31 28 32 29 33 79 34
REMARK SMILES IDX 30 35 84 36 78 37 80 38 31 39 83 40 77 41 76 42 32 44 64 45
REMARK SMILES IDX 44 46 63 47 45 48 48 49 62 50 81 51 46 52 47 53 61 55 82 56
REMARK SMILES IDX 49 57 33 58 34 59 42 60 35 61 37 62 43 63 36 64 38 65 39 66
REMARK SMILES IDX 40 67 41 68 65 69 66 70 74 71 67 72 69 73 75 74 68 75 70 76
REMARK SMILES IDX 71 77 72 78 73 79 50 80 51 81 59 82 52 83 54 84 60 85 53 86
REMARK SMILES IDX 55 87 56 88 57 89 58 90
REMARK H PARENT 14 8 21 24 80 43 48 54
REMARK Flexibility Score: inf
ROOT
ATOM      1  C   UNL A   1      31.107  30.220  25.890  1.00  0.00     0.002 C 
ENDROOT
BRANCH   1   2
ATOM      2  C   UNL A   1      31.987  29.371  26.812  1.00  0.00     0.002 C 
BRANCH   2   3
ATOM      3  C   UNL A   1      31.422  27.992  27.186  1.00  0.00     0.021 C 
BRANCH   3   4
ATOM      4  C   UNL A   1      31.916  26.828  26.326  1.00  0.00     0.116 C 
BRANCH   4   5
ATOM      5  N   UNL A   1      31.217  26.779  25.059  1.00  0.00    -0.356 N 
ATOM      6  O   UNL A   1      32.864  27.743  23.778  1.00  0.00    -0.275 OA
ATOM      7  C   UNL A   1      31.751  27.242  23.875  1.00  0.00     0.224 C 
ATOM      8  H   UNL A   1      30.311  26.392  25.042  1.00  0.00     0.163 HD
BRANCH   7   9
ATOM      9  C   UNL A   1      30.813  27.051  22.690  1.00  0.00     0.141 C 
BRANCH   9  10
ATOM     10  C   UNL A   1      29.636  27.974  22.816  1.00  0.00     0.027 A 
ATOM     11  C   UNL A   1      28.446  27.601  23.323  1.00  0.00     0.011 A 
ATOM     12  C   UNL A   1      29.828  29.404  22.398  1.00  0.00     0.258 A 
ATOM     13  C   UNL A   1      27.344  28.521  23.406  1.00  0.00     0.019 A 
ATOM     14  N   UNL A   1      28.719  30.226  22.517  1.00  0.00    -0.258 N 
ATOM     15  O   UNL A   1      30.924  29.799  22.011  1.00  0.00    -0.269 OA
ATOM     16  C   UNL A   1      27.504  29.786  23.006  1.00  0.00     0.095 A 
BRANCH  14  17
ATOM     17  C   UNL A   1      28.871  31.607  22.142  1.00  0.00     0.451 C 
ATOM     18  F   UNL A   1      27.721  32.060  21.572  1.00  0.00    -0.185 F 
ATOM     19  F   UNL A   1      29.053  32.359  23.263  1.00  0.00    -0.185 F 
ENDBRANCH  14  17
ENDBRANCH   9  10
ENDBRANCH   7   9
ENDBRANCH   4   5
ENDBRANCH   3   4
ENDBRANCH   2   3
ENDBRANCH   1   2
BRANCH   1  20
ATOM     20  C   UNL A   1      31.123  31.721  26.177  1.00  0.00     0.021 C 
BRANCH  20  21
ATOM     21  C   UNL A   1      32.463  32.279  26.645  1.00  0.00     0.116 C 
BRANCH  21  22
ATOM     22  N   UNL A   1      32.344  33.553  27.340  1.00  0.00    -0.352 N 
ATOM     23  C   UNL A   1      33.172  34.080  28.305  1.00  0.00     0.251 C 
ATOM     24  H   UNL A   1      31.572  34.108  27.087  1.00  0.00     0.163 HD
ATOM     25  O   UNL A   1      32.871  35.126  28.875  1.00  0.00    -0.269 OA
BRANCH  23  26
ATOM     26  C   UNL A   1      34.402  33.347  28.676  1.00  0.00     0.039 A 
ATOM     27  C   UNL A   1      34.321  32.044  29.177  1.00  0.00     0.014 A 
ATOM     28  C   UNL A   1      35.636  33.995  28.588  1.00  0.00     0.014 A 
ATOM     29  C   UNL A   1      35.448  31.457  29.742  1.00  0.00     0.010 A 
ATOM     30  C   UNL A   1      36.781  33.371  29.092  1.00  0.00     0.010 A 
ATOM     31  C   UNL A   1      36.687  32.120  29.721  1.00  0.00    -0.014 A 
BRANCH  31  32
ATOM     32  C   UNL A   1      37.864  31.493  30.376  1.00  0.00     0.031 A 
ATOM     33  C   UNL A   1      38.233  31.837  31.795  1.00  0.00     0.074 A 
ATOM     34  C   UNL A   1      38.582  30.577  29.699  1.00  0.00     0.049 A 
ATOM     35  N   UNL A   1      39.218  31.374  32.521  1.00  0.00    -0.248 NA
ATOM     36  C   UNL A   1      37.392  32.825  32.492  1.00  0.00     0.031 C 
ATOM     37  C   UNL A   1      38.334  30.168  28.316  1.00  0.00     0.029 A 
ATOM     38  N   UNL A   1      39.655  29.815  30.085  1.00  0.00    -0.354 N 
ATOM     39  C   UNL A   1      39.142  32.038  33.740  1.00  0.00     0.074 A 
ATOM     40  C   UNL A   1      38.014  32.939  33.659  1.00  0.00     0.031 C 
ATOM     41  C   UNL A   1      39.204  29.204  27.980  1.00  0.00     0.029 A 
ATOM     42  C   UNL A   1      40.099  28.956  29.107  1.00  0.00     0.049 A 
ATOM     43  H   UNL A   1      40.069  29.876  30.976  1.00  0.00     0.167 HD
ATOM     44  C   UNL A   1      39.927  31.894  34.833  1.00  0.00     0.034 A 
ATOM     45  C   UNL A   1      41.114  28.071  29.110  1.00  0.00     0.034 A 
ATOM     46  C   UNL A   1      41.013  30.959  34.937  1.00  0.00     0.049 A 
ATOM     47  C   UNL A   1      41.951  27.912  30.345  1.00  0.00     0.074 A 
ATOM     48  C   UNL A   1      41.846  30.728  36.020  1.00  0.00     0.029 A 
ATOM     49  N   UNL A   1      41.412  30.091  33.934  1.00  0.00    -0.354 N 
ATOM     50  N   UNL A   1      41.823  28.509  31.504  1.00  0.00    -0.248 NA
ATOM     51  C   UNL A   1      43.060  26.950  30.280  1.00  0.00     0.031 C 
ATOM     52  C   UNL A   1      42.743  29.713  35.672  1.00  0.00     0.029 A 
ATOM     53  C   UNL A   1      42.470  29.316  34.374  1.00  0.00     0.049 A 
ATOM     54  H   UNL A   1      41.003  30.036  33.040  1.00  0.00     0.167 HD
ATOM     55  C   UNL A   1      42.826  27.990  32.311  1.00  0.00     0.074 A 
ATOM     56  C   UNL A   1      43.541  27.012  31.516  1.00  0.00     0.031 C 
ATOM     57  C   UNL A   1      43.139  28.312  33.588  1.00  0.00     0.034 A 
BRANCH  44  58
ATOM     58  C   UNL A   1      39.609  32.726  36.045  1.00  0.00     0.023 A 
ATOM     59  C   UNL A   1      40.123  34.034  36.128  1.00  0.00     0.012 A 
ATOM     60  C   UNL A   1      38.729  32.259  37.040  1.00  0.00     0.148 A 
ATOM     61  C   UNL A   1      39.772  34.867  37.190  1.00  0.00     0.002 A 
ATOM     62  C   UNL A   1      38.363  33.103  38.082  1.00  0.00     0.091 A 
ATOM     63  F   UNL A   1      38.266  31.005  36.944  1.00  0.00    -0.205 F 
ATOM     64  C   UNL A   1      38.885  34.404  38.160  1.00  0.00     0.022 A 
BRANCH  62  65
ATOM     65  S   UNL A   1      37.188  32.626  39.355  1.00  0.00     0.127 S 
ATOM     66  O   UNL A   1      35.923  32.681  38.623  1.00  0.00    -0.237 OA
ATOM     67  O   UNL A   1      37.637  31.277  39.699  1.00  0.00    -0.237 OA
ATOM     68  O   UNL A   1      37.331  33.606  40.422  1.00  0.00    -0.744 OA
ENDBRANCH  62  65
ENDBRANCH  44  58
BRANCH  45  69
ATOM     69  C   UNL A   1      41.338  27.228  27.905  1.00  0.00     0.023 A 
ATOM     70  C   UNL A   1      42.047  27.766  26.815  1.00  0.00     0.012 A 
ATOM     71  C   UNL A   1      40.940  25.879  27.875  1.00  0.00     0.148 A 
ATOM     72  C   UNL A   1      42.356  26.971  25.711  1.00  0.00     0.002 A 
ATOM     73  C   UNL A   1      41.291  25.080  26.794  1.00  0.00     0.091 A 
ATOM     74  F   UNL A   1      40.258  25.397  28.924  1.00  0.00    -0.205 F 
ATOM     75  C   UNL A   1      41.991  25.627  25.707  1.00  0.00     0.022 A 
BRANCH  73  76
ATOM     76  S   UNL A   1      40.976  23.313  26.755  1.00  0.00     0.127 S 
ATOM     77  O   UNL A   1      39.562  23.270  26.393  1.00  0.00    -0.237 OA
ATOM     78  O   UNL A   1      41.896  22.868  25.708  1.00  0.00    -0.237 OA
ATOM     79  O   UNL A   1      41.299  22.824  28.089  1.00  0.00    -0.744 OA
ENDBRANCH  73  76
ENDBRANCH  45  69
BRANCH  57  80
ATOM     80  C   UNL A   1      44.305  27.610  34.224  1.00  0.00     0.023 A 
ATOM     81  C   UNL A   1      45.584  28.193  34.140  1.00  0.00     0.012 A 
ATOM     82  C   UNL A   1      44.117  26.447  34.995  1.00  0.00     0.148 A 
ATOM     83  C   UNL A   1      46.665  27.621  34.808  1.00  0.00     0.002 A 
ATOM     84  C   UNL A   1      45.194  25.899  35.682  1.00  0.00     0.091 A 
ATOM     85  F   UNL A   1      42.892  25.906  35.046  1.00  0.00    -0.205 F 
ATOM     86  C   UNL A   1      46.469  26.483  35.587  1.00  0.00     0.022 A 
BRANCH  84  87
ATOM     87  S   UNL A   1      45.026  24.476  36.764  1.00  0.00     0.127 S 
ATOM     88  O   UNL A   1      44.041  24.953  37.733  1.00  0.00    -0.237 OA
ATOM     89  O   UNL A   1      44.534  23.445  35.850  1.00  0.00    -0.237 OA
ATOM     90  O   UNL A   1      46.356  24.222  37.303  1.00  0.00    -0.744 OA
ENDBRANCH  84  87
ENDBRANCH  57  80
ENDBRANCH  31  32
ENDBRANCH  23  26
ENDBRANCH  21  22
ENDBRANCH  20  21
ENDBRANCH   1  20
TORSDOF 18
ENDMDL
MODEL 3
REMARK VINA RESULT:     -11.3      1.614      1.972
REMARK SMILES O=C(Cc1cccn(C(F)F)c1=O)NCCCCCCNC(=O)c1ccc(-c2c3nc(c(-c4cccc(S(=O)(=O)[O-])c4F)c4ccc([nH]4)c(-c4cccc(S(=O)(=O)[O-])c4F)c4nc(c(-c5cccc(S(=O)(=O)[O-])c5F)c5ccc2[nH]5)C=C4)C=C3)cc1
REMARK SMILES IDX 18 1 17 2 16 3 15 4 14 5 1 6 2 7 3 9 4 10 5 11 12 12 6 13
REMARK SMILES IDX 8 14 13 15 7 16 9 17 10 18 11 19 19 20 20 21 21 22 22 23
REMARK SMILES IDX 23 25 24 26 25 27 86 28 26 29 85 30 27 31 28 32 29 33 79 34
REMARK SMILES IDX 30 35 84 36 78 37 80 38 31 39 83 40 77 41 76 42 32 44 64 45
REMARK SMILES IDX 44 46 63 47 45 48 48 49 62 50 81 51 46 52 47 53 61 55 82 56
REMARK SMILES IDX 49 57 33 58 34 59 42 60 35 61 37 62 43 63 36 64 38 65 39 66
REMARK SMILES IDX 40 67 41 68 65 69 66 70 74 71 67 72 69 73 75 74 68 75 70 76
REMARK SMILES IDX 71 77 72 78 73 79 50 80 51 81 59 82 52 83 54 84 60 85 53 86
REMARK SMILES IDX 55 87 56 88 57 89 58 90
REMARK H PARENT 14 8 21 24 80 43 48 54
REMARK Flexibility Score: inf
ROOT
ATOM      1  C   UNL A   1      32.021  27.717  26.174  1.00  0.00     0.002 C 
ENDROOT
BRANCH   1   2
ATOM      2  C   UNL A   1      33.489  27.286  26.205  1.00  0.00     0.002 C 
BRANCH   2   3
ATOM      3  C   UNL A   1      33.789  25.906  25.599  1.00  0.00     0.021 C 
BRANCH   3   4
ATOM      4  C   UNL A   1      32.599  25.212  24.935  1.00  0.00     0.116 C 
BRANCH   4   5
ATOM      5  N   UNL A   1      32.456  23.851  25.407  1.00  0.00    -0.356 N 
ATOM      6  O   UNL A   1      32.731  22.806  23.377  1.00  0.00    -0.275 OA
ATOM      7  C   UNL A   1      32.536  22.746  24.585  1.00  0.00     0.224 C 
ATOM      8  H   UNL A   1      32.294  23.706  26.367  1.00  0.00     0.163 HD
BRANCH   7   9
ATOM      9  C   UNL A   1      32.369  21.435  25.341  1.00  0.00     0.141 C 
BRANCH   9  10
ATOM     10  C   UNL A   1      33.559  20.552  25.101  1.00  0.00     0.027 A 
ATOM     11  C   UNL A   1      34.833  20.958  25.259  1.00  0.00     0.011 A 
ATOM     12  C   UNL A   1      33.298  19.125  24.714  1.00  0.00     0.258 A 
ATOM     13  C   UNL A   1      35.940  20.076  25.000  1.00  0.00     0.019 A 
ATOM     14  N   UNL A   1      34.418  18.341  24.489  1.00  0.00    -0.258 N 
ATOM     15  O   UNL A   1      32.149  18.699  24.643  1.00  0.00    -0.269 OA
ATOM     16  C   UNL A   1      35.709  18.815  24.626  1.00  0.00     0.095 A 
BRANCH  14  17
ATOM     17  C   UNL A   1      34.206  16.963  24.134  1.00  0.00     0.451 C 
ATOM     18  F   UNL A   1      34.379  16.800  22.795  1.00  0.00    -0.185 F 
ATOM     19  F   UNL A   1      35.159  16.194  24.730  1.00  0.00    -0.185 F 
ENDBRANCH  14  17
ENDBRANCH   9  10
ENDBRANCH   7   9
ENDBRANCH   4   5
ENDBRANCH   3   4
ENDBRANCH   2   3
ENDBRANCH   1   2
BRANCH   1  20
ATOM     20  C   UNL A   1      31.752  29.146  26.648  1.00  0.00     0.021 C 
BRANCH  20  21
ATOM     21  C   UNL A   1      32.546  30.230  25.925  1.00  0.00     0.116 C 
BRANCH  21  22
ATOM     22  N   UNL A   1      32.275  31.570  26.424  1.00  0.00    -0.352 N 
ATOM     23  C   UNL A   1      33.035  32.332  27.282  1.00  0.00     0.251 C 
ATOM     24  H   UNL A   1      31.441  31.984  26.107  1.00  0.00     0.163 HD
ATOM     25  O   UNL A   1      32.611  33.408  27.695  1.00  0.00    -0.269 OA
BRANCH  23  26
ATOM     26  C   UNL A   1      34.345  31.815  27.734  1.00  0.00     0.039 A 
ATOM     27  C   UNL A   1      34.511  30.453  28.001  1.00  0.00     0.014 A 
ATOM     28  C   UNL A   1      35.392  32.712  27.958  1.00  0.00     0.014 A 
ATOM     29  C   UNL A   1      35.663  30.017  28.647  1.00  0.00     0.010 A 
ATOM     30  C   UNL A   1      36.577  32.257  28.543  1.00  0.00     0.010 A 
ATOM     31  C   UNL A   1      36.702  30.917  28.941  1.00  0.00    -0.014 A 
BRANCH  31  32
ATOM     32  C   UNL A   1      37.901  30.437  29.676  1.00  0.00     0.031 A 
ATOM     33  C   UNL A   1      38.131  30.824  31.113  1.00  0.00     0.074 A 
ATOM     34  C   UNL A   1      38.766  29.613  29.056  1.00  0.00     0.049 A 
ATOM     35  N   UNL A   1      39.114  30.483  31.906  1.00  0.00    -0.248 NA
ATOM     36  C   UNL A   1      37.133  31.704  31.745  1.00  0.00     0.031 C 
ATOM     37  C   UNL A   1      38.660  29.176  27.663  1.00  0.00     0.029 A 
ATOM     38  N   UNL A   1      39.895  28.986  29.518  1.00  0.00    -0.354 N 
ATOM     39  C   UNL A   1      38.879  31.134  33.112  1.00  0.00     0.074 A 
ATOM     40  C   UNL A   1      37.659  31.893  32.949  1.00  0.00     0.031 C 
ATOM     41  C   UNL A   1      39.660  28.323  27.393  1.00  0.00     0.029 A 
ATOM     42  C   UNL A   1      40.502  28.186  28.578  1.00  0.00     0.049 A 
ATOM     43  H   UNL A   1      40.239  29.097  30.434  1.00  0.00     0.167 HD
ATOM     44  C   UNL A   1      39.602  31.086  34.255  1.00  0.00     0.034 A 
ATOM     45  C   UNL A   1      41.613  27.429  28.656  1.00  0.00     0.034 A 
ATOM     46  C   UNL A   1      40.783  30.289  34.438  1.00  0.00     0.049 A 
ATOM     47  C   UNL A   1      42.380  27.372  29.944  1.00  0.00     0.074 A 
ATOM     48  C   UNL A   1      41.564  30.160  35.575  1.00  0.00     0.029 A 
ATOM     49  N   UNL A   1      41.348  29.475  33.471  1.00  0.00    -0.354 N 
ATOM     50  N   UNL A   1      42.105  27.950  31.088  1.00  0.00    -0.248 NA
ATOM     51  C   UNL A   1      43.598  26.550  29.960  1.00  0.00     0.031 C 
ATOM     52  C   UNL A   1      42.597  29.261  35.296  1.00  0.00     0.029 A 
ATOM     53  C   UNL A   1      42.460  28.832  33.986  1.00  0.00     0.049 A 
ATOM     54  H   UNL A   1      41.008  29.370  32.553  1.00  0.00     0.167 HD
ATOM     55  C   UNL A   1      43.108  27.556  31.962  1.00  0.00     0.074 A 
ATOM     56  C   UNL A   1      43.986  26.671  31.225  1.00  0.00     0.031 C 
ATOM     57  C   UNL A   1      43.295  27.915  33.255  1.00  0.00     0.034 A 
BRANCH  44  58
ATOM     58  C   UNL A   1      39.107  31.875  35.436  1.00  0.00     0.023 A 
ATOM     59  C   UNL A   1      38.192  31.275  36.323  1.00  0.00     0.012 A 
ATOM     60  C   UNL A   1      39.618  33.155  35.724  1.00  0.00     0.148 A 
ATOM     61  C   UNL A   1      37.785  31.940  37.478  1.00  0.00     0.002 A 
ATOM     62  C   UNL A   1      39.227  33.802  36.890  1.00  0.00     0.091 A 
ATOM     63  F   UNL A   1      40.476  33.710  34.856  1.00  0.00    -0.205 F 
ATOM     64  C   UNL A   1      38.310  33.199  37.766  1.00  0.00     0.022 A 
BRANCH  62  65
ATOM     65  S   UNL A   1      39.882  35.402  37.383  1.00  0.00     0.127 S 
ATOM     66  O   UNL A   1      39.477  36.243  36.257  1.00  0.00    -0.237 OA
ATOM     67  O   UNL A   1      39.160  35.659  38.629  1.00  0.00    -0.237 OA
ATOM     68  O   UNL A   1      41.318  35.219  37.537  1.00  0.00    -0.744 OA
ENDBRANCH  62  65
ENDBRANCH  44  58
BRANCH  45  69
ATOM     69  C   UNL A   1      42.016  26.618  27.475  1.00  0.00     0.023 A 
ATOM     70  C   UNL A   1      42.794  27.216  26.467  1.00  0.00     0.012 A 
ATOM     71  C   UNL A   1      41.715  25.245  27.398  1.00  0.00     0.148 A 
ATOM     72  C   UNL A   1      43.267  26.457  25.396  1.00  0.00     0.002 A 
ATOM     73  C   UNL A   1      42.228  24.486  26.354  1.00  0.00     0.091 A 
ATOM     74  F   UNL A   1      40.964  24.706  28.368  1.00  0.00    -0.205 F 
ATOM     75  C   UNL A   1      42.997  25.091  25.347  1.00  0.00     0.022 A 
BRANCH  73  76
ATOM     76  S   UNL A   1      42.040  22.701  26.273  1.00  0.00     0.127 S 
ATOM     77  O   UNL A   1      42.725  22.274  27.490  1.00  0.00    -0.237 OA
ATOM     78  O   UNL A   1      40.584  22.552  26.300  1.00  0.00    -0.237 OA
ATOM     79  O   UNL A   1      42.665  22.295  25.022  1.00  0.00    -0.744 OA
ENDBRANCH  73  76
ENDBRANCH  45  69
BRANCH  57  80
ATOM     80  C   UNL A   1      44.492  27.359  33.971  1.00  0.00     0.023 A 
ATOM     81  C   UNL A   1      45.707  28.071  33.930  1.00  0.00     0.012 A 
ATOM     82  C   UNL A   1      44.385  26.207  34.773  1.00  0.00     0.148 A 
ATOM     83  C   UNL A   1      46.805  27.636  34.670  1.00  0.00     0.002 A 
ATOM     84  C   UNL A   1      45.475  25.796  35.530  1.00  0.00     0.091 A 
ATOM     85  F   UNL A   1      43.222  25.541  34.782  1.00  0.00    -0.205 F 
ATOM     86  C   UNL A   1      46.686  26.507  35.479  1.00  0.00     0.022 A 
BRANCH  84  87
ATOM     87  S   UNL A   1      45.399  24.396  36.653  1.00  0.00     0.127 S 
ATOM     88  O   UNL A   1      46.768  24.347  37.163  1.00  0.00    -0.237 OA
ATOM     89  O   UNL A   1      44.399  24.832  37.628  1.00  0.00    -0.237 OA
ATOM     90  O   UNL A   1      44.995  23.253  35.843  1.00  0.00    -0.744 OA
ENDBRANCH  84  87
ENDBRANCH  57  80
ENDBRANCH  31  32
ENDBRANCH  23  26
ENDBRANCH  21  22
ENDBRANCH  20  21
ENDBRANCH   1  20
TORSDOF 18
ENDMDL
