MODEL 1
REMARK VINA RESULT:     -10.5      0.000      0.000
REMARK SMILES CNC(=O)CC[NH+]1CCC(CC(=O)NCCCCCCNC(=O)c2ccc(-c3c4nc(c(-c5cccc(S(=O)(=O)[O-])c5F)c5ccc([nH]5)c(-c5cccc(S(=O)(=O)[O-])c5F)c5nc(c(-c6cccc(S(=O)(=O)[O-])c6F)c6ccc3[nH]6)C=C5)C=C4)cc2)CC1
REMARK SMILES IDX 17 1 16 2 15 3 14 4 12 5 13 6 11 8 10 9 7 10 8 11 88 12 9 14
REMARK SMILES IDX 87 15 6 16 5 17 3 18 1 19 2 20 4 22 18 23 19 24 20 25 21 26
REMARK SMILES IDX 22 27 23 29 24 30 25 31 86 32 26 33 85 34 27 35 28 36 29 37
REMARK SMILES IDX 79 38 30 39 84 40 78 41 80 42 31 43 83 44 77 45 76 46 32 48
REMARK SMILES IDX 64 49 44 50 63 51 45 52 48 53 62 54 81 55 46 56 47 57 61 59
REMARK SMILES IDX 82 60 49 61 33 62 34 63 42 64 35 65 37 66 43 67 36 68 38 69
REMARK SMILES IDX 39 70 40 71 41 72 65 73 66 74 74 75 67 76 69 77 75 78 68 79
REMARK SMILES IDX 70 80 71 81 72 82 73 83 50 84 51 85 59 86 52 87 54 88 60 89
REMARK SMILES IDX 53 90 55 91 56 92 57 93 58 94
REMARK H PARENT 14 7 7 13 2 21 21 28 80 47 48 58
REMARK Flexibility Score: inf
ROOT
ATOM      1  C   UNL A   1      33.925  25.418  25.959  1.00  0.00     0.002 C 
ENDROOT
BRANCH   1   2
ATOM      2  C   UNL A   1      33.741  26.864  25.485  1.00  0.00     0.021 C 
BRANCH   2   3
ATOM      3  C   UNL A   1      32.701  27.013  24.366  1.00  0.00     0.116 C 
BRANCH   3   4
ATOM      4  N   UNL A   1      31.364  26.756  24.873  1.00  0.00    -0.356 N 
ATOM      5  C   UNL A   1      30.379  25.946  24.392  1.00  0.00     0.220 C 
ATOM      6  O   UNL A   1      29.277  25.986  24.944  1.00  0.00    -0.275 OA
ATOM      7  H   UNL A   1      31.132  27.245  25.696  1.00  0.00     0.163 HD
BRANCH   5   8
ATOM      8  C   UNL A   1      30.624  25.025  23.201  1.00  0.00     0.104 C 
BRANCH   8   9
ATOM      9  C   UNL A   1      30.961  23.593  23.633  1.00  0.00     0.009 C 
ATOM     10  N   UNL A   1      32.399  21.281  24.711  1.00  0.00    -0.334 N 
ATOM     11  C   UNL A   1      32.413  21.589  23.283  1.00  0.00     0.262 C 
ATOM     12  C   UNL A   1      31.381  21.966  25.509  1.00  0.00     0.262 C 
ATOM     13  H   UNL A   1      33.260  21.693  25.072  1.00  0.00     0.348 HD
ATOM     14  C   UNL A   1      32.245  23.071  22.982  1.00  0.00     0.066 C 
ATOM     15  C   UNL A   1      31.182  23.448  25.147  1.00  0.00     0.066 C 
BRANCH  10  16
ATOM     16  C   UNL A   1      32.463  19.823  24.950  1.00  0.00     0.272 C 
BRANCH  16  17
ATOM     17  C   UNL A   1      33.466  18.988  24.132  1.00  0.00     0.161 C 
BRANCH  17  18
ATOM     18  C   UNL A   1      32.845  17.794  23.437  1.00  0.00     0.225 C 
ATOM     19  C   UNL A   1      32.986  16.260  25.460  1.00  0.00     0.142 C 
ATOM     20  N   UNL A   1      32.729  16.598  24.082  1.00  0.00    -0.359 N 
ATOM     21  H   UNL A   1      32.421  15.849  23.520  1.00  0.00     0.163 HD
ATOM     22  O   UNL A   1      32.439  17.863  22.276  1.00  0.00    -0.275 OA
ENDBRANCH  17  18
ENDBRANCH  16  17
ENDBRANCH  10  16
ENDBRANCH   8   9
ENDBRANCH   5   8
ENDBRANCH   3   4
ENDBRANCH   2   3
ENDBRANCH   1   2
BRANCH   1  23
ATOM     23  C   UNL A   1      34.730  24.533  24.998  1.00  0.00     0.002 C 
BRANCH  23  24
ATOM     24  C   UNL A   1      35.775  23.620  25.651  1.00  0.00     0.021 C 
BRANCH  24  25
ATOM     25  C   UNL A   1      37.156  23.638  25.000  1.00  0.00     0.116 C 
BRANCH  25  26
ATOM     26  N   UNL A   1      38.044  22.638  25.576  1.00  0.00    -0.352 N 
ATOM     27  C   UNL A   1      39.200  22.802  26.299  1.00  0.00     0.251 C 
ATOM     28  H   UNL A   1      37.776  21.704  25.422  1.00  0.00     0.163 HD
ATOM     29  O   UNL A   1      39.932  21.836  26.499  1.00  0.00    -0.269 OA
BRANCH  27  30
ATOM     30  C   UNL A   1      39.571  24.132  26.834  1.00  0.00     0.039 A 
ATOM     31  C   UNL A   1      39.278  24.432  28.168  1.00  0.00     0.014 A 
ATOM     32  C   UNL A   1      40.169  25.095  26.018  1.00  0.00     0.014 A 
ATOM     33  C   UNL A   1      39.631  25.677  28.696  1.00  0.00     0.010 A 
ATOM     34  C   UNL A   1      40.580  26.310  26.561  1.00  0.00     0.010 A 
ATOM     35  C   UNL A   1      40.309  26.618  27.903  1.00  0.00    -0.014 A 
BRANCH  35  36
ATOM     36  C   UNL A   1      40.748  27.925  28.461  1.00  0.00     0.031 A 
ATOM     37  C   UNL A   1      42.213  28.221  28.645  1.00  0.00     0.074 A 
ATOM     38  C   UNL A   1      39.826  28.811  28.886  1.00  0.00     0.049 A 
ATOM     39  N   UNL A   1      42.783  29.278  29.162  1.00  0.00    -0.248 NA
ATOM     40  C   UNL A   1      43.162  27.181  28.213  1.00  0.00     0.031 C 
ATOM     41  C   UNL A   1      38.375  28.609  28.839  1.00  0.00     0.029 A 
ATOM     42  N   UNL A   1      39.969  30.044  29.469  1.00  0.00    -0.354 N 
ATOM     43  C   UNL A   1      44.147  29.019  29.155  1.00  0.00     0.074 A 
ATOM     44  C   UNL A   1      44.321  27.691  28.607  1.00  0.00     0.031 C 
ATOM     45  C   UNL A   1      37.765  29.678  29.373  1.00  0.00     0.029 A 
ATOM     46  C   UNL A   1      38.775  30.631  29.821  1.00  0.00     0.049 A 
ATOM     47  H   UNL A   1      40.843  30.470  29.622  1.00  0.00     0.167 HD
ATOM     48  C   UNL A   1      45.168  29.822  29.543  1.00  0.00     0.034 A 
ATOM     49  C   UNL A   1      38.522  31.802  30.442  1.00  0.00     0.034 A 
ATOM     50  C   UNL A   1      44.996  31.160  30.041  1.00  0.00     0.049 A 
ATOM     51  C   UNL A   1      39.673  32.697  30.813  1.00  0.00     0.074 A 
ATOM     52  C   UNL A   1      45.968  32.088  30.369  1.00  0.00     0.029 A 
ATOM     53  N   UNL A   1      43.772  31.759  30.293  1.00  0.00    -0.354 N 
ATOM     54  N   UNL A   1      40.958  32.504  30.638  1.00  0.00    -0.248 NA
ATOM     55  C   UNL A   1      39.339  33.989  31.429  1.00  0.00     0.031 C 
ATOM     56  C   UNL A   1      45.331  33.244  30.834  1.00  0.00     0.029 A 
ATOM     57  C   UNL A   1      43.961  33.042  30.776  1.00  0.00     0.049 A 
ATOM     58  H   UNL A   1      42.895  31.334  30.148  1.00  0.00     0.167 HD
ATOM     59  C   UNL A   1      41.583  33.661  31.090  1.00  0.00     0.074 A 
ATOM     60  C   UNL A   1      40.533  34.559  31.525  1.00  0.00     0.031 C 
ATOM     61  C   UNL A   1      42.907  33.947  31.153  1.00  0.00     0.034 A 
BRANCH  48  62
ATOM     62  C   UNL A   1      46.572  29.299  29.381  1.00  0.00     0.023 A 
ATOM     63  C   UNL A   1      47.160  28.560  30.428  1.00  0.00     0.012 A 
ATOM     64  C   UNL A   1      47.286  29.482  28.180  1.00  0.00     0.148 A 
ATOM     65  C   UNL A   1      48.448  28.042  30.297  1.00  0.00     0.002 A 
ATOM     66  C   UNL A   1      48.553  28.925  28.041  1.00  0.00     0.091 A 
ATOM     67  F   UNL A   1      46.719  30.203  27.201  1.00  0.00    -0.205 F 
ATOM     68  C   UNL A   1      49.139  28.216  29.102  1.00  0.00     0.022 A 
BRANCH  66  69
ATOM     69  S   UNL A   1      49.494  29.024  26.513  1.00  0.00     0.127 S 
ATOM     70  O   UNL A   1      48.533  28.508  25.540  1.00  0.00    -0.237 OA
ATOM     71  O   UNL A   1      49.758  30.459  26.406  1.00  0.00    -0.237 OA
ATOM     72  O   UNL A   1      50.680  28.205  26.720  1.00  0.00    -0.744 OA
ENDBRANCH  66  69
ENDBRANCH  48  62
BRANCH  49  73
ATOM     73  C   UNL A   1      37.113  32.227  30.677  1.00  0.00     0.023 A 
ATOM     74  C   UNL A   1      36.562  32.101  31.968  1.00  0.00     0.012 A 
ATOM     75  C   UNL A   1      36.329  32.785  29.649  1.00  0.00     0.148 A 
ATOM     76  C   UNL A   1      35.248  32.492  32.222  1.00  0.00     0.002 A 
ATOM     77  C   UNL A   1      35.039  33.224  29.922  1.00  0.00     0.091 A 
ATOM     78  F   UNL A   1      36.866  32.886  28.424  1.00  0.00    -0.205 F 
ATOM     79  C   UNL A   1      34.491  33.064  31.204  1.00  0.00     0.022 A 
BRANCH  77  80
ATOM     80  S   UNL A   1      34.041  34.094  28.707  1.00  0.00     0.127 S 
ATOM     81  O   UNL A   1      32.911  34.545  29.515  1.00  0.00    -0.237 OA
ATOM     82  O   UNL A   1      34.949  35.156  28.272  1.00  0.00    -0.237 OA
ATOM     83  O   UNL A   1      33.735  33.111  27.676  1.00  0.00    -0.744 OA
ENDBRANCH  77  80
ENDBRANCH  49  73
BRANCH  61  84
ATOM     84  C   UNL A   1      43.304  35.300  31.684  1.00  0.00     0.023 A 
ATOM     85  C   UNL A   1      43.571  36.353  30.787  1.00  0.00     0.012 A 
ATOM     86  C   UNL A   1      43.336  35.548  33.070  1.00  0.00     0.148 A 
ATOM     87  C   UNL A   1      43.894  37.623  31.260  1.00  0.00     0.002 A 
ATOM     88  C   UNL A   1      43.611  36.829  33.535  1.00  0.00     0.091 A 
ATOM     89  F   UNL A   1      43.097  34.530  33.909  1.00  0.00    -0.205 F 
ATOM     90  C   UNL A   1      43.901  37.865  32.632  1.00  0.00     0.022 A 
BRANCH  88  91
ATOM     91  S   UNL A   1      43.551  37.252  35.280  1.00  0.00     0.127 S 
ATOM     92  O   UNL A   1      44.624  36.425  35.826  1.00  0.00    -0.237 OA
ATOM     93  O   UNL A   1      43.835  38.688  35.263  1.00  0.00    -0.237 OA
ATOM     94  O   UNL A   1      42.206  36.910  35.726  1.00  0.00    -0.744 OA
ENDBRANCH  88  91
ENDBRANCH  61  84
ENDBRANCH  35  36
ENDBRANCH  27  30
ENDBRANCH  25  26
ENDBRANCH  24  25
ENDBRANCH  23  24
ENDBRANCH   1  23
TORSDOF 20
ENDMDL
MODEL 2
REMARK VINA RESULT:     -10.2      3.892      9.498
REMARK SMILES CNC(=O)CC[NH+]1CCC(CC(=O)NCCCCCCNC(=O)c2ccc(-c3c4nc(c(-c5cccc(S(=O)(=O)[O-])c5F)c5ccc([nH]5)c(-c5cccc(S(=O)(=O)[O-])c5F)c5nc(c(-c6cccc(S(=O)(=O)[O-])c6F)c6ccc3[nH]6)C=C5)C=C4)cc2)CC1
REMARK SMILES IDX 17 1 16 2 15 3 14 4 12 5 13 6 11 8 10 9 7 10 8 11 88 12 9 14
REMARK SMILES IDX 87 15 6 16 5 17 3 18 1 19 2 20 4 22 18 23 19 24 20 25 21 26
REMARK SMILES IDX 22 27 23 29 24 30 25 31 86 32 26 33 85 34 27 35 28 36 29 37
REMARK SMILES IDX 79 38 30 39 84 40 78 41 80 42 31 43 83 44 77 45 76 46 32 48
REMARK SMILES IDX 64 49 44 50 63 51 45 52 48 53 62 54 81 55 46 56 47 57 61 59
REMARK SMILES IDX 82 60 49 61 33 62 34 63 42 64 35 65 37 66 43 67 36 68 38 69
REMARK SMILES IDX 39 70 40 71 41 72 65 73 66 74 74 75 67 76 69 77 75 78 68 79
REMARK SMILES IDX 70 80 71 81 72 82 73 83 50 84 51 85 59 86 52 87 54 88 60 89
REMARK SMILES IDX 53 90 55 91 56 92 57 93 58 94
REMARK H PARENT 14 7 7 13 2 21 21 28 80 47 48 58
REMARK Flexibility Score: inf
ROOT
ATOM      1  C   UNL A   1      36.150  21.649  24.889  1.00  0.00     0.002 C 
ENDROOT
BRANCH   1   2
ATOM      2  C   UNL A   1      34.659  21.774  24.557  1.00  0.00     0.021 C 
BRANCH   2   3
ATOM      3  C   UNL A   1      33.762  20.894  25.438  1.00  0.00     0.116 C 
BRANCH   3   4
ATOM      4  N   UNL A   1      33.696  21.421  26.790  1.00  0.00    -0.356 N 
ATOM      5  C   UNL A   1      32.818  22.300  27.352  1.00  0.00     0.220 C 
ATOM      6  O   UNL A   1      33.042  22.684  28.502  1.00  0.00    -0.275 OA
ATOM      7  H   UNL A   1      34.397  21.091  27.398  1.00  0.00     0.163 HD
BRANCH   5   8
ATOM      8  C   UNL A   1      31.602  22.804  26.582  1.00  0.00     0.104 C 
BRANCH   8   9
ATOM      9  C   UNL A   1      31.710  24.294  26.235  1.00  0.00     0.009 C 
ATOM     10  N   UNL A   1      31.429  26.847  24.829  1.00  0.00    -0.334 N 
ATOM     11  C   UNL A   1      32.620  26.018  24.671  1.00  0.00     0.262 C 
ATOM     12  C   UNL A   1      30.556  26.516  25.957  1.00  0.00     0.262 C 
ATOM     13  H   UNL A   1      30.839  26.608  24.032  1.00  0.00     0.348 HD
ATOM     14  C   UNL A   1      32.354  24.532  24.867  1.00  0.00     0.066 C 
ATOM     15  C   UNL A   1      30.350  25.007  26.176  1.00  0.00     0.066 C 
BRANCH  10  16
ATOM     16  C   UNL A   1      31.755  28.287  24.731  1.00  0.00     0.272 C 
BRANCH  16  17
ATOM     17  C   UNL A   1      31.652  28.970  23.354  1.00  0.00     0.161 C 
BRANCH  17  18
ATOM     18  C   UNL A   1      30.515  28.454  22.498  1.00  0.00     0.225 C 
ATOM     19  C   UNL A   1      28.862  30.250  23.212  1.00  0.00     0.142 C 
ATOM     20  N   UNL A   1      29.286  29.044  22.544  1.00  0.00    -0.359 N 
ATOM     21  H   UNL A   1      28.579  28.574  22.044  1.00  0.00     0.163 HD
ATOM     22  O   UNL A   1      30.661  27.488  21.748  1.00  0.00    -0.275 OA
ENDBRANCH  17  18
ENDBRANCH  16  17
ENDBRANCH  10  16
ENDBRANCH   8   9
ENDBRANCH   5   8
ENDBRANCH   3   4
ENDBRANCH   2   3
ENDBRANCH   1   2
BRANCH   1  23
ATOM     23  C   UNL A   1      36.648  20.206  25.041  1.00  0.00     0.002 C 
BRANCH  23  24
ATOM     24  C   UNL A   1      38.125  19.972  24.698  1.00  0.00     0.021 C 
BRANCH  24  25
ATOM     25  C   UNL A   1      39.117  20.340  25.799  1.00  0.00     0.116 C 
BRANCH  25  26
ATOM     26  N   UNL A   1      40.140  19.320  25.975  1.00  0.00    -0.352 N 
ATOM     27  C   UNL A   1      41.495  19.456  26.155  1.00  0.00     0.251 C 
ATOM     28  H   UNL A   1      39.811  18.393  25.962  1.00  0.00     0.163 HD
ATOM     29  O   UNL A   1      42.222  18.471  26.052  1.00  0.00    -0.269 OA
BRANCH  27  30
ATOM     30  C   UNL A   1      42.084  20.778  26.468  1.00  0.00     0.039 A 
ATOM     31  C   UNL A   1      42.406  21.642  25.416  1.00  0.00     0.014 A 
ATOM     32  C   UNL A   1      42.354  21.152  27.786  1.00  0.00     0.014 A 
ATOM     33  C   UNL A   1      42.950  22.900  25.691  1.00  0.00     0.010 A 
ATOM     34  C   UNL A   1      42.835  22.431  28.062  1.00  0.00     0.010 A 
ATOM     35  C   UNL A   1      43.147  23.315  27.018  1.00  0.00    -0.014 A 
BRANCH  35  36
ATOM     36  C   UNL A   1      43.667  24.672  27.335  1.00  0.00     0.031 A 
ATOM     37  C   UNL A   1      42.739  25.746  27.836  1.00  0.00     0.074 A 
ATOM     38  C   UNL A   1      44.959  24.963  27.086  1.00  0.00     0.049 A 
ATOM     39  N   UNL A   1      42.999  26.998  28.113  1.00  0.00    -0.248 NA
ATOM     40  C   UNL A   1      41.328  25.372  28.028  1.00  0.00     0.031 C 
ATOM     41  C   UNL A   1      45.942  24.034  26.522  1.00  0.00     0.029 A 
ATOM     42  N   UNL A   1      45.662  26.131  27.243  1.00  0.00    -0.354 N 
ATOM     43  C   UNL A   1      41.785  27.569  28.473  1.00  0.00     0.074 A 
ATOM     44  C   UNL A   1      40.781  26.535  28.353  1.00  0.00     0.031 C 
ATOM     45  C   UNL A   1      47.116  24.668  26.380  1.00  0.00     0.029 A 
ATOM     46  C   UNL A   1      46.968  26.052  26.818  1.00  0.00     0.049 A 
ATOM     47  H   UNL A   1      45.269  26.949  27.625  1.00  0.00     0.167 HD
ATOM     48  C   UNL A   1      41.531  28.832  28.894  1.00  0.00     0.034 A 
ATOM     49  C   UNL A   1      47.936  26.990  26.778  1.00  0.00     0.034 A 
ATOM     50  C   UNL A   1      42.539  29.844  29.059  1.00  0.00     0.049 A 
ATOM     51  C   UNL A   1      47.640  28.370  27.301  1.00  0.00     0.074 A 
ATOM     52  C   UNL A   1      42.399  31.123  29.570  1.00  0.00     0.029 A 
ATOM     53  N   UNL A   1      43.872  29.698  28.711  1.00  0.00    -0.354 N 
ATOM     54  N   UNL A   1      46.523  28.841  27.800  1.00  0.00    -0.248 NA
ATOM     55  C   UNL A   1      48.748  29.336  27.293  1.00  0.00     0.031 C 
ATOM     56  C   UNL A   1      43.646  31.754  29.515  1.00  0.00     0.029 A 
ATOM     57  C   UNL A   1      44.566  30.862  28.989  1.00  0.00     0.049 A 
ATOM     58  H   UNL A   1      44.267  28.884  28.322  1.00  0.00     0.167 HD
ATOM     59  C   UNL A   1      46.801  30.144  28.196  1.00  0.00     0.074 A 
ATOM     60  C   UNL A   1      48.199  30.380  27.899  1.00  0.00     0.031 C 
ATOM     61  C   UNL A   1      45.970  31.066  28.742  1.00  0.00     0.034 A 
BRANCH  48  62
ATOM     62  C   UNL A   1      40.111  29.174  29.269  1.00  0.00     0.023 A 
ATOM     63  C   UNL A   1      39.177  29.458  28.253  1.00  0.00     0.012 A 
ATOM     64  C   UNL A   1      39.686  29.155  30.612  1.00  0.00     0.148 A 
ATOM     65  C   UNL A   1      37.851  29.752  28.567  1.00  0.00     0.002 A 
ATOM     66  C   UNL A   1      38.353  29.408  30.915  1.00  0.00     0.091 A 
ATOM     67  F   UNL A   1      40.592  28.902  31.567  1.00  0.00    -0.205 F 
ATOM     68  C   UNL A   1      37.437  29.718  29.895  1.00  0.00     0.022 A 
BRANCH  66  69
ATOM     69  S   UNL A   1      37.702  29.309  32.587  1.00  0.00     0.127 S 
ATOM     70  O   UNL A   1      36.354  29.846  32.412  1.00  0.00    -0.237 OA
ATOM     71  O   UNL A   1      37.755  27.872  32.854  1.00  0.00    -0.237 OA
ATOM     72  O   UNL A   1      38.594  30.112  33.412  1.00  0.00    -0.744 OA
ENDBRANCH  66  69
ENDBRANCH  48  62
BRANCH  49  73
ATOM     73  C   UNL A   1      49.299  26.629  26.295  1.00  0.00     0.023 A 
ATOM     74  C   UNL A   1      50.100  25.771  27.075  1.00  0.00     0.012 A 
ATOM     75  C   UNL A   1      49.793  27.096  25.062  1.00  0.00     0.148 A 
ATOM     76  C   UNL A   1      51.379  25.412  26.650  1.00  0.00     0.002 A 
ATOM     77  C   UNL A   1      51.046  26.689  24.619  1.00  0.00     0.091 A 
ATOM     78  F   UNL A   1      49.021  27.921  24.340  1.00  0.00    -0.205 F 
ATOM     79  C   UNL A   1      51.848  25.860  25.419  1.00  0.00     0.022 A 
BRANCH  77  80
ATOM     80  S   UNL A   1      51.673  27.110  22.988  1.00  0.00     0.127 S 
ATOM     81  O   UNL A   1      52.890  26.306  22.920  1.00  0.00    -0.237 OA
ATOM     82  O   UNL A   1      50.586  26.657  22.119  1.00  0.00    -0.237 OA
ATOM     83  O   UNL A   1      51.863  28.553  23.002  1.00  0.00    -0.744 OA
ENDBRANCH  77  80
ENDBRANCH  49  73
BRANCH  61  84
ATOM     84  C   UNL A   1      46.551  32.412  29.087  1.00  0.00     0.023 A 
ATOM     85  C   UNL A   1      47.148  32.615  30.347  1.00  0.00     0.012 A 
ATOM     86  C   UNL A   1      46.578  33.451  28.136  1.00  0.00     0.148 A 
ATOM     87  C   UNL A   1      47.733  33.839  30.667  1.00  0.00     0.002 A 
ATOM     88  C   UNL A   1      47.204  34.652  28.443  1.00  0.00     0.091 A 
ATOM     89  F   UNL A   1      45.989  33.247  26.949  1.00  0.00    -0.205 F 
ATOM     90  C   UNL A   1      47.773  34.852  29.712  1.00  0.00     0.022 A 
BRANCH  88  91
ATOM     91  S   UNL A   1      47.386  35.978  27.244  1.00  0.00     0.127 S 
ATOM     92  O   UNL A   1      48.153  36.964  28.001  1.00  0.00    -0.237 OA
ATOM     93  O   UNL A   1      48.128  35.324  26.165  1.00  0.00    -0.237 OA
ATOM     94  O   UNL A   1      46.031  36.378  26.885  1.00  0.00    -0.744 OA
ENDBRANCH  88  91
ENDBRANCH  61  84
ENDBRANCH  35  36
ENDBRANCH  27  30
ENDBRANCH  25  26
ENDBRANCH  24  25
ENDBRANCH  23  24
ENDBRANCH   1  23
TORSDOF 20
ENDMDL
MODEL 3
REMARK VINA RESULT:     -10.2      3.879      5.255
REMARK SMILES CNC(=O)CC[NH+]1CCC(CC(=O)NCCCCCCNC(=O)c2ccc(-c3c4nc(c(-c5cccc(S(=O)(=O)[O-])c5F)c5ccc([nH]5)c(-c5cccc(S(=O)(=O)[O-])c5F)c5nc(c(-c6cccc(S(=O)(=O)[O-])c6F)c6ccc3[nH]6)C=C5)C=C4)cc2)CC1
REMARK SMILES IDX 17 1 16 2 15 3 14 4 12 5 13 6 11 8 10 9 7 10 8 11 88 12 9 14
REMARK SMILES IDX 87 15 6 16 5 17 3 18 1 19 2 20 4 22 18 23 19 24 20 25 21 26
REMARK SMILES IDX 22 27 23 29 24 30 25 31 86 32 26 33 85 34 27 35 28 36 29 37
REMARK SMILES IDX 79 38 30 39 84 40 78 41 80 42 31 43 83 44 77 45 76 46 32 48
REMARK SMILES IDX 64 49 44 50 63 51 45 52 48 53 62 54 81 55 46 56 47 57 61 59
REMARK SMILES IDX 82 60 49 61 33 62 34 63 42 64 35 65 37 66 43 67 36 68 38 69
REMARK SMILES IDX 39 70 40 71 41 72 65 73 66 74 74 75 67 76 69 77 75 78 68 79
REMARK SMILES IDX 70 80 71 81 72 82 73 83 50 84 51 85 59 86 52 87 54 88 60 89
REMARK SMILES IDX 53 90 55 91 56 92 57 93 58 94
REMARK H PARENT 14 7 7 13 2 21 21 28 80 47 48 58
REMARK Flexibility Score: inf
ROOT
ATOM      1  C   UNL A   1      39.687  22.563  26.523  1.00  0.00     0.002 C 
ENDROOT
BRANCH   1   2
ATOM      2  C   UNL A   1      39.001  23.934  26.504  1.00  0.00     0.021 C 
BRANCH   2   3
ATOM      3  C   UNL A   1      37.554  23.886  25.994  1.00  0.00     0.116 C 
BRANCH   3   4
ATOM      4  N   UNL A   1      37.522  23.596  24.571  1.00  0.00    -0.356 N 
ATOM      5  C   UNL A   1      36.465  23.361  23.743  1.00  0.00     0.220 C 
ATOM      6  O   UNL A   1      36.705  23.022  22.582  1.00  0.00    -0.275 OA
ATOM      7  H   UNL A   1      38.404  23.564  24.135  1.00  0.00     0.163 HD
BRANCH   5   8
ATOM      8  C   UNL A   1      35.029  23.500  24.235  1.00  0.00     0.104 C 
BRANCH   8   9
ATOM      9  C   UNL A   1      34.328  22.143  24.377  1.00  0.00     0.009 C 
ATOM     10  N   UNL A   1      33.209  19.703  25.545  1.00  0.00    -0.334 N 
ATOM     11  C   UNL A   1      34.551  19.725  24.968  1.00  0.00     0.262 C 
ATOM     12  C   UNL A   1      32.344  20.836  25.214  1.00  0.00     0.262 C 
ATOM     13  H   UNL A   1      33.356  19.837  26.546  1.00  0.00     0.348 HD
ATOM     14  C   UNL A   1      35.218  21.091  25.043  1.00  0.00     0.066 C 
ATOM     15  C   UNL A   1      33.053  22.201  25.234  1.00  0.00     0.066 C 
BRANCH  10  16
ATOM     16  C   UNL A   1      32.563  18.385  25.359  1.00  0.00     0.272 C 
BRANCH  16  17
ATOM     17  C   UNL A   1      32.505  17.791  23.939  1.00  0.00     0.161 C 
BRANCH  17  18
ATOM     18  C   UNL A   1      33.395  16.581  23.746  1.00  0.00     0.225 C 
ATOM     19  C   UNL A   1      32.444  15.285  25.716  1.00  0.00     0.142 C 
ATOM     20  N   UNL A   1      33.349  15.536  24.621  1.00  0.00    -0.359 N 
ATOM     21  H   UNL A   1      34.039  14.847  24.485  1.00  0.00     0.163 HD
ATOM     22  O   UNL A   1      34.187  16.508  22.805  1.00  0.00    -0.275 OA
ENDBRANCH  17  18
ENDBRANCH  16  17
ENDBRANCH  10  16
ENDBRANCH   8   9
ENDBRANCH   5   8
ENDBRANCH   3   4
ENDBRANCH   2   3
ENDBRANCH   1   2
BRANCH   1  23
ATOM     23  C   UNL A   1      38.864  21.433  25.890  1.00  0.00     0.002 C 
BRANCH  23  24
ATOM     24  C   UNL A   1      39.528  20.051  25.880  1.00  0.00     0.021 C 
BRANCH  24  25
ATOM     25  C   UNL A   1      40.788  19.926  26.736  1.00  0.00     0.116 C 
BRANCH  25  26
ATOM     26  N   UNL A   1      41.891  19.329  25.997  1.00  0.00    -0.352 N 
ATOM     27  C   UNL A   1      43.011  19.918  25.462  1.00  0.00     0.251 C 
ATOM     28  H   UNL A   1      41.824  18.357  25.860  1.00  0.00     0.163 HD
ATOM     29  O   UNL A   1      43.711  19.285  24.674  1.00  0.00    -0.269 OA
BRANCH  27  30
ATOM     30  C   UNL A   1      43.377  21.306  25.824  1.00  0.00     0.039 A 
ATOM     31  C   UNL A   1      43.324  22.299  24.841  1.00  0.00     0.014 A 
ATOM     32  C   UNL A   1      43.808  21.623  27.114  1.00  0.00     0.014 A 
ATOM     33  C   UNL A   1      43.653  23.618  25.166  1.00  0.00     0.010 A 
ATOM     34  C   UNL A   1      44.072  22.949  27.454  1.00  0.00     0.010 A 
ATOM     35  C   UNL A   1      44.006  23.959  26.482  1.00  0.00    -0.014 A 
BRANCH  35  36
ATOM     36  C   UNL A   1      44.301  25.366  26.864  1.00  0.00     0.031 A 
ATOM     37  C   UNL A   1      45.704  25.903  26.771  1.00  0.00     0.074 A 
ATOM     38  C   UNL A   1      43.321  26.134  27.380  1.00  0.00     0.049 A 
ATOM     39  N   UNL A   1      46.160  27.082  27.108  1.00  0.00    -0.248 NA
ATOM     40  C   UNL A   1      46.735  24.988  26.254  1.00  0.00     0.031 C 
ATOM     41  C   UNL A   1      41.937  25.704  27.600  1.00  0.00     0.029 A 
ATOM     42  N   UNL A   1      43.343  27.425  27.844  1.00  0.00    -0.354 N 
ATOM     43  C   UNL A   1      47.531  27.039  26.882  1.00  0.00     0.074 A 
ATOM     44  C   UNL A   1      47.838  25.708  26.405  1.00  0.00     0.031 C 
ATOM     45  C   UNL A   1      41.247  26.711  28.156  1.00  0.00     0.029 A 
ATOM     46  C   UNL A   1      42.139  27.849  28.356  1.00  0.00     0.049 A 
ATOM     47  H   UNL A   1      44.145  27.995  27.813  1.00  0.00     0.167 HD
ATOM     48  C   UNL A   1      48.448  28.026  27.030  1.00  0.00     0.034 A 
ATOM     49  C   UNL A   1      41.792  29.020  28.929  1.00  0.00     0.034 A 
ATOM     50  C   UNL A   1      48.132  29.362  27.458  1.00  0.00     0.049 A 
ATOM     51  C   UNL A   1      42.819  30.116  29.032  1.00  0.00     0.074 A 
ATOM     52  C   UNL A   1      48.972  30.458  27.547  1.00  0.00     0.029 A 
ATOM     53  N   UNL A   1      46.880  29.784  27.875  1.00  0.00    -0.354 N 
ATOM     54  N   UNL A   1      44.073  30.110  28.651  1.00  0.00    -0.248 NA
ATOM     55  C   UNL A   1      42.371  31.394  29.606  1.00  0.00     0.031 C 
ATOM     56  C   UNL A   1      48.230  31.539  28.034  1.00  0.00     0.029 A 
ATOM     57  C   UNL A   1      46.924  31.121  28.229  1.00  0.00     0.049 A 
ATOM     58  H   UNL A   1      46.077  29.216  27.914  1.00  0.00     0.167 HD
ATOM     59  C   UNL A   1      44.556  31.388  28.906  1.00  0.00     0.074 A 
ATOM     60  C   UNL A   1      43.451  32.149  29.455  1.00  0.00     0.031 C 
ATOM     61  C   UNL A   1      45.804  31.883  28.719  1.00  0.00     0.034 A 
BRANCH  48  62
ATOM     62  C   UNL A   1      49.877  27.715  26.663  1.00  0.00     0.023 A 
ATOM     63  C   UNL A   1      50.758  27.240  27.656  1.00  0.00     0.012 A 
ATOM     64  C   UNL A   1      50.333  27.833  25.335  1.00  0.00     0.148 A 
ATOM     65  C   UNL A   1      52.078  26.919  27.342  1.00  0.00     0.002 A 
ATOM     66  C   UNL A   1      51.638  27.471  25.022  1.00  0.00     0.091 A 
ATOM     67  F   UNL A   1      49.487  28.305  24.408  1.00  0.00    -0.205 F 
ATOM     68  C   UNL A   1      52.514  27.026  26.025  1.00  0.00     0.022 A 
BRANCH  66  69
ATOM     69  S   UNL A   1      52.274  27.495  23.341  1.00  0.00     0.127 S 
ATOM     70  O   UNL A   1      52.448  28.928  23.112  1.00  0.00    -0.237 OA
ATOM     71  O   UNL A   1      53.522  26.744  23.473  1.00  0.00    -0.237 OA
ATOM     72  O   UNL A   1      51.262  26.847  22.520  1.00  0.00    -0.744 OA
ENDBRANCH  66  69
ENDBRANCH  48  62
BRANCH  49  73
ATOM     73  C   UNL A   1      40.387  29.241  29.375  1.00  0.00     0.023 A 
ATOM     74  C   UNL A   1      39.418  29.634  28.430  1.00  0.00     0.012 A 
ATOM     75  C   UNL A   1      39.996  29.031  30.711  1.00  0.00     0.148 A 
ATOM     76  C   UNL A   1      38.095  29.845  28.814  1.00  0.00     0.002 A 
ATOM     77  C   UNL A   1      38.665  29.190  31.076  1.00  0.00     0.091 A 
ATOM     78  F   UNL A   1      40.934  28.670  31.598  1.00  0.00    -0.205 F 
ATOM     79  C   UNL A   1      37.715  29.613  30.133  1.00  0.00     0.022 A 
BRANCH  77  80
ATOM     80  S   UNL A   1      38.062  28.784  32.720  1.00  0.00     0.127 S 
ATOM     81  O   UNL A   1      36.689  29.278  32.666  1.00  0.00    -0.237 OA
ATOM     82  O   UNL A   1      38.191  27.326  32.738  1.00  0.00    -0.237 OA
ATOM     83  O   UNL A   1      38.951  29.473  33.644  1.00  0.00    -0.744 OA
ENDBRANCH  77  80
ENDBRANCH  49  73
BRANCH  61  84
ATOM     84  C   UNL A   1      46.045  33.326  29.078  1.00  0.00     0.023 A 
ATOM     85  C   UNL A   1      46.395  33.669  30.399  1.00  0.00     0.012 A 
ATOM     86  C   UNL A   1      46.003  34.331  28.092  1.00  0.00     0.148 A 
ATOM     87  C   UNL A   1      46.669  34.992  30.740  1.00  0.00     0.002 A 
ATOM     88  C   UNL A   1      46.323  35.641  28.428  1.00  0.00     0.091 A 
ATOM     89  F   UNL A   1      45.650  33.989  26.844  1.00  0.00    -0.205 F 
ATOM     90  C   UNL A   1      46.646  35.976  29.753  1.00  0.00     0.022 A 
BRANCH  88  91
ATOM     91  S   UNL A   1      46.410  36.954  27.204  1.00  0.00     0.127 S 
ATOM     92  O   UNL A   1      47.191  36.322  26.143  1.00  0.00    -0.237 OA
ATOM     93  O   UNL A   1      45.000  37.172  26.878  1.00  0.00    -0.237 OA
ATOM     94  O   UNL A   1      47.055  38.078  27.872  1.00  0.00    -0.744 OA
ENDBRANCH  88  91
ENDBRANCH  61  84
ENDBRANCH  35  36
ENDBRANCH  27  30
ENDBRANCH  25  26
ENDBRANCH  24  25
ENDBRANCH  23  24
ENDBRANCH   1  23
TORSDOF 20
ENDMDL
