MODEL 1
REMARK VINA RESULT:     -14.3      0.000      0.000
REMARK SMILES COc1ccc(/C=C2/C(=O)N(c3ccccc3)C(=O)[NH+]=C2NCCCCCCNC(=O)c2ccc(-c3c4nc(c(-c5cccc(S(=O)(=O)[O-])c5F)c5ccc([nH]5)c(-c5cccc(S(=O)(=O)[O-])c5F)c5nc(c(-c6cccc(S(=O)(=O)[O-])c6F)c6ccc3[nH]6)C=C5)C=C4)cc2)cc1C(=O)[O-]
REMARK SMILES IDX 26 1 25 2 24 3 23 4 22 5 7 6 8 7 9 8 21 9 10 10 11 11 20 12
REMARK SMILES IDX 18 13 19 16 6 17 3 18 4 19 96 20 5 21 95 22 2 23 1 24 97 25
REMARK SMILES IDX 98 26 99 27 12 28 13 29 17 30 14 31 16 32 15 33 27 34 28 35
REMARK SMILES IDX 29 36 30 37 31 39 32 40 33 41 94 42 34 43 93 44 35 45 36 46
REMARK SMILES IDX 37 47 87 48 38 49 92 50 86 51 88 52 39 53 91 54 85 55 84 56
REMARK SMILES IDX 40 58 72 59 52 60 71 61 53 62 56 63 70 64 89 65 54 66 55 67
REMARK SMILES IDX 69 69 90 70 57 71 41 72 42 73 50 74 43 75 45 76 51 77 44 78
REMARK SMILES IDX 46 79 47 80 48 81 49 82 73 83 74 84 82 85 75 86 77 87 83 88
REMARK SMILES IDX 76 89 78 90 79 91 80 92 81 93 58 94 59 95 67 96 60 97 62 98
REMARK SMILES IDX 68 99 61 100 63 101 64 102 65 103 66 104
REMARK H PARENT 20 14 22 15 29 38 88 57 56 68
REMARK Flexibility Score: inf
ROOT
ATOM      1  C   UNL A   1      37.320  20.468  24.996  1.00  0.00     0.002 C 
ENDROOT
BRANCH   1   2
ATOM      2  C   UNL A   1      37.505  22.018  25.081  1.00  0.00     0.003 C 
BRANCH   2   3
ATOM      3  C   UNL A   1      36.405  23.362  25.504  1.00  0.00     0.037 C 
BRANCH   3   4
ATOM      4  C   UNL A   1      34.392  23.998  24.922  1.00  0.00     0.194 C 
BRANCH   4   5
ATOM      5  N   UNL A   1      33.923  25.116  23.805  1.00  0.00    -0.305 N 
ATOM      6  C   UNL A   1      31.362  24.601  25.339  1.00  0.00     0.030 C 
ATOM      7  C   UNL A   1      31.644  25.744  24.707  1.00  0.00     0.129 C 
ATOM      8  C   UNL A   1      30.814  26.945  24.865  1.00  0.00     0.328 C 
ATOM      9  C   UNL A   1      32.735  25.821  23.708  1.00  0.00     0.236 C 
ATOM     10  O   UNL A   1      30.263  27.201  25.932  1.00  0.00    -0.249 OA
ATOM     11  N   UNL A   1      30.725  27.669  23.692  1.00  0.00    -0.155 N 
ATOM     12  N   UNL A   1      32.524  26.548  22.644  1.00  0.00    -0.209 N 
ATOM     13  C   UNL A   1      31.296  27.176  22.520  1.00  0.00     0.448 C 
ATOM     14  H   UNL A   1      33.216  26.647  21.951  1.00  0.00     0.270 HD
ATOM     15  H   UNL A   1      34.585  25.312  23.104  1.00  0.00     0.256 HD
ATOM     16  O   UNL A   1      30.732  27.254  21.430  1.00  0.00    -0.212 OA
BRANCH   6  17
ATOM     17  C   UNL A   1      32.368  23.559  25.224  1.00  0.00    -0.024 A 
ATOM     18  C   UNL A   1      33.463  20.126  25.109  1.00  0.00     0.127 A 
ATOM     19  C   UNL A   1      33.686  21.087  26.627  1.00  0.00     0.048 A 
ATOM     20  C   UNL A   1      32.616  20.852  23.710  1.00  0.00     0.040 A 
ATOM     21  C   UNL A   1      33.222  22.852  26.665  1.00  0.00     0.012 A 
ATOM     22  C   UNL A   1      32.123  22.564  23.747  1.00  0.00     0.022 A 
BRANCH  18  23
ATOM     23  O   UNL A   1      34.123  18.929  25.009  1.00  0.00    -0.496 OA
ATOM     24  C   UNL A   1      33.265  17.848  25.410  1.00  0.00     0.278 C 
ENDBRANCH  18  23
BRANCH  20  25
ATOM     25  C   UNL A   1      32.177  20.090  22.533  1.00  0.00     0.075 C 
ATOM     26  O   UNL A   1      32.180  18.878  22.459  1.00  0.00    -0.545 OA
ATOM     27  O   UNL A   1      31.863  20.899  21.517  1.00  0.00    -0.545 OA
ENDBRANCH  20  25
ENDBRANCH   6  17
BRANCH  11  28
ATOM     28  C   UNL A   1      29.776  28.714  23.641  1.00  0.00     0.111 A 
ATOM     29  C   UNL A   1      30.140  30.036  23.916  1.00  0.00     0.044 A 
ATOM     30  C   UNL A   1      28.493  28.423  23.166  1.00  0.00     0.044 A 
ATOM     31  C   UNL A   1      29.220  31.065  23.707  1.00  0.00     0.004 A 
ATOM     32  C   UNL A   1      27.577  29.453  22.961  1.00  0.00     0.004 A 
ATOM     33  C   UNL A   1      27.943  30.774  23.225  1.00  0.00     0.000 A 
ENDBRANCH  11  28
ENDBRANCH   4   5
ENDBRANCH   3   4
ENDBRANCH   2   3
ENDBRANCH   1   2
BRANCH   1  34
ATOM     34  C   UNL A   1      38.503  19.486  25.104  1.00  0.00     0.021 C 
BRANCH  34  35
ATOM     35  C   UNL A   1      39.716  19.991  25.870  1.00  0.00     0.116 C 
BRANCH  35  36
ATOM     36  N   UNL A   1      40.686  18.966  26.186  1.00  0.00    -0.352 N 
ATOM     37  C   UNL A   1      42.027  19.156  26.435  1.00  0.00     0.251 C 
ATOM     38  H   UNL A   1      40.353  18.040  26.230  1.00  0.00     0.163 HD
ATOM     39  O   UNL A   1      42.779  18.187  26.517  1.00  0.00    -0.269 OA
BRANCH  37  40
ATOM     40  C   UNL A   1      42.574  20.533  26.572  1.00  0.00     0.039 A 
ATOM     41  C   UNL A   1      42.555  21.142  27.830  1.00  0.00     0.014 A 
ATOM     42  C   UNL A   1      43.058  21.244  25.469  1.00  0.00     0.014 A 
ATOM     43  C   UNL A   1      43.016  22.455  27.981  1.00  0.00     0.010 A 
ATOM     44  C   UNL A   1      43.575  22.532  25.633  1.00  0.00     0.010 A 
ATOM     45  C   UNL A   1      43.528  23.168  26.883  1.00  0.00    -0.014 A 
BRANCH  45  46
ATOM     46  C   UNL A   1      43.949  24.590  27.036  1.00  0.00     0.031 A 
ATOM     47  C   UNL A   1      42.982  25.621  27.564  1.00  0.00     0.074 A 
ATOM     48  C   UNL A   1      45.197  24.970  26.695  1.00  0.00     0.049 A 
ATOM     49  N   UNL A   1      43.189  26.887  27.826  1.00  0.00    -0.248 NA
ATOM     50  C   UNL A   1      41.600  25.181  27.813  1.00  0.00     0.031 C 
ATOM     51  C   UNL A   1      46.213  24.099  26.104  1.00  0.00     0.029 A 
ATOM     52  N   UNL A   1      45.820  26.191  26.790  1.00  0.00    -0.354 N 
ATOM     53  C   UNL A   1      41.964  27.398  28.242  1.00  0.00     0.074 A 
ATOM     54  C   UNL A   1      41.009  26.315  28.163  1.00  0.00     0.031 C 
ATOM     55  C   UNL A   1      47.336  24.810  25.902  1.00  0.00     0.029 A 
ATOM     56  C   UNL A   1      47.117  26.189  26.334  1.00  0.00     0.049 A 
ATOM     57  H   UNL A   1      45.378  26.993  27.150  1.00  0.00     0.167 HD
ATOM     58  C   UNL A   1      41.662  28.643  28.686  1.00  0.00     0.034 A 
ATOM     59  C   UNL A   1      48.031  27.178  26.276  1.00  0.00     0.034 A 
ATOM     60  C   UNL A   1      42.616  29.711  28.816  1.00  0.00     0.049 A 
ATOM     61  C   UNL A   1      47.688  28.540  26.819  1.00  0.00     0.074 A 
ATOM     62  C   UNL A   1      42.422  30.977  29.341  1.00  0.00     0.029 A 
ATOM     63  N   UNL A   1      43.939  29.647  28.411  1.00  0.00    -0.354 N 
ATOM     64  N   UNL A   1      46.571  28.950  27.370  1.00  0.00    -0.248 NA
ATOM     65  C   UNL A   1      48.744  29.563  26.775  1.00  0.00     0.031 C 
ATOM     66  C   UNL A   1      43.623  31.687  29.230  1.00  0.00     0.029 A 
ATOM     67  C   UNL A   1      44.571  30.852  28.663  1.00  0.00     0.049 A 
ATOM     68  H   UNL A   1      44.367  28.858  28.003  1.00  0.00     0.167 HD
ATOM     69  C   UNL A   1      46.802  30.263  27.769  1.00  0.00     0.074 A 
ATOM     70  C   UNL A   1      48.172  30.572  27.417  1.00  0.00     0.031 C 
ATOM     71  C   UNL A   1      45.950  31.137  28.361  1.00  0.00     0.034 A 
BRANCH  58  72
ATOM     72  C   UNL A   1      40.243  28.907  29.122  1.00  0.00     0.023 A 
ATOM     73  C   UNL A   1      39.248  29.137  28.150  1.00  0.00     0.012 A 
ATOM     74  C   UNL A   1      39.882  28.861  30.482  1.00  0.00     0.148 A 
ATOM     75  C   UNL A   1      37.923  29.355  28.526  1.00  0.00     0.002 A 
ATOM     76  C   UNL A   1      38.551  29.033  30.847  1.00  0.00     0.091 A 
ATOM     77  F   UNL A   1      40.844  28.660  31.394  1.00  0.00    -0.205 F 
ATOM     78  C   UNL A   1      37.574  29.292  29.871  1.00  0.00     0.022 A 
BRANCH  76  79
ATOM     79  S   UNL A   1      37.986  28.891  32.546  1.00  0.00     0.127 S 
ATOM     80  O   UNL A   1      38.144  27.458  32.790  1.00  0.00    -0.237 OA
ATOM     81  O   UNL A   1      38.941  29.739  33.260  1.00  0.00    -0.237 OA
ATOM     82  O   UNL A   1      36.615  29.380  32.555  1.00  0.00    -0.744 OA
ENDBRANCH  76  79
ENDBRANCH  58  72
BRANCH  59  83
ATOM     83  C   UNL A   1      49.394  26.898  25.739  1.00  0.00     0.023 A 
ATOM     84  C   UNL A   1      50.347  26.256  26.554  1.00  0.00     0.012 A 
ATOM     85  C   UNL A   1      49.742  27.249  24.421  1.00  0.00     0.148 A 
ATOM     86  C   UNL A   1      51.631  25.997  26.075  1.00  0.00     0.002 A 
ATOM     87  C   UNL A   1      51.005  26.937  23.932  1.00  0.00     0.091 A 
ATOM     88  F   UNL A   1      48.826  27.874  23.667  1.00  0.00    -0.205 F 
ATOM     89  C   UNL A   1      51.958  26.326  24.762  1.00  0.00     0.022 A 
BRANCH  87  90
ATOM     90  S   UNL A   1      51.462  27.205  22.216  1.00  0.00     0.127 S 
ATOM     91  O   UNL A   1      50.390  26.510  21.509  1.00  0.00    -0.237 OA
ATOM     92  O   UNL A   1      51.425  28.664  22.117  1.00  0.00    -0.237 OA
ATOM     93  O   UNL A   1      52.793  26.629  22.070  1.00  0.00    -0.744 OA
ENDBRANCH  87  90
ENDBRANCH  59  83
BRANCH  71  94
ATOM     94  C   UNL A   1      46.475  32.508  28.707  1.00  0.00     0.023 A 
ATOM     95  C   UNL A   1      47.157  32.713  29.921  1.00  0.00     0.012 A 
ATOM     96  C   UNL A   1      46.358  33.573  27.792  1.00  0.00     0.148 A 
ATOM     97  C   UNL A   1      47.687  33.964  30.235  1.00  0.00     0.002 A 
ATOM     98  C   UNL A   1      46.932  34.804  28.089  1.00  0.00     0.091 A 
ATOM     99  F   UNL A   1      45.690  33.365  26.648  1.00  0.00    -0.205 F 
ATOM    100  C   UNL A   1      47.585  35.005  29.316  1.00  0.00     0.022 A 
BRANCH  98 101
ATOM    101  S   UNL A   1      46.934  36.171  26.923  1.00  0.00     0.127 S 
ATOM    102  O   UNL A   1      47.913  37.075  27.525  1.00  0.00    -0.237 OA
ATOM    103  O   UNL A   1      47.379  35.525  25.688  1.00  0.00    -0.237 OA
ATOM    104  O   UNL A   1      45.565  36.667  26.884  1.00  0.00    -0.744 OA
ENDBRANCH  98 101
ENDBRANCH  71  94
ENDBRANCH  45  46
ENDBRANCH  37  40
ENDBRANCH  35  36
ENDBRANCH  34  35
ENDBRANCH   1  34
TORSDOF 19
ENDMDL
MODEL 2
REMARK VINA RESULT:     -13.9      1.888      7.362
REMARK SMILES COc1ccc(/C=C2/C(=O)N(c3ccccc3)C(=O)[NH+]=C2NCCCCCCNC(=O)c2ccc(-c3c4nc(c(-c5cccc(S(=O)(=O)[O-])c5F)c5ccc([nH]5)c(-c5cccc(S(=O)(=O)[O-])c5F)c5nc(c(-c6cccc(S(=O)(=O)[O-])c6F)c6ccc3[nH]6)C=C5)C=C4)cc2)cc1C(=O)[O-]
REMARK SMILES IDX 26 1 25 2 24 3 23 4 22 5 7 6 8 7 9 8 21 9 10 10 11 11 20 12
REMARK SMILES IDX 18 13 19 16 6 17 3 18 4 19 96 20 5 21 95 22 2 23 1 24 97 25
REMARK SMILES IDX 98 26 99 27 12 28 13 29 17 30 14 31 16 32 15 33 27 34 28 35
REMARK SMILES IDX 29 36 30 37 31 39 32 40 33 41 94 42 34 43 93 44 35 45 36 46
REMARK SMILES IDX 37 47 87 48 38 49 92 50 86 51 88 52 39 53 91 54 85 55 84 56
REMARK SMILES IDX 40 58 72 59 52 60 71 61 53 62 56 63 70 64 89 65 54 66 55 67
REMARK SMILES IDX 69 69 90 70 57 71 41 72 42 73 50 74 43 75 45 76 51 77 44 78
REMARK SMILES IDX 46 79 47 80 48 81 49 82 73 83 74 84 82 85 75 86 77 87 83 88
REMARK SMILES IDX 76 89 78 90 79 91 80 92 81 93 58 94 59 95 67 96 60 97 62 98
REMARK SMILES IDX 68 99 61 100 63 101 64 102 65 103 66 104
REMARK H PARENT 20 14 22 15 29 38 88 57 56 68
REMARK Flexibility Score: inf
ROOT
ATOM      1  C   UNL A   1      39.098  22.207  26.092  1.00  0.00     0.002 C 
ENDROOT
BRANCH   1   2
ATOM      2  C   UNL A   1      37.755  22.937  25.764  1.00  0.00     0.003 C 
BRANCH   2   3
ATOM      3  C   UNL A   1      36.039  22.437  25.835  1.00  0.00     0.037 C 
BRANCH   3   4
ATOM      4  C   UNL A   1      34.139  23.199  25.058  1.00  0.00     0.194 C 
BRANCH   4   5
ATOM      5  N   UNL A   1      33.854  24.424  23.992  1.00  0.00    -0.305 N 
ATOM      6  C   UNL A   1      31.081  23.806  25.046  1.00  0.00     0.030 C 
ATOM      7  C   UNL A   1      31.460  24.998  24.577  1.00  0.00     0.129 C 
ATOM      8  C   UNL A   1      30.615  26.192  24.715  1.00  0.00     0.328 C 
ATOM      9  C   UNL A   1      32.696  25.152  23.776  1.00  0.00     0.236 C 
ATOM     10  O   UNL A   1      29.901  26.355  25.701  1.00  0.00    -0.249 OA
ATOM     11  N   UNL A   1      30.714  27.023  23.616  1.00  0.00    -0.155 N 
ATOM     12  N   UNL A   1      32.657  25.979  22.766  1.00  0.00    -0.209 N 
ATOM     13  C   UNL A   1      31.463  26.633  22.508  1.00  0.00     0.448 C 
ATOM     14  H   UNL A   1      33.450  26.131  22.203  1.00  0.00     0.270 HD
ATOM     15  H   UNL A   1      34.619  24.675  23.427  1.00  0.00     0.256 HD
ATOM     16  O   UNL A   1      31.080  26.821  21.355  1.00  0.00    -0.212 OA
BRANCH   6  17
ATOM     17  C   UNL A   1      32.093  22.765  24.994  1.00  0.00    -0.024 A 
ATOM     18  C   UNL A   1      33.193  19.332  24.877  1.00  0.00     0.127 A 
ATOM     19  C   UNL A   1      33.273  20.246  26.437  1.00  0.00     0.048 A 
ATOM     20  C   UNL A   1      32.481  20.104  23.427  1.00  0.00     0.040 A 
ATOM     21  C   UNL A   1      32.808  22.010  26.486  1.00  0.00     0.012 A 
ATOM     22  C   UNL A   1      31.988  21.815  23.470  1.00  0.00     0.022 A 
BRANCH  18  23
ATOM     23  O   UNL A   1      33.859  18.137  24.802  1.00  0.00    -0.496 OA
ATOM     24  C   UNL A   1      33.020  17.067  25.267  1.00  0.00     0.278 C 
ENDBRANCH  18  23
BRANCH  20  25
ATOM     25  C   UNL A   1      32.154  19.380  22.191  1.00  0.00     0.075 C 
ATOM     26  O   UNL A   1      32.292  18.183  22.039  1.00  0.00    -0.545 OA
ATOM     27  O   UNL A   1      31.774  20.217  21.221  1.00  0.00    -0.545 OA
ENDBRANCH  20  25
ENDBRANCH   6  17
BRANCH  11  28
ATOM     28  C   UNL A   1      29.785  28.082  23.514  1.00  0.00     0.111 A 
ATOM     29  C   UNL A   1      30.207  29.415  23.486  1.00  0.00     0.044 A 
ATOM     30  C   UNL A   1      28.439  27.767  23.296  1.00  0.00     0.044 A 
ATOM     31  C   UNL A   1      29.283  30.429  23.229  1.00  0.00     0.004 A 
ATOM     32  C   UNL A   1      27.519  28.782  23.042  1.00  0.00     0.004 A 
ATOM     33  C   UNL A   1      27.942  30.112  23.003  1.00  0.00     0.000 A 
ENDBRANCH  11  28
ENDBRANCH   4   5
ENDBRANCH   3   4
ENDBRANCH   2   3
ENDBRANCH   1   2
BRANCH   1  34
ATOM     34  C   UNL A   1      39.408  20.782  25.593  1.00  0.00     0.021 C 
BRANCH  34  35
ATOM     35  C   UNL A   1      40.230  19.915  26.534  1.00  0.00     0.116 C 
BRANCH  35  36
ATOM     36  N   UNL A   1      41.474  19.440  25.968  1.00  0.00    -0.352 N 
ATOM     37  C   UNL A   1      42.613  20.184  25.752  1.00  0.00     0.251 C 
ATOM     38  H   UNL A   1      41.510  18.490  25.712  1.00  0.00     0.163 HD
ATOM     39  O   UNL A   1      43.542  19.710  25.103  1.00  0.00    -0.269 OA
BRANCH  37  40
ATOM     40  C   UNL A   1      42.708  21.573  26.278  1.00  0.00     0.039 A 
ATOM     41  C   UNL A   1      42.707  22.638  25.372  1.00  0.00     0.014 A 
ATOM     42  C   UNL A   1      42.847  21.832  27.646  1.00  0.00     0.014 A 
ATOM     43  C   UNL A   1      42.846  23.952  25.834  1.00  0.00     0.010 A 
ATOM     44  C   UNL A   1      42.924  23.148  28.110  1.00  0.00     0.010 A 
ATOM     45  C   UNL A   1      42.960  24.223  27.208  1.00  0.00    -0.014 A 
BRANCH  45  46
ATOM     46  C   UNL A   1      43.181  25.617  27.687  1.00  0.00     0.031 A 
ATOM     47  C   UNL A   1      44.564  26.222  27.669  1.00  0.00     0.074 A 
ATOM     48  C   UNL A   1      42.148  26.350  28.149  1.00  0.00     0.049 A 
ATOM     49  N   UNL A   1      44.936  27.437  27.984  1.00  0.00    -0.248 NA
ATOM     50  C   UNL A   1      45.675  25.346  27.266  1.00  0.00     0.031 C 
ATOM     51  C   UNL A   1      40.772  25.873  28.292  1.00  0.00     0.029 A 
ATOM     52  N   UNL A   1      42.096  27.650  28.590  1.00  0.00    -0.354 N 
ATOM     53  C   UNL A   1      46.320  27.463  27.843  1.00  0.00     0.074 A 
ATOM     54  C   UNL A   1      46.726  26.132  27.451  1.00  0.00     0.031 C 
ATOM     55  C   UNL A   1      40.010  26.869  28.775  1.00  0.00     0.029 A 
ATOM     56  C   UNL A   1      40.842  28.051  28.988  1.00  0.00     0.049 A 
ATOM     57  H   UNL A   1      42.884  28.239  28.620  1.00  0.00     0.167 HD
ATOM     58  C   UNL A   1      47.175  28.504  27.989  1.00  0.00     0.034 A 
ATOM     59  C   UNL A   1      40.407  29.236  29.464  1.00  0.00     0.034 A 
ATOM     60  C   UNL A   1      46.774  29.842  28.329  1.00  0.00     0.049 A 
ATOM     61  C   UNL A   1      41.367  30.391  29.572  1.00  0.00     0.074 A 
ATOM     62  C   UNL A   1      47.558  30.980  28.411  1.00  0.00     0.029 A 
ATOM     63  N   UNL A   1      45.483  30.225  28.654  1.00  0.00    -0.354 N 
ATOM     64  N   UNL A   1      42.641  30.436  29.264  1.00  0.00    -0.248 NA
ATOM     65  C   UNL A   1      40.821  31.671  30.048  1.00  0.00     0.031 C 
ATOM     66  C   UNL A   1      46.744  32.047  28.809  1.00  0.00     0.029 A 
ATOM     67  C   UNL A   1      45.449  31.577  28.947  1.00  0.00     0.049 A 
ATOM     68  H   UNL A   1      44.704  29.622  28.674  1.00  0.00     0.167 HD
ATOM     69  C   UNL A   1      43.038  31.753  29.476  1.00  0.00     0.074 A 
ATOM     70  C   UNL A   1      41.865  32.478  29.915  1.00  0.00     0.031 C 
ATOM     71  C   UNL A   1      44.268  32.307  29.332  1.00  0.00     0.034 A 
BRANCH  58  72
ATOM     72  C   UNL A   1      48.638  28.252  27.724  1.00  0.00     0.023 A 
ATOM     73  C   UNL A   1      49.508  28.000  28.805  1.00  0.00     0.012 A 
ATOM     74  C   UNL A   1      49.138  28.197  26.409  1.00  0.00     0.148 A 
ATOM     75  C   UNL A   1      50.859  27.736  28.584  1.00  0.00     0.002 A 
ATOM     76  C   UNL A   1      50.477  27.887  26.194  1.00  0.00     0.091 A 
ATOM     77  F   UNL A   1      48.302  28.457  25.394  1.00  0.00    -0.205 F 
ATOM     78  C   UNL A   1      51.340  27.668  27.280  1.00  0.00     0.022 A 
BRANCH  76  79
ATOM     79  S   UNL A   1      51.175  27.697  24.550  1.00  0.00     0.127 S 
ATOM     80  O   UNL A   1      52.538  27.265  24.856  1.00  0.00    -0.237 OA
ATOM     81  O   UNL A   1      50.322  26.657  23.971  1.00  0.00    -0.237 OA
ATOM     82  O   UNL A   1      51.060  29.000  23.912  1.00  0.00    -0.744 OA
ENDBRANCH  76  79
ENDBRANCH  58  72
BRANCH  59  83
ATOM     83  C   UNL A   1      38.968  29.411  29.813  1.00  0.00     0.023 A 
ATOM     84  C   UNL A   1      38.522  29.098  31.112  1.00  0.00     0.012 A 
ATOM     85  C   UNL A   1      38.046  29.903  28.870  1.00  0.00     0.148 A 
ATOM     86  C   UNL A   1      37.177  29.244  31.455  1.00  0.00     0.002 A 
ATOM     87  C   UNL A   1      36.720  30.099  29.235  1.00  0.00     0.091 A 
ATOM     88  F   UNL A   1      38.488  30.180  27.635  1.00  0.00    -0.205 F 
ATOM     89  C   UNL A   1      36.278  29.753  30.522  1.00  0.00     0.022 A 
BRANCH  87  90
ATOM     90  S   UNL A   1      35.528  30.874  28.138  1.00  0.00     0.127 S 
ATOM     91  O   UNL A   1      35.283  29.814  27.164  1.00  0.00    -0.237 OA
ATOM     92  O   UNL A   1      34.414  31.148  29.047  1.00  0.00    -0.237 OA
ATOM     93  O   UNL A   1      36.187  32.067  27.623  1.00  0.00    -0.744 OA
ENDBRANCH  87  90
ENDBRANCH  59  83
BRANCH  71  94
ATOM     94  C   UNL A   1      44.415  33.780  29.614  1.00  0.00     0.023 A 
ATOM     95  C   UNL A   1      44.834  34.213  30.887  1.00  0.00     0.012 A 
ATOM     96  C   UNL A   1      44.213  34.731  28.593  1.00  0.00     0.148 A 
ATOM     97  C   UNL A   1      45.018  35.571  31.150  1.00  0.00     0.002 A 
ATOM     98  C   UNL A   1      44.445  36.078  28.848  1.00  0.00     0.091 A 
ATOM     99  F   UNL A   1      43.796  34.303  27.393  1.00  0.00    -0.205 F 
ATOM    100  C   UNL A   1      44.836  36.501  30.129  1.00  0.00     0.022 A 
BRANCH  98 101
ATOM    101  S   UNL A   1      44.330  37.333  27.568  1.00  0.00     0.127 S 
ATOM    102  O   UNL A   1      44.349  38.565  28.355  1.00  0.00    -0.237 OA
ATOM    103  O   UNL A   1      45.543  37.091  26.785  1.00  0.00    -0.237 OA
ATOM    104  O   UNL A   1      43.089  37.065  26.854  1.00  0.00    -0.744 OA
ENDBRANCH  98 101
ENDBRANCH  71  94
ENDBRANCH  45  46
ENDBRANCH  37  40
ENDBRANCH  35  36
ENDBRANCH  34  35
ENDBRANCH   1  34
TORSDOF 19
ENDMDL
MODEL 3
REMARK VINA RESULT:     -13.8      2.408      7.160
REMARK SMILES COc1ccc(/C=C2/C(=O)N(c3ccccc3)C(=O)[NH+]=C2NCCCCCCNC(=O)c2ccc(-c3c4nc(c(-c5cccc(S(=O)(=O)[O-])c5F)c5ccc([nH]5)c(-c5cccc(S(=O)(=O)[O-])c5F)c5nc(c(-c6cccc(S(=O)(=O)[O-])c6F)c6ccc3[nH]6)C=C5)C=C4)cc2)cc1C(=O)[O-]
REMARK SMILES IDX 26 1 25 2 24 3 23 4 22 5 7 6 8 7 9 8 21 9 10 10 11 11 20 12
REMARK SMILES IDX 18 13 19 16 6 17 3 18 4 19 96 20 5 21 95 22 2 23 1 24 97 25
REMARK SMILES IDX 98 26 99 27 12 28 13 29 17 30 14 31 16 32 15 33 27 34 28 35
REMARK SMILES IDX 29 36 30 37 31 39 32 40 33 41 94 42 34 43 93 44 35 45 36 46
REMARK SMILES IDX 37 47 87 48 38 49 92 50 86 51 88 52 39 53 91 54 85 55 84 56
REMARK SMILES IDX 40 58 72 59 52 60 71 61 53 62 56 63 70 64 89 65 54 66 55 67
REMARK SMILES IDX 69 69 90 70 57 71 41 72 42 73 50 74 43 75 45 76 51 77 44 78
REMARK SMILES IDX 46 79 47 80 48 81 49 82 73 83 74 84 82 85 75 86 77 87 83 88
REMARK SMILES IDX 76 89 78 90 79 91 80 92 81 93 58 94 59 95 67 96 60 97 62 98
REMARK SMILES IDX 68 99 61 100 63 101 64 102 65 103 66 104
REMARK H PARENT 20 14 22 15 29 38 88 57 56 68
REMARK Flexibility Score: inf
ROOT
ATOM      1  C   UNL A   1      37.410  20.215  25.118  1.00  0.00     0.002 C 
ENDROOT
BRANCH   1   2
ATOM      2  C   UNL A   1      37.078  21.594  24.461  1.00  0.00     0.003 C 
BRANCH   2   3
ATOM      3  C   UNL A   1      36.367  23.111  25.088  1.00  0.00     0.037 C 
BRANCH   3   4
ATOM      4  C   UNL A   1      34.446  24.147  24.907  1.00  0.00     0.194 C 
BRANCH   4   5
ATOM      5  N   UNL A   1      33.947  25.249  23.788  1.00  0.00    -0.305 N 
ATOM      6  C   UNL A   1      31.431  24.762  25.404  1.00  0.00     0.030 C 
ATOM      7  C   UNL A   1      31.696  25.895  24.746  1.00  0.00     0.129 C 
ATOM      8  C   UNL A   1      30.872  27.100  24.911  1.00  0.00     0.328 C 
ATOM      9  C   UNL A   1      32.757  25.955  23.715  1.00  0.00     0.236 C 
ATOM     10  O   UNL A   1      30.353  27.373  25.989  1.00  0.00    -0.249 OA
ATOM     11  N   UNL A   1      30.751  27.806  23.730  1.00  0.00    -0.155 N 
ATOM     12  N   UNL A   1      32.517  26.667  22.647  1.00  0.00    -0.209 N 
ATOM     13  C   UNL A   1      31.286  27.295  22.549  1.00  0.00     0.448 C 
ATOM     14  H   UNL A   1      33.189  26.753  21.933  1.00  0.00     0.270 HD
ATOM     15  H   UNL A   1      34.589  25.433  23.065  1.00  0.00     0.256 HD
ATOM     16  O   UNL A   1      30.691  27.357  21.475  1.00  0.00    -0.212 OA
BRANCH   6  17
ATOM     17  C   UNL A   1      32.431  23.717  25.275  1.00  0.00    -0.024 A 
ATOM     18  C   UNL A   1      33.513  20.279  25.148  1.00  0.00     0.127 A 
ATOM     19  C   UNL A   1      33.761  21.241  26.661  1.00  0.00     0.048 A 
ATOM     20  C   UNL A   1      32.649  21.007  23.760  1.00  0.00     0.040 A 
ATOM     21  C   UNL A   1      33.304  23.008  26.704  1.00  0.00     0.012 A 
ATOM     22  C   UNL A   1      32.162  22.721  23.802  1.00  0.00     0.022 A 
BRANCH  18  23
ATOM     23  O   UNL A   1      34.168  19.080  25.039  1.00  0.00    -0.496 OA
ATOM     24  C   UNL A   1      33.313  18.003  25.458  1.00  0.00     0.278 C 
ENDBRANCH  18  23
BRANCH  20  25
ATOM     25  C   UNL A   1      32.190  20.246  22.590  1.00  0.00     0.075 C 
ATOM     26  O   UNL A   1      32.170  19.033  22.524  1.00  0.00    -0.545 OA
ATOM     27  O   UNL A   1      31.885  21.054  21.570  1.00  0.00    -0.545 OA
ENDBRANCH  20  25
ENDBRANCH   6  17
BRANCH  11  28
ATOM     28  C   UNL A   1      29.802  28.852  23.690  1.00  0.00     0.111 A 
ATOM     29  C   UNL A   1      30.173  30.175  23.953  1.00  0.00     0.044 A 
ATOM     30  C   UNL A   1      28.510  28.560  23.241  1.00  0.00     0.044 A 
ATOM     31  C   UNL A   1      29.251  31.204  23.755  1.00  0.00     0.004 A 
ATOM     32  C   UNL A   1      27.592  29.591  23.046  1.00  0.00     0.004 A 
ATOM     33  C   UNL A   1      27.964  30.912  23.298  1.00  0.00     0.000 A 
ENDBRANCH  11  28
ENDBRANCH   4   5
ENDBRANCH   3   4
ENDBRANCH   2   3
ENDBRANCH   1   2
BRANCH   1  34
ATOM     34  C   UNL A   1      38.795  19.550  24.990  1.00  0.00     0.021 C 
BRANCH  34  35
ATOM     35  C   UNL A   1      39.783  19.859  26.104  1.00  0.00     0.116 C 
BRANCH  35  36
ATOM     36  N   UNL A   1      41.049  19.169  25.980  1.00  0.00    -0.352 N 
ATOM     37  C   UNL A   1      42.302  19.726  26.112  1.00  0.00     0.251 C 
ATOM     38  H   UNL A   1      41.011  18.205  25.783  1.00  0.00     0.163 HD
ATOM     39  O   UNL A   1      43.298  19.073  25.809  1.00  0.00    -0.269 OA
BRANCH  37  40
ATOM     40  C   UNL A   1      42.450  21.127  26.590  1.00  0.00     0.039 A 
ATOM     41  C   UNL A   1      42.585  22.150  25.646  1.00  0.00     0.014 A 
ATOM     42  C   UNL A   1      42.505  21.435  27.954  1.00  0.00     0.014 A 
ATOM     43  C   UNL A   1      42.776  23.471  26.067  1.00  0.00     0.010 A 
ATOM     44  C   UNL A   1      42.634  22.763  28.372  1.00  0.00     0.010 A 
ATOM     45  C   UNL A   1      42.807  23.794  27.435  1.00  0.00    -0.014 A 
BRANCH  45  46
ATOM     46  C   UNL A   1      43.083  25.191  27.875  1.00  0.00     0.031 A 
ATOM     47  C   UNL A   1      44.492  25.733  27.857  1.00  0.00     0.074 A 
ATOM     48  C   UNL A   1      42.079  25.981  28.302  1.00  0.00     0.049 A 
ATOM     49  N   UNL A   1      44.914  26.940  28.141  1.00  0.00    -0.248 NA
ATOM     50  C   UNL A   1      45.568  24.798  27.493  1.00  0.00     0.031 C 
ATOM     51  C   UNL A   1      40.681  25.569  28.443  1.00  0.00     0.029 A 
ATOM     52  N   UNL A   1      42.079  27.295  28.705  1.00  0.00    -0.354 N 
ATOM     53  C   UNL A   1      46.299  26.901  28.016  1.00  0.00     0.074 A 
ATOM     54  C   UNL A   1      46.650  25.542  27.668  1.00  0.00     0.031 C 
ATOM     55  C   UNL A   1      39.959  26.611  28.886  1.00  0.00     0.029 A 
ATOM     56  C   UNL A   1      40.840  27.762  29.076  1.00  0.00     0.049 A 
ATOM     57  H   UNL A   1      42.892  27.849  28.727  1.00  0.00     0.167 HD
ATOM     58  C   UNL A   1      47.197  27.908  28.142  1.00  0.00     0.034 A 
ATOM     59  C   UNL A   1      40.452  28.977  29.512  1.00  0.00     0.034 A 
ATOM     60  C   UNL A   1      46.851  29.272  28.439  1.00  0.00     0.049 A 
ATOM     61  C   UNL A   1      41.461  30.092  29.597  1.00  0.00     0.074 A 
ATOM     62  C   UNL A   1      47.684  30.377  28.496  1.00  0.00     0.029 A 
ATOM     63  N   UNL A   1      45.575  29.720  28.736  1.00  0.00    -0.354 N 
ATOM     64  N   UNL A   1      42.739  30.073  29.305  1.00  0.00    -0.248 NA
ATOM     65  C   UNL A   1      40.966  31.408  30.030  1.00  0.00     0.031 C 
ATOM     66  C   UNL A   1      46.913  31.489  28.853  1.00  0.00     0.029 A 
ATOM     67  C   UNL A   1      45.597  31.081  28.989  1.00  0.00     0.049 A 
ATOM     68  H   UNL A   1      44.770  29.153  28.764  1.00  0.00     0.167 HD
ATOM     69  C   UNL A   1      43.191  31.377  29.483  1.00  0.00     0.074 A 
ATOM     70  C   UNL A   1      42.046  32.165  29.886  1.00  0.00     0.031 C 
ATOM     71  C   UNL A   1      44.445  31.872  29.337  1.00  0.00     0.034 A 
BRANCH  58  72
ATOM     72  C   UNL A   1      48.650  27.584  27.903  1.00  0.00     0.023 A 
ATOM     73  C   UNL A   1      49.156  27.583  26.587  1.00  0.00     0.012 A 
ATOM     74  C   UNL A   1      49.528  27.348  28.979  1.00  0.00     0.148 A 
ATOM     75  C   UNL A   1      50.502  27.315  26.342  1.00  0.00     0.002 A 
ATOM     76  C   UNL A   1      50.878  27.128  28.730  1.00  0.00     0.091 A 
ATOM     77  F   UNL A   1      49.027  27.335  30.223  1.00  0.00    -0.205 F 
ATOM     78  C   UNL A   1      51.364  27.099  27.412  1.00  0.00     0.022 A 
BRANCH  76  79
ATOM     79  S   UNL A   1      52.084  26.918  30.046  1.00  0.00     0.127 S 
ATOM     80  O   UNL A   1      53.337  26.879  29.293  1.00  0.00    -0.237 OA
ATOM     81  O   UNL A   1      51.887  28.133  30.839  1.00  0.00    -0.237 OA
ATOM     82  O   UNL A   1      51.724  25.683  30.727  1.00  0.00    -0.744 OA
ENDBRANCH  76  79
ENDBRANCH  58  72
BRANCH  59  83
ATOM     83  C   UNL A   1      39.018  29.226  29.838  1.00  0.00     0.023 A 
ATOM     84  C   UNL A   1      38.537  28.943  31.131  1.00  0.00     0.012 A 
ATOM     85  C   UNL A   1      38.137  29.757  28.877  1.00  0.00     0.148 A 
ATOM     86  C   UNL A   1      37.196  29.157  31.452  1.00  0.00     0.002 A 
ATOM     87  C   UNL A   1      36.816  30.020  29.221  1.00  0.00     0.091 A 
ATOM     88  F   UNL A   1      38.610  30.005  27.648  1.00  0.00    -0.205 F 
ATOM     89  C   UNL A   1      36.338  29.704  30.503  1.00  0.00     0.022 A 
BRANCH  87  90
ATOM     90  S   UNL A   1      35.680  30.848  28.102  1.00  0.00     0.127 S 
ATOM     91  O   UNL A   1      35.500  29.840  27.060  1.00  0.00    -0.237 OA
ATOM     92  O   UNL A   1      34.515  31.065  28.960  1.00  0.00    -0.237 OA
ATOM     93  O   UNL A   1      36.357  32.070  27.690  1.00  0.00    -0.744 OA
ENDBRANCH  87  90
ENDBRANCH  59  83
BRANCH  71  94
ATOM     94  C   UNL A   1      44.654  33.346  29.578  1.00  0.00     0.023 A 
ATOM     95  C   UNL A   1      45.068  33.798  30.846  1.00  0.00     0.012 A 
ATOM     96  C   UNL A   1      44.515  34.272  28.526  1.00  0.00     0.148 A 
ATOM     97  C   UNL A   1      45.308  35.153  31.072  1.00  0.00     0.002 A 
ATOM     98  C   UNL A   1      44.804  35.614  28.745  1.00  0.00     0.091 A 
ATOM     99  F   UNL A   1      44.102  33.826  27.330  1.00  0.00    -0.205 F 
ATOM    100  C   UNL A   1      45.188  36.059  30.020  1.00  0.00     0.022 A 
BRANCH  98 101
ATOM    101  S   UNL A   1      44.770  36.833  27.425  1.00  0.00     0.127 S 
ATOM    102  O   UNL A   1      45.859  36.371  26.565  1.00  0.00    -0.237 OA
ATOM    103  O   UNL A   1      43.431  36.649  26.865  1.00  0.00    -0.237 OA
ATOM    104  O   UNL A   1      44.983  38.124  28.066  1.00  0.00    -0.744 OA
ENDBRANCH  98 101
ENDBRANCH  71  94
ENDBRANCH  45  46
ENDBRANCH  37  40
ENDBRANCH  35  36
ENDBRANCH  34  35
ENDBRANCH   1  34
TORSDOF 19
ENDMDL
