MODEL 1
REMARK VINA RESULT:     -12.2      0.000      0.000
REMARK SMILES CC(=O)Oc1c(Cl)cc(-c2ccccc2)cc1C(=O)NCCCCCCNC(=O)c1ccc(-c2c3nc(c(-c4cccc(S(=O)(=O)[O-])c4F)c4ccc([nH]4)c(-c4cccc(S(=O)(=O)[O-])c4F)c4nc(c(-c5cccc(S(=O)(=O)[O-])c5F)c5ccc2[nH]5)C=C4)C=C3)cc1
REMARK SMILES IDX 24 1 23 2 22 3 21 4 20 5 18 6 19 7 17 9 5 10 6 11 7 12 8 13
REMARK SMILES IDX 16 14 9 15 4 16 2 17 1 18 3 19 10 20 11 21 15 22 12 23 14 24
REMARK SMILES IDX 13 25 25 26 26 27 27 28 28 29 29 31 30 32 31 33 92 34 32 35
REMARK SMILES IDX 91 36 33 37 34 38 35 39 85 40 36 41 90 42 84 43 86 44 37 45
REMARK SMILES IDX 89 46 83 47 82 48 38 50 70 51 50 52 69 53 51 54 54 55 68 56
REMARK SMILES IDX 87 57 52 58 53 59 67 61 88 62 55 63 39 64 40 65 48 66 41 67
REMARK SMILES IDX 43 68 49 69 42 70 44 71 45 72 46 73 47 74 71 75 72 76 80 77
REMARK SMILES IDX 73 78 75 79 81 80 74 81 76 82 77 83 78 84 79 85 56 86 57 87
REMARK SMILES IDX 65 88 58 89 60 90 66 91 59 92 61 93 62 94 63 95 64 96
REMARK H PARENT 20 8 27 30 86 49 54 60
REMARK Flexibility Score: inf
ROOT
ATOM      1  C   UNL A   1      31.105  27.326  26.051  1.00  0.00     0.002 C 
ENDROOT
BRANCH   1   2
ATOM      2  C   UNL A   1      30.402  26.038  25.620  1.00  0.00     0.002 C 
BRANCH   2   3
ATOM      3  C   UNL A   1      30.326  25.707  24.130  1.00  0.00     0.021 C 
BRANCH   3   4
ATOM      4  C   UNL A   1      30.374  24.250  23.697  1.00  0.00     0.116 C 
BRANCH   4   5
ATOM      5  N   UNL A   1      31.359  23.897  22.716  1.00  0.00    -0.352 N 
ATOM      6  C   UNL A   1      32.473  23.097  22.818  1.00  0.00     0.255 C 
ATOM      7  O   UNL A   1      33.138  22.991  21.781  1.00  0.00    -0.269 OA
ATOM      8  H   UNL A   1      31.215  24.291  21.826  1.00  0.00     0.163 HD
BRANCH   6   9
ATOM      9  C   UNL A   1      32.977  22.384  24.052  1.00  0.00     0.084 A 
ATOM     10  C   UNL A   1      33.286  22.897  25.325  1.00  0.00     0.162 A 
ATOM     11  C   UNL A   1      33.543  22.014  26.402  1.00  0.00     0.085 A 
ATOM     12  Cl  UNL A   1      33.759  22.570  28.031  1.00  0.00    -0.080 Cl
ATOM     13  C   UNL A   1      33.572  20.636  26.212  1.00  0.00     0.033 A 
ATOM     14  C   UNL A   1      33.009  20.967  23.904  1.00  0.00     0.026 A 
ATOM     15  C   UNL A   1      33.300  20.083  24.960  1.00  0.00    -0.016 A 
BRANCH  10  16
ATOM     16  O   UNL A   1      33.270  24.266  25.627  1.00  0.00    -0.424 OA
BRANCH  16  17
ATOM     17  C   UNL A   1      34.418  24.923  25.162  1.00  0.00     0.308 C 
ATOM     18  C   UNL A   1      34.046  25.957  24.143  1.00  0.00     0.139 C 
ATOM     19  O   UNL A   1      35.575  24.622  25.438  1.00  0.00    -0.252 OA
ENDBRANCH  16  17
ENDBRANCH  10  16
BRANCH  15  20
ATOM     20  C   UNL A   1      33.269  18.620  24.800  1.00  0.00    -0.018 A 
ATOM     21  C   UNL A   1      32.534  17.821  25.696  1.00  0.00     0.009 A 
ATOM     22  C   UNL A   1      33.997  17.975  23.789  1.00  0.00     0.009 A 
ATOM     23  C   UNL A   1      32.540  16.428  25.600  1.00  0.00     0.001 A 
ATOM     24  C   UNL A   1      34.005  16.579  23.692  1.00  0.00     0.001 A 
ATOM     25  C   UNL A   1      33.280  15.807  24.599  1.00  0.00     0.000 A 
ENDBRANCH  15  20
ENDBRANCH   6   9
ENDBRANCH   4   5
ENDBRANCH   3   4
ENDBRANCH   2   3
ENDBRANCH   1   2
BRANCH   1  26
ATOM     26  C   UNL A   1      31.730  28.212  24.970  1.00  0.00     0.021 C 
BRANCH  26  27
ATOM     27  C   UNL A   1      32.796  29.210  25.413  1.00  0.00     0.116 C 
BRANCH  27  28
ATOM     28  N   UNL A   1      32.248  30.496  25.804  1.00  0.00    -0.352 N 
ATOM     29  C   UNL A   1      32.625  31.348  26.813  1.00  0.00     0.251 C 
ATOM     30  H   UNL A   1      31.486  30.805  25.262  1.00  0.00     0.163 HD
ATOM     31  O   UNL A   1      31.932  32.334  27.058  1.00  0.00    -0.269 OA
BRANCH  29  32
ATOM     32  C   UNL A   1      33.841  31.088  27.621  1.00  0.00     0.039 A 
ATOM     33  C   UNL A   1      34.169  29.762  27.925  1.00  0.00     0.014 A 
ATOM     34  C   UNL A   1      34.634  32.129  28.111  1.00  0.00     0.014 A 
ATOM     35  C   UNL A   1      35.319  29.478  28.668  1.00  0.00     0.010 A 
ATOM     36  C   UNL A   1      35.814  31.842  28.801  1.00  0.00     0.010 A 
ATOM     37  C   UNL A   1      36.169  30.514  29.087  1.00  0.00    -0.014 A 
BRANCH  37  38
ATOM     38  C   UNL A   1      37.440  30.226  29.805  1.00  0.00     0.031 A 
ATOM     39  C   UNL A   1      38.468  29.305  29.204  1.00  0.00     0.074 A 
ATOM     40  C   UNL A   1      37.631  30.726  31.043  1.00  0.00     0.049 A 
ATOM     41  N   UNL A   1      39.600  28.890  29.711  1.00  0.00    -0.248 NA
ATOM     42  C   UNL A   1      38.175  28.762  27.867  1.00  0.00     0.031 C 
ATOM     43  C   UNL A   1      36.681  31.574  31.766  1.00  0.00     0.029 A 
ATOM     44  N   UNL A   1      38.673  30.570  31.923  1.00  0.00    -0.354 N 
ATOM     45  C   UNL A   1      40.140  28.015  28.776  1.00  0.00     0.074 A 
ATOM     46  C   UNL A   1      39.196  27.936  27.681  1.00  0.00     0.031 C 
ATOM     47  C   UNL A   1      37.183  31.862  32.978  1.00  0.00     0.029 A 
ATOM     48  C   UNL A   1      38.473  31.197  33.131  1.00  0.00     0.049 A 
ATOM     49  H   UNL A   1      39.487  30.058  31.709  1.00  0.00     0.167 HD
ATOM     50  C   UNL A   1      41.323  27.357  28.810  1.00  0.00     0.034 A 
ATOM     51  C   UNL A   1      39.237  31.226  34.242  1.00  0.00     0.034 A 
ATOM     52  C   UNL A   1      42.280  27.469  29.879  1.00  0.00     0.049 A 
ATOM     53  C   UNL A   1      40.561  30.512  34.242  1.00  0.00     0.074 A 
ATOM     54  C   UNL A   1      43.544  26.912  29.965  1.00  0.00     0.029 A 
ATOM     55  N   UNL A   1      42.078  28.181  31.052  1.00  0.00    -0.354 N 
ATOM     56  N   UNL A   1      41.124  29.818  33.283  1.00  0.00    -0.248 NA
ATOM     57  C   UNL A   1      41.372  30.613  35.464  1.00  0.00     0.031 C 
ATOM     58  C   UNL A   1      44.098  27.270  31.198  1.00  0.00     0.029 A 
ATOM     59  C   UNL A   1      43.188  28.068  31.872  1.00  0.00     0.049 A 
ATOM     60  H   UNL A   1      41.264  28.691  31.270  1.00  0.00     0.167 HD
ATOM     61  C   UNL A   1      42.366  29.430  33.771  1.00  0.00     0.074 A 
ATOM     62  C   UNL A   1      42.483  29.984  35.104  1.00  0.00     0.031 C 
ATOM     63  C   UNL A   1      43.317  28.669  33.175  1.00  0.00     0.034 A 
BRANCH  50  64
ATOM     64  C   UNL A   1      41.682  26.497  27.626  1.00  0.00     0.023 A 
ATOM     65  C   UNL A   1      42.298  27.085  26.503  1.00  0.00     0.012 A 
ATOM     66  C   UNL A   1      41.473  25.103  27.647  1.00  0.00     0.148 A 
ATOM     67  C   UNL A   1      42.668  26.309  25.406  1.00  0.00     0.002 A 
ATOM     68  C   UNL A   1      41.884  24.330  26.567  1.00  0.00     0.091 A 
ATOM     69  F   UNL A   1      40.868  24.563  28.714  1.00  0.00    -0.205 F 
ATOM     70  C   UNL A   1      42.472  24.932  25.443  1.00  0.00     0.022 A 
BRANCH  68  71
ATOM     71  S   UNL A   1      41.743  22.538  26.550  1.00  0.00     0.127 S 
ATOM     72  O   UNL A   1      40.299  22.355  26.690  1.00  0.00    -0.237 OA
ATOM     73  O   UNL A   1      42.275  22.200  25.229  1.00  0.00    -0.237 OA
ATOM     74  O   UNL A   1      42.547  22.063  27.667  1.00  0.00    -0.744 OA
ENDBRANCH  68  71
ENDBRANCH  50  64
BRANCH  51  75
ATOM     75  C   UNL A   1      38.794  32.016  35.426  1.00  0.00     0.023 A 
ATOM     76  C   UNL A   1      38.942  33.417  35.415  1.00  0.00     0.012 A 
ATOM     77  C   UNL A   1      38.197  31.397  36.541  1.00  0.00     0.148 A 
ATOM     78  C   UNL A   1      38.533  34.184  36.506  1.00  0.00     0.002 A 
ATOM     79  C   UNL A   1      37.740  32.172  37.601  1.00  0.00     0.091 A 
ATOM     80  F   UNL A   1      38.076  30.063  36.538  1.00  0.00    -0.205 F 
ATOM     81  C   UNL A   1      37.922  33.564  37.593  1.00  0.00     0.022 A 
BRANCH  79  82
ATOM     82  S   UNL A   1      36.821  31.470  38.976  1.00  0.00     0.127 S 
ATOM     83  O   UNL A   1      36.565  30.112  38.500  1.00  0.00    -0.237 OA
ATOM     84  O   UNL A   1      37.792  31.567  40.068  1.00  0.00    -0.237 OA
ATOM     85  O   UNL A   1      35.652  32.318  39.139  1.00  0.00    -0.744 OA
ENDBRANCH  79  82
ENDBRANCH  51  75
BRANCH  63  86
ATOM     86  C   UNL A   1      44.588  28.409  33.941  1.00  0.00     0.023 A 
ATOM     87  C   UNL A   1      45.633  29.353  33.902  1.00  0.00     0.012 A 
ATOM     88  C   UNL A   1      44.717  27.268  34.758  1.00  0.00     0.148 A 
ATOM     89  C   UNL A   1      46.797  29.153  34.642  1.00  0.00     0.002 A 
ATOM     90  C   UNL A   1      45.860  27.099  35.530  1.00  0.00     0.091 A 
ATOM     91  F   UNL A   1      43.719  26.371  34.767  1.00  0.00    -0.205 F 
ATOM     92  C   UNL A   1      46.906  28.034  35.465  1.00  0.00     0.022 A 
BRANCH  90  93
ATOM     93  S   UNL A   1      46.048  25.739  36.688  1.00  0.00     0.127 S 
ATOM     94  O   UNL A   1      47.378  25.998  37.239  1.00  0.00    -0.237 OA
ATOM     95  O   UNL A   1      44.945  25.969  37.621  1.00  0.00    -0.237 OA
ATOM     96  O   UNL A   1      45.926  24.520  35.898  1.00  0.00    -0.744 OA
ENDBRANCH  90  93
ENDBRANCH  63  86
ENDBRANCH  37  38
ENDBRANCH  29  32
ENDBRANCH  27  28
ENDBRANCH  26  27
ENDBRANCH   1  26
TORSDOF 19
ENDMDL
MODEL 2
REMARK VINA RESULT:     -12.2      1.428      7.509
REMARK SMILES CC(=O)Oc1c(Cl)cc(-c2ccccc2)cc1C(=O)NCCCCCCNC(=O)c1ccc(-c2c3nc(c(-c4cccc(S(=O)(=O)[O-])c4F)c4ccc([nH]4)c(-c4cccc(S(=O)(=O)[O-])c4F)c4nc(c(-c5cccc(S(=O)(=O)[O-])c5F)c5ccc2[nH]5)C=C4)C=C3)cc1
REMARK SMILES IDX 24 1 23 2 22 3 21 4 20 5 18 6 19 7 17 9 5 10 6 11 7 12 8 13
REMARK SMILES IDX 16 14 9 15 4 16 2 17 1 18 3 19 10 20 11 21 15 22 12 23 14 24
REMARK SMILES IDX 13 25 25 26 26 27 27 28 28 29 29 31 30 32 31 33 92 34 32 35
REMARK SMILES IDX 91 36 33 37 34 38 35 39 85 40 36 41 90 42 84 43 86 44 37 45
REMARK SMILES IDX 89 46 83 47 82 48 38 50 70 51 50 52 69 53 51 54 54 55 68 56
REMARK SMILES IDX 87 57 52 58 53 59 67 61 88 62 55 63 39 64 40 65 48 66 41 67
REMARK SMILES IDX 43 68 49 69 42 70 44 71 45 72 46 73 47 74 71 75 72 76 80 77
REMARK SMILES IDX 73 78 75 79 81 80 74 81 76 82 77 83 78 84 79 85 56 86 57 87
REMARK SMILES IDX 65 88 58 89 60 90 66 91 59 92 61 93 62 94 63 95 64 96
REMARK H PARENT 20 8 27 30 86 49 54 60
REMARK Flexibility Score: inf
ROOT
ATOM      1  C   UNL A   1      31.269  27.296  26.225  1.00  0.00     0.002 C 
ENDROOT
BRANCH   1   2
ATOM      2  C   UNL A   1      30.402  26.159  25.681  1.00  0.00     0.002 C 
BRANCH   2   3
ATOM      3  C   UNL A   1      30.476  25.828  24.192  1.00  0.00     0.021 C 
BRANCH   3   4
ATOM      4  C   UNL A   1      30.435  24.369  23.761  1.00  0.00     0.116 C 
BRANCH   4   5
ATOM      5  N   UNL A   1      31.376  23.964  22.757  1.00  0.00    -0.352 N 
ATOM      6  C   UNL A   1      32.454  23.115  22.836  1.00  0.00     0.255 C 
ATOM      7  O   UNL A   1      33.085  22.970  21.782  1.00  0.00    -0.269 OA
ATOM      8  H   UNL A   1      31.225  24.357  21.867  1.00  0.00     0.163 HD
BRANCH   6   9
ATOM      9  C   UNL A   1      32.960  22.389  24.061  1.00  0.00     0.084 A 
ATOM     10  C   UNL A   1      33.279  22.891  25.337  1.00  0.00     0.162 A 
ATOM     11  C   UNL A   1      33.535  21.998  26.406  1.00  0.00     0.085 A 
ATOM     12  Cl  UNL A   1      33.762  22.542  28.038  1.00  0.00    -0.080 Cl
ATOM     13  C   UNL A   1      33.554  20.621  26.206  1.00  0.00     0.033 A 
ATOM     14  C   UNL A   1      32.982  20.974  23.903  1.00  0.00     0.026 A 
ATOM     15  C   UNL A   1      33.272  20.080  24.952  1.00  0.00    -0.016 A 
BRANCH  10  16
ATOM     16  O   UNL A   1      33.273  24.258  25.649  1.00  0.00    -0.424 OA
BRANCH  16  17
ATOM     17  C   UNL A   1      34.438  24.904  25.214  1.00  0.00     0.308 C 
ATOM     18  C   UNL A   1      34.092  26.019  24.274  1.00  0.00     0.139 C 
ATOM     19  O   UNL A   1      35.587  24.543  25.450  1.00  0.00    -0.252 OA
ENDBRANCH  16  17
ENDBRANCH  10  16
BRANCH  15  20
ATOM     20  C   UNL A   1      33.231  18.618  24.781  1.00  0.00    -0.018 A 
ATOM     21  C   UNL A   1      32.631  17.804  25.760  1.00  0.00     0.009 A 
ATOM     22  C   UNL A   1      33.820  17.990  23.674  1.00  0.00     0.009 A 
ATOM     23  C   UNL A   1      32.634  16.412  25.648  1.00  0.00     0.001 A 
ATOM     24  C   UNL A   1      33.825  16.595  23.561  1.00  0.00     0.001 A 
ATOM     25  C   UNL A   1      33.237  15.808  24.549  1.00  0.00     0.000 A 
ENDBRANCH  15  20
ENDBRANCH   6   9
ENDBRANCH   4   5
ENDBRANCH   3   4
ENDBRANCH   2   3
ENDBRANCH   1   2
BRANCH   1  26
ATOM     26  C   UNL A   1      31.493  28.527  25.344  1.00  0.00     0.021 C 
BRANCH  26  27
ATOM     27  C   UNL A   1      32.710  29.395  25.649  1.00  0.00     0.116 C 
BRANCH  27  28
ATOM     28  N   UNL A   1      32.368  30.771  25.957  1.00  0.00    -0.352 N 
ATOM     29  C   UNL A   1      32.900  31.627  26.890  1.00  0.00     0.251 C 
ATOM     30  H   UNL A   1      31.640  31.150  25.413  1.00  0.00     0.163 HD
ATOM     31  O   UNL A   1      32.366  32.719  27.079  1.00  0.00    -0.269 OA
BRANCH  29  32
ATOM     32  C   UNL A   1      34.093  31.248  27.685  1.00  0.00     0.039 A 
ATOM     33  C   UNL A   1      34.199  29.931  28.143  1.00  0.00     0.014 A 
ATOM     34  C   UNL A   1      35.083  32.179  28.014  1.00  0.00     0.014 A 
ATOM     35  C   UNL A   1      35.320  29.532  28.878  1.00  0.00     0.010 A 
ATOM     36  C   UNL A   1      36.230  31.766  28.695  1.00  0.00     0.010 A 
ATOM     37  C   UNL A   1      36.361  30.440  29.135  1.00  0.00    -0.014 A 
BRANCH  37  38
ATOM     38  C   UNL A   1      37.598  30.012  29.842  1.00  0.00     0.031 A 
ATOM     39  C   UNL A   1      37.924  30.552  31.209  1.00  0.00     0.074 A 
ATOM     40  C   UNL A   1      38.475  29.202  29.215  1.00  0.00     0.049 A 
ATOM     41  N   UNL A   1      38.984  30.342  31.947  1.00  0.00    -0.248 NA
ATOM     42  C   UNL A   1      36.942  31.465  31.818  1.00  0.00     0.031 C 
ATOM     43  C   UNL A   1      38.311  28.667  27.862  1.00  0.00     0.029 A 
ATOM     44  N   UNL A   1      39.692  28.713  29.620  1.00  0.00    -0.354 N 
ATOM     45  C   UNL A   1      38.815  31.117  33.088  1.00  0.00     0.074 A 
ATOM     46  C   UNL A   1      37.562  31.825  32.933  1.00  0.00     0.031 C 
ATOM     47  C   UNL A   1      39.385  27.925  27.549  1.00  0.00     0.029 A 
ATOM     48  C   UNL A   1      40.328  27.956  28.663  1.00  0.00     0.049 A 
ATOM     49  H   UNL A   1      40.074  28.886  30.511  1.00  0.00     0.167 HD
ATOM     50  C   UNL A   1      39.613  31.213  34.179  1.00  0.00     0.034 A 
ATOM     51  C   UNL A   1      41.537  27.361  28.675  1.00  0.00     0.034 A 
ATOM     52  C   UNL A   1      40.837  30.476  34.351  1.00  0.00     0.049 A 
ATOM     53  C   UNL A   1      42.391  27.457  29.910  1.00  0.00     0.074 A 
ATOM     54  C   UNL A   1      41.670  30.437  35.455  1.00  0.00     0.029 A 
ATOM     55  N   UNL A   1      41.409  29.653  33.392  1.00  0.00    -0.354 N 
ATOM     56  N   UNL A   1      42.138  28.068  31.042  1.00  0.00    -0.248 NA
ATOM     57  C   UNL A   1      43.682  26.753  29.884  1.00  0.00     0.031 C 
ATOM     58  C   UNL A   1      42.756  29.607  35.157  1.00  0.00     0.029 A 
ATOM     59  C   UNL A   1      42.588  29.112  33.874  1.00  0.00     0.049 A 
ATOM     60  H   UNL A   1      41.031  29.480  32.499  1.00  0.00     0.167 HD
ATOM     61  C   UNL A   1      43.218  27.795  31.873  1.00  0.00     0.074 A 
ATOM     62  C   UNL A   1      44.119  26.945  31.121  1.00  0.00     0.031 C 
ATOM     63  C   UNL A   1      43.451  28.223  33.138  1.00  0.00     0.034 A 
BRANCH  50  64
ATOM     64  C   UNL A   1      39.160  32.106  35.304  1.00  0.00     0.023 A 
ATOM     65  C   UNL A   1      38.228  31.619  36.243  1.00  0.00     0.012 A 
ATOM     66  C   UNL A   1      39.699  33.397  35.473  1.00  0.00     0.148 A 
ATOM     67  C   UNL A   1      37.814  32.412  37.312  1.00  0.00     0.002 A 
ATOM     68  C   UNL A   1      39.313  34.166  36.566  1.00  0.00     0.091 A 
ATOM     69  F   UNL A   1      40.569  33.852  34.560  1.00  0.00    -0.205 F 
ATOM     70  C   UNL A   1      38.364  33.680  37.479  1.00  0.00     0.022 A 
BRANCH  68  71
ATOM     71  S   UNL A   1      40.021  35.782  36.911  1.00  0.00     0.127 S 
ATOM     72  O   UNL A   1      39.634  36.533  35.717  1.00  0.00    -0.237 OA
ATOM     73  O   UNL A   1      39.315  36.173  38.132  1.00  0.00    -0.237 OA
ATOM     74  O   UNL A   1      41.450  35.565  37.079  1.00  0.00    -0.744 OA
ENDBRANCH  68  71
ENDBRANCH  50  64
BRANCH  51  75
ATOM     75  C   UNL A   1      41.984  26.564  27.497  1.00  0.00     0.023 A 
ATOM     76  C   UNL A   1      42.725  27.196  26.478  1.00  0.00     0.012 A 
ATOM     77  C   UNL A   1      41.712  25.186  27.396  1.00  0.00     0.148 A 
ATOM     78  C   UNL A   1      43.161  26.476  25.365  1.00  0.00     0.002 A 
ATOM     79  C   UNL A   1      42.198  24.463  26.311  1.00  0.00     0.091 A 
ATOM     80  F   UNL A   1      40.995  24.606  28.367  1.00  0.00    -0.205 F 
ATOM     81  C   UNL A   1      42.908  25.110  25.287  1.00  0.00     0.022 A 
BRANCH  79  82
ATOM     82  S   UNL A   1      42.036  22.677  26.200  1.00  0.00     0.127 S 
ATOM     83  O   UNL A   1      42.740  22.391  24.951  1.00  0.00    -0.237 OA
ATOM     84  O   UNL A   1      42.728  22.235  27.412  1.00  0.00    -0.237 OA
ATOM     85  O   UNL A   1      40.606  22.414  26.199  1.00  0.00    -0.744 OA
ENDBRANCH  79  82
ENDBRANCH  51  75
BRANCH  63  86
ATOM     86  C   UNL A   1      44.716  27.759  33.813  1.00  0.00     0.023 A 
ATOM     87  C   UNL A   1      45.869  28.567  33.767  1.00  0.00     0.012 A 
ATOM     88  C   UNL A   1      44.738  26.562  34.557  1.00  0.00     0.148 A 
ATOM     89  C   UNL A   1      47.034  28.177  34.426  1.00  0.00     0.002 A 
ATOM     90  C   UNL A   1      45.888  26.204  35.251  1.00  0.00     0.091 A 
ATOM     91  F   UNL A   1      43.636  25.798  34.572  1.00  0.00    -0.205 F 
ATOM     92  C   UNL A   1      47.040  27.004  35.178  1.00  0.00     0.022 A 
BRANCH  90  93
ATOM     93  S   UNL A   1      45.959  24.761  36.318  1.00  0.00     0.127 S 
ATOM     94  O   UNL A   1      45.217  25.221  37.491  1.00  0.00    -0.237 OA
ATOM     95  O   UNL A   1      45.268  23.748  35.519  1.00  0.00    -0.237 OA
ATOM     96  O   UNL A   1      47.374  24.494  36.538  1.00  0.00    -0.744 OA
ENDBRANCH  90  93
ENDBRANCH  63  86
ENDBRANCH  37  38
ENDBRANCH  29  32
ENDBRANCH  27  28
ENDBRANCH  26  27
ENDBRANCH   1  26
TORSDOF 19
ENDMDL
MODEL 3
REMARK VINA RESULT:     -12.0      2.593      3.565
REMARK SMILES CC(=O)Oc1c(Cl)cc(-c2ccccc2)cc1C(=O)NCCCCCCNC(=O)c1ccc(-c2c3nc(c(-c4cccc(S(=O)(=O)[O-])c4F)c4ccc([nH]4)c(-c4cccc(S(=O)(=O)[O-])c4F)c4nc(c(-c5cccc(S(=O)(=O)[O-])c5F)c5ccc2[nH]5)C=C4)C=C3)cc1
REMARK SMILES IDX 24 1 23 2 22 3 21 4 20 5 18 6 19 7 17 9 5 10 6 11 7 12 8 13
REMARK SMILES IDX 16 14 9 15 4 16 2 17 1 18 3 19 10 20 11 21 15 22 12 23 14 24
REMARK SMILES IDX 13 25 25 26 26 27 27 28 28 29 29 31 30 32 31 33 92 34 32 35
REMARK SMILES IDX 91 36 33 37 34 38 35 39 85 40 36 41 90 42 84 43 86 44 37 45
REMARK SMILES IDX 89 46 83 47 82 48 38 50 70 51 50 52 69 53 51 54 54 55 68 56
REMARK SMILES IDX 87 57 52 58 53 59 67 61 88 62 55 63 39 64 40 65 48 66 41 67
REMARK SMILES IDX 43 68 49 69 42 70 44 71 45 72 46 73 47 74 71 75 72 76 80 77
REMARK SMILES IDX 73 78 75 79 81 80 74 81 76 82 77 83 78 84 79 85 56 86 57 87
REMARK SMILES IDX 65 88 58 89 60 90 66 91 59 92 61 93 62 94 63 95 64 96
REMARK H PARENT 20 8 27 30 86 49 54 60
REMARK Flexibility Score: inf
ROOT
ATOM      1  C   UNL A   1      31.374  31.002  25.964  1.00  0.00     0.002 C 
ENDROOT
BRANCH   1   2
ATOM      2  C   UNL A   1      32.252  29.772  25.725  1.00  0.00     0.002 C 
BRANCH   2   3
ATOM      3  C   UNL A   1      32.456  29.284  24.292  1.00  0.00     0.021 C 
BRANCH   3   4
ATOM      4  C   UNL A   1      33.539  28.253  24.013  1.00  0.00     0.116 C 
BRANCH   4   5
ATOM      5  N   UNL A   1      33.454  27.542  22.770  1.00  0.00    -0.352 N 
ATOM      6  C   UNL A   1      33.319  26.198  22.519  1.00  0.00     0.255 C 
ATOM      7  O   UNL A   1      33.279  25.890  21.321  1.00  0.00    -0.269 OA
ATOM      8  H   UNL A   1      33.499  28.110  21.967  1.00  0.00     0.163 HD
BRANCH   6   9
ATOM      9  C   UNL A   1      33.255  25.079  23.533  1.00  0.00     0.084 A 
ATOM     10  C   UNL A   1      32.140  24.389  24.044  1.00  0.00     0.162 A 
ATOM     11  C   UNL A   1      32.325  23.228  24.832  1.00  0.00     0.085 A 
ATOM     12  Cl  UNL A   1      31.001  22.233  25.348  1.00  0.00    -0.080 Cl
ATOM     13  C   UNL A   1      33.599  22.788  25.179  1.00  0.00     0.033 A 
ATOM     14  C   UNL A   1      34.540  24.589  23.905  1.00  0.00     0.026 A 
ATOM     15  C   UNL A   1      34.733  23.456  24.719  1.00  0.00    -0.016 A 
BRANCH  10  16
ATOM     16  O   UNL A   1      30.816  24.739  23.743  1.00  0.00    -0.424 OA
BRANCH  16  17
ATOM     17  C   UNL A   1      30.477  26.005  24.243  1.00  0.00     0.308 C 
ATOM     18  C   UNL A   1      30.337  25.952  25.734  1.00  0.00     0.139 C 
ATOM     19  O   UNL A   1      30.203  26.991  23.566  1.00  0.00    -0.252 OA
ENDBRANCH  16  17
ENDBRANCH  10  16
BRANCH  15  20
ATOM     20  C   UNL A   1      36.070  22.932  25.043  1.00  0.00    -0.018 A 
ATOM     21  C   UNL A   1      36.435  21.627  24.661  1.00  0.00     0.009 A 
ATOM     22  C   UNL A   1      36.999  23.687  25.774  1.00  0.00     0.009 A 
ATOM     23  C   UNL A   1      37.675  21.088  25.010  1.00  0.00     0.001 A 
ATOM     24  C   UNL A   1      38.241  23.148  26.126  1.00  0.00     0.001 A 
ATOM     25  C   UNL A   1      38.577  21.849  25.748  1.00  0.00     0.000 A 
ENDBRANCH  15  20
ENDBRANCH   6   9
ENDBRANCH   4   5
ENDBRANCH   3   4
ENDBRANCH   2   3
ENDBRANCH   1   2
BRANCH   1  26
ATOM     26  C   UNL A   1      31.707  31.916  27.147  1.00  0.00     0.021 C 
BRANCH  26  27
ATOM     27  C   UNL A   1      32.798  32.961  26.937  1.00  0.00     0.116 C 
BRANCH  27  28
ATOM     28  N   UNL A   1      32.542  34.204  27.645  1.00  0.00    -0.352 N 
ATOM     29  C   UNL A   1      33.114  34.704  28.788  1.00  0.00     0.251 C 
ATOM     30  H   UNL A   1      31.850  34.776  27.242  1.00  0.00     0.163 HD
ATOM     31  O   UNL A   1      32.651  35.723  29.297  1.00  0.00    -0.269 OA
BRANCH  29  32
ATOM     32  C   UNL A   1      34.267  34.025  29.428  1.00  0.00     0.039 A 
ATOM     33  C   UNL A   1      35.559  34.433  29.082  1.00  0.00     0.014 A 
ATOM     34  C   UNL A   1      34.091  32.972  30.330  1.00  0.00     0.014 A 
ATOM     35  C   UNL A   1      36.669  33.828  29.680  1.00  0.00     0.010 A 
ATOM     36  C   UNL A   1      35.196  32.411  30.972  1.00  0.00     0.010 A 
ATOM     37  C   UNL A   1      36.496  32.832  30.654  1.00  0.00    -0.014 A 
BRANCH  37  38
ATOM     38  C   UNL A   1      37.662  32.236  31.362  1.00  0.00     0.031 A 
ATOM     39  C   UNL A   1      38.430  31.096  30.748  1.00  0.00     0.074 A 
ATOM     40  C   UNL A   1      37.977  32.666  32.600  1.00  0.00     0.049 A 
ATOM     41  N   UNL A   1      39.429  30.413  31.245  1.00  0.00    -0.248 NA
ATOM     42  C   UNL A   1      38.006  30.649  29.411  1.00  0.00     0.031 C 
ATOM     43  C   UNL A   1      37.267  33.716  33.335  1.00  0.00     0.029 A 
ATOM     44  N   UNL A   1      38.954  32.254  33.472  1.00  0.00    -0.354 N 
ATOM     45  C   UNL A   1      39.734  29.439  30.302  1.00  0.00     0.074 A 
ATOM     46  C   UNL A   1      38.793  29.601  29.214  1.00  0.00     0.031 C 
ATOM     47  C   UNL A   1      37.831  33.864  34.545  1.00  0.00     0.029 A 
ATOM     48  C   UNL A   1      38.920  32.903  34.685  1.00  0.00     0.049 A 
ATOM     49  H   UNL A   1      39.616  31.560  33.251  1.00  0.00     0.167 HD
ATOM     50  C   UNL A   1      40.720  28.511  30.324  1.00  0.00     0.034 A 
ATOM     51  C   UNL A   1      39.674  32.737  35.791  1.00  0.00     0.034 A 
ATOM     52  C   UNL A   1      41.682  28.379  31.388  1.00  0.00     0.049 A 
ATOM     53  C   UNL A   1      40.783  31.721  35.778  1.00  0.00     0.074 A 
ATOM     54  C   UNL A   1      42.771  27.529  31.462  1.00  0.00     0.029 A 
ATOM     55  N   UNL A   1      41.666  29.110  32.566  1.00  0.00    -0.354 N 
ATOM     56  N   UNL A   1      41.154  30.916  34.811  1.00  0.00    -0.248 NA
ATOM     57  C   UNL A   1      41.601  31.612  36.995  1.00  0.00     0.031 C 
ATOM     58  C   UNL A   1      43.403  27.732  32.693  1.00  0.00     0.029 A 
ATOM     59  C   UNL A   1      42.719  28.724  33.377  1.00  0.00     0.049 A 
ATOM     60  H   UNL A   1      41.003  29.803  32.792  1.00  0.00     0.167 HD
ATOM     61  C   UNL A   1      42.266  30.233  35.289  1.00  0.00     0.074 A 
ATOM     62  C   UNL A   1      42.522  30.733  36.624  1.00  0.00     0.031 C 
ATOM     63  C   UNL A   1      42.998  29.267  34.683  1.00  0.00     0.034 A 
BRANCH  50  64
ATOM     64  C   UNL A   1      40.851  27.597  29.134  1.00  0.00     0.023 A 
ATOM     65  C   UNL A   1      40.076  26.421  29.074  1.00  0.00     0.012 A 
ATOM     66  C   UNL A   1      41.686  27.929  28.048  1.00  0.00     0.148 A 
ATOM     67  C   UNL A   1      40.155  25.573  27.971  1.00  0.00     0.002 A 
ATOM     68  C   UNL A   1      41.727  27.099  26.933  1.00  0.00     0.091 A 
ATOM     69  F   UNL A   1      42.432  29.041  28.130  1.00  0.00    -0.205 F 
ATOM     70  C   UNL A   1      40.970  25.917  26.897  1.00  0.00     0.022 A 
BRANCH  68  71
ATOM     71  S   UNL A   1      42.688  27.494  25.466  1.00  0.00     0.127 S 
ATOM     72  O   UNL A   1      42.436  26.325  24.626  1.00  0.00    -0.237 OA
ATOM     73  O   UNL A   1      42.049  28.727  25.003  1.00  0.00    -0.237 OA
ATOM     74  O   UNL A   1      44.061  27.657  25.920  1.00  0.00    -0.744 OA
ENDBRANCH  68  71
ENDBRANCH  50  64
BRANCH  51  75
ATOM     75  C   UNL A   1      39.444  33.603  36.982  1.00  0.00     0.023 A 
ATOM     76  C   UNL A   1      39.873  34.945  36.952  1.00  0.00     0.012 A 
ATOM     77  C   UNL A   1      38.775  33.121  38.123  1.00  0.00     0.148 A 
ATOM     78  C   UNL A   1      39.668  35.782  38.049  1.00  0.00     0.002 A 
ATOM     79  C   UNL A   1      38.524  33.976  39.191  1.00  0.00     0.091 A 
ATOM     80  F   UNL A   1      38.387  31.839  38.138  1.00  0.00    -0.205 F 
ATOM     81  C   UNL A   1      38.985  35.302  39.163  1.00  0.00     0.022 A 
BRANCH  79  82
ATOM     82  S   UNL A   1      37.533  33.478  40.605  1.00  0.00     0.127 S 
ATOM     83  O   UNL A   1      37.440  34.727  41.358  1.00  0.00    -0.237 OA
ATOM     84  O   UNL A   1      36.287  33.051  39.964  1.00  0.00    -0.237 OA
ATOM     85  O   UNL A   1      38.275  32.404  41.244  1.00  0.00    -0.744 OA
ENDBRANCH  79  82
ENDBRANCH  51  75
BRANCH  63  86
ATOM     86  C   UNL A   1      44.171  28.698  35.438  1.00  0.00     0.023 A 
ATOM     87  C   UNL A   1      45.456  29.245  35.248  1.00  0.00     0.012 A 
ATOM     88  C   UNL A   1      43.989  27.676  36.391  1.00  0.00     0.148 A 
ATOM     89  C   UNL A   1      46.545  28.765  35.974  1.00  0.00     0.002 A 
ATOM     90  C   UNL A   1      45.070  27.235  37.145  1.00  0.00     0.091 A 
ATOM     91  F   UNL A   1      42.762  27.156  36.544  1.00  0.00    -0.205 F 
ATOM     92  C   UNL A   1      46.351  27.770  36.930  1.00  0.00     0.022 A 
BRANCH  90  93
ATOM     93  S   UNL A   1      44.897  26.026  38.462  1.00  0.00     0.127 S 
ATOM     94  O   UNL A   1      43.960  26.697  39.362  1.00  0.00    -0.237 OA
ATOM     95  O   UNL A   1      44.343  24.872  37.754  1.00  0.00    -0.237 OA
ATOM     96  O   UNL A   1      46.238  25.820  38.995  1.00  0.00    -0.744 OA
ENDBRANCH  90  93
ENDBRANCH  63  86
ENDBRANCH  37  38
ENDBRANCH  29  32
ENDBRANCH  27  28
ENDBRANCH  26  27
ENDBRANCH   1  26
TORSDOF 19
ENDMDL
