MODEL 1
REMARK VINA RESULT:     -12.9      0.000      0.000
REMARK SMILES Cc1cccc(C[N@H+]2CC[C@@](C)(C(=O)NCCCCCCNC(=O)c3ccc(-c4c5nc(c(-c6cccc(S(=O)(=O)[O-])c6F)c6ccc([nH]6)c(-c6cccc(S(=O)(=O)[O-])c6F)c6nc(c(-c7cccc(S(=O)(=O)[O-])c7F)c7ccc4[nH]7)C=C6)C=C5)cc3)C2)n1
REMARK SMILES IDX 19 1 18 2 17 3 16 4 15 5 13 6 14 7 11 9 8 10 9 11 88 12
REMARK SMILES IDX 10 14 12 15 7 16 6 17 1 18 2 19 3 20 89 21 4 22 5 23 20 24
REMARK SMILES IDX 21 25 22 26 23 27 24 29 25 30 26 31 87 32 27 33 86 34 28 35
REMARK SMILES IDX 29 36 30 37 80 38 31 39 85 40 79 41 81 42 32 43 84 44 78 45
REMARK SMILES IDX 77 46 33 48 65 49 45 50 64 51 46 52 49 53 63 54 82 55 47 56
REMARK SMILES IDX 48 57 62 59 83 60 50 61 34 62 35 63 43 64 36 65 38 66 44 67
REMARK SMILES IDX 37 68 39 69 40 70 41 71 42 72 66 73 67 74 75 75 68 76 70 77
REMARK SMILES IDX 76 78 69 79 71 80 72 81 73 82 74 83 51 84 52 85 60 86 53 87
REMARK SMILES IDX 55 88 61 89 54 90 56 91 57 92 58 93 59 94
REMARK H PARENT 15 8 8 13 22 28 81 47 49 58
REMARK Flexibility Score: inf
ROOT
ATOM      1  C   UNL A   1      31.889  28.303  26.979  1.00  0.00     0.002 C 
ENDROOT
BRANCH   1   2
ATOM      2  C   UNL A   1      33.323  27.811  26.681  1.00  0.00     0.002 C 
BRANCH   2   3
ATOM      3  C   UNL A   1      33.678  27.070  25.112  1.00  0.00     0.021 C 
BRANCH   3   4
ATOM      4  C   UNL A   1      33.965  24.989  24.510  1.00  0.00     0.116 C 
BRANCH   4   5
ATOM      5  N   UNL A   1      34.887  24.297  23.469  1.00  0.00    -0.355 N 
ATOM      6  C   UNL A   1      35.836  23.347  23.661  1.00  0.00     0.231 C 
ATOM      7  O   UNL A   1      36.496  23.084  22.646  1.00  0.00    -0.274 OA
ATOM      8  H   UNL A   1      34.765  24.589  22.538  1.00  0.00     0.163 HD
BRANCH   6   9
ATOM      9  C   UNL A   1      36.016  22.548  24.993  1.00  0.00     0.100 C 
ATOM     10  N   UNL A   1      35.007  20.328  25.406  1.00  0.00    -0.329 N 
ATOM     11  C   UNL A   1      36.354  20.100  24.872  1.00  0.00     0.263 C 
ATOM     12  C   UNL A   1      34.807  21.785  25.580  1.00  0.00     0.279 C 
ATOM     13  H   UNL A   1      34.953  19.889  26.325  1.00  0.00     0.348 HD
ATOM     14  C   UNL A   1      37.080  21.450  24.831  1.00  0.00     0.084 C 
ATOM     15  C   UNL A   1      36.496  23.608  26.017  1.00  0.00     0.028 C 
BRANCH  10  16
ATOM     16  C   UNL A   1      33.893  19.586  24.730  1.00  0.00     0.319 C 
BRANCH  16  17
ATOM     17  C   UNL A   1      32.608  20.402  24.402  1.00  0.00     0.095 A 
ATOM     18  C   UNL A   1      30.173  22.994  26.963  1.00  0.00     0.067 C 
ATOM     19  C   UNL A   1      30.899  22.570  25.730  1.00  0.00     0.038 A 
ATOM     20  C   UNL A   1      30.892  23.537  24.198  1.00  0.00     0.023 A 
ATOM     21  N   UNL A   1      31.796  21.067  25.824  1.00  0.00    -0.252 NA
ATOM     22  C   UNL A   1      31.678  22.838  22.729  1.00  0.00     0.004 A 
ATOM     23  C   UNL A   1      32.584  21.282  22.852  1.00  0.00     0.030 A 
ENDBRANCH  16  17
ENDBRANCH  10  16
ENDBRANCH   6   9
ENDBRANCH   4   5
ENDBRANCH   3   4
ENDBRANCH   2   3
ENDBRANCH   1   2
BRANCH   1  24
ATOM     24  C   UNL A   1      31.736  29.810  26.922  1.00  0.00     0.021 C 
BRANCH  24  25
ATOM     25  C   UNL A   1      33.037  30.468  26.520  1.00  0.00     0.116 C 
BRANCH  25  26
ATOM     26  N   UNL A   1      32.948  31.908  26.762  1.00  0.00    -0.352 N 
ATOM     27  C   UNL A   1      33.681  32.599  27.693  1.00  0.00     0.251 C 
ATOM     28  H   UNL A   1      32.313  32.422  26.212  1.00  0.00     0.163 HD
ATOM     29  O   UNL A   1      33.301  33.651  28.184  1.00  0.00    -0.269 OA
BRANCH  27  30
ATOM     30  C   UNL A   1      34.962  31.977  28.057  1.00  0.00     0.039 A 
ATOM     31  C   UNL A   1      36.117  32.749  28.138  1.00  0.00     0.014 A 
ATOM     32  C   UNL A   1      34.913  30.664  28.543  1.00  0.00     0.014 A 
ATOM     33  C   UNL A   1      37.237  32.200  28.755  1.00  0.00     0.010 A 
ATOM     34  C   UNL A   1      35.979  30.183  29.275  1.00  0.00     0.010 A 
ATOM     35  C   UNL A   1      37.162  30.929  29.354  1.00  0.00    -0.014 A 
BRANCH  35  36
ATOM     36  C   UNL A   1      38.326  30.321  30.033  1.00  0.00     0.031 A 
ATOM     37  C   UNL A   1      38.688  30.800  31.412  1.00  0.00     0.074 A 
ATOM     38  C   UNL A   1      39.082  29.410  29.393  1.00  0.00     0.049 A 
ATOM     39  N   UNL A   1      39.713  30.476  32.151  1.00  0.00    -0.248 NA
ATOM     40  C   UNL A   1      37.797  31.802  32.031  1.00  0.00     0.031 C 
ATOM     41  C   UNL A   1      38.862  28.928  28.025  1.00  0.00     0.029 A 
ATOM     42  N   UNL A   1      40.209  28.744  29.800  1.00  0.00    -0.354 N 
ATOM     43  C   UNL A   1      39.602  31.244  33.302  1.00  0.00     0.074 A 
ATOM     44  C   UNL A   1      38.448  32.098  33.144  1.00  0.00     0.031 C 
ATOM     45  C   UNL A   1      39.819  28.040  27.713  1.00  0.00     0.029 A 
ATOM     46  C   UNL A   1      40.746  27.928  28.833  1.00  0.00     0.049 A 
ATOM     47  H   UNL A   1      40.597  28.843  30.699  1.00  0.00     0.167 HD
ATOM     48  C   UNL A   1      40.369  31.212  34.414  1.00  0.00     0.034 A 
ATOM     49  C   UNL A   1      41.878  27.197  28.844  1.00  0.00     0.034 A 
ATOM     50  C   UNL A   1      41.495  30.340  34.575  1.00  0.00     0.049 A 
ATOM     51  C   UNL A   1      42.724  27.196  30.090  1.00  0.00     0.074 A 
ATOM     52  C   UNL A   1      42.308  30.187  35.683  1.00  0.00     0.029 A 
ATOM     53  N   UNL A   1      41.975  29.484  33.599  1.00  0.00    -0.354 N 
ATOM     54  N   UNL A   1      42.523  27.823  31.224  1.00  0.00    -0.248 NA
ATOM     55  C   UNL A   1      43.939  26.368  30.069  1.00  0.00     0.031 C 
ATOM     56  C   UNL A   1      43.306  29.263  35.362  1.00  0.00     0.029 A 
ATOM     57  C   UNL A   1      43.086  28.809  34.071  1.00  0.00     0.049 A 
ATOM     58  H   UNL A   1      41.584  29.371  32.702  1.00  0.00     0.167 HD
ATOM     59  C   UNL A   1      43.567  27.441  32.059  1.00  0.00     0.074 A 
ATOM     60  C   UNL A   1      44.377  26.502  31.312  1.00  0.00     0.031 C 
ATOM     61  C   UNL A   1      43.846  27.843  33.324  1.00  0.00     0.034 A 
BRANCH  48  62
ATOM     62  C   UNL A   1      39.984  32.107  35.560  1.00  0.00     0.023 A 
ATOM     63  C   UNL A   1      40.586  33.376  35.684  1.00  0.00     0.012 A 
ATOM     64  C   UNL A   1      38.977  31.725  36.466  1.00  0.00     0.148 A 
ATOM     65  C   UNL A   1      40.205  34.245  36.705  1.00  0.00     0.002 A 
ATOM     66  C   UNL A   1      38.568  32.616  37.450  1.00  0.00     0.091 A 
ATOM     67  F   UNL A   1      38.436  30.505  36.341  1.00  0.00    -0.205 F 
ATOM     68  C   UNL A   1      39.188  33.870  37.578  1.00  0.00     0.022 A 
BRANCH  66  69
ATOM     69  S   UNL A   1      37.213  32.263  38.574  1.00  0.00     0.127 S 
ATOM     70  O   UNL A   1      36.105  32.964  37.927  1.00  0.00    -0.237 OA
ATOM     71  O   UNL A   1      37.136  30.804  38.506  1.00  0.00    -0.237 OA
ATOM     72  O   UNL A   1      37.610  32.798  39.868  1.00  0.00    -0.744 OA
ENDBRANCH  66  69
ENDBRANCH  48  62
BRANCH  49  73
ATOM     73  C   UNL A   1      42.287  26.410  27.646  1.00  0.00     0.023 A 
ATOM     74  C   UNL A   1      43.016  27.029  26.611  1.00  0.00     0.012 A 
ATOM     75  C   UNL A   1      41.929  25.054  27.515  1.00  0.00     0.148 A 
ATOM     76  C   UNL A   1      43.327  26.329  25.444  1.00  0.00     0.002 A 
ATOM     77  C   UNL A   1      42.299  24.344  26.380  1.00  0.00     0.091 A 
ATOM     78  F   UNL A   1      41.230  24.482  28.506  1.00  0.00    -0.205 F 
ATOM     79  C   UNL A   1      42.974  24.986  25.331  1.00  0.00     0.022 A 
BRANCH  77  80
ATOM     80  S   UNL A   1      42.002  22.582  26.214  1.00  0.00     0.127 S 
ATOM     81  O   UNL A   1      42.616  22.295  24.920  1.00  0.00    -0.237 OA
ATOM     82  O   UNL A   1      42.718  22.045  27.370  1.00  0.00    -0.237 OA
ATOM     83  O   UNL A   1      40.555  22.417  26.278  1.00  0.00    -0.744 OA
ENDBRANCH  77  80
ENDBRANCH  49  73
BRANCH  61  84
ATOM     84  C   UNL A   1      45.052  27.244  33.995  1.00  0.00     0.023 A 
ATOM     85  C   UNL A   1      46.286  27.925  33.963  1.00  0.00     0.012 A 
ATOM     86  C   UNL A   1      44.940  26.045  34.726  1.00  0.00     0.148 A 
ATOM     87  C   UNL A   1      47.398  27.403  34.619  1.00  0.00     0.002 A 
ATOM     88  C   UNL A   1      46.037  25.561  35.424  1.00  0.00     0.091 A 
ATOM     89  F   UNL A   1      43.758  25.412  34.735  1.00  0.00    -0.205 F 
ATOM     90  C   UNL A   1      47.270  26.229  35.359  1.00  0.00     0.022 A 
BRANCH  88  91
ATOM     91  S   UNL A   1      45.947  24.111  36.480  1.00  0.00     0.127 S 
ATOM     92  O   UNL A   1      45.347  24.664  37.693  1.00  0.00    -0.237 OA
ATOM     93  O   UNL A   1      45.070  23.228  35.712  1.00  0.00    -0.237 OA
ATOM     94  O   UNL A   1      47.314  23.632  36.629  1.00  0.00    -0.744 OA
ENDBRANCH  88  91
ENDBRANCH  61  84
ENDBRANCH  35  36
ENDBRANCH  27  30
ENDBRANCH  25  26
ENDBRANCH  24  25
ENDBRANCH   1  24
TORSDOF 18
ENDMDL
MODEL 2
REMARK VINA RESULT:     -12.9      2.839      8.726
REMARK SMILES Cc1cccc(C[N@H+]2CC[C@@](C)(C(=O)NCCCCCCNC(=O)c3ccc(-c4c5nc(c(-c6cccc(S(=O)(=O)[O-])c6F)c6ccc([nH]6)c(-c6cccc(S(=O)(=O)[O-])c6F)c6nc(c(-c7cccc(S(=O)(=O)[O-])c7F)c7ccc4[nH]7)C=C6)C=C5)cc3)C2)n1
REMARK SMILES IDX 19 1 18 2 17 3 16 4 15 5 13 6 14 7 11 9 8 10 9 11 88 12
REMARK SMILES IDX 10 14 12 15 7 16 6 17 1 18 2 19 3 20 89 21 4 22 5 23 20 24
REMARK SMILES IDX 21 25 22 26 23 27 24 29 25 30 26 31 87 32 27 33 86 34 28 35
REMARK SMILES IDX 29 36 30 37 80 38 31 39 85 40 79 41 81 42 32 43 84 44 78 45
REMARK SMILES IDX 77 46 33 48 65 49 45 50 64 51 46 52 49 53 63 54 82 55 47 56
REMARK SMILES IDX 48 57 62 59 83 60 50 61 34 62 35 63 43 64 36 65 38 66 44 67
REMARK SMILES IDX 37 68 39 69 40 70 41 71 42 72 66 73 67 74 75 75 68 76 70 77
REMARK SMILES IDX 76 78 69 79 71 80 72 81 73 82 74 83 51 84 52 85 60 86 53 87
REMARK SMILES IDX 55 88 61 89 54 90 56 91 57 92 58 93 59 94
REMARK H PARENT 15 8 8 13 22 28 81 47 49 58
REMARK Flexibility Score: inf
ROOT
ATOM      1  C   UNL A   1      32.838  29.761  27.448  1.00  0.00     0.002 C 
ENDROOT
BRANCH   1   2
ATOM      2  C   UNL A   1      31.687  28.777  27.138  1.00  0.00     0.002 C 
BRANCH   2   3
ATOM      3  C   UNL A   1      32.071  27.136  26.596  1.00  0.00     0.021 C 
BRANCH   3   4
ATOM      4  C   UNL A   1      30.951  25.695  25.394  1.00  0.00     0.116 C 
BRANCH   4   5
ATOM      5  N   UNL A   1      31.257  24.257  24.894  1.00  0.00    -0.355 N 
ATOM      6  C   UNL A   1      31.770  23.852  23.705  1.00  0.00     0.231 C 
ATOM      7  O   UNL A   1      31.779  22.623  23.553  1.00  0.00    -0.274 OA
ATOM      8  H   UNL A   1      31.051  23.536  25.530  1.00  0.00     0.163 HD
BRANCH   6   9
ATOM      9  C   UNL A   1      32.416  24.819  22.658  1.00  0.00     0.100 C 
ATOM     10  N   UNL A   1      31.575  27.099  22.198  1.00  0.00    -0.329 N 
ATOM     11  C   UNL A   1      32.615  27.219  23.226  1.00  0.00     0.263 C 
ATOM     12  C   UNL A   1      31.496  25.684  21.767  1.00  0.00     0.279 C 
ATOM     13  H   UNL A   1      31.859  27.659  21.394  1.00  0.00     0.348 HD
ATOM     14  C   UNL A   1      33.309  25.858  23.355  1.00  0.00     0.084 C 
ATOM     15  C   UNL A   1      33.275  23.895  21.759  1.00  0.00     0.028 C 
BRANCH  10  16
ATOM     16  C   UNL A   1      30.269  27.771  22.498  1.00  0.00     0.319 C 
BRANCH  16  17
ATOM     17  C   UNL A   1      30.276  29.328  22.532  1.00  0.00     0.095 A 
ATOM     18  C   UNL A   1      27.883  32.220  20.271  1.00  0.00     0.067 C 
ATOM     19  C   UNL A   1      28.560  31.628  21.462  1.00  0.00     0.038 A 
ATOM     20  C   UNL A   1      28.575  32.428  23.087  1.00  0.00     0.023 A 
ATOM     21  N   UNL A   1      29.350  30.081  21.229  1.00  0.00    -0.252 NA
ATOM     22  C   UNL A   1      29.562  31.688  24.408  1.00  0.00     0.004 A 
ATOM     23  C   UNL A   1      30.376  30.100  24.136  1.00  0.00     0.030 A 
ENDBRANCH  16  17
ENDBRANCH  10  16
ENDBRANCH   6   9
ENDBRANCH   4   5
ENDBRANCH   3   4
ENDBRANCH   2   3
ENDBRANCH   1   2
BRANCH   1  24
ATOM     24  C   UNL A   1      32.513  31.204  27.121  1.00  0.00     0.021 C 
BRANCH  24  25
ATOM     25  C   UNL A   1      33.668  32.110  27.481  1.00  0.00     0.116 C 
BRANCH  25  26
ATOM     26  N   UNL A   1      33.210  33.500  27.493  1.00  0.00    -0.352 N 
ATOM     27  C   UNL A   1      33.305  34.354  28.562  1.00  0.00     0.251 C 
ATOM     28  H   UNL A   1      32.802  33.850  26.668  1.00  0.00     0.163 HD
ATOM     29  O   UNL A   1      32.554  35.306  28.715  1.00  0.00    -0.269 OA
BRANCH  27  30
ATOM     30  C   UNL A   1      34.381  34.038  29.512  1.00  0.00     0.039 A 
ATOM     31  C   UNL A   1      34.127  33.227  30.613  1.00  0.00     0.014 A 
ATOM     32  C   UNL A   1      35.685  34.379  29.126  1.00  0.00     0.014 A 
ATOM     33  C   UNL A   1      35.210  32.717  31.322  1.00  0.00     0.010 A 
ATOM     34  C   UNL A   1      36.748  33.757  29.748  1.00  0.00     0.010 A 
ATOM     35  C   UNL A   1      36.523  32.952  30.874  1.00  0.00    -0.014 A 
BRANCH  35  36
ATOM     36  C   UNL A   1      37.698  32.414  31.591  1.00  0.00     0.031 A 
ATOM     37  C   UNL A   1      38.465  31.281  30.967  1.00  0.00     0.074 A 
ATOM     38  C   UNL A   1      38.021  32.886  32.809  1.00  0.00     0.049 A 
ATOM     39  N   UNL A   1      39.464  30.598  31.457  1.00  0.00    -0.248 NA
ATOM     40  C   UNL A   1      38.034  30.833  29.628  1.00  0.00     0.031 C 
ATOM     41  C   UNL A   1      37.299  33.933  33.538  1.00  0.00     0.029 A 
ATOM     42  N   UNL A   1      39.029  32.523  33.665  1.00  0.00    -0.354 N 
ATOM     43  C   UNL A   1      39.762  29.635  30.502  1.00  0.00     0.074 A 
ATOM     44  C   UNL A   1      38.803  29.775  29.432  1.00  0.00     0.031 C 
ATOM     45  C   UNL A   1      37.894  34.133  34.725  1.00  0.00     0.029 A 
ATOM     46  C   UNL A   1      39.003  33.195  34.863  1.00  0.00     0.049 A 
ATOM     47  H   UNL A   1      39.708  31.846  33.442  1.00  0.00     0.167 HD
ATOM     48  C   UNL A   1      40.772  28.739  30.496  1.00  0.00     0.034 A 
ATOM     49  C   UNL A   1      39.770  33.046  35.960  1.00  0.00     0.034 A 
ATOM     50  C   UNL A   1      41.738  28.626  31.550  1.00  0.00     0.049 A 
ATOM     51  C   UNL A   1      40.877  32.025  35.933  1.00  0.00     0.074 A 
ATOM     52  C   UNL A   1      42.837  27.789  31.619  1.00  0.00     0.029 A 
ATOM     53  N   UNL A   1      41.716  29.363  32.722  1.00  0.00    -0.354 N 
ATOM     54  N   UNL A   1      41.231  31.219  34.962  1.00  0.00    -0.248 NA
ATOM     55  C   UNL A   1      41.705  31.909  37.142  1.00  0.00     0.031 C 
ATOM     56  C   UNL A   1      43.458  27.993  32.853  1.00  0.00     0.029 A 
ATOM     57  C   UNL A   1      42.773  28.989  33.531  1.00  0.00     0.049 A 
ATOM     58  H   UNL A   1      41.048  30.051  32.945  1.00  0.00     0.167 HD
ATOM     59  C   UNL A   1      42.341  30.525  35.430  1.00  0.00     0.074 A 
ATOM     60  C   UNL A   1      42.620  31.031  36.758  1.00  0.00     0.031 C 
ATOM     61  C   UNL A   1      43.056  29.543  34.828  1.00  0.00     0.034 A 
BRANCH  48  62
ATOM     62  C   UNL A   1      40.915  27.847  29.293  1.00  0.00     0.023 A 
ATOM     63  C   UNL A   1      40.204  26.630  29.241  1.00  0.00     0.012 A 
ATOM     64  C   UNL A   1      41.690  28.247  28.189  1.00  0.00     0.148 A 
ATOM     65  C   UNL A   1      40.277  25.815  28.113  1.00  0.00     0.002 A 
ATOM     66  C   UNL A   1      41.718  27.452  27.049  1.00  0.00     0.091 A 
ATOM     67  F   UNL A   1      42.375  29.395  28.272  1.00  0.00    -0.205 F 
ATOM     68  C   UNL A   1      41.022  26.232  27.014  1.00  0.00     0.022 A 
BRANCH  66  69
ATOM     69  S   UNL A   1      42.581  27.936  25.552  1.00  0.00     0.127 S 
ATOM     70  O   UNL A   1      42.411  26.747  24.717  1.00  0.00    -0.237 OA
ATOM     71  O   UNL A   1      41.809  29.100  25.120  1.00  0.00    -0.237 OA
ATOM     72  O   UNL A   1      43.953  28.220  25.948  1.00  0.00    -0.744 OA
ENDBRANCH  66  69
ENDBRANCH  48  62
BRANCH  49  73
ATOM     73  C   UNL A   1      39.526  33.871  37.178  1.00  0.00     0.023 A 
ATOM     74  C   UNL A   1      40.021  35.188  37.248  1.00  0.00     0.012 A 
ATOM     75  C   UNL A   1      38.827  33.343  38.281  1.00  0.00     0.148 A 
ATOM     76  C   UNL A   1      39.879  35.940  38.416  1.00  0.00     0.002 A 
ATOM     77  C   UNL A   1      38.631  34.119  39.416  1.00  0.00     0.091 A 
ATOM     78  F   UNL A   1      38.368  32.086  38.200  1.00  0.00    -0.205 F 
ATOM     79  C   UNL A   1      39.178  35.409  39.496  1.00  0.00     0.022 A 
BRANCH  77  80
ATOM     80  S   UNL A   1      37.628  33.561  40.796  1.00  0.00     0.127 S 
ATOM     81  O   UNL A   1      38.513  32.593  41.437  1.00  0.00    -0.237 OA
ATOM     82  O   UNL A   1      37.424  34.802  41.543  1.00  0.00    -0.237 OA
ATOM     83  O   UNL A   1      36.413  33.014  40.205  1.00  0.00    -0.744 OA
ENDBRANCH  77  80
ENDBRANCH  49  73
BRANCH  61  84
ATOM     84  C   UNL A   1      44.230  28.975  35.580  1.00  0.00     0.023 A 
ATOM     85  C   UNL A   1      45.506  29.558  35.436  1.00  0.00     0.012 A 
ATOM     86  C   UNL A   1      44.050  27.915  36.489  1.00  0.00     0.148 A 
ATOM     87  C   UNL A   1      46.591  29.070  36.160  1.00  0.00     0.002 A 
ATOM     88  C   UNL A   1      45.123  27.472  37.249  1.00  0.00     0.091 A 
ATOM     89  F   UNL A   1      42.829  27.372  36.602  1.00  0.00    -0.205 F 
ATOM     90  C   UNL A   1      46.397  28.037  37.075  1.00  0.00     0.022 A 
BRANCH  88  91
ATOM     91  S   UNL A   1      44.954  26.213  38.519  1.00  0.00     0.127 S 
ATOM     92  O   UNL A   1      44.552  25.049  37.731  1.00  0.00    -0.237 OA
ATOM     93  O   UNL A   1      46.311  26.144  39.062  1.00  0.00    -0.237 OA
ATOM     94  O   UNL A   1      43.950  26.708  39.450  1.00  0.00    -0.744 OA
ENDBRANCH  88  91
ENDBRANCH  61  84
ENDBRANCH  35  36
ENDBRANCH  27  30
ENDBRANCH  25  26
ENDBRANCH  24  25
ENDBRANCH   1  24
TORSDOF 18
ENDMDL
MODEL 3
REMARK VINA RESULT:     -12.8      2.320      8.244
REMARK SMILES Cc1cccc(C[N@H+]2CC[C@@](C)(C(=O)NCCCCCCNC(=O)c3ccc(-c4c5nc(c(-c6cccc(S(=O)(=O)[O-])c6F)c6ccc([nH]6)c(-c6cccc(S(=O)(=O)[O-])c6F)c6nc(c(-c7cccc(S(=O)(=O)[O-])c7F)c7ccc4[nH]7)C=C6)C=C5)cc3)C2)n1
REMARK SMILES IDX 19 1 18 2 17 3 16 4 15 5 13 6 14 7 11 9 8 10 9 11 88 12
REMARK SMILES IDX 10 14 12 15 7 16 6 17 1 18 2 19 3 20 89 21 4 22 5 23 20 24
REMARK SMILES IDX 21 25 22 26 23 27 24 29 25 30 26 31 87 32 27 33 86 34 28 35
REMARK SMILES IDX 29 36 30 37 80 38 31 39 85 40 79 41 81 42 32 43 84 44 78 45
REMARK SMILES IDX 77 46 33 48 65 49 45 50 64 51 46 52 49 53 63 54 82 55 47 56
REMARK SMILES IDX 48 57 62 59 83 60 50 61 34 62 35 63 43 64 36 65 38 66 44 67
REMARK SMILES IDX 37 68 39 69 40 70 41 71 42 72 66 73 67 74 75 75 68 76 70 77
REMARK SMILES IDX 76 78 69 79 71 80 72 81 73 82 74 83 51 84 52 85 60 86 53 87
REMARK SMILES IDX 55 88 61 89 54 90 56 91 57 92 58 93 59 94
REMARK H PARENT 15 8 8 13 22 28 81 47 49 58
REMARK Flexibility Score: inf
ROOT
ATOM      1  C   UNL A   1      32.358  29.674  27.238  1.00  0.00     0.002 C 
ENDROOT
BRANCH   1   2
ATOM      2  C   UNL A   1      33.582  28.918  26.674  1.00  0.00     0.002 C 
BRANCH   2   3
ATOM      3  C   UNL A   1      33.629  28.506  24.953  1.00  0.00     0.021 C 
BRANCH   3   4
ATOM      4  C   UNL A   1      33.298  26.626  23.890  1.00  0.00     0.116 C 
BRANCH   4   5
ATOM      5  N   UNL A   1      32.028  25.920  23.342  1.00  0.00    -0.355 N 
ATOM      6  C   UNL A   1      31.336  24.874  23.858  1.00  0.00     0.231 C 
ATOM      7  O   UNL A   1      30.435  24.452  23.120  1.00  0.00    -0.274 OA
ATOM      8  H   UNL A   1      31.673  26.284  22.499  1.00  0.00     0.163 HD
BRANCH   6   9
ATOM      9  C   UNL A   1      31.549  24.314  25.303  1.00  0.00     0.100 C 
ATOM     10  N   UNL A   1      32.206  21.979  25.785  1.00  0.00    -0.329 N 
ATOM     11  C   UNL A   1      33.440  22.770  25.711  1.00  0.00     0.263 C 
ATOM     12  C   UNL A   1      31.049  22.891  25.639  1.00  0.00     0.279 C 
ATOM     13  H   UNL A   1      32.160  21.554  26.712  1.00  0.00     0.348 HD
ATOM     14  C   UNL A   1      33.046  24.251  25.648  1.00  0.00     0.084 C 
ATOM     15  C   UNL A   1      30.834  25.336  26.222  1.00  0.00     0.028 C 
BRANCH  10  16
ATOM     16  C   UNL A   1      32.171  20.731  24.956  1.00  0.00     0.319 C 
BRANCH  16  17
ATOM     17  C   UNL A   1      33.083  19.557  25.422  1.00  0.00     0.095 A 
ATOM     18  C   UNL A   1      32.255  15.262  25.686  1.00  0.00     0.067 C 
ATOM     19  C   UNL A   1      33.038  16.495  25.378  1.00  0.00     0.038 A 
ATOM     20  C   UNL A   1      34.735  16.454  24.746  1.00  0.00     0.023 A 
ATOM     21  N   UNL A   1      32.229  18.027  25.645  1.00  0.00    -0.252 NA
ATOM     22  C   UNL A   1      35.629  18.014  24.563  1.00  0.00     0.004 A 
ATOM     23  C   UNL A   1      34.775  19.576  24.858  1.00  0.00     0.030 A 
ENDBRANCH  16  17
ENDBRANCH  10  16
ENDBRANCH   6   9
ENDBRANCH   4   5
ENDBRANCH   3   4
ENDBRANCH   2   3
ENDBRANCH   1   2
BRANCH   1  24
ATOM     24  C   UNL A   1      32.302  31.133  26.835  1.00  0.00     0.021 C 
BRANCH  24  25
ATOM     25  C   UNL A   1      33.310  31.946  27.615  1.00  0.00     0.116 C 
BRANCH  25  26
ATOM     26  N   UNL A   1      32.982  33.367  27.501  1.00  0.00    -0.352 N 
ATOM     27  C   UNL A   1      33.202  34.309  28.474  1.00  0.00     0.251 C 
ATOM     28  H   UNL A   1      32.572  33.671  26.660  1.00  0.00     0.163 HD
ATOM     29  O   UNL A   1      32.550  35.339  28.556  1.00  0.00    -0.269 OA
BRANCH  27  30
ATOM     30  C   UNL A   1      34.287  33.987  29.412  1.00  0.00     0.039 A 
ATOM     31  C   UNL A   1      34.031  33.211  30.538  1.00  0.00     0.014 A 
ATOM     32  C   UNL A   1      35.592  34.281  28.995  1.00  0.00     0.014 A 
ATOM     33  C   UNL A   1      35.113  32.689  31.241  1.00  0.00     0.010 A 
ATOM     34  C   UNL A   1      36.649  33.646  29.613  1.00  0.00     0.010 A 
ATOM     35  C   UNL A   1      36.423  32.876  30.763  1.00  0.00    -0.014 A 
BRANCH  35  36
ATOM     36  C   UNL A   1      37.595  32.323  31.473  1.00  0.00     0.031 A 
ATOM     37  C   UNL A   1      38.341  31.176  30.847  1.00  0.00     0.074 A 
ATOM     38  C   UNL A   1      37.936  32.794  32.687  1.00  0.00     0.049 A 
ATOM     39  N   UNL A   1      39.333  30.481  31.332  1.00  0.00    -0.248 NA
ATOM     40  C   UNL A   1      37.892  30.729  29.513  1.00  0.00     0.031 C 
ATOM     41  C   UNL A   1      37.235  33.855  33.417  1.00  0.00     0.029 A 
ATOM     42  N   UNL A   1      38.945  32.421  33.536  1.00  0.00    -0.354 N 
ATOM     43  C   UNL A   1      39.609  29.509  30.378  1.00  0.00     0.074 A 
ATOM     44  C   UNL A   1      38.644  29.659  29.315  1.00  0.00     0.031 C 
ATOM     45  C   UNL A   1      37.842  34.051  34.598  1.00  0.00     0.029 A 
ATOM     46  C   UNL A   1      38.938  33.098  34.732  1.00  0.00     0.049 A 
ATOM     47  H   UNL A   1      39.612  31.732  33.309  1.00  0.00     0.167 HD
ATOM     48  C   UNL A   1      40.606  28.598  30.368  1.00  0.00     0.034 A 
ATOM     49  C   UNL A   1      39.713  32.941  35.823  1.00  0.00     0.034 A 
ATOM     50  C   UNL A   1      41.579  28.475  31.414  1.00  0.00     0.049 A 
ATOM     51  C   UNL A   1      40.803  31.903  35.790  1.00  0.00     0.074 A 
ATOM     52  C   UNL A   1      42.665  27.622  31.478  1.00  0.00     0.029 A 
ATOM     53  N   UNL A   1      41.577  29.217  32.583  1.00  0.00    -0.354 N 
ATOM     54  N   UNL A   1      41.138  31.089  34.819  1.00  0.00    -0.248 NA
ATOM     55  C   UNL A   1      41.640  31.780  36.993  1.00  0.00     0.031 C 
ATOM     56  C   UNL A   1      43.299  27.822  32.706  1.00  0.00     0.029 A 
ATOM     57  C   UNL A   1      42.634  28.830  33.385  1.00  0.00     0.049 A 
ATOM     58  H   UNL A   1      40.921  29.916  32.809  1.00  0.00     0.167 HD
ATOM     59  C   UNL A   1      42.241  30.380  35.282  1.00  0.00     0.074 A 
ATOM     60  C   UNL A   1      42.539  30.886  36.605  1.00  0.00     0.031 C 
ATOM     61  C   UNL A   1      42.937  29.385  34.678  1.00  0.00     0.034 A 
BRANCH  48  62
ATOM     62  C   UNL A   1      40.726  27.701  29.167  1.00  0.00     0.023 A 
ATOM     63  C   UNL A   1      39.903  26.560  29.067  1.00  0.00     0.012 A 
ATOM     64  C   UNL A   1      41.595  28.024  28.109  1.00  0.00     0.148 A 
ATOM     65  C   UNL A   1      39.956  25.744  27.938  1.00  0.00     0.002 A 
ATOM     66  C   UNL A   1      41.607  27.234  26.967  1.00  0.00     0.091 A 
ATOM     67  F   UNL A   1      42.384  29.100  28.238  1.00  0.00    -0.205 F 
ATOM     68  C   UNL A   1      40.797  26.089  26.884  1.00  0.00     0.022 A 
BRANCH  66  69
ATOM     69  S   UNL A   1      42.593  27.635  25.521  1.00  0.00     0.127 S 
ATOM     70  O   UNL A   1      43.944  27.644  26.081  1.00  0.00    -0.237 OA
ATOM     71  O   UNL A   1      42.307  26.506  24.637  1.00  0.00    -0.237 OA
ATOM     72  O   UNL A   1      42.113  28.924  25.047  1.00  0.00    -0.744 OA
ENDBRANCH  66  69
ENDBRANCH  48  62
BRANCH  49  73
ATOM     73  C   UNL A   1      39.490  33.774  37.039  1.00  0.00     0.023 A 
ATOM     74  C   UNL A   1      39.962  35.101  37.080  1.00  0.00     0.012 A 
ATOM     75  C   UNL A   1      38.837  33.244  38.169  1.00  0.00     0.148 A 
ATOM     76  C   UNL A   1      39.841  35.863  38.244  1.00  0.00     0.002 A 
ATOM     77  C   UNL A   1      38.661  34.029  39.301  1.00  0.00     0.091 A 
ATOM     78  F   UNL A   1      38.400  31.978  38.115  1.00  0.00    -0.205 F 
ATOM     79  C   UNL A   1      39.186  35.330  39.351  1.00  0.00     0.022 A 
BRANCH  77  80
ATOM     80  S   UNL A   1      37.713  33.467  40.718  1.00  0.00     0.127 S 
ATOM     81  O   UNL A   1      37.704  34.657  41.565  1.00  0.00    -0.237 OA
ATOM     82  O   UNL A   1      36.427  33.132  40.108  1.00  0.00    -0.237 OA
ATOM     83  O   UNL A   1      38.438  32.318  41.248  1.00  0.00    -0.744 OA
ENDBRANCH  77  80
ENDBRANCH  49  73
BRANCH  61  84
ATOM     84  C   UNL A   1      44.109  28.803  35.422  1.00  0.00     0.023 A 
ATOM     85  C   UNL A   1      45.395  29.351  35.248  1.00  0.00     0.012 A 
ATOM     86  C   UNL A   1      43.917  27.764  36.354  1.00  0.00     0.148 A 
ATOM     87  C   UNL A   1      46.480  28.850  35.964  1.00  0.00     0.002 A 
ATOM     88  C   UNL A   1      44.991  27.310  37.106  1.00  0.00     0.091 A 
ATOM     89  F   UNL A   1      42.685  27.254  36.496  1.00  0.00    -0.205 F 
ATOM     90  C   UNL A   1      46.275  27.840  36.901  1.00  0.00     0.022 A 
BRANCH  88  91
ATOM     91  S   UNL A   1      44.811  26.079  38.401  1.00  0.00     0.127 S 
ATOM     92  O   UNL A   1      43.902  26.754  39.327  1.00  0.00    -0.237 OA
ATOM     93  O   UNL A   1      44.220  24.955  37.675  1.00  0.00    -0.237 OA
ATOM     94  O   UNL A   1      46.151  25.835  38.917  1.00  0.00    -0.744 OA
ENDBRANCH  88  91
ENDBRANCH  61  84
ENDBRANCH  35  36
ENDBRANCH  27  30
ENDBRANCH  25  26
ENDBRANCH  24  25
ENDBRANCH   1  24
TORSDOF 18
ENDMDL
