MODEL 1
REMARK VINA RESULT:     -10.9      0.000      0.000
REMARK SMILES CCc1[nH]nc(-n2cccc2)c1C(=O)NCCCCCCNC(=O)c1ccc(-c2c3nc(c(-c4cccc(S(=O)(=O)[O-])c4F)c4ccc([nH]4)c(-c4cccc(S(=O)(=O)[O-])c4F)c4nc(c(-c5cccc(S(=O)(=O)[O-])c5F)c5ccc2[nH]5)C=C4)C=C3)cc1
REMARK SMILES IDX 19 1 18 2 17 3 16 4 15 5 13 6 14 7 12 9 3 10 4 11 5 12 6 14
REMARK SMILES IDX 2 15 1 16 7 17 8 18 11 19 9 20 10 21 20 22 21 23 22 24 23 25
REMARK SMILES IDX 24 27 25 28 26 29 87 30 27 31 86 32 28 33 29 34 30 35 80 36
REMARK SMILES IDX 31 37 85 38 79 39 81 40 32 41 84 42 78 43 77 44 33 46 65 47
REMARK SMILES IDX 45 48 64 49 46 50 49 51 63 52 82 53 47 54 48 55 62 57 83 58
REMARK SMILES IDX 50 59 34 60 35 61 43 62 36 63 38 64 44 65 37 66 39 67 40 68
REMARK SMILES IDX 41 69 42 70 66 71 67 72 75 73 68 74 70 75 76 76 69 77 71 78
REMARK SMILES IDX 72 79 73 80 74 81 51 82 52 83 60 84 53 85 55 86 61 87 54 88
REMARK SMILES IDX 56 89 57 90 58 91 59 92
REMARK H PARENT 15 8 4 13 22 26 81 45 49 56
REMARK Flexibility Score: inf
ROOT
ATOM      1  C   UNL A   1      32.654  27.734  25.583  1.00  0.00     0.002 C 
ENDROOT
BRANCH   1   2
ATOM      2  C   UNL A   1      33.244  27.150  24.295  1.00  0.00     0.002 C 
BRANCH   2   3
ATOM      3  C   UNL A   1      33.032  25.659  24.024  1.00  0.00     0.021 C 
BRANCH   3   4
ATOM      4  C   UNL A   1      34.270  24.780  23.907  1.00  0.00     0.116 C 
BRANCH   4   5
ATOM      5  N   UNL A   1      35.173  24.798  25.023  1.00  0.00    -0.352 N 
ATOM      6  C   UNL A   1      35.774  23.758  25.692  1.00  0.00     0.256 C 
ATOM      7  O   UNL A   1      36.595  24.102  26.546  1.00  0.00    -0.269 OA
ATOM      8  H   UNL A   1      35.396  25.694  25.362  1.00  0.00     0.163 HD
BRANCH   6   9
ATOM      9  C   UNL A   1      35.493  22.333  25.451  1.00  0.00     0.105 A 
ATOM     10  C   UNL A   1      36.305  21.207  25.234  1.00  0.00     0.050 A 
ATOM     11  N   UNL A   1      35.451  20.132  25.159  1.00  0.00    -0.280 N 
ATOM     12  N   UNL A   1      34.201  20.401  25.527  1.00  0.00    -0.156 NA
ATOM     13  H   UNL A   1      35.738  19.241  24.858  1.00  0.00     0.190 HD
ATOM     14  C   UNL A   1      34.193  21.735  25.612  1.00  0.00     0.171 A 
BRANCH  10  15
ATOM     15  C   UNL A   1      37.765  20.899  25.115  1.00  0.00     0.053 C 
ATOM     16  C   UNL A   1      38.039  19.436  24.806  1.00  0.00     0.011 C 
ENDBRANCH  10  15
BRANCH  14  17
ATOM     17  N   UNL A   1      32.928  22.345  25.880  1.00  0.00    -0.307 N 
ATOM     18  C   UNL A   1      32.611  23.223  26.898  1.00  0.00     0.093 A 
ATOM     19  C   UNL A   1      31.790  22.194  25.103  1.00  0.00     0.093 A 
ATOM     20  C   UNL A   1      31.278  23.567  26.800  1.00  0.00     0.020 A 
ATOM     21  C   UNL A   1      30.750  22.884  25.683  1.00  0.00     0.020 A 
ENDBRANCH  14  17
ENDBRANCH   6   9
ENDBRANCH   4   5
ENDBRANCH   3   4
ENDBRANCH   2   3
ENDBRANCH   1   2
BRANCH   1  22
ATOM     22  C   UNL A   1      33.595  27.903  26.785  1.00  0.00     0.021 C 
BRANCH  22  23
ATOM     23  C   UNL A   1      34.921  28.595  26.482  1.00  0.00     0.116 C 
BRANCH  23  24
ATOM     24  N   UNL A   1      35.012  29.892  27.130  1.00  0.00    -0.352 N 
ATOM     25  C   UNL A   1      35.929  30.347  28.048  1.00  0.00     0.251 C 
ATOM     26  H   UNL A   1      34.317  30.540  26.874  1.00  0.00     0.163 HD
ATOM     27  O   UNL A   1      35.653  31.334  28.720  1.00  0.00    -0.269 OA
BRANCH  25  28
ATOM     28  C   UNL A   1      37.227  29.664  28.244  1.00  0.00     0.039 A 
ATOM     29  C   UNL A   1      38.177  29.758  27.218  1.00  0.00     0.014 A 
ATOM     30  C   UNL A   1      37.481  28.870  29.367  1.00  0.00     0.014 A 
ATOM     31  C   UNL A   1      39.393  29.097  27.342  1.00  0.00     0.010 A 
ATOM     32  C   UNL A   1      38.710  28.246  29.517  1.00  0.00     0.010 A 
ATOM     33  C   UNL A   1      39.660  28.357  28.502  1.00  0.00    -0.014 A 
BRANCH  33  34
ATOM     34  C   UNL A   1      41.013  27.796  28.696  1.00  0.00     0.031 A 
ATOM     35  C   UNL A   1      41.049  26.318  28.227  1.00  0.00     0.074 A 
ATOM     36  C   UNL A   1      41.929  28.636  29.274  1.00  0.00     0.049 A 
ATOM     37  N   UNL A   1      41.592  25.270  28.774  1.00  0.00    -0.248 NA
ATOM     38  C   UNL A   1      40.222  25.925  27.052  1.00  0.00     0.031 C 
ATOM     39  C   UNL A   1      41.691  30.067  29.598  1.00  0.00     0.029 A 
ATOM     40  N   UNL A   1      43.231  28.493  29.705  1.00  0.00    -0.354 N 
ATOM     41  C   UNL A   1      41.368  24.169  27.900  1.00  0.00     0.074 A 
ATOM     42  C   UNL A   1      40.380  24.600  26.962  1.00  0.00     0.031 C 
ATOM     43  C   UNL A   1      42.752  30.610  30.238  1.00  0.00     0.029 A 
ATOM     44  C   UNL A   1      43.784  29.604  30.397  1.00  0.00     0.049 A 
ATOM     45  H   UNL A   1      43.746  27.671  29.543  1.00  0.00     0.167 HD
ATOM     46  C   UNL A   1      42.142  23.038  27.900  1.00  0.00     0.034 A 
ATOM     47  C   UNL A   1      44.956  29.678  31.108  1.00  0.00     0.034 A 
ATOM     48  C   UNL A   1      43.192  23.208  28.850  1.00  0.00     0.049 A 
ATOM     49  C   UNL A   1      45.583  28.361  30.930  1.00  0.00     0.074 A 
ATOM     50  C   UNL A   1      43.235  23.183  30.217  1.00  0.00     0.029 A 
ATOM     51  N   UNL A   1      44.313  23.840  28.361  1.00  0.00    -0.354 N 
ATOM     52  N   UNL A   1      46.127  27.940  29.828  1.00  0.00    -0.248 NA
ATOM     53  C   UNL A   1      45.437  27.375  32.009  1.00  0.00     0.031 C 
ATOM     54  C   UNL A   1      44.123  24.237  30.518  1.00  0.00     0.029 A 
ATOM     55  C   UNL A   1      44.765  24.671  29.351  1.00  0.00     0.049 A 
ATOM     56  H   UNL A   1      44.712  23.719  27.470  1.00  0.00     0.167 HD
ATOM     57  C   UNL A   1      46.044  26.577  29.973  1.00  0.00     0.074 A 
ATOM     58  C   UNL A   1      45.943  26.314  31.392  1.00  0.00     0.031 C 
ATOM     59  C   UNL A   1      45.557  25.812  28.964  1.00  0.00     0.034 A 
BRANCH  46  60
ATOM     60  C   UNL A   1      42.303  21.846  26.974  1.00  0.00     0.023 A 
ATOM     61  C   UNL A   1      41.478  20.720  27.281  1.00  0.00     0.012 A 
ATOM     62  C   UNL A   1      43.352  21.634  26.066  1.00  0.00     0.148 A 
ATOM     63  C   UNL A   1      41.760  19.431  26.833  1.00  0.00     0.002 A 
ATOM     64  C   UNL A   1      43.601  20.345  25.575  1.00  0.00     0.091 A 
ATOM     65  F   UNL A   1      44.153  22.651  25.735  1.00  0.00    -0.205 F 
ATOM     66  C   UNL A   1      42.838  19.241  25.991  1.00  0.00     0.022 A 
BRANCH  64  67
ATOM     67  S   UNL A   1      44.912  19.977  24.400  1.00  0.00     0.127 S 
ATOM     68  O   UNL A   1      44.628  18.587  24.054  1.00  0.00    -0.237 OA
ATOM     69  O   UNL A   1      44.633  20.937  23.330  1.00  0.00    -0.237 OA
ATOM     70  O   UNL A   1      46.160  20.224  25.108  1.00  0.00    -0.744 OA
ENDBRANCH  64  67
ENDBRANCH  46  60
BRANCH  47  71
ATOM     71  C   UNL A   1      45.599  30.624  32.105  1.00  0.00     0.023 A 
ATOM     72  C   UNL A   1      46.889  31.158  31.977  1.00  0.00     0.012 A 
ATOM     73  C   UNL A   1      44.848  31.095  33.228  1.00  0.00     0.148 A 
ATOM     74  C   UNL A   1      47.349  32.178  32.840  1.00  0.00     0.002 A 
ATOM     75  C   UNL A   1      45.245  32.188  33.991  1.00  0.00     0.091 A 
ATOM     76  F   UNL A   1      43.739  30.449  33.603  1.00  0.00    -0.205 F 
ATOM     77  C   UNL A   1      46.511  32.730  33.809  1.00  0.00     0.022 A 
BRANCH  75  78
ATOM     78  S   UNL A   1      44.104  33.035  35.105  1.00  0.00     0.127 S 
ATOM     79  O   UNL A   1      43.935  32.062  36.182  1.00  0.00    -0.237 OA
ATOM     80  O   UNL A   1      44.876  34.223  35.466  1.00  0.00    -0.237 OA
ATOM     81  O   UNL A   1      42.902  33.312  34.328  1.00  0.00    -0.744 OA
ENDBRANCH  75  78
ENDBRANCH  47  71
BRANCH  59  82
ATOM     82  C   UNL A   1      45.675  26.423  27.567  1.00  0.00     0.023 A 
ATOM     83  C   UNL A   1      44.476  26.838  26.956  1.00  0.00     0.012 A 
ATOM     84  C   UNL A   1      46.858  26.514  26.791  1.00  0.00     0.148 A 
ATOM     85  C   UNL A   1      44.446  27.314  25.642  1.00  0.00     0.002 A 
ATOM     86  C   UNL A   1      46.829  26.976  25.469  1.00  0.00     0.091 A 
ATOM     87  F   UNL A   1      48.012  26.147  27.340  1.00  0.00    -0.205 F 
ATOM     88  C   UNL A   1      45.618  27.385  24.897  1.00  0.00     0.022 A 
BRANCH  86  89
ATOM     89  S   UNL A   1      48.276  27.015  24.380  1.00  0.00     0.127 S 
ATOM     90  O   UNL A   1      48.956  25.761  24.712  1.00  0.00    -0.237 OA
ATOM     91  O   UNL A   1      47.666  27.028  23.053  1.00  0.00    -0.237 OA
ATOM     92  O   UNL A   1      49.036  28.210  24.734  1.00  0.00    -0.744 OA
ENDBRANCH  86  89
ENDBRANCH  59  82
ENDBRANCH  33  34
ENDBRANCH  25  28
ENDBRANCH  23  24
ENDBRANCH  22  23
ENDBRANCH   1  22
TORSDOF 18
ENDMDL
MODEL 2
REMARK VINA RESULT:     -10.8      5.234     11.420
REMARK SMILES CCc1[nH]nc(-n2cccc2)c1C(=O)NCCCCCCNC(=O)c1ccc(-c2c3nc(c(-c4cccc(S(=O)(=O)[O-])c4F)c4ccc([nH]4)c(-c4cccc(S(=O)(=O)[O-])c4F)c4nc(c(-c5cccc(S(=O)(=O)[O-])c5F)c5ccc2[nH]5)C=C4)C=C3)cc1
REMARK SMILES IDX 19 1 18 2 17 3 16 4 15 5 13 6 14 7 12 9 3 10 4 11 5 12 6 14
REMARK SMILES IDX 2 15 1 16 7 17 8 18 11 19 9 20 10 21 20 22 21 23 22 24 23 25
REMARK SMILES IDX 24 27 25 28 26 29 87 30 27 31 86 32 28 33 29 34 30 35 80 36
REMARK SMILES IDX 31 37 85 38 79 39 81 40 32 41 84 42 78 43 77 44 33 46 65 47
REMARK SMILES IDX 45 48 64 49 46 50 49 51 63 52 82 53 47 54 48 55 62 57 83 58
REMARK SMILES IDX 50 59 34 60 35 61 43 62 36 63 38 64 44 65 37 66 39 67 40 68
REMARK SMILES IDX 41 69 42 70 66 71 67 72 75 73 68 74 70 75 76 76 69 77 71 78
REMARK SMILES IDX 72 79 73 80 74 81 51 82 52 83 60 84 53 85 55 86 61 87 54 88
REMARK SMILES IDX 56 89 57 90 58 91 59 92
REMARK H PARENT 15 8 4 13 22 26 81 45 49 56
REMARK Flexibility Score: inf
ROOT
ATOM      1  C   UNL A   1      42.976  25.044  28.492  1.00  0.00     0.002 C 
ENDROOT
BRANCH   1   2
ATOM      2  C   UNL A   1      43.656  24.301  29.647  1.00  0.00     0.002 C 
BRANCH   2   3
ATOM      3  C   UNL A   1      44.675  25.069  30.490  1.00  0.00     0.021 C 
BRANCH   3   4
ATOM      4  C   UNL A   1      44.870  24.630  31.935  1.00  0.00     0.116 C 
BRANCH   4   5
ATOM      5  N   UNL A   1      45.221  25.658  32.873  1.00  0.00    -0.352 N 
ATOM      6  C   UNL A   1      44.711  25.931  34.120  1.00  0.00     0.256 C 
ATOM      7  O   UNL A   1      45.303  26.821  34.735  1.00  0.00    -0.269 OA
ATOM      8  H   UNL A   1      45.940  26.263  32.577  1.00  0.00     0.163 HD
BRANCH   6   9
ATOM      9  C   UNL A   1      43.550  25.249  34.717  1.00  0.00     0.105 A 
ATOM     10  C   UNL A   1      43.289  23.918  35.080  1.00  0.00     0.050 A 
ATOM     11  N   UNL A   1      42.048  23.923  35.673  1.00  0.00    -0.280 N 
ATOM     12  N   UNL A   1      41.576  25.138  35.940  1.00  0.00    -0.156 NA
ATOM     13  H   UNL A   1      41.552  23.100  35.883  1.00  0.00     0.190 HD
ATOM     14  C   UNL A   1      42.422  25.940  35.286  1.00  0.00     0.171 A 
BRANCH  10  15
ATOM     15  C   UNL A   1      43.989  22.595  35.027  1.00  0.00     0.053 C 
ATOM     16  C   UNL A   1      45.114  22.479  36.042  1.00  0.00     0.011 C 
ENDBRANCH  10  15
BRANCH  14  17
ATOM     17  N   UNL A   1      42.101  27.333  35.283  1.00  0.00    -0.307 N 
ATOM     18  C   UNL A   1      41.332  28.022  34.367  1.00  0.00     0.093 A 
ATOM     19  C   UNL A   1      42.476  28.238  36.264  1.00  0.00     0.093 A 
ATOM     20  C   UNL A   1      41.279  29.352  34.731  1.00  0.00     0.020 A 
ATOM     21  C   UNL A   1      42.036  29.495  35.914  1.00  0.00     0.020 A 
ENDBRANCH  14  17
ENDBRANCH   6   9
ENDBRANCH   4   5
ENDBRANCH   3   4
ENDBRANCH   2   3
ENDBRANCH   1   2
BRANCH   1  22
ATOM     22  C   UNL A   1      42.529  24.215  27.278  1.00  0.00     0.021 C 
BRANCH  22  23
ATOM     23  C   UNL A   1      41.353  23.275  27.528  1.00  0.00     0.116 C 
BRANCH  23  24
ATOM     24  N   UNL A   1      40.240  23.556  26.639  1.00  0.00    -0.352 N 
ATOM     25  C   UNL A   1      39.298  24.555  26.707  1.00  0.00     0.251 C 
ATOM     26  H   UNL A   1      40.146  22.942  25.875  1.00  0.00     0.163 HD
ATOM     27  O   UNL A   1      38.259  24.433  26.070  1.00  0.00    -0.269 OA
BRANCH  25  28
ATOM     28  C   UNL A   1      39.513  25.760  27.539  1.00  0.00     0.039 A 
ATOM     29  C   UNL A   1      40.157  26.856  26.950  1.00  0.00     0.014 A 
ATOM     30  C   UNL A   1      39.174  25.789  28.896  1.00  0.00     0.014 A 
ATOM     31  C   UNL A   1      40.417  27.992  27.707  1.00  0.00     0.010 A 
ATOM     32  C   UNL A   1      39.390  26.937  29.645  1.00  0.00     0.010 A 
ATOM     33  C   UNL A   1      40.015  28.033  29.049  1.00  0.00    -0.014 A 
BRANCH  33  34
ATOM     34  C   UNL A   1      40.148  29.300  29.796  1.00  0.00     0.031 A 
ATOM     35  C   UNL A   1      38.935  30.221  29.503  1.00  0.00     0.074 A 
ATOM     36  C   UNL A   1      41.293  29.437  30.538  1.00  0.00     0.049 A 
ATOM     37  N   UNL A   1      38.883  31.498  29.258  1.00  0.00    -0.248 NA
ATOM     38  C   UNL A   1      37.600  29.594  29.297  1.00  0.00     0.031 C 
ATOM     39  C   UNL A   1      42.320  28.379  30.729  1.00  0.00     0.029 A 
ATOM     40  N   UNL A   1      41.842  30.458  31.284  1.00  0.00    -0.354 N 
ATOM     41  C   UNL A   1      37.511  31.846  29.106  1.00  0.00     0.074 A 
ATOM     42  C   UNL A   1      36.801  30.614  28.967  1.00  0.00     0.031 C 
ATOM     43  C   UNL A   1      43.373  28.838  31.441  1.00  0.00     0.029 A 
ATOM     44  C   UNL A   1      43.150  30.228  31.788  1.00  0.00     0.049 A 
ATOM     45  H   UNL A   1      41.356  31.296  31.458  1.00  0.00     0.167 HD
ATOM     46  C   UNL A   1      37.032  33.118  29.285  1.00  0.00     0.034 A 
ATOM     47  C   UNL A   1      44.015  31.119  32.375  1.00  0.00     0.034 A 
ATOM     48  C   UNL A   1      38.113  33.955  29.693  1.00  0.00     0.049 A 
ATOM     49  C   UNL A   1      43.257  32.375  32.457  1.00  0.00     0.074 A 
ATOM     50  C   UNL A   1      39.182  34.498  29.033  1.00  0.00     0.029 A 
ATOM     51  N   UNL A   1      38.346  33.972  31.049  1.00  0.00    -0.354 N 
ATOM     52  N   UNL A   1      42.271  32.596  33.273  1.00  0.00    -0.248 NA
ATOM     53  C   UNL A   1      43.502  33.399  31.433  1.00  0.00     0.031 C 
ATOM     54  C   UNL A   1      40.226  34.362  29.972  1.00  0.00     0.029 A 
ATOM     55  C   UNL A   1      39.704  33.996  31.220  1.00  0.00     0.049 A 
ATOM     56  H   UNL A   1      37.666  33.967  31.760  1.00  0.00     0.167 HD
ATOM     57  C   UNL A   1      41.580  33.588  32.624  1.00  0.00     0.074 A 
ATOM     58  C   UNL A   1      42.519  34.238  31.737  1.00  0.00     0.031 C 
ATOM     59  C   UNL A   1      40.236  33.489  32.460  1.00  0.00     0.034 A 
BRANCH  46  60
ATOM     60  C   UNL A   1      35.654  33.738  29.424  1.00  0.00     0.023 A 
ATOM     61  C   UNL A   1      35.068  34.200  28.206  1.00  0.00     0.012 A 
ATOM     62  C   UNL A   1      35.049  34.159  30.619  1.00  0.00     0.148 A 
ATOM     63  C   UNL A   1      34.036  35.137  28.170  1.00  0.00     0.002 A 
ATOM     64  C   UNL A   1      33.977  35.062  30.578  1.00  0.00     0.091 A 
ATOM     65  F   UNL A   1      35.549  33.754  31.789  1.00  0.00    -0.205 F 
ATOM     66  C   UNL A   1      33.502  35.583  29.364  1.00  0.00     0.022 A 
BRANCH  64  67
ATOM     67  S   UNL A   1      33.130  35.648  32.052  1.00  0.00     0.127 S 
ATOM     68  O   UNL A   1      34.172  36.432  32.710  1.00  0.00    -0.237 OA
ATOM     69  O   UNL A   1      32.044  36.446  31.476  1.00  0.00    -0.237 OA
ATOM     70  O   UNL A   1      32.681  34.453  32.753  1.00  0.00    -0.744 OA
ENDBRANCH  64  67
ENDBRANCH  46  60
BRANCH  47  71
ATOM     71  C   UNL A   1      45.488  31.173  32.734  1.00  0.00     0.023 A 
ATOM     72  C   UNL A   1      46.484  31.734  31.923  1.00  0.00     0.012 A 
ATOM     73  C   UNL A   1      45.928  30.705  34.013  1.00  0.00     0.148 A 
ATOM     74  C   UNL A   1      47.800  31.922  32.403  1.00  0.00     0.002 A 
ATOM     75  C   UNL A   1      47.182  31.009  34.532  1.00  0.00     0.091 A 
ATOM     76  F   UNL A   1      45.137  29.906  34.736  1.00  0.00    -0.205 F 
ATOM     77  C   UNL A   1      48.135  31.611  33.721  1.00  0.00     0.022 A 
BRANCH  75  78
ATOM     78  S   UNL A   1      47.562  30.797  36.285  1.00  0.00     0.127 S 
ATOM     79  O   UNL A   1      47.568  29.343  36.431  1.00  0.00    -0.237 OA
ATOM     80  O   UNL A   1      48.877  31.429  36.377  1.00  0.00    -0.237 OA
ATOM     81  O   UNL A   1      46.510  31.488  37.020  1.00  0.00    -0.744 OA
ENDBRANCH  75  78
ENDBRANCH  47  71
BRANCH  59  82
ATOM     82  C   UNL A   1      39.518  32.605  33.481  1.00  0.00     0.023 A 
ATOM     83  C   UNL A   1      38.824  31.491  32.972  1.00  0.00     0.012 A 
ATOM     84  C   UNL A   1      39.399  32.859  34.871  1.00  0.00     0.148 A 
ATOM     85  C   UNL A   1      38.045  30.671  33.795  1.00  0.00     0.002 A 
ATOM     86  C   UNL A   1      38.608  32.048  35.694  1.00  0.00     0.091 A 
ATOM     87  F   UNL A   1      40.055  33.892  35.390  1.00  0.00    -0.205 F 
ATOM     88  C   UNL A   1      37.936  30.946  35.153  1.00  0.00     0.022 A 
BRANCH  86  89
ATOM     89  S   UNL A   1      38.318  32.373  37.452  1.00  0.00     0.127 S 
ATOM     90  O   UNL A   1      37.642  33.672  37.427  1.00  0.00    -0.237 OA
ATOM     91  O   UNL A   1      37.453  31.260  37.835  1.00  0.00    -0.237 OA
ATOM     92  O   UNL A   1      39.627  32.401  38.096  1.00  0.00    -0.744 OA
ENDBRANCH  86  89
ENDBRANCH  59  82
ENDBRANCH  33  34
ENDBRANCH  25  28
ENDBRANCH  23  24
ENDBRANCH  22  23
ENDBRANCH   1  22
TORSDOF 18
ENDMDL
MODEL 3
REMARK VINA RESULT:     -10.5      1.343      2.135
REMARK SMILES CCc1[nH]nc(-n2cccc2)c1C(=O)NCCCCCCNC(=O)c1ccc(-c2c3nc(c(-c4cccc(S(=O)(=O)[O-])c4F)c4ccc([nH]4)c(-c4cccc(S(=O)(=O)[O-])c4F)c4nc(c(-c5cccc(S(=O)(=O)[O-])c5F)c5ccc2[nH]5)C=C4)C=C3)cc1
REMARK SMILES IDX 19 1 18 2 17 3 16 4 15 5 13 6 14 7 12 9 3 10 4 11 5 12 6 14
REMARK SMILES IDX 2 15 1 16 7 17 8 18 11 19 9 20 10 21 20 22 21 23 22 24 23 25
REMARK SMILES IDX 24 27 25 28 26 29 87 30 27 31 86 32 28 33 29 34 30 35 80 36
REMARK SMILES IDX 31 37 85 38 79 39 81 40 32 41 84 42 78 43 77 44 33 46 65 47
REMARK SMILES IDX 45 48 64 49 46 50 49 51 63 52 82 53 47 54 48 55 62 57 83 58
REMARK SMILES IDX 50 59 34 60 35 61 43 62 36 63 38 64 44 65 37 66 39 67 40 68
REMARK SMILES IDX 41 69 42 70 66 71 67 72 75 73 68 74 70 75 76 76 69 77 71 78
REMARK SMILES IDX 72 79 73 80 74 81 51 82 52 83 60 84 53 85 55 86 61 87 54 88
REMARK SMILES IDX 56 89 57 90 58 91 59 92
REMARK H PARENT 15 8 4 13 22 26 81 45 49 56
REMARK Flexibility Score: inf
ROOT
ATOM      1  C   UNL A   1      33.179  26.346  26.209  1.00  0.00     0.002 C 
ENDROOT
BRANCH   1   2
ATOM      2  C   UNL A   1      31.662  26.157  26.313  1.00  0.00     0.002 C 
BRANCH   2   3
ATOM      3  C   UNL A   1      31.097  24.758  26.063  1.00  0.00     0.021 C 
BRANCH   3   4
ATOM      4  C   UNL A   1      32.088  23.636  25.785  1.00  0.00     0.116 C 
BRANCH   4   5
ATOM      5  N   UNL A   1      31.791  22.783  24.669  1.00  0.00    -0.352 N 
ATOM      6  C   UNL A   1      32.574  21.846  24.038  1.00  0.00     0.256 C 
ATOM      7  O   UNL A   1      31.992  21.188  23.173  1.00  0.00    -0.269 OA
ATOM      8  H   UNL A   1      30.886  22.886  24.298  1.00  0.00     0.163 HD
BRANCH   6   9
ATOM      9  C   UNL A   1      33.998  21.610  24.331  1.00  0.00     0.105 A 
ATOM     10  C   UNL A   1      35.110  22.454  24.484  1.00  0.00     0.050 A 
ATOM     11  N   UNL A   1      36.159  21.640  24.837  1.00  0.00    -0.280 N 
ATOM     12  N   UNL A   1      35.804  20.397  25.152  1.00  0.00    -0.156 NA
ATOM     13  H   UNL A   1      37.093  21.948  24.856  1.00  0.00     0.190 HD
ATOM     14  C   UNL A   1      34.527  20.341  24.761  1.00  0.00     0.171 A 
BRANCH  10  15
ATOM     15  C   UNL A   1      35.409  23.919  24.406  1.00  0.00     0.053 C 
ATOM     16  C   UNL A   1      34.577  24.640  23.357  1.00  0.00     0.011 C 
ENDBRANCH  10  15
BRANCH  14  17
ATOM     17  N   UNL A   1      33.888  19.066  24.862  1.00  0.00    -0.307 N 
ATOM     18  C   UNL A   1      32.828  18.713  25.673  1.00  0.00     0.093 A 
ATOM     19  C   UNL A   1      34.202  17.955  24.095  1.00  0.00     0.093 A 
ATOM     20  C   UNL A   1      32.525  17.383  25.466  1.00  0.00     0.020 A 
ATOM     21  C   UNL A   1      33.421  16.894  24.492  1.00  0.00     0.020 A 
ENDBRANCH  14  17
ENDBRANCH   6   9
ENDBRANCH   4   5
ENDBRANCH   3   4
ENDBRANCH   2   3
ENDBRANCH   1   2
BRANCH   1  22
ATOM     22  C   UNL A   1      33.694  27.706  25.711  1.00  0.00     0.021 C 
BRANCH  22  23
ATOM     23  C   UNL A   1      35.037  28.145  26.287  1.00  0.00     0.116 C 
BRANCH  23  24
ATOM     24  N   UNL A   1      34.927  29.394  27.020  1.00  0.00    -0.352 N 
ATOM     25  C   UNL A   1      35.761  29.922  27.976  1.00  0.00     0.251 C 
ATOM     26  H   UNL A   1      34.140  29.943  26.800  1.00  0.00     0.163 HD
ATOM     27  O   UNL A   1      35.336  30.807  28.709  1.00  0.00    -0.269 OA
BRANCH  25  28
ATOM     28  C   UNL A   1      37.149  29.435  28.141  1.00  0.00     0.039 A 
ATOM     29  C   UNL A   1      37.476  28.781  29.337  1.00  0.00     0.014 A 
ATOM     30  C   UNL A   1      38.139  29.690  27.186  1.00  0.00     0.014 A 
ATOM     31  C   UNL A   1      38.777  28.345  29.551  1.00  0.00     0.010 A 
ATOM     32  C   UNL A   1      39.429  29.217  27.375  1.00  0.00     0.010 A 
ATOM     33  C   UNL A   1      39.745  28.551  28.559  1.00  0.00    -0.014 A 
BRANCH  33  34
ATOM     34  C   UNL A   1      41.080  27.941  28.726  1.00  0.00     0.031 A 
ATOM     35  C   UNL A   1      41.061  26.472  28.231  1.00  0.00     0.074 A 
ATOM     36  C   UNL A   1      42.031  28.740  29.307  1.00  0.00     0.049 A 
ATOM     37  N   UNL A   1      41.574  25.396  28.754  1.00  0.00    -0.248 NA
ATOM     38  C   UNL A   1      40.207  26.127  27.060  1.00  0.00     0.031 C 
ATOM     39  C   UNL A   1      41.846  30.172  29.659  1.00  0.00     0.029 A 
ATOM     40  N   UNL A   1      43.332  28.546  29.719  1.00  0.00    -0.354 N 
ATOM     41  C   UNL A   1      41.302  24.319  27.864  1.00  0.00     0.074 A 
ATOM     42  C   UNL A   1      40.318  24.800  26.947  1.00  0.00     0.031 C 
ATOM     43  C   UNL A   1      42.932  30.668  30.294  1.00  0.00     0.029 A 
ATOM     44  C   UNL A   1      43.931  29.625  30.423  1.00  0.00     0.049 A 
ATOM     45  H   UNL A   1      43.818  27.709  29.537  1.00  0.00     0.167 HD
ATOM     46  C   UNL A   1      42.037  23.162  27.835  1.00  0.00     0.034 A 
ATOM     47  C   UNL A   1      45.114  29.647  31.120  1.00  0.00     0.034 A 
ATOM     48  C   UNL A   1      43.104  23.280  28.775  1.00  0.00     0.049 A 
ATOM     49  C   UNL A   1      45.693  28.313  30.913  1.00  0.00     0.074 A 
ATOM     50  C   UNL A   1      43.162  23.230  30.141  1.00  0.00     0.029 A 
ATOM     51  N   UNL A   1      44.239  23.883  28.283  1.00  0.00    -0.354 N 
ATOM     52  N   UNL A   1      46.209  27.892  29.797  1.00  0.00    -0.248 NA
ATOM     53  C   UNL A   1      45.527  27.313  31.976  1.00  0.00     0.031 C 
ATOM     54  C   UNL A   1      44.089  24.248  30.449  1.00  0.00     0.029 A 
ATOM     55  C   UNL A   1      44.732  24.680  29.281  1.00  0.00     0.049 A 
ATOM     56  H   UNL A   1      44.624  23.764  27.385  1.00  0.00     0.167 HD
ATOM     57  C   UNL A   1      46.082  26.531  29.920  1.00  0.00     0.074 A 
ATOM     58  C   UNL A   1      45.989  26.246  31.335  1.00  0.00     0.031 C 
ATOM     59  C   UNL A   1      45.557  25.800  28.904  1.00  0.00     0.034 A 
BRANCH  46  60
ATOM     60  C   UNL A   1      42.146  21.981  26.888  1.00  0.00     0.023 A 
ATOM     61  C   UNL A   1      41.129  20.989  27.031  1.00  0.00     0.012 A 
ATOM     62  C   UNL A   1      43.269  21.633  26.120  1.00  0.00     0.148 A 
ATOM     63  C   UNL A   1      41.275  19.683  26.568  1.00  0.00     0.002 A 
ATOM     64  C   UNL A   1      43.389  20.332  25.611  1.00  0.00     0.091 A 
ATOM     65  F   UNL A   1      44.250  22.522  25.946  1.00  0.00    -0.205 F 
ATOM     66  C   UNL A   1      42.420  19.350  25.871  1.00  0.00     0.022 A 
BRANCH  64  67
ATOM     67  S   UNL A   1      44.782  19.795  24.607  1.00  0.00     0.127 S 
ATOM     68  O   UNL A   1      45.918  20.312  25.364  1.00  0.00    -0.237 OA
ATOM     69  O   UNL A   1      44.637  18.338  24.651  1.00  0.00    -0.237 OA
ATOM     70  O   UNL A   1      44.566  20.373  23.288  1.00  0.00    -0.744 OA
ENDBRANCH  64  67
ENDBRANCH  46  60
BRANCH  47  71
ATOM     71  C   UNL A   1      45.801  30.553  32.125  1.00  0.00     0.023 A 
ATOM     72  C   UNL A   1      46.914  31.355  31.842  1.00  0.00     0.012 A 
ATOM     73  C   UNL A   1      45.262  30.692  33.444  1.00  0.00     0.148 A 
ATOM     74  C   UNL A   1      47.382  32.314  32.769  1.00  0.00     0.002 A 
ATOM     75  C   UNL A   1      45.634  31.722  34.301  1.00  0.00     0.091 A 
ATOM     76  F   UNL A   1      44.399  29.783  33.908  1.00  0.00    -0.205 F 
ATOM     77  C   UNL A   1      46.711  32.536  33.972  1.00  0.00     0.022 A 
BRANCH  75  78
ATOM     78  S   UNL A   1      44.657  32.146  35.759  1.00  0.00     0.127 S 
ATOM     79  O   UNL A   1      45.199  33.450  36.133  1.00  0.00    -0.237 OA
ATOM     80  O   UNL A   1      43.304  32.179  35.204  1.00  0.00    -0.237 OA
ATOM     81  O   UNL A   1      44.883  31.081  36.728  1.00  0.00    -0.744 OA
ENDBRANCH  75  78
ENDBRANCH  47  71
BRANCH  59  82
ATOM     82  C   UNL A   1      45.679  26.431  27.516  1.00  0.00     0.023 A 
ATOM     83  C   UNL A   1      44.484  26.868  26.914  1.00  0.00     0.012 A 
ATOM     84  C   UNL A   1      46.862  26.522  26.739  1.00  0.00     0.148 A 
ATOM     85  C   UNL A   1      44.456  27.364  25.607  1.00  0.00     0.002 A 
ATOM     86  C   UNL A   1      46.835  27.004  25.424  1.00  0.00     0.091 A 
ATOM     87  F   UNL A   1      48.013  26.134  27.281  1.00  0.00    -0.205 F 
ATOM     88  C   UNL A   1      45.628  27.434  24.861  1.00  0.00     0.022 A 
BRANCH  86  89
ATOM     89  S   UNL A   1      48.281  27.044  24.334  1.00  0.00     0.127 S 
ATOM     90  O   UNL A   1      48.907  25.745  24.590  1.00  0.00    -0.237 OA
ATOM     91  O   UNL A   1      47.670  27.160  23.013  1.00  0.00    -0.237 OA
ATOM     92  O   UNL A   1      49.092  28.183  24.754  1.00  0.00    -0.744 OA
ENDBRANCH  86  89
ENDBRANCH  59  82
ENDBRANCH  33  34
ENDBRANCH  25  28
ENDBRANCH  23  24
ENDBRANCH  22  23
ENDBRANCH   1  22
TORSDOF 18
ENDMDL
