MODEL 1
REMARK VINA RESULT:     -11.5      0.000      0.000
REMARK SMILES O=C(NCCCCCCNC(=O)c1cnn2c(C(F)(F)F)ccnc12)c1ccc(-c2c3nc(c(-c4cccc(S(=O)(=O)[O-])c4F)c4ccc([nH]4)c(-c4cccc(S(=O)(=O)[O-])c4F)c4nc(c(-c5cccc(S(=O)(=O)[O-])c5F)c5ccc2[nH]5)C=C4)C=C3)cc1
REMARK SMILES IDX 5 1 4 2 3 3 1 4 2 5 26 7 27 8 88 9 28 10 87 11 29 12 30 13
REMARK SMILES IDX 31 14 81 15 32 16 86 17 80 18 82 19 33 20 85 21 79 22 78 23
REMARK SMILES IDX 34 25 66 26 46 27 65 28 47 29 50 30 64 31 83 32 48 33 49 34
REMARK SMILES IDX 63 36 84 37 51 38 35 39 36 40 44 41 37 42 39 43 45 44 38 45
REMARK SMILES IDX 40 46 41 47 42 48 43 49 67 50 68 51 76 52 69 53 71 54 77 55
REMARK SMILES IDX 70 56 72 57 73 58 74 59 75 60 52 61 53 62 61 63 54 64 56 65
REMARK SMILES IDX 62 66 55 67 57 68 58 69 59 70 60 71 6 72 7 73 8 74 9 75
REMARK SMILES IDX 10 76 11 77 12 79 13 80 14 81 25 82 15 83 16 84 24 85 17 86
REMARK SMILES IDX 23 87 22 88 18 89 19 90 20 91 21 92
REMARK H PARENT 3 6 82 24 50 35 10 78
REMARK Flexibility Score: inf
ROOT
ATOM      1  C   UNL A   1      32.836  27.902  24.999  1.00  0.00     0.021 C 
ENDROOT
BRANCH   1   2
ATOM      2  C   UNL A   1      33.563  29.234  24.864  1.00  0.00     0.116 C 
BRANCH   2   3
ATOM      3  N   UNL A   1      32.860  30.326  25.511  1.00  0.00    -0.352 N 
ATOM      4  O   UNL A   1      32.345  31.771  27.160  1.00  0.00    -0.269 OA
ATOM      5  C   UNL A   1      33.145  30.965  26.694  1.00  0.00     0.251 C 
ATOM      6  H   UNL A   1      32.064  30.659  25.033  1.00  0.00     0.163 HD
BRANCH   5   7
ATOM      7  C   UNL A   1      34.402  30.656  27.417  1.00  0.00     0.039 A 
ATOM      8  C   UNL A   1      34.693  29.352  27.828  1.00  0.00     0.014 A 
ATOM      9  C   UNL A   1      35.308  31.689  27.674  1.00  0.00     0.014 A 
ATOM     10  C   UNL A   1      35.823  29.106  28.603  1.00  0.00     0.010 A 
ATOM     11  C   UNL A   1      36.480  31.425  28.389  1.00  0.00     0.010 A 
ATOM     12  C   UNL A   1      36.734  30.137  28.884  1.00  0.00    -0.014 A 
BRANCH  12  13
ATOM     13  C   UNL A   1      37.981  29.830  29.631  1.00  0.00     0.031 A 
ATOM     14  C   UNL A   1      38.235  30.395  31.001  1.00  0.00     0.074 A 
ATOM     15  C   UNL A   1      38.897  29.027  29.052  1.00  0.00     0.049 A 
ATOM     16  N   UNL A   1      39.256  30.195  31.795  1.00  0.00    -0.248 NA
ATOM     17  C   UNL A   1      37.220  31.305  31.552  1.00  0.00     0.031 C 
ATOM     18  C   UNL A   1      38.785  28.461  27.706  1.00  0.00     0.029 A 
ATOM     19  N   UNL A   1      40.098  28.552  29.513  1.00  0.00    -0.354 N 
ATOM     20  C   UNL A   1      39.027  30.975  32.922  1.00  0.00     0.074 A 
ATOM     21  C   UNL A   1      37.771  31.662  32.706  1.00  0.00     0.031 C 
ATOM     22  C   UNL A   1      39.859  27.698  27.458  1.00  0.00     0.029 A 
ATOM     23  C   UNL A   1      40.756  27.753  28.608  1.00  0.00     0.049 A 
ATOM     24  H   UNL A   1      40.455  28.762  30.407  1.00  0.00     0.167 HD
ATOM     25  C   UNL A   1      39.782  31.091  34.040  1.00  0.00     0.034 A 
ATOM     26  C   UNL A   1      41.951  27.138  28.686  1.00  0.00     0.034 A 
ATOM     27  C   UNL A   1      41.013  30.380  34.265  1.00  0.00     0.049 A 
ATOM     28  C   UNL A   1      42.752  27.263  29.951  1.00  0.00     0.074 A 
ATOM     29  C   UNL A   1      41.817  30.386  35.392  1.00  0.00     0.029 A 
ATOM     30  N   UNL A   1      41.622  29.538  33.346  1.00  0.00    -0.354 N 
ATOM     31  N   UNL A   1      42.449  27.896  31.058  1.00  0.00    -0.248 NA
ATOM     32  C   UNL A   1      44.045  26.567  29.989  1.00  0.00     0.031 C 
ATOM     33  C   UNL A   1      42.918  29.556  35.149  1.00  0.00     0.029 A 
ATOM     34  C   UNL A   1      42.793  29.025  33.876  1.00  0.00     0.049 A 
ATOM     35  H   UNL A   1      41.272  29.337  32.448  1.00  0.00     0.167 HD
ATOM     36  C   UNL A   1      43.502  27.659  31.931  1.00  0.00     0.074 A 
ATOM     37  C   UNL A   1      44.437  26.799  31.234  1.00  0.00     0.031 C 
ATOM     38  C   UNL A   1      43.689  28.129  33.189  1.00  0.00     0.034 A 
BRANCH  25  39
ATOM     39  C   UNL A   1      39.273  31.984  35.143  1.00  0.00     0.023 A 
ATOM     40  C   UNL A   1      38.332  31.475  36.062  1.00  0.00     0.012 A 
ATOM     41  C   UNL A   1      39.776  33.288  35.320  1.00  0.00     0.148 A 
ATOM     42  C   UNL A   1      37.882  32.258  37.125  1.00  0.00     0.002 A 
ATOM     43  C   UNL A   1      39.347  34.050  36.402  1.00  0.00     0.091 A 
ATOM     44  F   UNL A   1      40.652  33.763  34.424  1.00  0.00    -0.205 F 
ATOM     45  C   UNL A   1      38.396  33.539  37.301  1.00  0.00     0.022 A 
BRANCH  43  46
ATOM     46  S   UNL A   1      40.005  35.685  36.753  1.00  0.00     0.127 S 
ATOM     47  O   UNL A   1      41.445  35.430  36.752  1.00  0.00    -0.237 OA
ATOM     48  O   UNL A   1      39.525  36.465  35.612  1.00  0.00    -0.237 OA
ATOM     49  O   UNL A   1      39.435  36.076  38.035  1.00  0.00    -0.744 OA
ENDBRANCH  43  46
ENDBRANCH  25  39
BRANCH  26  50
ATOM     50  C   UNL A   1      42.423  26.299  27.549  1.00  0.00     0.023 A 
ATOM     51  C   UNL A   1      43.306  26.852  26.602  1.00  0.00     0.012 A 
ATOM     52  C   UNL A   1      42.051  24.946  27.435  1.00  0.00     0.148 A 
ATOM     53  C   UNL A   1      43.796  26.075  25.552  1.00  0.00     0.002 A 
ATOM     54  C   UNL A   1      42.588  24.163  26.420  1.00  0.00     0.091 A 
ATOM     55  F   UNL A   1      41.191  24.443  28.333  1.00  0.00    -0.205 F 
ATOM     56  C   UNL A   1      43.449  24.729  25.469  1.00  0.00     0.022 A 
BRANCH  54  57
ATOM     57  S   UNL A   1      42.306  22.392  26.340  1.00  0.00     0.127 S 
ATOM     58  O   UNL A   1      42.772  21.954  27.652  1.00  0.00    -0.237 OA
ATOM     59  O   UNL A   1      40.857  22.318  26.144  1.00  0.00    -0.237 OA
ATOM     60  O   UNL A   1      43.083  21.931  25.196  1.00  0.00    -0.744 OA
ENDBRANCH  54  57
ENDBRANCH  26  50
BRANCH  38  61
ATOM     61  C   UNL A   1      44.948  27.715  33.901  1.00  0.00     0.023 A 
ATOM     62  C   UNL A   1      46.093  28.532  33.817  1.00  0.00     0.012 A 
ATOM     63  C   UNL A   1      44.982  26.555  34.699  1.00  0.00     0.148 A 
ATOM     64  C   UNL A   1      47.261  28.186  34.493  1.00  0.00     0.002 A 
ATOM     65  C   UNL A   1      46.137  26.238  35.404  1.00  0.00     0.091 A 
ATOM     66  F   UNL A   1      43.890  25.778  34.746  1.00  0.00    -0.205 F 
ATOM     67  C   UNL A   1      47.280  27.047  35.295  1.00  0.00     0.022 A 
BRANCH  65  68
ATOM     68  S   UNL A   1      46.218  24.837  36.525  1.00  0.00     0.127 S 
ATOM     69  O   UNL A   1      46.184  23.709  35.596  1.00  0.00    -0.237 OA
ATOM     70  O   UNL A   1      47.504  25.041  37.192  1.00  0.00    -0.237 OA
ATOM     71  O   UNL A   1      45.060  24.965  37.401  1.00  0.00    -0.744 OA
ENDBRANCH  65  68
ENDBRANCH  38  61
ENDBRANCH  12  13
ENDBRANCH   5   7
ENDBRANCH   2   3
ENDBRANCH   1   2
BRANCH   1  72
ATOM     72  C   UNL A   1      31.369  27.995  25.420  1.00  0.00     0.002 C 
BRANCH  72  73
ATOM     73  C   UNL A   1      30.393  27.113  24.636  1.00  0.00     0.002 C 
BRANCH  73  74
ATOM     74  C   UNL A   1      31.029  26.082  23.699  1.00  0.00     0.021 C 
BRANCH  74  75
ATOM     75  C   UNL A   1      30.626  24.629  23.948  1.00  0.00     0.116 C 
BRANCH  75  76
ATOM     76  N   UNL A   1      30.292  24.386  25.340  1.00  0.00    -0.352 N 
ATOM     77  C   UNL A   1      30.989  23.680  26.284  1.00  0.00     0.256 C 
ATOM     78  H   UNL A   1      29.446  24.785  25.648  1.00  0.00     0.163 HD
ATOM     79  O   UNL A   1      30.445  23.442  27.366  1.00  0.00    -0.269 OA
BRANCH  77  80
ATOM     80  C   UNL A   1      32.303  23.168  25.979  1.00  0.00     0.104 A 
ATOM     81  C   UNL A   1      33.510  23.887  26.020  1.00  0.00     0.151 A 
ATOM     82  C   UNL A   1      32.667  21.917  25.513  1.00  0.00     0.168 A 
ATOM     83  N   UNL A   1      34.573  23.149  25.705  1.00  0.00    -0.174 NA
ATOM     84  N   UNL A   1      34.068  21.926  25.408  1.00  0.00    -0.209 N 
ATOM     85  N   UNL A   1      31.927  20.806  25.197  1.00  0.00    -0.236 NA
ATOM     86  C   UNL A   1      34.758  20.774  25.040  1.00  0.00     0.150 A 
ATOM     87  C   UNL A   1      32.595  19.753  24.840  1.00  0.00     0.116 A 
ATOM     88  C   UNL A   1      34.072  19.652  24.751  1.00  0.00     0.053 A 
BRANCH  86  89
ATOM     89  C   UNL A   1      36.235  20.868  25.011  1.00  0.00     0.433 C 
ATOM     90  F   UNL A   1      36.699  21.563  23.942  1.00  0.00    -0.165 F 
ATOM     91  F   UNL A   1      36.750  21.433  26.131  1.00  0.00    -0.165 F 
ATOM     92  F   UNL A   1      36.805  19.633  24.922  1.00  0.00    -0.165 F 
ENDBRANCH  86  89
ENDBRANCH  77  80
ENDBRANCH  75  76
ENDBRANCH  74  75
ENDBRANCH  73  74
ENDBRANCH  72  73
ENDBRANCH   1  72
TORSDOF 17
ENDMDL
MODEL 2
REMARK VINA RESULT:     -11.5      2.001      2.757
REMARK SMILES O=C(NCCCCCCNC(=O)c1cnn2c(C(F)(F)F)ccnc12)c1ccc(-c2c3nc(c(-c4cccc(S(=O)(=O)[O-])c4F)c4ccc([nH]4)c(-c4cccc(S(=O)(=O)[O-])c4F)c4nc(c(-c5cccc(S(=O)(=O)[O-])c5F)c5ccc2[nH]5)C=C4)C=C3)cc1
REMARK SMILES IDX 5 1 4 2 3 3 1 4 2 5 26 7 27 8 88 9 28 10 87 11 29 12 30 13
REMARK SMILES IDX 31 14 81 15 32 16 86 17 80 18 82 19 33 20 85 21 79 22 78 23
REMARK SMILES IDX 34 25 66 26 46 27 65 28 47 29 50 30 64 31 83 32 48 33 49 34
REMARK SMILES IDX 63 36 84 37 51 38 35 39 36 40 44 41 37 42 39 43 45 44 38 45
REMARK SMILES IDX 40 46 41 47 42 48 43 49 67 50 68 51 76 52 69 53 71 54 77 55
REMARK SMILES IDX 70 56 72 57 73 58 74 59 75 60 52 61 53 62 61 63 54 64 56 65
REMARK SMILES IDX 62 66 55 67 57 68 58 69 59 70 60 71 6 72 7 73 8 74 9 75
REMARK SMILES IDX 10 76 11 77 12 79 13 80 14 81 25 82 15 83 16 84 24 85 17 86
REMARK SMILES IDX 23 87 22 88 18 89 19 90 20 91 21 92
REMARK H PARENT 3 6 82 24 50 35 10 78
REMARK Flexibility Score: inf
ROOT
ATOM      1  C   UNL A   1      33.724  28.329  24.786  1.00  0.00     0.021 C 
ENDROOT
BRANCH   1   2
ATOM      2  C   UNL A   1      34.111  28.472  26.252  1.00  0.00     0.116 C 
BRANCH   2   3
ATOM      3  N   UNL A   1      33.761  29.769  26.802  1.00  0.00    -0.352 N 
ATOM      4  O   UNL A   1      33.909  31.543  28.181  1.00  0.00    -0.269 OA
ATOM      5  C   UNL A   1      34.438  30.536  27.719  1.00  0.00     0.251 C 
ATOM      6  H   UNL A   1      32.917  30.156  26.469  1.00  0.00     0.163 HD
BRANCH   5   7
ATOM      7  C   UNL A   1      35.791  30.129  28.170  1.00  0.00     0.039 A 
ATOM      8  C   UNL A   1      36.905  30.302  27.344  1.00  0.00     0.014 A 
ATOM      9  C   UNL A   1      35.945  29.580  29.446  1.00  0.00     0.014 A 
ATOM     10  C   UNL A   1      38.146  29.811  27.742  1.00  0.00     0.010 A 
ATOM     11  C   UNL A   1      37.206  29.155  29.873  1.00  0.00     0.010 A 
ATOM     12  C   UNL A   1      38.313  29.241  29.015  1.00  0.00    -0.014 A 
BRANCH  12  13
ATOM     13  C   UNL A   1      39.665  28.812  29.454  1.00  0.00     0.031 A 
ATOM     14  C   UNL A   1      40.393  29.523  30.562  1.00  0.00     0.074 A 
ATOM     15  C   UNL A   1      40.241  27.763  28.835  1.00  0.00     0.049 A 
ATOM     16  N   UNL A   1      41.562  29.251  31.083  1.00  0.00    -0.248 NA
ATOM     17  C   UNL A   1      39.731  30.692  31.160  1.00  0.00     0.031 C 
ATOM     18  C   UNL A   1      39.655  27.027  27.712  1.00  0.00     0.029 A 
ATOM     19  N   UNL A   1      41.442  27.136  29.051  1.00  0.00    -0.354 N 
ATOM     20  C   UNL A   1      41.793  30.228  32.044  1.00  0.00     0.074 A 
ATOM     21  C   UNL A   1      40.644  31.109  32.029  1.00  0.00     0.031 C 
ATOM     22  C   UNL A   1      40.484  26.036  27.353  1.00  0.00     0.029 A 
ATOM     23  C   UNL A   1      41.678  26.090  28.190  1.00  0.00     0.049 A 
ATOM     24  H   UNL A   1      42.073  27.409  29.756  1.00  0.00     0.167 HD
ATOM     25  C   UNL A   1      42.853  30.365  32.876  1.00  0.00     0.034 A 
ATOM     26  C   UNL A   1      42.739  25.270  28.077  1.00  0.00     0.034 A 
ATOM     27  C   UNL A   1      43.977  29.467  32.911  1.00  0.00     0.049 A 
ATOM     28  C   UNL A   1      43.887  25.430  29.032  1.00  0.00     0.074 A 
ATOM     29  C   UNL A   1      45.070  29.489  33.760  1.00  0.00     0.029 A 
ATOM     30  N   UNL A   1      44.157  28.387  32.059  1.00  0.00    -0.354 N 
ATOM     31  N   UNL A   1      44.021  26.276  30.024  1.00  0.00    -0.248 NA
ATOM     32  C   UNL A   1      45.018  24.505  28.872  1.00  0.00     0.031 C 
ATOM     33  C   UNL A   1      45.916  28.429  33.414  1.00  0.00     0.029 A 
ATOM     34  C   UNL A   1      45.344  27.741  32.357  1.00  0.00     0.049 A 
ATOM     35  H   UNL A   1      43.533  28.122  31.346  1.00  0.00     0.167 HD
ATOM     36  C   UNL A   1      45.239  25.973  30.620  1.00  0.00     0.074 A 
ATOM     37  C   UNL A   1      45.790  24.847  29.895  1.00  0.00     0.031 C 
ATOM     38  C   UNL A   1      45.856  26.588  31.658  1.00  0.00     0.034 A 
BRANCH  25  39
ATOM     39  C   UNL A   1      42.829  31.503  33.864  1.00  0.00     0.023 A 
ATOM     40  C   UNL A   1      43.368  32.751  33.490  1.00  0.00     0.012 A 
ATOM     41  C   UNL A   1      42.208  31.367  35.122  1.00  0.00     0.148 A 
ATOM     42  C   UNL A   1      43.313  33.838  34.362  1.00  0.00     0.002 A 
ATOM     43  C   UNL A   1      42.126  32.466  35.971  1.00  0.00     0.091 A 
ATOM     44  F   UNL A   1      41.721  30.167  35.469  1.00  0.00    -0.205 F 
ATOM     45  C   UNL A   1      42.684  33.699  35.596  1.00  0.00     0.022 A 
BRANCH  43  46
ATOM     46  S   UNL A   1      41.274  32.403  37.552  1.00  0.00     0.127 S 
ATOM     47  O   UNL A   1      42.166  31.548  38.334  1.00  0.00    -0.237 OA
ATOM     48  O   UNL A   1      41.267  33.809  37.958  1.00  0.00    -0.237 OA
ATOM     49  O   UNL A   1      39.957  31.849  37.270  1.00  0.00    -0.744 OA
ENDBRANCH  43  46
ENDBRANCH  25  39
BRANCH  26  50
ATOM     50  C   UNL A   1      42.726  24.187  27.055  1.00  0.00     0.023 A 
ATOM     51  C   UNL A   1      43.436  24.362  25.852  1.00  0.00     0.012 A 
ATOM     52  C   UNL A   1      42.067  22.965  27.293  1.00  0.00     0.148 A 
ATOM     53  C   UNL A   1      43.474  23.346  24.896  1.00  0.00     0.002 A 
ATOM     54  C   UNL A   1      42.158  21.936  26.362  1.00  0.00     0.091 A 
ATOM     55  F   UNL A   1      41.378  22.824  28.434  1.00  0.00    -0.205 F 
ATOM     56  C   UNL A   1      42.848  22.130  25.157  1.00  0.00     0.022 A 
BRANCH  54  57
ATOM     57  S   UNL A   1      41.507  20.297  26.697  1.00  0.00     0.127 S 
ATOM     58  O   UNL A   1      41.872  19.575  25.481  1.00  0.00    -0.237 OA
ATOM     59  O   UNL A   1      42.253  19.905  27.894  1.00  0.00    -0.237 OA
ATOM     60  O   UNL A   1      40.080  20.490  26.924  1.00  0.00    -0.744 OA
ENDBRANCH  54  57
ENDBRANCH  26  50
BRANCH  38  61
ATOM     61  C   UNL A   1      47.194  26.048  32.084  1.00  0.00     0.023 A 
ATOM     62  C   UNL A   1      48.360  26.490  31.429  1.00  0.00     0.012 A 
ATOM     63  C   UNL A   1      47.304  25.154  33.167  1.00  0.00     0.148 A 
ATOM     64  C   UNL A   1      49.614  26.029  31.826  1.00  0.00     0.002 A 
ATOM     65  C   UNL A   1      48.561  24.731  33.584  1.00  0.00     0.091 A 
ATOM     66  F   UNL A   1      46.181  24.726  33.761  1.00  0.00    -0.205 F 
ATOM     67  C   UNL A   1      49.715  25.159  32.909  1.00  0.00     0.022 A 
BRANCH  65  68
ATOM     68  S   UNL A   1      48.785  23.679  35.023  1.00  0.00     0.127 S 
ATOM     69  O   UNL A   1      48.082  24.435  36.058  1.00  0.00    -0.237 OA
ATOM     70  O   UNL A   1      48.121  22.440  34.614  1.00  0.00    -0.237 OA
ATOM     71  O   UNL A   1      50.226  23.556  35.202  1.00  0.00    -0.744 OA
ENDBRANCH  65  68
ENDBRANCH  38  61
ENDBRANCH  12  13
ENDBRANCH   5   7
ENDBRANCH   2   3
ENDBRANCH   1   2
BRANCH   1  72
ATOM     72  C   UNL A   1      32.765  27.180  24.469  1.00  0.00     0.002 C 
BRANCH  72  73
ATOM     73  C   UNL A   1      31.359  27.302  25.063  1.00  0.00     0.002 C 
BRANCH  73  74
ATOM     74  C   UNL A   1      30.275  26.450  24.397  1.00  0.00     0.021 C 
BRANCH  74  75
ATOM     75  C   UNL A   1      30.475  24.937  24.491  1.00  0.00     0.116 C 
BRANCH  75  76
ATOM     76  N   UNL A   1      30.116  24.420  25.799  1.00  0.00    -0.352 N 
ATOM     77  C   UNL A   1      30.801  23.545  26.599  1.00  0.00     0.256 C 
ATOM     78  H   UNL A   1      29.259  24.743  26.161  1.00  0.00     0.163 HD
ATOM     79  O   UNL A   1      30.239  23.093  27.600  1.00  0.00    -0.269 OA
BRANCH  77  80
ATOM     80  C   UNL A   1      32.127  23.114  26.228  1.00  0.00     0.104 A 
ATOM     81  C   UNL A   1      33.305  23.879  26.298  1.00  0.00     0.151 A 
ATOM     82  C   UNL A   1      32.531  21.919  25.660  1.00  0.00     0.168 A 
ATOM     83  N   UNL A   1      34.389  23.213  25.904  1.00  0.00    -0.174 NA
ATOM     84  N   UNL A   1      33.927  21.995  25.526  1.00  0.00    -0.209 N 
ATOM     85  N   UNL A   1      31.829  20.804  25.276  1.00  0.00    -0.236 NA
ATOM     86  C   UNL A   1      34.654  20.905  25.057  1.00  0.00     0.150 A 
ATOM     87  C   UNL A   1      32.531  19.811  24.826  1.00  0.00     0.116 A 
ATOM     88  C   UNL A   1      34.008  19.779  24.698  1.00  0.00     0.053 A 
BRANCH  86  89
ATOM     89  C   UNL A   1      36.125  21.063  25.003  1.00  0.00     0.433 C 
ATOM     90  F   UNL A   1      36.535  21.846  23.974  1.00  0.00    -0.165 F 
ATOM     91  F   UNL A   1      36.642  21.574  26.147  1.00  0.00    -0.165 F 
ATOM     92  F   UNL A   1      36.744  19.862  24.821  1.00  0.00    -0.165 F 
ENDBRANCH  86  89
ENDBRANCH  77  80
ENDBRANCH  75  76
ENDBRANCH  74  75
ENDBRANCH  73  74
ENDBRANCH  72  73
ENDBRANCH   1  72
TORSDOF 17
ENDMDL
MODEL 3
REMARK VINA RESULT:     -11.4      2.735      3.858
REMARK SMILES O=C(NCCCCCCNC(=O)c1cnn2c(C(F)(F)F)ccnc12)c1ccc(-c2c3nc(c(-c4cccc(S(=O)(=O)[O-])c4F)c4ccc([nH]4)c(-c4cccc(S(=O)(=O)[O-])c4F)c4nc(c(-c5cccc(S(=O)(=O)[O-])c5F)c5ccc2[nH]5)C=C4)C=C3)cc1
REMARK SMILES IDX 5 1 4 2 3 3 1 4 2 5 26 7 27 8 88 9 28 10 87 11 29 12 30 13
REMARK SMILES IDX 31 14 81 15 32 16 86 17 80 18 82 19 33 20 85 21 79 22 78 23
REMARK SMILES IDX 34 25 66 26 46 27 65 28 47 29 50 30 64 31 83 32 48 33 49 34
REMARK SMILES IDX 63 36 84 37 51 38 35 39 36 40 44 41 37 42 39 43 45 44 38 45
REMARK SMILES IDX 40 46 41 47 42 48 43 49 67 50 68 51 76 52 69 53 71 54 77 55
REMARK SMILES IDX 70 56 72 57 73 58 74 59 75 60 52 61 53 62 61 63 54 64 56 65
REMARK SMILES IDX 62 66 55 67 57 68 58 69 59 70 60 71 6 72 7 73 8 74 9 75
REMARK SMILES IDX 10 76 11 77 12 79 13 80 14 81 25 82 15 83 16 84 24 85 17 86
REMARK SMILES IDX 23 87 22 88 18 89 19 90 20 91 21 92
REMARK H PARENT 3 6 82 24 50 35 10 78
REMARK Flexibility Score: inf
ROOT
ATOM      1  C   UNL A   1      31.692  28.591  26.330  1.00  0.00     0.021 C 
ENDROOT
BRANCH   1   2
ATOM      2  C   UNL A   1      32.713  29.583  25.786  1.00  0.00     0.116 C 
BRANCH   2   3
ATOM      3  N   UNL A   1      32.387  30.960  26.110  1.00  0.00    -0.352 N 
ATOM      4  O   UNL A   1      32.468  32.890  27.267  1.00  0.00    -0.269 OA
ATOM      5  C   UNL A   1      32.980  31.802  27.020  1.00  0.00     0.251 C 
ATOM      6  H   UNL A   1      31.634  31.346  25.606  1.00  0.00     0.163 HD
BRANCH   5   7
ATOM      7  C   UNL A   1      34.216  31.383  27.722  1.00  0.00     0.039 A 
ATOM      8  C   UNL A   1      34.418  30.049  28.088  1.00  0.00     0.014 A 
ATOM      9  C   UNL A   1      35.195  32.340  28.003  1.00  0.00     0.014 A 
ATOM     10  C   UNL A   1      35.533  29.699  28.844  1.00  0.00     0.010 A 
ATOM     11  C   UNL A   1      36.351  31.971  28.698  1.00  0.00     0.010 A 
ATOM     12  C   UNL A   1      36.517  30.653  29.149  1.00  0.00    -0.014 A 
BRANCH  12  13
ATOM     13  C   UNL A   1      37.745  30.235  29.874  1.00  0.00     0.031 A 
ATOM     14  C   UNL A   1      38.023  30.697  31.278  1.00  0.00     0.074 A 
ATOM     15  C   UNL A   1      38.619  29.424  29.245  1.00  0.00     0.049 A 
ATOM     16  N   UNL A   1      39.030  30.394  32.056  1.00  0.00    -0.248 NA
ATOM     17  C   UNL A   1      37.055  31.621  31.887  1.00  0.00     0.031 C 
ATOM     18  C   UNL A   1      38.482  28.953  27.865  1.00  0.00     0.029 A 
ATOM     19  N   UNL A   1      39.793  28.860  29.673  1.00  0.00    -0.354 N 
ATOM     20  C   UNL A   1      38.838  31.111  33.231  1.00  0.00     0.074 A 
ATOM     21  C   UNL A   1      37.620  31.874  33.060  1.00  0.00     0.031 C 
ATOM     22  C   UNL A   1      39.517  28.153  27.567  1.00  0.00     0.029 A 
ATOM     23  C   UNL A   1      40.411  28.088  28.718  1.00  0.00     0.049 A 
ATOM     24  H   UNL A   1      40.157  28.993  30.578  1.00  0.00     0.167 HD
ATOM     25  C   UNL A   1      39.595  31.116  34.355  1.00  0.00     0.034 A 
ATOM     26  C   UNL A   1      41.573  27.408  28.756  1.00  0.00     0.034 A 
ATOM     27  C   UNL A   1      40.787  30.329  34.533  1.00  0.00     0.049 A 
ATOM     28  C   UNL A   1      42.376  27.411  30.026  1.00  0.00     0.074 A 
ATOM     29  C   UNL A   1      41.588  30.221  35.657  1.00  0.00     0.029 A 
ATOM     30  N   UNL A   1      41.355  29.518  33.561  1.00  0.00    -0.354 N 
ATOM     31  N   UNL A   1      42.102  27.986  31.171  1.00  0.00    -0.248 NA
ATOM     32  C   UNL A   1      43.631  26.648  30.018  1.00  0.00     0.031 C 
ATOM     33  C   UNL A   1      42.645  29.353  35.361  1.00  0.00     0.029 A 
ATOM     34  C   UNL A   1      42.497  28.912  34.056  1.00  0.00     0.049 A 
ATOM     35  H   UNL A   1      40.998  29.393  32.652  1.00  0.00     0.167 HD
ATOM     36  C   UNL A   1      43.140  27.639  32.027  1.00  0.00     0.074 A 
ATOM     37  C   UNL A   1      44.031  26.779  31.276  1.00  0.00     0.031 C 
ATOM     38  C   UNL A   1      43.347  28.018  33.312  1.00  0.00     0.034 A 
BRANCH  25  39
ATOM     39  C   UNL A   1      39.129  31.961  35.512  1.00  0.00     0.023 A 
ATOM     40  C   UNL A   1      39.371  33.350  35.492  1.00  0.00     0.012 A 
ATOM     41  C   UNL A   1      38.389  31.404  36.574  1.00  0.00     0.148 A 
ATOM     42  C   UNL A   1      38.906  34.168  36.522  1.00  0.00     0.002 A 
ATOM     43  C   UNL A   1      37.899  32.232  37.579  1.00  0.00     0.091 A 
ATOM     44  F   UNL A   1      38.188  30.079  36.588  1.00  0.00    -0.205 F 
ATOM     45  C   UNL A   1      38.162  33.611  37.558  1.00  0.00     0.022 A 
BRANCH  43  46
ATOM     46  S   UNL A   1      36.871  31.618  38.920  1.00  0.00     0.127 S 
ATOM     47  O   UNL A   1      37.768  31.758  40.066  1.00  0.00    -0.237 OA
ATOM     48  O   UNL A   1      35.749  32.557  38.907  1.00  0.00    -0.237 OA
ATOM     49  O   UNL A   1      36.521  30.252  38.557  1.00  0.00    -0.744 OA
ENDBRANCH  43  46
ENDBRANCH  25  39
BRANCH  26  50
ATOM     50  C   UNL A   1      42.004  26.621  27.568  1.00  0.00     0.023 A 
ATOM     51  C   UNL A   1      42.772  27.245  26.566  1.00  0.00     0.012 A 
ATOM     52  C   UNL A   1      41.711  25.248  27.454  1.00  0.00     0.148 A 
ATOM     53  C   UNL A   1      43.224  26.520  25.463  1.00  0.00     0.002 A 
ATOM     54  C   UNL A   1      42.214  24.519  26.383  1.00  0.00     0.091 A 
ATOM     55  F   UNL A   1      40.960  24.676  28.406  1.00  0.00    -0.205 F 
ATOM     56  C   UNL A   1      42.958  25.156  25.379  1.00  0.00     0.022 A 
BRANCH  54  57
ATOM     57  S   UNL A   1      42.039  22.735  26.287  1.00  0.00     0.127 S 
ATOM     58  O   UNL A   1      42.657  22.441  24.997  1.00  0.00    -0.237 OA
ATOM     59  O   UNL A   1      42.802  22.286  27.453  1.00  0.00    -0.237 OA
ATOM     60  O   UNL A   1      40.606  22.484  26.383  1.00  0.00    -0.744 OA
ENDBRANCH  54  57
ENDBRANCH  26  50
BRANCH  38  61
ATOM     61  C   UNL A   1      44.581  27.494  33.995  1.00  0.00     0.023 A 
ATOM     62  C   UNL A   1      45.768  28.252  33.959  1.00  0.00     0.012 A 
ATOM     63  C   UNL A   1      44.551  26.288  34.722  1.00  0.00     0.148 A 
ATOM     64  C   UNL A   1      46.915  27.803  34.611  1.00  0.00     0.002 A 
ATOM     65  C   UNL A   1      45.687  25.868  35.405  1.00  0.00     0.091 A 
ATOM     66  F   UNL A   1      43.419  25.569  34.725  1.00  0.00    -0.205 F 
ATOM     67  C   UNL A   1      46.872  26.619  35.342  1.00  0.00     0.022 A 
BRANCH  65  68
ATOM     68  S   UNL A   1      45.691  24.399  36.439  1.00  0.00     0.127 S 
ATOM     69  O   UNL A   1      47.062  24.393  36.944  1.00  0.00    -0.237 OA
ATOM     70  O   UNL A   1      44.672  24.718  37.441  1.00  0.00    -0.237 OA
ATOM     71  O   UNL A   1      45.339  23.294  35.558  1.00  0.00    -0.744 OA
ENDBRANCH  65  68
ENDBRANCH  38  61
ENDBRANCH  12  13
ENDBRANCH   5   7
ENDBRANCH   2   3
ENDBRANCH   1   2
BRANCH   1  72
ATOM     72  C   UNL A   1      32.194  27.156  26.494  1.00  0.00     0.002 C 
BRANCH  72  73
ATOM     73  C   UNL A   1      33.664  26.919  26.134  1.00  0.00     0.002 C 
BRANCH  73  74
ATOM     74  C   UNL A   1      34.035  25.484  25.750  1.00  0.00     0.021 C 
BRANCH  74  75
ATOM     75  C   UNL A   1      32.937  24.441  25.957  1.00  0.00     0.116 C 
BRANCH  75  76
ATOM     76  N   UNL A   1      32.753  23.604  24.785  1.00  0.00    -0.352 N 
ATOM     77  C   UNL A   1      31.986  23.832  23.674  1.00  0.00     0.256 C 
ATOM     78  H   UNL A   1      33.248  22.753  24.790  1.00  0.00     0.163 HD
ATOM     79  O   UNL A   1      31.825  22.913  22.866  1.00  0.00    -0.269 OA
BRANCH  77  80
ATOM     80  C   UNL A   1      31.326  25.104  23.500  1.00  0.00     0.104 A 
ATOM     81  C   UNL A   1      29.968  25.380  23.736  1.00  0.00     0.151 A 
ATOM     82  C   UNL A   1      31.834  26.291  23.002  1.00  0.00     0.168 A 
ATOM     83  N   UNL A   1      29.642  26.651  23.507  1.00  0.00    -0.174 NA
ATOM     84  N   UNL A   1      30.790  27.228  23.071  1.00  0.00    -0.209 N 
ATOM     85  N   UNL A   1      33.075  26.628  22.527  1.00  0.00    -0.236 NA
ATOM     86  C   UNL A   1      31.006  28.557  22.718  1.00  0.00     0.150 A 
ATOM     87  C   UNL A   1      33.243  27.869  22.188  1.00  0.00     0.116 A 
ATOM     88  C   UNL A   1      32.219  28.938  22.274  1.00  0.00     0.053 A 
BRANCH  86  89
ATOM     89  C   UNL A   1      29.859  29.480  22.876  1.00  0.00     0.433 C 
ATOM     90  F   UNL A   1      28.660  28.856  22.766  1.00  0.00    -0.165 F 
ATOM     91  F   UNL A   1      29.876  30.144  24.058  1.00  0.00    -0.165 F 
ATOM     92  F   UNL A   1      29.864  30.442  21.910  1.00  0.00    -0.165 F 
ENDBRANCH  86  89
ENDBRANCH  77  80
ENDBRANCH  75  76
ENDBRANCH  74  75
ENDBRANCH  73  74
ENDBRANCH  72  73
ENDBRANCH   1  72
TORSDOF 17
ENDMDL
