MODEL 1
REMARK VINA RESULT:     -12.8      0.000      0.000
REMARK SMILES C[C@H]1Oc2ccccc2C=C1/C=C/C(=O)N[C@H](C(=O)NCCCCCCNC(=O)c1ccc(-c2c3nc(c(-c4cccc(S(=O)(=O)[O-])c4F)c4ccc([nH]4)c(-c4cccc(S(=O)(=O)[O-])c4F)c4nc(c(-c5cccc(S(=O)(=O)[O-])c5F)c5ccc2[nH]5)C=C4)C=C3)cc1)c1ccccc1
REMARK SMILES IDX 23 1 22 2 21 3 20 4 18 5 19 6 17 8 16 9 14 10 15 11 13 13
REMARK SMILES IDX 12 14 11 15 1 16 2 17 3 18 4 19 10 20 5 21 9 22 6 23 8 24
REMARK SMILES IDX 7 25 93 26 94 27 98 28 95 29 97 30 96 31 24 32 25 33 26 34
REMARK SMILES IDX 27 35 28 36 29 38 30 39 31 40 92 41 32 42 91 43 33 44 34 45
REMARK SMILES IDX 35 46 85 47 36 48 90 49 84 50 86 51 37 52 89 53 83 54 82 55
REMARK SMILES IDX 38 57 70 58 50 59 69 60 51 61 54 62 68 63 87 64 52 65 53 66
REMARK SMILES IDX 67 68 88 69 55 70 39 71 40 72 48 73 41 74 43 75 49 76 42 77
REMARK SMILES IDX 44 78 45 79 46 80 47 81 71 82 72 83 80 84 73 85 75 86 81 87
REMARK SMILES IDX 74 88 76 89 77 90 78 91 79 92 56 93 57 94 65 95 58 96 60 97
REMARK SMILES IDX 66 98 59 99 61 100 62 101 63 102 64 103
REMARK H PARENT 20 7 16 12 27 37 86 56 54 67
REMARK Flexibility Score: inf
ROOT
ATOM      1  C   UNL A   1      32.643  26.829  26.097  1.00  0.00     0.002 C 
ENDROOT
BRANCH   1   2
ATOM      2  C   UNL A   1      32.456  25.358  26.497  1.00  0.00     0.021 C 
BRANCH   2   3
ATOM      3  C   UNL A   1      33.650  24.428  26.247  1.00  0.00     0.116 C 
BRANCH   3   4
ATOM      4  N   UNL A   1      33.509  23.106  26.834  1.00  0.00    -0.354 N 
ATOM      5  C   UNL A   1      33.968  21.873  26.487  1.00  0.00     0.247 C 
ATOM      6  O   UNL A   1      33.959  21.041  27.408  1.00  0.00    -0.272 OA
ATOM      7  H   UNL A   1      32.967  23.101  27.656  1.00  0.00     0.163 HD
BRANCH   5   8
ATOM      8  C   UNL A   1      34.366  21.429  25.043  1.00  0.00     0.202 C 
BRANCH   8   9
ATOM      9  N   UNL A   1      35.648  21.795  24.452  1.00  0.00    -0.337 N 
ATOM     10  C   UNL A   1      35.951  22.752  23.531  1.00  0.00     0.244 C 
ATOM     11  O   UNL A   1      37.091  22.800  23.075  1.00  0.00    -0.270 OA
ATOM     12  H   UNL A   1      36.416  21.267  24.768  1.00  0.00     0.164 HD
BRANCH  10  13
ATOM     13  C   UNL A   1      35.011  23.864  23.248  1.00  0.00     0.071 C 
ATOM     14  C   UNL A   1      33.855  23.826  22.571  1.00  0.00     0.013 C 
BRANCH  14  15
ATOM     15  C   UNL A   1      32.813  24.847  22.622  1.00  0.00    -0.007 C 
ATOM     16  C   UNL A   1      32.517  25.593  20.222  1.00  0.00     0.058 C 
ATOM     17  C   UNL A   1      32.934  26.006  21.641  1.00  0.00     0.200 C 
ATOM     18  O   UNL A   1      32.192  27.186  22.014  1.00  0.00    -0.485 OA
ATOM     19  C   UNL A   1      30.991  26.965  22.635  1.00  0.00     0.127 A 
ATOM     20  C   UNL A   1      31.705  24.731  23.371  1.00  0.00     0.019 C 
ATOM     21  C   UNL A   1      30.079  28.018  22.642  1.00  0.00     0.047 A 
ATOM     22  C   UNL A   1      30.683  25.763  23.274  1.00  0.00     0.017 A 
ATOM     23  C   UNL A   1      28.832  27.854  23.246  1.00  0.00     0.004 A 
ATOM     24  C   UNL A   1      29.426  25.596  23.864  1.00  0.00     0.012 A 
ATOM     25  C   UNL A   1      28.498  26.638  23.842  1.00  0.00     0.001 A 
ENDBRANCH  14  15
ENDBRANCH  10  13
ENDBRANCH   8   9
BRANCH   8  26
ATOM     26  C   UNL A   1      33.931  19.998  24.679  1.00  0.00    -0.016 A 
ATOM     27  C   UNL A   1      32.590  19.792  24.287  1.00  0.00     0.006 A 
ATOM     28  C   UNL A   1      34.803  18.901  24.623  1.00  0.00     0.006 A 
ATOM     29  C   UNL A   1      32.149  18.557  23.810  1.00  0.00     0.000 A 
ATOM     30  C   UNL A   1      34.360  17.665  24.134  1.00  0.00     0.000 A 
ATOM     31  C   UNL A   1      33.040  17.495  23.720  1.00  0.00     0.000 A 
ENDBRANCH   8  26
ENDBRANCH   5   8
ENDBRANCH   3   4
ENDBRANCH   2   3
ENDBRANCH   1   2
BRANCH   1  32
ATOM     32  C   UNL A   1      31.488  27.758  26.472  1.00  0.00     0.002 C 
BRANCH  32  33
ATOM     33  C   UNL A   1      31.464  29.102  25.740  1.00  0.00     0.021 C 
BRANCH  33  34
ATOM     34  C   UNL A   1      32.693  29.987  25.925  1.00  0.00     0.116 C 
BRANCH  34  35
ATOM     35  N   UNL A   1      32.401  31.289  26.519  1.00  0.00    -0.352 N 
ATOM     36  C   UNL A   1      33.229  32.057  27.312  1.00  0.00     0.251 C 
ATOM     37  H   UNL A   1      31.509  31.661  26.333  1.00  0.00     0.163 HD
ATOM     38  O   UNL A   1      32.857  33.126  27.781  1.00  0.00    -0.269 OA
BRANCH  36  39
ATOM     39  C   UNL A   1      34.571  31.519  27.605  1.00  0.00     0.039 A 
ATOM     40  C   UNL A   1      34.699  30.161  27.903  1.00  0.00     0.014 A 
ATOM     41  C   UNL A   1      35.627  32.408  27.815  1.00  0.00     0.014 A 
ATOM     42  C   UNL A   1      35.824  29.730  28.593  1.00  0.00     0.010 A 
ATOM     43  C   UNL A   1      36.790  31.949  28.437  1.00  0.00     0.010 A 
ATOM     44  C   UNL A   1      36.868  30.624  28.895  1.00  0.00    -0.014 A 
BRANCH  44  45
ATOM     45  C   UNL A   1      38.015  30.160  29.720  1.00  0.00     0.031 A 
ATOM     46  C   UNL A   1      39.064  29.239  29.149  1.00  0.00     0.074 A 
ATOM     47  C   UNL A   1      38.133  30.613  30.982  1.00  0.00     0.049 A 
ATOM     48  N   UNL A   1      40.115  28.727  29.739  1.00  0.00    -0.248 NA
ATOM     49  C   UNL A   1      38.921  28.833  27.739  1.00  0.00     0.031 C 
ATOM     50  C   UNL A   1      37.180  31.505  31.645  1.00  0.00     0.029 A 
ATOM     51  N   UNL A   1      39.105  30.402  31.927  1.00  0.00    -0.354 N 
ATOM     52  C   UNL A   1      40.724  27.904  28.799  1.00  0.00     0.074 A 
ATOM     53  C   UNL A   1      39.933  27.989  27.590  1.00  0.00     0.031 C 
ATOM     54  C   UNL A   1      37.636  31.804  32.869  1.00  0.00     0.029 A 
ATOM     55  C   UNL A   1      38.878  31.075  33.103  1.00  0.00     0.049 A 
ATOM     56  H   UNL A   1      39.888  29.825  31.776  1.00  0.00     0.167 HD
ATOM     57  C   UNL A   1      41.847  27.160  28.927  1.00  0.00     0.034 A 
ATOM     58  C   UNL A   1      39.579  31.094  34.252  1.00  0.00     0.034 A 
ATOM     59  C   UNL A   1      42.670  27.133  30.106  1.00  0.00     0.049 A 
ATOM     60  C   UNL A   1      40.830  30.275  34.361  1.00  0.00     0.074 A 
ATOM     61  C   UNL A   1      43.853  26.442  30.311  1.00  0.00     0.029 A 
ATOM     62  N   UNL A   1      42.407  27.833  31.272  1.00  0.00    -0.354 N 
ATOM     63  N   UNL A   1      41.409  29.541  33.444  1.00  0.00    -0.248 NA
ATOM     64  C   UNL A   1      41.525  30.288  35.656  1.00  0.00     0.031 C 
ATOM     65  C   UNL A   1      44.304  26.725  31.604  1.00  0.00     0.029 A 
ATOM     66  C   UNL A   1      43.405  27.593  32.201  1.00  0.00     0.049 A 
ATOM     67  H   UNL A   1      41.627  28.416  31.417  1.00  0.00     0.167 HD
ATOM     68  C   UNL A   1      42.539  29.005  34.046  1.00  0.00     0.074 A 
ATOM     69  C   UNL A   1      42.577  29.520  35.401  1.00  0.00     0.031 C 
ATOM     70  C   UNL A   1      43.448  28.145  33.529  1.00  0.00     0.034 A 
BRANCH  57  71
ATOM     71  C   UNL A   1      42.302  26.339  27.749  1.00  0.00     0.023 A 
ATOM     72  C   UNL A   1      43.264  26.871  26.869  1.00  0.00     0.012 A 
ATOM     73  C   UNL A   1      41.872  25.007  27.585  1.00  0.00     0.148 A 
ATOM     74  C   UNL A   1      43.789  26.092  25.838  1.00  0.00     0.002 A 
ATOM     75  C   UNL A   1      42.420  24.228  26.571  1.00  0.00     0.091 A 
ATOM     76  F   UNL A   1      40.950  24.526  28.431  1.00  0.00    -0.205 F 
ATOM     77  C   UNL A   1      43.374  24.770  25.695  1.00  0.00     0.022 A 
BRANCH  75  78
ATOM     78  S   UNL A   1      41.998  22.497  26.334  1.00  0.00     0.127 S 
ATOM     79  O   UNL A   1      42.672  22.202  25.070  1.00  0.00    -0.237 OA
ATOM     80  O   UNL A   1      42.604  21.869  27.508  1.00  0.00    -0.237 OA
ATOM     81  O   UNL A   1      40.544  22.437  26.288  1.00  0.00    -0.744 OA
ENDBRANCH  75  78
ENDBRANCH  57  71
BRANCH  58  82
ATOM     82  C   UNL A   1      39.107  31.958  35.366  1.00  0.00     0.023 A 
ATOM     83  C   UNL A   1      38.229  31.423  36.326  1.00  0.00     0.012 A 
ATOM     84  C   UNL A   1      39.614  33.261  35.540  1.00  0.00     0.148 A 
ATOM     85  C   UNL A   1      37.866  32.171  37.447  1.00  0.00     0.002 A 
ATOM     86  C   UNL A   1      39.288  33.980  36.681  1.00  0.00     0.091 A 
ATOM     87  F   UNL A   1      40.442  33.747  34.604  1.00  0.00    -0.205 F 
ATOM     88  C   UNL A   1      38.407  33.441  37.632  1.00  0.00     0.022 A 
BRANCH  86  89
ATOM     89  S   UNL A   1      40.041  35.564  37.071  1.00  0.00     0.127 S 
ATOM     90  O   UNL A   1      39.643  36.374  35.922  1.00  0.00    -0.237 OA
ATOM     91  O   UNL A   1      39.378  35.910  38.328  1.00  0.00    -0.237 OA
ATOM     92  O   UNL A   1      41.468  35.304  37.194  1.00  0.00    -0.744 OA
ENDBRANCH  86  89
ENDBRANCH  58  82
BRANCH  70  93
ATOM     93  C   UNL A   1      44.569  27.692  34.420  1.00  0.00     0.023 A 
ATOM     94  C   UNL A   1      45.729  28.485  34.516  1.00  0.00     0.012 A 
ATOM     95  C   UNL A   1      44.426  26.559  35.242  1.00  0.00     0.148 A 
ATOM     96  C   UNL A   1      46.738  28.150  35.417  1.00  0.00     0.002 A 
ATOM     97  C   UNL A   1      45.422  26.249  36.160  1.00  0.00     0.091 A 
ATOM     98  F   UNL A   1      43.314  25.819  35.122  1.00  0.00    -0.205 F 
ATOM     99  C   UNL A   1      46.580  27.040  36.246  1.00  0.00     0.022 A 
BRANCH  97 100
ATOM    100  S   UNL A   1      45.281  24.884  37.318  1.00  0.00     0.127 S 
ATOM    101  O   UNL A   1      44.031  25.205  38.005  1.00  0.00    -0.237 OA
ATOM    102  O   UNL A   1      45.209  23.727  36.427  1.00  0.00    -0.237 OA
ATOM    103  O   UNL A   1      46.476  24.936  38.151  1.00  0.00    -0.744 OA
ENDBRANCH  97 100
ENDBRANCH  70  93
ENDBRANCH  44  45
ENDBRANCH  36  39
ENDBRANCH  34  35
ENDBRANCH  33  34
ENDBRANCH  32  33
ENDBRANCH   1  32
TORSDOF 20
ENDMDL
MODEL 2
REMARK VINA RESULT:     -12.3      1.898      7.473
REMARK SMILES C[C@H]1Oc2ccccc2C=C1/C=C/C(=O)N[C@H](C(=O)NCCCCCCNC(=O)c1ccc(-c2c3nc(c(-c4cccc(S(=O)(=O)[O-])c4F)c4ccc([nH]4)c(-c4cccc(S(=O)(=O)[O-])c4F)c4nc(c(-c5cccc(S(=O)(=O)[O-])c5F)c5ccc2[nH]5)C=C4)C=C3)cc1)c1ccccc1
REMARK SMILES IDX 23 1 22 2 21 3 20 4 18 5 19 6 17 8 16 9 14 10 15 11 13 13
REMARK SMILES IDX 12 14 11 15 1 16 2 17 3 18 4 19 10 20 5 21 9 22 6 23 8 24
REMARK SMILES IDX 7 25 93 26 94 27 98 28 95 29 97 30 96 31 24 32 25 33 26 34
REMARK SMILES IDX 27 35 28 36 29 38 30 39 31 40 92 41 32 42 91 43 33 44 34 45
REMARK SMILES IDX 35 46 85 47 36 48 90 49 84 50 86 51 37 52 89 53 83 54 82 55
REMARK SMILES IDX 38 57 70 58 50 59 69 60 51 61 54 62 68 63 87 64 52 65 53 66
REMARK SMILES IDX 67 68 88 69 55 70 39 71 40 72 48 73 41 74 43 75 49 76 42 77
REMARK SMILES IDX 44 78 45 79 46 80 47 81 71 82 72 83 80 84 73 85 75 86 81 87
REMARK SMILES IDX 74 88 76 89 77 90 78 91 79 92 56 93 57 94 65 95 58 96 60 97
REMARK SMILES IDX 66 98 59 99 61 100 62 101 63 102 64 103
REMARK H PARENT 20 7 16 12 27 37 86 56 54 67
REMARK Flexibility Score: inf
ROOT
ATOM      1  C   UNL A   1      32.804  26.916  26.132  1.00  0.00     0.002 C 
ENDROOT
BRANCH   1   2
ATOM      2  C   UNL A   1      32.555  25.454  26.534  1.00  0.00     0.021 C 
BRANCH   2   3
ATOM      3  C   UNL A   1      33.671  24.457  26.200  1.00  0.00     0.116 C 
BRANCH   3   4
ATOM      4  N   UNL A   1      33.517  23.156  26.828  1.00  0.00    -0.354 N 
ATOM      5  C   UNL A   1      33.951  21.906  26.513  1.00  0.00     0.247 C 
ATOM      6  O   UNL A   1      33.941  21.103  27.459  1.00  0.00    -0.272 OA
ATOM      7  H   UNL A   1      32.986  23.185  27.657  1.00  0.00     0.163 HD
BRANCH   5   8
ATOM      8  C   UNL A   1      34.323  21.411  25.079  1.00  0.00     0.202 C 
BRANCH   8   9
ATOM      9  N   UNL A   1      35.601  21.742  24.458  1.00  0.00    -0.337 N 
ATOM     10  C   UNL A   1      35.906  22.679  23.519  1.00  0.00     0.244 C 
ATOM     11  O   UNL A   1      37.038  22.697  23.041  1.00  0.00    -0.270 OA
ATOM     12  H   UNL A   1      36.363  21.202  24.768  1.00  0.00     0.164 HD
BRANCH  10  13
ATOM     13  C   UNL A   1      34.985  23.807  23.239  1.00  0.00     0.071 C 
ATOM     14  C   UNL A   1      33.824  23.789  22.570  1.00  0.00     0.013 C 
BRANCH  14  15
ATOM     15  C   UNL A   1      32.801  24.828  22.624  1.00  0.00    -0.007 C 
ATOM     16  C   UNL A   1      32.526  25.595  20.228  1.00  0.00     0.058 C 
ATOM     17  C   UNL A   1      32.946  25.991  21.650  1.00  0.00     0.200 C 
ATOM     18  O   UNL A   1      32.225  27.183  22.029  1.00  0.00    -0.485 OA
ATOM     19  C   UNL A   1      31.019  26.981  22.645  1.00  0.00     0.127 A 
ATOM     20  C   UNL A   1      31.689  24.729  23.370  1.00  0.00     0.019 C 
ATOM     21  C   UNL A   1      30.127  28.050  22.656  1.00  0.00     0.047 A 
ATOM     22  C   UNL A   1      30.687  25.781  23.277  1.00  0.00     0.017 A 
ATOM     23  C   UNL A   1      28.875  27.906  23.257  1.00  0.00     0.004 A 
ATOM     24  C   UNL A   1      29.425  25.634  23.862  1.00  0.00     0.012 A 
ATOM     25  C   UNL A   1      28.518  26.693  23.844  1.00  0.00     0.001 A 
ENDBRANCH  14  15
ENDBRANCH  10  13
ENDBRANCH   8   9
BRANCH   8  26
ATOM     26  C   UNL A   1      33.865  19.975  24.767  1.00  0.00    -0.016 A 
ATOM     27  C   UNL A   1      34.857  18.989  24.571  1.00  0.00     0.006 A 
ATOM     28  C   UNL A   1      32.525  19.563  24.754  1.00  0.00     0.006 A 
ATOM     29  C   UNL A   1      34.531  17.642  24.420  1.00  0.00     0.000 A 
ATOM     30  C   UNL A   1      32.199  18.207  24.613  1.00  0.00     0.000 A 
ATOM     31  C   UNL A   1      33.199  17.248  24.456  1.00  0.00     0.000 A 
ENDBRANCH   8  26
ENDBRANCH   5   8
ENDBRANCH   3   4
ENDBRANCH   2   3
ENDBRANCH   1   2
BRANCH   1  32
ATOM     32  C   UNL A   1      31.708  27.900  26.542  1.00  0.00     0.002 C 
BRANCH  32  33
ATOM     33  C   UNL A   1      31.733  29.248  25.817  1.00  0.00     0.021 C 
BRANCH  33  34
ATOM     34  C   UNL A   1      32.967  30.114  26.058  1.00  0.00     0.116 C 
BRANCH  34  35
ATOM     35  N   UNL A   1      32.697  31.330  26.819  1.00  0.00    -0.352 N 
ATOM     36  C   UNL A   1      33.558  32.004  27.662  1.00  0.00     0.251 C 
ATOM     37  H   UNL A   1      31.795  31.713  26.721  1.00  0.00     0.163 HD
ATOM     38  O   UNL A   1      33.203  33.004  28.275  1.00  0.00    -0.269 OA
BRANCH  36  39
ATOM     39  C   UNL A   1      34.914  31.448  27.825  1.00  0.00     0.039 A 
ATOM     40  C   UNL A   1      35.050  30.097  28.150  1.00  0.00     0.014 A 
ATOM     41  C   UNL A   1      36.002  32.321  27.893  1.00  0.00     0.014 A 
ATOM     42  C   UNL A   1      36.236  29.664  28.728  1.00  0.00     0.010 A 
ATOM     43  C   UNL A   1      37.216  31.858  28.400  1.00  0.00     0.010 A 
ATOM     44  C   UNL A   1      37.322  30.545  28.888  1.00  0.00    -0.014 A 
BRANCH  44  45
ATOM     45  C   UNL A   1      38.543  30.083  29.599  1.00  0.00     0.031 A 
ATOM     46  C   UNL A   1      38.855  30.552  30.998  1.00  0.00     0.074 A 
ATOM     47  C   UNL A   1      39.352  29.194  28.993  1.00  0.00     0.049 A 
ATOM     48  N   UNL A   1      39.886  30.261  31.750  1.00  0.00    -0.248 NA
ATOM     49  C   UNL A   1      37.896  31.469  31.639  1.00  0.00     0.031 C 
ATOM     50  C   UNL A   1      39.155  28.669  27.640  1.00  0.00     0.029 A 
ATOM     51  N   UNL A   1      40.488  28.564  29.433  1.00  0.00    -0.354 N 
ATOM     52  C   UNL A   1      39.730  30.992  32.923  1.00  0.00     0.074 A 
ATOM     53  C   UNL A   1      38.497  31.738  32.791  1.00  0.00     0.031 C 
ATOM     54  C   UNL A   1      40.106  27.762  27.378  1.00  0.00     0.029 A 
ATOM     55  C   UNL A   1      41.018  27.690  28.515  1.00  0.00     0.049 A 
ATOM     56  H   UNL A   1      40.884  28.724  30.320  1.00  0.00     0.167 HD
ATOM     57  C   UNL A   1      40.531  31.026  34.012  1.00  0.00     0.034 A 
ATOM     58  C   UNL A   1      42.124  26.923  28.570  1.00  0.00     0.034 A 
ATOM     59  C   UNL A   1      41.718  30.229  34.168  1.00  0.00     0.049 A 
ATOM     60  C   UNL A   1      42.984  26.965  29.796  1.00  0.00     0.074 A 
ATOM     61  C   UNL A   1      42.570  30.164  35.258  1.00  0.00     0.029 A 
ATOM     62  N   UNL A   1      42.216  29.353  33.218  1.00  0.00    -0.354 N 
ATOM     63  N   UNL A   1      42.790  27.630  30.908  1.00  0.00    -0.248 NA
ATOM     64  C   UNL A   1      44.208  26.153  29.780  1.00  0.00     0.031 C 
ATOM     65  C   UNL A   1      43.585  29.247  34.964  1.00  0.00     0.029 A 
ATOM     66  C   UNL A   1      43.361  28.740  33.695  1.00  0.00     0.049 A 
ATOM     67  H   UNL A   1      41.813  29.189  32.334  1.00  0.00     0.167 HD
ATOM     68  C   UNL A   1      43.866  27.317  31.728  1.00  0.00     0.074 A 
ATOM     69  C   UNL A   1      44.695  26.381  30.994  1.00  0.00     0.031 C 
ATOM     70  C   UNL A   1      44.151  27.782  32.967  1.00  0.00     0.034 A 
BRANCH  57  71
ATOM     71  C   UNL A   1      40.141  31.915  35.163  1.00  0.00     0.023 A 
ATOM     72  C   UNL A   1      40.608  33.243  35.197  1.00  0.00     0.012 A 
ATOM     73  C   UNL A   1      39.221  31.477  36.137  1.00  0.00     0.148 A 
ATOM     74  C   UNL A   1      40.170  34.123  36.187  1.00  0.00     0.002 A 
ATOM     75  C   UNL A   1      38.768  32.367  37.105  1.00  0.00     0.091 A 
ATOM     76  F   UNL A   1      38.797  30.206  36.088  1.00  0.00    -0.205 F 
ATOM     77  C   UNL A   1      39.244  33.688  37.133  1.00  0.00     0.022 A 
BRANCH  75  78
ATOM     78  S   UNL A   1      37.536  31.928  38.337  1.00  0.00     0.127 S 
ATOM     79  O   UNL A   1      38.267  32.165  39.581  1.00  0.00    -0.237 OA
ATOM     80  O   UNL A   1      36.471  32.893  38.063  1.00  0.00    -0.237 OA
ATOM     81  O   UNL A   1      37.185  30.538  38.081  1.00  0.00    -0.744 OA
ENDBRANCH  75  78
ENDBRANCH  57  71
BRANCH  58  82
ATOM     82  C   UNL A   1      42.435  26.031  27.422  1.00  0.00     0.023 A 
ATOM     83  C   UNL A   1      43.325  26.476  26.428  1.00  0.00     0.012 A 
ATOM     84  C   UNL A   1      41.948  24.711  27.376  1.00  0.00     0.148 A 
ATOM     85  C   UNL A   1      43.730  25.617  25.406  1.00  0.00     0.002 A 
ATOM     86  C   UNL A   1      42.393  23.846  26.385  1.00  0.00     0.091 A 
ATOM     87  F   UNL A   1      41.094  24.317  28.332  1.00  0.00    -0.205 F 
ATOM     88  C   UNL A   1      43.277  24.300  25.394  1.00  0.00     0.022 A 
BRANCH  86  89
ATOM     89  S   UNL A   1      41.971  22.100  26.367  1.00  0.00     0.127 S 
ATOM     90  O   UNL A   1      42.786  21.608  25.259  1.00  0.00    -0.237 OA
ATOM     91  O   UNL A   1      42.411  21.671  27.695  1.00  0.00    -0.237 OA
ATOM     92  O   UNL A   1      40.530  22.043  26.162  1.00  0.00    -0.744 OA
ENDBRANCH  86  89
ENDBRANCH  58  82
BRANCH  70  93
ATOM     93  C   UNL A   1      45.413  27.298  33.623  1.00  0.00     0.023 A 
ATOM     94  C   UNL A   1      45.376  26.116  34.386  1.00  0.00     0.012 A 
ATOM     95  C   UNL A   1      46.642  27.942  33.389  1.00  0.00     0.148 A 
ATOM     96  C   UNL A   1      46.549  25.582  34.916  1.00  0.00     0.002 A 
ATOM     97  C   UNL A   1      47.812  27.387  33.893  1.00  0.00     0.091 A 
ATOM     98  F   UNL A   1      46.644  29.071  32.666  1.00  0.00    -0.205 F 
ATOM     99  C   UNL A   1      47.767  26.210  34.659  1.00  0.00     0.022 A 
BRANCH  97 100
ATOM    100  S   UNL A   1      49.434  28.080  33.559  1.00  0.00     0.127 S 
ATOM    101  O   UNL A   1      50.290  27.260  34.416  1.00  0.00    -0.237 OA
ATOM    102  O   UNL A   1      49.589  27.831  32.126  1.00  0.00    -0.237 OA
ATOM    103  O   UNL A   1      49.357  29.487  33.926  1.00  0.00    -0.744 OA
ENDBRANCH  97 100
ENDBRANCH  70  93
ENDBRANCH  44  45
ENDBRANCH  36  39
ENDBRANCH  34  35
ENDBRANCH  33  34
ENDBRANCH  32  33
ENDBRANCH   1  32
TORSDOF 20
ENDMDL
MODEL 3
REMARK VINA RESULT:     -12.1      2.661      3.280
REMARK SMILES C[C@H]1Oc2ccccc2C=C1/C=C/C(=O)N[C@H](C(=O)NCCCCCCNC(=O)c1ccc(-c2c3nc(c(-c4cccc(S(=O)(=O)[O-])c4F)c4ccc([nH]4)c(-c4cccc(S(=O)(=O)[O-])c4F)c4nc(c(-c5cccc(S(=O)(=O)[O-])c5F)c5ccc2[nH]5)C=C4)C=C3)cc1)c1ccccc1
REMARK SMILES IDX 23 1 22 2 21 3 20 4 18 5 19 6 17 8 16 9 14 10 15 11 13 13
REMARK SMILES IDX 12 14 11 15 1 16 2 17 3 18 4 19 10 20 5 21 9 22 6 23 8 24
REMARK SMILES IDX 7 25 93 26 94 27 98 28 95 29 97 30 96 31 24 32 25 33 26 34
REMARK SMILES IDX 27 35 28 36 29 38 30 39 31 40 92 41 32 42 91 43 33 44 34 45
REMARK SMILES IDX 35 46 85 47 36 48 90 49 84 50 86 51 37 52 89 53 83 54 82 55
REMARK SMILES IDX 38 57 70 58 50 59 69 60 51 61 54 62 68 63 87 64 52 65 53 66
REMARK SMILES IDX 67 68 88 69 55 70 39 71 40 72 48 73 41 74 43 75 49 76 42 77
REMARK SMILES IDX 44 78 45 79 46 80 47 81 71 82 72 83 80 84 73 85 75 86 81 87
REMARK SMILES IDX 74 88 76 89 77 90 78 91 79 92 56 93 57 94 65 95 58 96 60 97
REMARK SMILES IDX 66 98 59 99 61 100 62 101 63 102 64 103
REMARK H PARENT 20 7 16 12 27 37 86 56 54 67
REMARK Flexibility Score: inf
ROOT
ATOM      1  C   UNL A   1      32.788  26.763  26.203  1.00  0.00     0.002 C 
ENDROOT
BRANCH   1   2
ATOM      2  C   UNL A   1      32.493  25.302  26.575  1.00  0.00     0.021 C 
BRANCH   2   3
ATOM      3  C   UNL A   1      33.632  24.300  26.352  1.00  0.00     0.116 C 
BRANCH   3   4
ATOM      4  N   UNL A   1      33.338  22.952  26.809  1.00  0.00    -0.354 N 
ATOM      5  C   UNL A   1      33.717  21.716  26.386  1.00  0.00     0.247 C 
ATOM      6  O   UNL A   1      33.571  20.815  27.228  1.00  0.00    -0.272 OA
ATOM      7  H   UNL A   1      32.739  22.928  27.590  1.00  0.00     0.163 HD
BRANCH   5   8
ATOM      8  C   UNL A   1      34.184  21.357  24.940  1.00  0.00     0.202 C 
BRANCH   8   9
ATOM      9  N   UNL A   1      35.503  21.729  24.442  1.00  0.00    -0.337 N 
ATOM     10  C   UNL A   1      35.870  22.703  23.564  1.00  0.00     0.244 C 
ATOM     11  O   UNL A   1      37.038  22.756  23.185  1.00  0.00    -0.270 OA
ATOM     12  H   UNL A   1      36.246  21.190  24.796  1.00  0.00     0.164 HD
BRANCH  10  13
ATOM     13  C   UNL A   1      34.956  23.827  23.245  1.00  0.00     0.071 C 
ATOM     14  C   UNL A   1      33.749  23.780  22.665  1.00  0.00     0.013 C 
BRANCH  14  15
ATOM     15  C   UNL A   1      32.755  24.848  22.694  1.00  0.00    -0.007 C 
ATOM     16  C   UNL A   1      32.585  25.641  20.296  1.00  0.00     0.058 C 
ATOM     17  C   UNL A   1      32.968  26.013  21.735  1.00  0.00     0.200 C 
ATOM     18  O   UNL A   1      32.270  27.223  22.100  1.00  0.00    -0.485 OA
ATOM     19  C   UNL A   1      31.038  27.052  22.672  1.00  0.00     0.127 A 
ATOM     20  C   UNL A   1      31.616  24.776  23.400  1.00  0.00     0.019 C 
ATOM     21  C   UNL A   1      30.177  28.148  22.662  1.00  0.00     0.047 A 
ATOM     22  C   UNL A   1      30.649  25.858  23.282  1.00  0.00     0.017 A 
ATOM     23  C   UNL A   1      28.902  28.036  23.218  1.00  0.00     0.004 A 
ATOM     24  C   UNL A   1      29.364  25.744  23.822  1.00  0.00     0.012 A 
ATOM     25  C   UNL A   1      28.489  26.829  23.782  1.00  0.00     0.001 A 
ENDBRANCH  14  15
ENDBRANCH  10  13
ENDBRANCH   8   9
BRANCH   8  26
ATOM     26  C   UNL A   1      33.738  19.965  24.458  1.00  0.00    -0.016 A 
ATOM     27  C   UNL A   1      32.514  19.863  23.761  1.00  0.00     0.006 A 
ATOM     28  C   UNL A   1      34.514  18.803  24.586  1.00  0.00     0.006 A 
ATOM     29  C   UNL A   1      32.104  18.667  23.173  1.00  0.00     0.000 A 
ATOM     30  C   UNL A   1      34.104  17.605  23.985  1.00  0.00     0.000 A 
ATOM     31  C   UNL A   1      32.908  17.539  23.273  1.00  0.00     0.000 A 
ENDBRANCH   8  26
ENDBRANCH   5   8
ENDBRANCH   3   4
ENDBRANCH   2   3
ENDBRANCH   1   2
BRANCH   1  32
ATOM     32  C   UNL A   1      31.639  27.742  26.444  1.00  0.00     0.002 C 
BRANCH  32  33
ATOM     33  C   UNL A   1      32.013  29.224  26.368  1.00  0.00     0.021 C 
BRANCH  33  34
ATOM     34  C   UNL A   1      33.451  29.571  26.749  1.00  0.00     0.116 C 
BRANCH  34  35
ATOM     35  N   UNL A   1      33.589  30.859  27.422  1.00  0.00    -0.352 N 
ATOM     36  C   UNL A   1      34.653  31.301  28.182  1.00  0.00     0.251 C 
ATOM     37  H   UNL A   1      32.835  31.485  27.324  1.00  0.00     0.163 HD
ATOM     38  O   UNL A   1      34.639  32.398  28.728  1.00  0.00    -0.269 OA
BRANCH  36  39
ATOM     39  C   UNL A   1      35.794  30.380  28.345  1.00  0.00     0.039 A 
ATOM     40  C   UNL A   1      35.874  29.609  29.506  1.00  0.00     0.014 A 
ATOM     41  C   UNL A   1      36.874  30.477  27.465  1.00  0.00     0.014 A 
ATOM     42  C   UNL A   1      37.106  29.091  29.882  1.00  0.00     0.010 A 
ATOM     43  C   UNL A   1      38.090  29.884  27.812  1.00  0.00     0.010 A 
ATOM     44  C   UNL A   1      38.234  29.248  29.055  1.00  0.00    -0.014 A 
BRANCH  44  45
ATOM     45  C   UNL A   1      39.561  28.771  29.527  1.00  0.00     0.031 A 
ATOM     46  C   UNL A   1      40.266  27.626  28.842  1.00  0.00     0.074 A 
ATOM     47  C   UNL A   1      40.154  29.408  30.554  1.00  0.00     0.049 A 
ATOM     48  N   UNL A   1      41.416  27.076  29.140  1.00  0.00    -0.248 NA
ATOM     49  C   UNL A   1      39.600  27.014  27.679  1.00  0.00     0.031 C 
ATOM     50  C   UNL A   1      39.569  30.525  31.296  1.00  0.00     0.029 A 
ATOM     51  N   UNL A   1      41.380  29.222  31.141  1.00  0.00    -0.354 N 
ATOM     52  C   UNL A   1      41.587  26.027  28.243  1.00  0.00     0.074 A 
ATOM     53  C   UNL A   1      40.427  26.020  27.379  1.00  0.00     0.031 C 
ATOM     54  C   UNL A   1      40.453  30.958  32.207  1.00  0.00     0.029 A 
ATOM     55  C   UNL A   1      41.638  30.109  32.158  1.00  0.00     0.049 A 
ATOM     56  H   UNL A   1      42.013  28.522  30.860  1.00  0.00     0.167 HD
ATOM     57  C   UNL A   1      42.623  25.163  28.140  1.00  0.00     0.034 A 
ATOM     58  C   UNL A   1      42.701  30.221  32.976  1.00  0.00     0.034 A 
ATOM     59  C   UNL A   1      43.807  25.217  28.954  1.00  0.00     0.049 A 
ATOM     60  C   UNL A   1      43.843  29.262  32.828  1.00  0.00     0.074 A 
ATOM     61  C   UNL A   1      44.930  24.409  28.891  1.00  0.00     0.029 A 
ATOM     62  N   UNL A   1      44.030  26.134  29.968  1.00  0.00    -0.354 N 
ATOM     63  N   UNL A   1      44.001  28.309  31.944  1.00  0.00    -0.248 NA
ATOM     64  C   UNL A   1      44.952  29.393  33.783  1.00  0.00     0.031 C 
ATOM     65  C   UNL A   1      45.831  24.837  29.870  1.00  0.00     0.029 A 
ATOM     66  C   UNL A   1      45.272  25.914  30.538  1.00  0.00     0.049 A 
ATOM     67  H   UNL A   1      43.399  26.839  30.242  1.00  0.00     0.167 HD
ATOM     68  C   UNL A   1      45.228  27.725  32.231  1.00  0.00     0.074 A 
ATOM     69  C   UNL A   1      45.784  28.450  33.357  1.00  0.00     0.031 C 
ATOM     70  C   UNL A   1      45.826  26.669  31.631  1.00  0.00     0.034 A 
BRANCH  57  71
ATOM     71  C   UNL A   1      42.566  24.099  27.076  1.00  0.00     0.023 A 
ATOM     72  C   UNL A   1      43.179  24.337  25.830  1.00  0.00     0.012 A 
ATOM     73  C   UNL A   1      42.018  22.830  27.349  1.00  0.00     0.148 A 
ATOM     74  C   UNL A   1      43.243  23.329  24.868  1.00  0.00     0.002 A 
ATOM     75  C   UNL A   1      42.108  21.821  26.395  1.00  0.00     0.091 A 
ATOM     76  F   UNL A   1      41.433  22.630  28.539  1.00  0.00    -0.205 F 
ATOM     77  C   UNL A   1      42.717  22.071  25.154  1.00  0.00     0.022 A 
BRANCH  75  78
ATOM     78  S   UNL A   1      41.515  20.149  26.680  1.00  0.00     0.127 S 
ATOM     79  O   UNL A   1      40.085  20.378  26.886  1.00  0.00    -0.237 OA
ATOM     80  O   UNL A   1      41.851  19.485  25.422  1.00  0.00    -0.237 OA
ATOM     81  O   UNL A   1      42.235  19.658  27.846  1.00  0.00    -0.744 OA
ENDBRANCH  75  78
ENDBRANCH  57  71
BRANCH  58  82
ATOM     82  C   UNL A   1      42.723  31.319  33.979  1.00  0.00     0.023 A 
ATOM     83  C   UNL A   1      43.481  32.474  33.716  1.00  0.00     0.012 A 
ATOM     84  C   UNL A   1      41.908  31.270  35.126  1.00  0.00     0.148 A 
ATOM     85  C   UNL A   1      43.423  33.568  34.579  1.00  0.00     0.002 A 
ATOM     86  C   UNL A   1      41.817  32.381  35.954  1.00  0.00     0.091 A 
ATOM     87  F   UNL A   1      41.203  30.152  35.355  1.00  0.00    -0.205 F 
ATOM     88  C   UNL A   1      42.581  33.528  35.688  1.00  0.00     0.022 A 
BRANCH  86  89
ATOM     89  S   UNL A   1      40.660  32.470  37.325  1.00  0.00     0.127 S 
ATOM     90  O   UNL A   1      41.523  32.166  38.465  1.00  0.00    -0.237 OA
ATOM     91  O   UNL A   1      40.208  33.859  37.247  1.00  0.00    -0.237 OA
ATOM     92  O   UNL A   1      39.628  31.484  37.037  1.00  0.00    -0.744 OA
ENDBRANCH  86  89
ENDBRANCH  58  82
BRANCH  70  93
ATOM     93  C   UNL A   1      47.153  26.217  32.169  1.00  0.00     0.023 A 
ATOM     94  C   UNL A   1      47.181  25.299  33.236  1.00  0.00     0.012 A 
ATOM     95  C   UNL A   1      48.355  26.606  31.549  1.00  0.00     0.148 A 
ATOM     96  C   UNL A   1      48.393  24.777  33.685  1.00  0.00     0.002 A 
ATOM     97  C   UNL A   1      49.556  26.058  31.980  1.00  0.00     0.091 A 
ATOM     98  F   UNL A   1      48.297  27.489  30.541  1.00  0.00    -0.205 F 
ATOM     99  C   UNL A   1      49.578  25.146  33.050  1.00  0.00     0.022 A 
BRANCH  97 100
ATOM    100  S   UNL A   1      51.126  26.414  31.184  1.00  0.00     0.127 S 
ATOM    101  O   UNL A   1      50.851  26.030  29.800  1.00  0.00    -0.237 OA
ATOM    102  O   UNL A   1      51.263  27.854  31.402  1.00  0.00    -0.237 OA
ATOM    103  O   UNL A   1      52.121  25.599  31.867  1.00  0.00    -0.744 OA
ENDBRANCH  97 100
ENDBRANCH  70  93
ENDBRANCH  44  45
ENDBRANCH  36  39
ENDBRANCH  34  35
ENDBRANCH  33  34
ENDBRANCH  32  33
ENDBRANCH   1  32
TORSDOF 20
ENDMDL
