MODEL 1
REMARK VINA RESULT:     -12.0      0.000      0.000
REMARK SMILES O=C(NCCCCCCNC(=O)[C@@H]1CC2(CCN(C(=O)C3(c4ccccc4F)CC3)CC2)C[NH2+]1)c1ccc(-c2c3nc(c(-c4cccc(S(=O)(=O)[O-])c4F)c4ccc([nH]4)c(-c4cccc(S(=O)(=O)[O-])c4F)c4nc(c(-c5cccc(S(=O)(=O)[O-])c5F)c5ccc2[nH]5)C=C4)C=C3)cc1
REMARK SMILES IDX 6 1 5 2 4 3 3 4 1 5 2 6 35 8 36 9 97 10 37 11 96 12 38 13
REMARK SMILES IDX 39 14 40 15 90 16 41 17 95 18 89 19 91 20 42 21 94 22 88 23
REMARK SMILES IDX 87 24 43 26 75 27 55 28 74 29 56 30 59 31 73 32 92 33 57 34
REMARK SMILES IDX 58 35 72 37 93 38 60 39 44 40 45 41 53 42 46 43 48 44 54 45
REMARK SMILES IDX 47 46 49 47 50 48 51 49 52 50 76 51 77 52 85 53 78 54 80 55
REMARK SMILES IDX 86 56 79 57 81 58 82 59 83 60 84 61 61 62 62 63 70 64 63 65
REMARK SMILES IDX 65 66 71 67 64 68 66 69 67 70 68 71 69 72 7 73 8 74 9 75
REMARK SMILES IDX 10 76 11 77 12 79 13 80 14 81 34 82 15 83 33 84 16 87 32 88
REMARK SMILES IDX 17 89 31 90 18 91 19 92 20 93 21 94 29 95 30 96 22 97 23 98
REMARK SMILES IDX 27 99 24 100 26 101 28 102 25 103
REMARK H PARENT 3 7 91 25 59 36 10 78 34 85 34 86
REMARK Flexibility Score: inf
ROOT
ATOM      1  C   UNL A   1      45.993  21.191  36.042  1.00  0.00     0.002 C 
ENDROOT
BRANCH   1   2
ATOM      2  C   UNL A   1      45.734  22.637  35.616  1.00  0.00     0.021 C 
BRANCH   2   3
ATOM      3  C   UNL A   1      46.997  23.429  35.310  1.00  0.00     0.116 C 
BRANCH   3   4
ATOM      4  N   UNL A   1      47.391  24.261  36.432  1.00  0.00    -0.352 N 
ATOM      5  O   UNL A   1      47.707  26.201  37.530  1.00  0.00    -0.269 OA
ATOM      6  C   UNL A   1      47.091  25.578  36.668  1.00  0.00     0.251 C 
ATOM      7  H   UNL A   1      47.949  23.821  37.114  1.00  0.00     0.163 HD
BRANCH   6   8
ATOM      8  C   UNL A   1      46.038  26.238  35.869  1.00  0.00     0.039 A 
ATOM      9  C   UNL A   1      44.687  26.045  36.177  1.00  0.00     0.014 A 
ATOM     10  C   UNL A   1      46.408  27.066  34.809  1.00  0.00     0.014 A 
ATOM     11  C   UNL A   1      43.704  26.592  35.358  1.00  0.00     0.010 A 
ATOM     12  C   UNL A   1      45.419  27.674  34.033  1.00  0.00     0.010 A 
ATOM     13  C   UNL A   1      44.061  27.428  34.289  1.00  0.00    -0.014 A 
BRANCH  13  14
ATOM     14  C   UNL A   1      43.015  28.111  33.489  1.00  0.00     0.031 A 
ATOM     15  C   UNL A   1      42.079  29.099  34.128  1.00  0.00     0.074 A 
ATOM     16  C   UNL A   1      42.883  27.793  32.186  1.00  0.00     0.049 A 
ATOM     17  N   UNL A   1      41.036  29.695  33.611  1.00  0.00    -0.248 NA
ATOM     18  C   UNL A   1      42.346  29.468  35.529  1.00  0.00     0.031 C 
ATOM     19  C   UNL A   1      43.727  26.841  31.459  1.00  0.00     0.029 A 
ATOM     20  N   UNL A   1      41.975  28.214  31.246  1.00  0.00    -0.354 N 
ATOM     21  C   UNL A   1      40.500  30.478  34.626  1.00  0.00     0.074 A 
ATOM     22  C   UNL A   1      41.331  30.282  35.795  1.00  0.00     0.031 C 
ATOM     23  C   UNL A   1      43.297  26.748  30.192  1.00  0.00     0.029 A 
ATOM     24  C   UNL A   1      42.112  27.582  30.033  1.00  0.00     0.049 A 
ATOM     25  H   UNL A   1      41.293  28.901  31.425  1.00  0.00     0.167 HD
ATOM     26  C   UNL A   1      39.419  31.292  34.580  1.00  0.00     0.034 A 
ATOM     27  C   UNL A   1      41.348  27.635  28.926  1.00  0.00     0.034 A 
ATOM     28  C   UNL A   1      38.612  31.500  33.406  1.00  0.00     0.049 A 
ATOM     29  C   UNL A   1      40.139  28.527  28.921  1.00  0.00     0.074 A 
ATOM     30  C   UNL A   1      37.516  32.332  33.257  1.00  0.00     0.029 A 
ATOM     31  N   UNL A   1      38.805  30.874  32.185  1.00  0.00    -0.354 N 
ATOM     32  N   UNL A   1      39.699  29.328  29.862  1.00  0.00    -0.248 NA
ATOM     33  C   UNL A   1      39.334  28.545  27.692  1.00  0.00     0.031 C 
ATOM     34  C   UNL A   1      37.032  32.191  31.953  1.00  0.00     0.029 A 
ATOM     35  C   UNL A   1      37.847  31.297  31.279  1.00  0.00     0.049 A 
ATOM     36  H   UNL A   1      39.519  30.224  31.990  1.00  0.00     0.167 HD
ATOM     37  C   UNL A   1      38.585  29.966  29.326  1.00  0.00     0.074 A 
ATOM     38  C   UNL A   1      38.441  29.485  27.969  1.00  0.00     0.031 C 
ATOM     39  C   UNL A   1      37.745  30.852  29.914  1.00  0.00     0.034 A 
BRANCH  26  40
ATOM     40  C   UNL A   1      39.052  32.072  35.816  1.00  0.00     0.023 A 
ATOM     41  C   UNL A   1      39.397  33.435  35.901  1.00  0.00     0.012 A 
ATOM     42  C   UNL A   1      38.245  31.497  36.819  1.00  0.00     0.148 A 
ATOM     43  C   UNL A   1      38.947  34.215  36.966  1.00  0.00     0.002 A 
ATOM     44  C   UNL A   1      37.765  32.291  37.854  1.00  0.00     0.091 A 
ATOM     45  F   UNL A   1      37.940  30.195  36.724  1.00  0.00    -0.205 F 
ATOM     46  C   UNL A   1      38.120  33.647  37.933  1.00  0.00     0.022 A 
BRANCH  44  47
ATOM     47  S   UNL A   1      36.625  31.683  39.103  1.00  0.00     0.127 S 
ATOM     48  O   UNL A   1      37.413  31.844  40.325  1.00  0.00    -0.237 OA
ATOM     49  O   UNL A   1      35.506  32.616  38.972  1.00  0.00    -0.237 OA
ATOM     50  O   UNL A   1      36.325  30.305  38.742  1.00  0.00    -0.744 OA
ENDBRANCH  44  47
ENDBRANCH  26  40
BRANCH  27  51
ATOM     51  C   UNL A   1      41.716  26.839  27.720  1.00  0.00     0.023 A 
ATOM     52  C   UNL A   1      42.322  27.487  26.626  1.00  0.00     0.012 A 
ATOM     53  C   UNL A   1      41.483  25.451  27.653  1.00  0.00     0.148 A 
ATOM     54  C   UNL A   1      42.654  26.776  25.473  1.00  0.00     0.002 A 
ATOM     55  C   UNL A   1      41.874  24.738  26.526  1.00  0.00     0.091 A 
ATOM     56  F   UNL A   1      40.891  24.853  28.696  1.00  0.00    -0.205 F 
ATOM     57  C   UNL A   1      42.441  25.401  25.427  1.00  0.00     0.022 A 
BRANCH  55  58
ATOM     58  S   UNL A   1      41.769  22.947  26.436  1.00  0.00     0.127 S 
ATOM     59  O   UNL A   1      40.326  22.736  26.371  1.00  0.00    -0.237 OA
ATOM     60  O   UNL A   1      42.490  22.665  25.194  1.00  0.00    -0.237 OA
ATOM     61  O   UNL A   1      42.430  22.455  27.637  1.00  0.00    -0.744 OA
ENDBRANCH  55  58
ENDBRANCH  27  51
BRANCH  39  62
ATOM     62  C   UNL A   1      36.607  31.389  29.083  1.00  0.00     0.023 A 
ATOM     63  C   UNL A   1      36.600  32.745  28.698  1.00  0.00     0.012 A 
ATOM     64  C   UNL A   1      35.580  30.537  28.631  1.00  0.00     0.148 A 
ATOM     65  C   UNL A   1      35.566  33.253  27.912  1.00  0.00     0.002 A 
ATOM     66  C   UNL A   1      34.585  31.038  27.800  1.00  0.00     0.091 A 
ATOM     67  F   UNL A   1      35.593  29.254  29.020  1.00  0.00    -0.205 F 
ATOM     68  C   UNL A   1      34.567  32.399  27.453  1.00  0.00     0.022 A 
BRANCH  66  69
ATOM     69  S   UNL A   1      33.318  29.991  27.076  1.00  0.00     0.127 S 
ATOM     70  O   UNL A   1      33.840  29.779  25.728  1.00  0.00    -0.237 OA
ATOM     71  O   UNL A   1      33.360  28.809  27.939  1.00  0.00    -0.237 OA
ATOM     72  O   UNL A   1      32.078  30.751  27.155  1.00  0.00    -0.744 OA
ENDBRANCH  66  69
ENDBRANCH  39  62
ENDBRANCH  13  14
ENDBRANCH   6   8
ENDBRANCH   3   4
ENDBRANCH   2   3
ENDBRANCH   1   2
BRANCH   1  73
ATOM     73  C   UNL A   1      47.347  20.626  35.601  1.00  0.00     0.002 C 
BRANCH  73  74
ATOM     74  C   UNL A   1      48.311  20.285  36.746  1.00  0.00     0.021 C 
BRANCH  74  75
ATOM     75  C   UNL A   1      47.716  20.482  38.139  1.00  0.00     0.116 C 
BRANCH  75  76
ATOM     76  N   UNL A   1      48.313  19.560  39.079  1.00  0.00    -0.351 N 
ATOM     77  C   UNL A   1      47.763  18.898  40.126  1.00  0.00     0.278 C 
ATOM     78  H   UNL A   1      49.271  19.385  38.935  1.00  0.00     0.163 HD
ATOM     79  O   UNL A   1      48.544  18.309  40.877  1.00  0.00    -0.268 OA
BRANCH  77  80
ATOM     80  C   UNL A   1      46.229  18.843  40.291  1.00  0.00     0.273 C 
ATOM     81  C   UNL A   1      45.814  18.211  41.607  1.00  0.00     0.088 C 
ATOM     82  N   UNL A   1      45.622  17.951  39.283  1.00  0.00    -0.336 N 
ATOM     83  C   UNL A   1      45.681  16.698  41.320  1.00  0.00     0.029 C 
ATOM     84  C   UNL A   1      45.806  16.589  39.791  1.00  0.00     0.268 C 
ATOM     85  H   UNL A   1      46.091  18.061  38.384  1.00  0.00     0.346 HD
ATOM     86  H   UNL A   1      44.636  18.167  39.136  1.00  0.00     0.346 HD
ATOM     87  C   UNL A   1      44.314  16.167  41.803  1.00  0.00     0.034 C 
ATOM     88  C   UNL A   1      46.776  15.875  42.024  1.00  0.00     0.034 C 
ATOM     89  C   UNL A   1      44.194  16.139  43.331  1.00  0.00     0.120 C 
ATOM     90  C   UNL A   1      46.632  15.946  43.538  1.00  0.00     0.120 C 
ATOM     91  N   UNL A   1      45.320  15.444  43.948  1.00  0.00    -0.342 N 
ATOM     92  C   UNL A   1      45.329  14.361  44.827  1.00  0.00     0.233 C 
ATOM     93  O   UNL A   1      46.408  13.820  45.087  1.00  0.00    -0.274 OA
BRANCH  92  94
ATOM     94  C   UNL A   1      44.105  13.770  45.524  1.00  0.00     0.077 C 
ATOM     95  C   UNL A   1      43.802  13.625  47.012  1.00  0.00     0.023 C 
ATOM     96  C   UNL A   1      43.235  14.787  46.264  1.00  0.00     0.023 C 
BRANCH  94  97
ATOM     97  C   UNL A   1      43.443  12.665  44.673  1.00  0.00     0.003 A 
ATOM     98  C   UNL A   1      42.471  12.983  43.705  1.00  0.00     0.008 A 
ATOM     99  C   UNL A   1      43.672  11.302  44.925  1.00  0.00     0.127 A 
ATOM    100  C   UNL A   1      41.746  11.985  43.048  1.00  0.00     0.001 A 
ATOM    101  C   UNL A   1      42.937  10.302  44.295  1.00  0.00     0.039 A 
ATOM    102  F   UNL A   1      44.595  10.939  45.830  1.00  0.00    -0.207 F 
ATOM    103  C   UNL A   1      41.965  10.645  43.357  1.00  0.00     0.003 A 
ENDBRANCH  94  97
ENDBRANCH  92  94
ENDBRANCH  77  80
ENDBRANCH  75  76
ENDBRANCH  74  75
ENDBRANCH  73  74
ENDBRANCH   1  73
TORSDOF 18
ENDMDL
MODEL 2
REMARK VINA RESULT:     -12.0      7.732     15.839
REMARK SMILES O=C(NCCCCCCNC(=O)[C@@H]1CC2(CCN(C(=O)C3(c4ccccc4F)CC3)CC2)C[NH2+]1)c1ccc(-c2c3nc(c(-c4cccc(S(=O)(=O)[O-])c4F)c4ccc([nH]4)c(-c4cccc(S(=O)(=O)[O-])c4F)c4nc(c(-c5cccc(S(=O)(=O)[O-])c5F)c5ccc2[nH]5)C=C4)C=C3)cc1
REMARK SMILES IDX 6 1 5 2 4 3 3 4 1 5 2 6 35 8 36 9 97 10 37 11 96 12 38 13
REMARK SMILES IDX 39 14 40 15 90 16 41 17 95 18 89 19 91 20 42 21 94 22 88 23
REMARK SMILES IDX 87 24 43 26 75 27 55 28 74 29 56 30 59 31 73 32 92 33 57 34
REMARK SMILES IDX 58 35 72 37 93 38 60 39 44 40 45 41 53 42 46 43 48 44 54 45
REMARK SMILES IDX 47 46 49 47 50 48 51 49 52 50 76 51 77 52 85 53 78 54 80 55
REMARK SMILES IDX 86 56 79 57 81 58 82 59 83 60 84 61 61 62 62 63 70 64 63 65
REMARK SMILES IDX 65 66 71 67 64 68 66 69 67 70 68 71 69 72 7 73 8 74 9 75
REMARK SMILES IDX 10 76 11 77 12 79 13 80 14 81 34 82 15 83 33 84 16 87 32 88
REMARK SMILES IDX 17 89 31 90 18 91 19 92 20 93 21 94 29 95 30 96 22 97 23 98
REMARK SMILES IDX 27 99 24 100 26 101 28 102 25 103
REMARK H PARENT 3 7 91 25 59 36 10 78 34 85 34 86
REMARK Flexibility Score: inf
ROOT
ATOM      1  C   UNL A   1      34.800  35.127  34.337  1.00  0.00     0.002 C 
ENDROOT
BRANCH   1   2
ATOM      2  C   UNL A   1      35.666  33.879  34.519  1.00  0.00     0.021 C 
BRANCH   2   3
ATOM      3  C   UNL A   1      37.104  34.175  34.923  1.00  0.00     0.116 C 
BRANCH   3   4
ATOM      4  N   UNL A   1      37.423  33.600  36.217  1.00  0.00    -0.352 N 
ATOM      5  O   UNL A   1      38.261  32.048  37.617  1.00  0.00    -0.269 OA
ATOM      6  C   UNL A   1      38.294  32.582  36.510  1.00  0.00     0.251 C 
ATOM      7  H   UNL A   1      36.951  33.992  36.987  1.00  0.00     0.163 HD
BRANCH   6   8
ATOM      8  C   UNL A   1      39.253  32.128  35.483  1.00  0.00     0.039 A 
ATOM      9  C   UNL A   1      38.815  31.382  34.382  1.00  0.00     0.014 A 
ATOM     10  C   UNL A   1      40.601  32.461  35.616  1.00  0.00     0.014 A 
ATOM     11  C   UNL A   1      39.740  30.877  33.475  1.00  0.00     0.010 A 
ATOM     12  C   UNL A   1      41.518  32.014  34.663  1.00  0.00     0.010 A 
ATOM     13  C   UNL A   1      41.099  31.204  33.596  1.00  0.00    -0.014 A 
BRANCH  13  14
ATOM     14  C   UNL A   1      42.070  30.769  32.562  1.00  0.00     0.031 A 
ATOM     15  C   UNL A   1      42.711  29.411  32.631  1.00  0.00     0.074 A 
ATOM     16  C   UNL A   1      42.408  31.633  31.584  1.00  0.00     0.049 A 
ATOM     17  N   UNL A   1      43.666  28.915  31.887  1.00  0.00    -0.248 NA
ATOM     18  C   UNL A   1      42.221  28.489  33.669  1.00  0.00     0.031 C 
ATOM     19  C   UNL A   1      41.859  32.981  31.420  1.00  0.00     0.029 A 
ATOM     20  N   UNL A   1      43.314  31.518  30.559  1.00  0.00    -0.354 N 
ATOM     21  C   UNL A   1      43.917  27.642  32.385  1.00  0.00     0.074 A 
ATOM     22  C   UNL A   1      43.016  27.439  33.499  1.00  0.00     0.031 C 
ATOM     23  C   UNL A   1      42.438  33.568  30.363  1.00  0.00     0.029 A 
ATOM     24  C   UNL A   1      43.443  32.667  29.814  1.00  0.00     0.049 A 
ATOM     25  H   UNL A   1      43.820  30.695  30.376  1.00  0.00     0.167 HD
ATOM     26  C   UNL A   1      44.812  26.727  31.944  1.00  0.00     0.034 A 
ATOM     27  C   UNL A   1      44.300  32.977  28.823  1.00  0.00     0.034 A 
ATOM     28  C   UNL A   1      45.688  26.928  30.819  1.00  0.00     0.049 A 
ATOM     29  C   UNL A   1      45.300  31.946  28.379  1.00  0.00     0.074 A 
ATOM     30  C   UNL A   1      46.606  26.043  30.279  1.00  0.00     0.029 A 
ATOM     31  N   UNL A   1      45.762  28.088  30.064  1.00  0.00    -0.354 N 
ATOM     32  N   UNL A   1      45.462  30.716  28.803  1.00  0.00    -0.248 NA
ATOM     33  C   UNL A   1      46.218  32.336  27.300  1.00  0.00     0.031 C 
ATOM     34  C   UNL A   1      47.251  26.677  29.213  1.00  0.00     0.029 A 
ATOM     35  C   UNL A   1      46.712  27.944  29.066  1.00  0.00     0.049 A 
ATOM     36  H   UNL A   1      45.219  28.895  30.215  1.00  0.00     0.167 HD
ATOM     37  C   UNL A   1      46.479  30.177  28.023  1.00  0.00     0.074 A 
ATOM     38  C   UNL A   1      46.868  31.202  27.078  1.00  0.00     0.031 C 
ATOM     39  C   UNL A   1      47.054  28.952  28.097  1.00  0.00     0.034 A 
BRANCH  26  40
ATOM     40  C   UNL A   1      44.875  25.390  32.636  1.00  0.00     0.023 A 
ATOM     41  C   UNL A   1      44.065  24.334  32.173  1.00  0.00     0.012 A 
ATOM     42  C   UNL A   1      45.833  25.141  33.639  1.00  0.00     0.148 A 
ATOM     43  C   UNL A   1      44.205  23.051  32.701  1.00  0.00     0.002 A 
ATOM     44  C   UNL A   1      45.996  23.850  34.128  1.00  0.00     0.091 A 
ATOM     45  F   UNL A   1      46.584  26.163  34.072  1.00  0.00    -0.205 F 
ATOM     46  C   UNL A   1      45.179  22.806  33.666  1.00  0.00     0.022 A 
BRANCH  44  47
ATOM     47  S   UNL A   1      47.278  23.407  35.308  1.00  0.00     0.127 S 
ATOM     48  O   UNL A   1      46.993  21.990  35.535  1.00  0.00    -0.237 OA
ATOM     49  O   UNL A   1      48.497  23.669  34.544  1.00  0.00    -0.237 OA
ATOM     50  O   UNL A   1      47.078  24.268  36.465  1.00  0.00    -0.744 OA
ENDBRANCH  44  47
ENDBRANCH  26  40
BRANCH  27  51
ATOM     51  C   UNL A   1      44.236  34.314  28.166  1.00  0.00     0.023 A 
ATOM     52  C   UNL A   1      43.313  34.524  27.123  1.00  0.00     0.012 A 
ATOM     53  C   UNL A   1      45.069  35.375  28.570  1.00  0.00     0.148 A 
ATOM     54  C   UNL A   1      43.247  35.754  26.469  1.00  0.00     0.002 A 
ATOM     55  C   UNL A   1      44.954  36.618  27.957  1.00  0.00     0.091 A 
ATOM     56  F   UNL A   1      45.953  35.153  29.553  1.00  0.00    -0.205 F 
ATOM     57  C   UNL A   1      44.059  36.804  26.892  1.00  0.00     0.022 A 
BRANCH  55  58
ATOM     58  S   UNL A   1      45.855  38.061  28.530  1.00  0.00     0.127 S 
ATOM     59  O   UNL A   1      45.498  39.056  27.523  1.00  0.00    -0.237 OA
ATOM     60  O   UNL A   1      45.266  38.280  29.851  1.00  0.00    -0.237 OA
ATOM     61  O   UNL A   1      47.256  37.662  28.559  1.00  0.00    -0.744 OA
ENDBRANCH  55  58
ENDBRANCH  27  51
BRANCH  39  62
ATOM     62  C   UNL A   1      48.147  28.635  27.109  1.00  0.00     0.023 A 
ATOM     63  C   UNL A   1      49.496  28.818  27.474  1.00  0.00     0.012 A 
ATOM     64  C   UNL A   1      47.842  28.095  25.844  1.00  0.00     0.148 A 
ATOM     65  C   UNL A   1      50.521  28.510  26.581  1.00  0.00     0.002 A 
ATOM     66  C   UNL A   1      48.870  27.736  24.981  1.00  0.00     0.091 A 
ATOM     67  F   UNL A   1      46.553  27.943  25.507  1.00  0.00    -0.205 F 
ATOM     68  C   UNL A   1      50.209  27.958  25.341  1.00  0.00     0.022 A 
BRANCH  66  69
ATOM     69  S   UNL A   1      48.567  26.922  23.409  1.00  0.00     0.127 S 
ATOM     70  O   UNL A   1      47.682  27.876  22.744  1.00  0.00    -0.237 OA
ATOM     71  O   UNL A   1      49.912  26.839  22.838  1.00  0.00    -0.237 OA
ATOM     72  O   UNL A   1      47.968  25.634  23.734  1.00  0.00    -0.744 OA
ENDBRANCH  66  69
ENDBRANCH  39  62
ENDBRANCH  13  14
ENDBRANCH   6   8
ENDBRANCH   3   4
ENDBRANCH   2   3
ENDBRANCH   1   2
BRANCH   1  73
ATOM     73  C   UNL A   1      34.832  35.727  32.928  1.00  0.00     0.002 C 
BRANCH  73  74
ATOM     74  C   UNL A   1      34.064  37.048  32.769  1.00  0.00     0.021 C 
BRANCH  74  75
ATOM     75  C   UNL A   1      32.924  36.987  31.755  1.00  0.00     0.116 C 
BRANCH  75  76
ATOM     76  N   UNL A   1      33.409  37.295  30.429  1.00  0.00    -0.351 N 
ATOM     77  C   UNL A   1      33.601  36.488  29.357  1.00  0.00     0.278 C 
ATOM     78  H   UNL A   1      33.638  38.241  30.282  1.00  0.00     0.163 HD
ATOM     79  O   UNL A   1      34.199  36.980  28.397  1.00  0.00    -0.268 OA
BRANCH  77  80
ATOM     80  C   UNL A   1      33.016  35.059  29.346  1.00  0.00     0.273 C 
ATOM     81  C   UNL A   1      33.961  34.046  29.964  1.00  0.00     0.088 C 
ATOM     82  N   UNL A   1      32.852  34.567  27.963  1.00  0.00    -0.336 N 
ATOM     83  C   UNL A   1      34.837  33.527  28.801  1.00  0.00     0.029 C 
ATOM     84  C   UNL A   1      34.179  34.114  27.540  1.00  0.00     0.268 C 
ATOM     85  H   UNL A   1      32.523  35.319  27.357  1.00  0.00     0.346 HD
ATOM     86  H   UNL A   1      32.164  33.816  27.912  1.00  0.00     0.346 HD
ATOM     87  C   UNL A   1      34.837  31.984  28.759  1.00  0.00     0.034 C 
ATOM     88  C   UNL A   1      36.301  33.989  28.925  1.00  0.00     0.034 C 
ATOM     89  C   UNL A   1      35.595  31.359  29.935  1.00  0.00     0.120 C 
ATOM     90  C   UNL A   1      36.970  33.380  30.149  1.00  0.00     0.120 C 
ATOM     91  N   UNL A   1      36.936  31.920  30.072  1.00  0.00    -0.342 N 
ATOM     92  C   UNL A   1      38.175  31.278  30.100  1.00  0.00     0.233 C 
ATOM     93  O   UNL A   1      39.197  31.967  30.047  1.00  0.00    -0.274 OA
BRANCH  92  94
ATOM     94  C   UNL A   1      38.394  29.770  30.201  1.00  0.00     0.077 C 
ATOM     95  C   UNL A   1      38.303  28.847  31.411  1.00  0.00     0.023 C 
ATOM     96  C   UNL A   1      37.133  28.956  30.490  1.00  0.00     0.023 C 
BRANCH  94  97
ATOM     97  C   UNL A   1      39.408  29.270  29.148  1.00  0.00     0.003 A 
ATOM     98  C   UNL A   1      40.696  28.847  29.529  1.00  0.00     0.008 A 
ATOM     99  C   UNL A   1      39.143  29.352  27.771  1.00  0.00     0.127 A 
ATOM    100  C   UNL A   1      41.676  28.553  28.576  1.00  0.00     0.001 A 
ATOM    101  C   UNL A   1      40.120  29.086  26.816  1.00  0.00     0.039 A 
ATOM    102  F   UNL A   1      37.928  29.739  27.350  1.00  0.00    -0.207 F 
ATOM    103  C   UNL A   1      41.393  28.690  27.220  1.00  0.00     0.003 A 
ENDBRANCH  94  97
ENDBRANCH  92  94
ENDBRANCH  77  80
ENDBRANCH  75  76
ENDBRANCH  74  75
ENDBRANCH  73  74
ENDBRANCH   1  73
TORSDOF 18
ENDMDL
MODEL 3
REMARK VINA RESULT:     -11.9      7.833     15.519
REMARK SMILES O=C(NCCCCCCNC(=O)[C@@H]1CC2(CCN(C(=O)C3(c4ccccc4F)CC3)CC2)C[NH2+]1)c1ccc(-c2c3nc(c(-c4cccc(S(=O)(=O)[O-])c4F)c4ccc([nH]4)c(-c4cccc(S(=O)(=O)[O-])c4F)c4nc(c(-c5cccc(S(=O)(=O)[O-])c5F)c5ccc2[nH]5)C=C4)C=C3)cc1
REMARK SMILES IDX 6 1 5 2 4 3 3 4 1 5 2 6 35 8 36 9 97 10 37 11 96 12 38 13
REMARK SMILES IDX 39 14 40 15 90 16 41 17 95 18 89 19 91 20 42 21 94 22 88 23
REMARK SMILES IDX 87 24 43 26 75 27 55 28 74 29 56 30 59 31 73 32 92 33 57 34
REMARK SMILES IDX 58 35 72 37 93 38 60 39 44 40 45 41 53 42 46 43 48 44 54 45
REMARK SMILES IDX 47 46 49 47 50 48 51 49 52 50 76 51 77 52 85 53 78 54 80 55
REMARK SMILES IDX 86 56 79 57 81 58 82 59 83 60 84 61 61 62 62 63 70 64 63 65
REMARK SMILES IDX 65 66 71 67 64 68 66 69 67 70 68 71 69 72 7 73 8 74 9 75
REMARK SMILES IDX 10 76 11 77 12 79 13 80 14 81 34 82 15 83 33 84 16 87 32 88
REMARK SMILES IDX 17 89 31 90 18 91 19 92 20 93 21 94 29 95 30 96 22 97 23 98
REMARK SMILES IDX 27 99 24 100 26 101 28 102 25 103
REMARK H PARENT 3 7 91 25 59 36 10 78 34 85 34 86
REMARK Flexibility Score: inf
ROOT
ATOM      1  C   UNL A   1      34.127  34.785  33.417  1.00  0.00     0.002 C 
ENDROOT
BRANCH   1   2
ATOM      2  C   UNL A   1      35.013  33.596  33.790  1.00  0.00     0.021 C 
BRANCH   2   3
ATOM      3  C   UNL A   1      36.381  33.987  34.331  1.00  0.00     0.116 C 
BRANCH   3   4
ATOM      4  N   UNL A   1      36.599  33.457  35.665  1.00  0.00    -0.352 N 
ATOM      5  O   UNL A   1      37.424  32.018  37.186  1.00  0.00    -0.269 OA
ATOM      6  C   UNL A   1      37.535  32.548  36.082  1.00  0.00     0.251 C 
ATOM      7  H   UNL A   1      35.992  33.797  36.362  1.00  0.00     0.163 HD
BRANCH   6   8
ATOM      8  C   UNL A   1      38.660  32.202  35.191  1.00  0.00     0.039 A 
ATOM      9  C   UNL A   1      38.441  31.458  34.026  1.00  0.00     0.014 A 
ATOM     10  C   UNL A   1      39.945  32.637  35.517  1.00  0.00     0.014 A 
ATOM     11  C   UNL A   1      39.521  31.055  33.248  1.00  0.00     0.010 A 
ATOM     12  C   UNL A   1      41.019  32.294  34.693  1.00  0.00     0.010 A 
ATOM     13  C   UNL A   1      40.819  31.485  33.563  1.00  0.00    -0.014 A 
BRANCH  13  14
ATOM     14  C   UNL A   1      41.956  31.160  32.667  1.00  0.00     0.031 A 
ATOM     15  C   UNL A   1      42.376  32.109  31.580  1.00  0.00     0.074 A 
ATOM     16  C   UNL A   1      42.577  29.972  32.811  1.00  0.00     0.049 A 
ATOM     17  N   UNL A   1      43.263  31.935  30.635  1.00  0.00    -0.248 NA
ATOM     18  C   UNL A   1      41.717  33.426  31.546  1.00  0.00     0.031 C 
ATOM     19  C   UNL A   1      42.250  28.965  33.824  1.00  0.00     0.029 A 
ATOM     20  N   UNL A   1      43.594  29.398  32.090  1.00  0.00    -0.354 N 
ATOM     21  C   UNL A   1      43.245  33.098  29.874  1.00  0.00     0.074 A 
ATOM     22  C   UNL A   1      42.256  33.974  30.464  1.00  0.00     0.031 C 
ATOM     23  C   UNL A   1      43.046  27.899  33.659  1.00  0.00     0.029 A 
ATOM     24  C   UNL A   1      43.893  28.118  32.493  1.00  0.00     0.049 A 
ATOM     25  H   UNL A   1      44.062  29.857  31.356  1.00  0.00     0.167 HD
ATOM     26  C   UNL A   1      43.994  33.405  28.788  1.00  0.00     0.034 A 
ATOM     27  C   UNL A   1      44.729  27.204  31.963  1.00  0.00     0.034 A 
ATOM     28  C   UNL A   1      44.993  32.537  28.222  1.00  0.00     0.049 A 
ATOM     29  C   UNL A   1      45.522  27.570  30.740  1.00  0.00     0.074 A 
ATOM     30  C   UNL A   1      45.824  32.778  27.141  1.00  0.00     0.029 A 
ATOM     31  N   UNL A   1      45.297  31.265  28.681  1.00  0.00    -0.354 N 
ATOM     32  N   UNL A   1      45.556  28.707  30.087  1.00  0.00    -0.248 NA
ATOM     33  C   UNL A   1      46.413  26.537  30.195  1.00  0.00     0.031 C 
ATOM     34  C   UNL A   1      46.613  31.643  26.933  1.00  0.00     0.029 A 
ATOM     35  C   UNL A   1      46.299  30.708  27.905  1.00  0.00     0.049 A 
ATOM     36  H   UNL A   1      44.864  30.824  29.448  1.00  0.00     0.167 HD
ATOM     37  C   UNL A   1      46.494  28.534  29.074  1.00  0.00     0.074 A 
ATOM     38  C   UNL A   1      47.029  27.197  29.224  1.00  0.00     0.031 C 
ATOM     39  C   UNL A   1      46.861  29.396  28.095  1.00  0.00     0.034 A 
BRANCH  26  40
ATOM     40  C   UNL A   1      43.813  34.757  28.149  1.00  0.00     0.023 A 
ATOM     41  C   UNL A   1      42.952  34.888  27.041  1.00  0.00     0.012 A 
ATOM     42  C   UNL A   1      44.375  35.912  28.730  1.00  0.00     0.148 A 
ATOM     43  C   UNL A   1      42.655  36.146  26.519  1.00  0.00     0.002 A 
ATOM     44  C   UNL A   1      44.040  37.165  28.231  1.00  0.00     0.091 A 
ATOM     45  F   UNL A   1      45.201  35.763  29.775  1.00  0.00    -0.205 F 
ATOM     46  C   UNL A   1      43.186  37.284  27.122  1.00  0.00     0.022 A 
BRANCH  44  47
ATOM     47  S   UNL A   1      44.598  38.698  28.986  1.00  0.00     0.127 S 
ATOM     48  O   UNL A   1      46.040  38.636  28.747  1.00  0.00    -0.237 OA
ATOM     49  O   UNL A   1      43.892  39.702  28.191  1.00  0.00    -0.237 OA
ATOM     50  O   UNL A   1      44.202  38.628  30.384  1.00  0.00    -0.744 OA
ENDBRANCH  44  47
ENDBRANCH  26  40
BRANCH  27  51
ATOM     51  C   UNL A   1      44.877  25.864  32.598  1.00  0.00     0.023 A 
ATOM     52  C   UNL A   1      44.131  24.779  32.099  1.00  0.00     0.012 A 
ATOM     53  C   UNL A   1      45.755  25.654  33.681  1.00  0.00     0.148 A 
ATOM     54  C   UNL A   1      44.228  23.519  32.689  1.00  0.00     0.002 A 
ATOM     55  C   UNL A   1      45.893  24.381  34.223  1.00  0.00     0.091 A 
ATOM     56  F   UNL A   1      46.445  26.702  34.154  1.00  0.00    -0.205 F 
ATOM     57  C   UNL A   1      45.115  23.317  33.742  1.00  0.00     0.022 A 
BRANCH  55  58
ATOM     58  S   UNL A   1      47.113  24.000  35.484  1.00  0.00     0.127 S 
ATOM     59  O   UNL A   1      47.537  22.659  35.094  1.00  0.00    -0.237 OA
ATOM     60  O   UNL A   1      48.109  25.049  35.267  1.00  0.00    -0.237 OA
ATOM     61  O   UNL A   1      46.407  24.099  36.754  1.00  0.00    -0.744 OA
ENDBRANCH  55  58
ENDBRANCH  27  51
BRANCH  39  62
ATOM     62  C   UNL A   1      47.917  28.936  27.123  1.00  0.00     0.023 A 
ATOM     63  C   UNL A   1      49.279  29.035  27.470  1.00  0.00     0.012 A 
ATOM     64  C   UNL A   1      47.558  28.349  25.893  1.00  0.00     0.148 A 
ATOM     65  C   UNL A   1      50.269  28.595  26.591  1.00  0.00     0.002 A 
ATOM     66  C   UNL A   1      48.547  27.860  25.049  1.00  0.00     0.091 A 
ATOM     67  F   UNL A   1      46.259  28.278  25.572  1.00  0.00    -0.205 F 
ATOM     68  C   UNL A   1      49.903  27.997  25.388  1.00  0.00     0.022 A 
BRANCH  66  69
ATOM     69  S   UNL A   1      48.167  26.981  23.529  1.00  0.00     0.127 S 
ATOM     70  O   UNL A   1      49.502  26.673  23.020  1.00  0.00    -0.237 OA
ATOM     71  O   UNL A   1      47.419  25.822  24.019  1.00  0.00    -0.237 OA
ATOM     72  O   UNL A   1      47.385  27.905  22.718  1.00  0.00    -0.744 OA
ENDBRANCH  66  69
ENDBRANCH  39  62
ENDBRANCH  13  14
ENDBRANCH   6   8
ENDBRANCH   3   4
ENDBRANCH   2   3
ENDBRANCH   1   2
BRANCH   1  73
ATOM     73  C   UNL A   1      34.889  36.030  32.949  1.00  0.00     0.002 C 
BRANCH  73  74
ATOM     74  C   UNL A   1      34.020  37.279  32.735  1.00  0.00     0.021 C 
BRANCH  74  75
ATOM     75  C   UNL A   1      32.918  37.098  31.693  1.00  0.00     0.116 C 
BRANCH  75  76
ATOM     76  N   UNL A   1      33.431  37.349  30.366  1.00  0.00    -0.351 N 
ATOM     77  C   UNL A   1      33.642  36.498  29.332  1.00  0.00     0.278 C 
ATOM     78  H   UNL A   1      33.665  38.288  30.184  1.00  0.00     0.163 HD
ATOM     79  O   UNL A   1      34.261  36.948  28.365  1.00  0.00    -0.268 OA
BRANCH  77  80
ATOM     80  C   UNL A   1      33.053  35.071  29.369  1.00  0.00     0.273 C 
ATOM     81  C   UNL A   1      34.019  34.065  29.967  1.00  0.00     0.088 C 
ATOM     82  N   UNL A   1      32.833  34.556  28.003  1.00  0.00    -0.336 N 
ATOM     83  C   UNL A   1      34.847  33.524  28.779  1.00  0.00     0.029 C 
ATOM     84  C   UNL A   1      34.141  34.090  27.535  1.00  0.00     0.268 C 
ATOM     85  H   UNL A   1      32.483  35.298  27.397  1.00  0.00     0.346 HD
ATOM     86  H   UNL A   1      32.141  33.806  27.992  1.00  0.00     0.346 HD
ATOM     87  C   UNL A   1      34.840  31.980  28.764  1.00  0.00     0.034 C 
ATOM     88  C   UNL A   1      36.316  33.983  28.838  1.00  0.00     0.034 C 
ATOM     89  C   UNL A   1      35.643  31.372  29.920  1.00  0.00     0.120 C 
ATOM     90  C   UNL A   1      37.030  33.392  30.045  1.00  0.00     0.120 C 
ATOM     91  N   UNL A   1      36.990  31.931  29.995  1.00  0.00    -0.342 N 
ATOM     92  C   UNL A   1      38.227  31.285  29.985  1.00  0.00     0.233 C 
ATOM     93  O   UNL A   1      39.248  31.970  29.880  1.00  0.00    -0.274 OA
BRANCH  92  94
ATOM     94  C   UNL A   1      38.446  29.778  30.103  1.00  0.00     0.077 C 
ATOM     95  C   UNL A   1      38.238  28.851  31.295  1.00  0.00     0.023 C 
ATOM     96  C   UNL A   1      37.167  28.955  30.259  1.00  0.00     0.023 C 
BRANCH  94  97
ATOM     97  C   UNL A   1      39.566  29.290  29.158  1.00  0.00     0.003 A 
ATOM     98  C   UNL A   1      40.864  29.041  29.644  1.00  0.00     0.008 A 
ATOM     99  C   UNL A   1      39.377  29.213  27.768  1.00  0.00     0.127 A 
ATOM    100  C   UNL A   1      41.923  28.761  28.776  1.00  0.00     0.001 A 
ATOM    101  C   UNL A   1      40.431  28.960  26.895  1.00  0.00     0.039 A 
ATOM    102  F   UNL A   1      38.158  29.429  27.250  1.00  0.00    -0.207 F 
ATOM    103  C   UNL A   1      41.711  28.740  27.400  1.00  0.00     0.003 A 
ENDBRANCH  94  97
ENDBRANCH  92  94
ENDBRANCH  77  80
ENDBRANCH  75  76
ENDBRANCH  74  75
ENDBRANCH  73  74
ENDBRANCH   1  73
TORSDOF 18
ENDMDL
