MODEL 1
REMARK VINA RESULT:     -10.3      0.000      0.000
REMARK SMILES CC[C@](C)([NH3+])C(=O)NC[C@](C)(O)C(=O)NCCCCCCNC(=O)c1ccc(-c2c3nc(c(-c4cccc(S(=O)(=O)[O-])c4F)c4ccc([nH]4)c(-c4cccc(S(=O)(=O)[O-])c4F)c4nc(c(-c5cccc(S(=O)(=O)[O-])c5F)c5ccc2[nH]5)C=C4)C=C3)cc1
REMARK SMILES IDX 18 1 17 2 16 3 15 4 13 5 14 6 10 8 11 9 9 10 8 11 6 12 7 13
REMARK SMILES IDX 3 15 4 16 2 17 1 18 5 19 12 23 19 25 20 26 21 27 22 28 23 29
REMARK SMILES IDX 24 31 25 32 26 33 87 34 27 35 86 36 28 37 29 38 30 39 80 40
REMARK SMILES IDX 31 41 85 42 79 43 81 44 32 45 84 46 78 47 77 48 33 50 65 51
REMARK SMILES IDX 45 52 64 53 46 54 49 55 63 56 82 57 47 58 48 59 62 61 83 62
REMARK SMILES IDX 50 63 34 64 35 65 43 66 36 67 38 68 44 69 37 70 39 71 40 72
REMARK SMILES IDX 41 73 42 74 66 75 67 76 75 77 68 78 70 79 76 80 69 81 71 82
REMARK SMILES IDX 72 83 73 84 74 85 51 86 52 87 60 88 53 89 55 90 61 91 54 92
REMARK SMILES IDX 56 93 57 94 58 95 59 96
REMARK H PARENT 15 7 8 14 5 20 5 21 5 22 12 24 22 30 81 49 49 60
REMARK Flexibility Score: inf
ROOT
ATOM      1  C   UNL A   1      32.542  29.555  27.180  1.00  0.00     0.002 C 
ENDROOT
BRANCH   1   2
ATOM      2  C   UNL A   1      32.511  28.051  26.896  1.00  0.00     0.021 C 
BRANCH   2   3
ATOM      3  C   UNL A   1      31.372  27.600  25.994  1.00  0.00     0.116 C 
BRANCH   3   4
ATOM      4  N   UNL A   1      30.564  26.543  26.573  1.00  0.00    -0.354 N 
ATOM      5  C   UNL A   1      30.473  25.232  26.208  1.00  0.00     0.253 C 
ATOM      6  O   UNL A   1      29.900  24.460  26.988  1.00  0.00    -0.272 OA
ATOM      7  H   UNL A   1      30.003  26.811  27.337  1.00  0.00     0.163 HD
BRANCH   5   8
ATOM      8  C   UNL A   1      31.115  24.707  24.890  1.00  0.00     0.157 C 
ATOM      9  C   UNL A   1      30.217  25.134  23.706  1.00  0.00     0.055 C 
BRANCH   8  10
ATOM     10  C   UNL A   1      31.143  23.157  24.910  1.00  0.00     0.161 C 
BRANCH  10  11
ATOM     11  N   UNL A   1      31.965  22.535  25.931  1.00  0.00    -0.347 N 
ATOM     12  C   UNL A   1      33.086  21.759  25.892  1.00  0.00     0.281 C 
ATOM     13  O   UNL A   1      33.490  21.397  27.005  1.00  0.00    -0.268 OA
ATOM     14  H   UNL A   1      31.647  22.712  26.845  1.00  0.00     0.163 HD
BRANCH  12  15
ATOM     15  C   UNL A   1      33.848  21.357  24.584  1.00  0.00     0.170 C 
ATOM     16  C   UNL A   1      35.047  20.460  25.000  1.00  0.00     0.090 C 
BRANCH  15  17
ATOM     17  C   UNL A   1      34.450  22.576  23.844  1.00  0.00     0.075 C 
ATOM     18  C   UNL A   1      33.834  22.991  22.519  1.00  0.00     0.011 C 
ENDBRANCH  15  17
BRANCH  15  19
ATOM     19  N   UNL A   1      33.027  20.491  23.712  1.00  0.00    -0.345 N 
ATOM     20  H   UNL A   1      33.516  19.610  23.551  1.00  0.00     0.345 HD
ATOM     21  H   UNL A   1      32.868  20.961  22.820  1.00  0.00     0.345 HD
ATOM     22  H   UNL A   1      32.132  20.306  24.164  1.00  0.00     0.345 HD
ENDBRANCH  15  19
ENDBRANCH  12  15
ENDBRANCH  10  11
ENDBRANCH   8  10
BRANCH   8  23
ATOM     23  O   UNL A   1      32.404  25.254  24.609  1.00  0.00    -0.378 OA
ATOM     24  H   UNL A   1      32.346  26.222  24.577  1.00  0.00     0.212 HD
ENDBRANCH   8  23
ENDBRANCH   5   8
ENDBRANCH   3   4
ENDBRANCH   2   3
ENDBRANCH   1   2
BRANCH   1  25
ATOM     25  C   UNL A   1      31.750  30.438  26.208  1.00  0.00     0.002 C 
BRANCH  25  26
ATOM     26  C   UNL A   1      31.552  31.895  26.631  1.00  0.00     0.021 C 
BRANCH  26  27
ATOM     27  C   UNL A   1      32.761  32.563  27.280  1.00  0.00     0.116 C 
BRANCH  27  28
ATOM     28  N   UNL A   1      32.519  33.957  27.617  1.00  0.00    -0.352 N 
ATOM     29  C   UNL A   1      33.117  34.742  28.569  1.00  0.00     0.251 C 
ATOM     30  H   UNL A   1      31.822  34.403  27.083  1.00  0.00     0.163 HD
ATOM     31  O   UNL A   1      32.673  35.868  28.797  1.00  0.00    -0.269 OA
BRANCH  29  32
ATOM     32  C   UNL A   1      34.273  34.236  29.338  1.00  0.00     0.039 A 
ATOM     33  C   UNL A   1      34.032  33.518  30.512  1.00  0.00     0.014 A 
ATOM     34  C   UNL A   1      35.587  34.470  28.920  1.00  0.00     0.014 A 
ATOM     35  C   UNL A   1      35.103  32.987  31.234  1.00  0.00     0.010 A 
ATOM     36  C   UNL A   1      36.649  33.878  29.601  1.00  0.00     0.010 A 
ATOM     37  C   UNL A   1      36.420  33.133  30.766  1.00  0.00    -0.014 A 
BRANCH  37  38
ATOM     38  C   UNL A   1      37.553  32.480  31.472  1.00  0.00     0.031 A 
ATOM     39  C   UNL A   1      38.293  31.331  30.842  1.00  0.00     0.074 A 
ATOM     40  C   UNL A   1      37.875  32.886  32.716  1.00  0.00     0.049 A 
ATOM     41  N   UNL A   1      39.303  30.645  31.315  1.00  0.00    -0.248 NA
ATOM     42  C   UNL A   1      37.829  30.877  29.522  1.00  0.00     0.031 C 
ATOM     43  C   UNL A   1      37.179  33.933  33.470  1.00  0.00     0.029 A 
ATOM     44  N   UNL A   1      38.855  32.457  33.576  1.00  0.00    -0.354 N 
ATOM     45  C   UNL A   1      39.576  29.664  30.369  1.00  0.00     0.074 A 
ATOM     46  C   UNL A   1      38.603  29.822  29.310  1.00  0.00     0.031 C 
ATOM     47  C   UNL A   1      37.761  34.073  34.670  1.00  0.00     0.029 A 
ATOM     48  C   UNL A   1      38.848  33.107  34.789  1.00  0.00     0.049 A 
ATOM     49  H   UNL A   1      39.502  31.751  33.347  1.00  0.00     0.167 HD
ATOM     50  C   UNL A   1      40.561  28.735  30.368  1.00  0.00     0.034 A 
ATOM     51  C   UNL A   1      39.625  32.940  35.877  1.00  0.00     0.034 A 
ATOM     52  C   UNL A   1      41.543  28.600  31.412  1.00  0.00     0.049 A 
ATOM     53  C   UNL A   1      40.730  31.922  35.837  1.00  0.00     0.074 A 
ATOM     54  C   UNL A   1      42.634  27.749  31.461  1.00  0.00     0.029 A 
ATOM     55  N   UNL A   1      41.547  29.323  32.595  1.00  0.00    -0.354 N 
ATOM     56  N   UNL A   1      41.077  31.117  34.862  1.00  0.00    -0.248 NA
ATOM     57  C   UNL A   1      41.578  31.815  37.033  1.00  0.00     0.031 C 
ATOM     58  C   UNL A   1      43.275  27.931  32.692  1.00  0.00     0.029 A 
ATOM     59  C   UNL A   1      42.609  28.925  33.390  1.00  0.00     0.049 A 
ATOM     60  H   UNL A   1      40.892  30.017  32.834  1.00  0.00     0.167 HD
ATOM     61  C   UNL A   1      42.199  30.432  35.313  1.00  0.00     0.074 A 
ATOM     62  C   UNL A   1      42.489  30.937  36.639  1.00  0.00     0.031 C 
ATOM     63  C   UNL A   1      42.916  29.463  34.691  1.00  0.00     0.034 A 
BRANCH  50  64
ATOM     64  C   UNL A   1      40.655  27.813  29.179  1.00  0.00     0.023 A 
ATOM     65  C   UNL A   1      39.797  26.697  29.090  1.00  0.00     0.012 A 
ATOM     66  C   UNL A   1      41.544  28.083  28.120  1.00  0.00     0.148 A 
ATOM     67  C   UNL A   1      39.846  25.846  27.987  1.00  0.00     0.002 A 
ATOM     68  C   UNL A   1      41.556  27.257  27.002  1.00  0.00     0.091 A 
ATOM     69  F   UNL A   1      42.366  29.137  28.228  1.00  0.00    -0.205 F 
ATOM     70  C   UNL A   1      40.717  26.132  26.940  1.00  0.00     0.022 A 
BRANCH  68  71
ATOM     71  S   UNL A   1      42.579  27.585  25.562  1.00  0.00     0.127 S 
ATOM     72  O   UNL A   1      43.906  27.705  26.166  1.00  0.00    -0.237 OA
ATOM     73  O   UNL A   1      42.382  26.375  24.763  1.00  0.00    -0.237 OA
ATOM     74  O   UNL A   1      42.055  28.803  24.963  1.00  0.00    -0.744 OA
ENDBRANCH  68  71
ENDBRANCH  50  64
BRANCH  51  75
ATOM     75  C   UNL A   1      39.418  33.800  37.078  1.00  0.00     0.023 A 
ATOM     76  C   UNL A   1      39.856  35.138  37.058  1.00  0.00     0.012 A 
ATOM     77  C   UNL A   1      38.773  33.305  38.228  1.00  0.00     0.148 A 
ATOM     78  C   UNL A   1      39.688  35.959  38.174  1.00  0.00     0.002 A 
ATOM     79  C   UNL A   1      38.557  34.144  39.315  1.00  0.00     0.091 A 
ATOM     80  F   UNL A   1      38.373  32.026  38.231  1.00  0.00    -0.205 F 
ATOM     81  C   UNL A   1      39.031  35.466  39.297  1.00  0.00     0.022 A 
BRANCH  79  82
ATOM     82  S   UNL A   1      37.610  33.635  40.753  1.00  0.00     0.127 S 
ATOM     83  O   UNL A   1      38.506  32.661  41.371  1.00  0.00    -0.237 OA
ATOM     84  O   UNL A   1      37.472  34.896  41.484  1.00  0.00    -0.237 OA
ATOM     85  O   UNL A   1      36.359  33.101  40.233  1.00  0.00    -0.744 OA
ENDBRANCH  79  82
ENDBRANCH  51  75
BRANCH  63  86
ATOM     86  C   UNL A   1      44.109  28.902  35.420  1.00  0.00     0.023 A 
ATOM     87  C   UNL A   1      45.378  29.489  35.251  1.00  0.00     0.012 A 
ATOM     88  C   UNL A   1      43.961  27.827  36.320  1.00  0.00     0.148 A 
ATOM     89  C   UNL A   1      46.488  28.991  35.935  1.00  0.00     0.002 A 
ATOM     90  C   UNL A   1      45.059  27.371  37.038  1.00  0.00     0.091 A 
ATOM     91  F   UNL A   1      42.748  27.269  36.456  1.00  0.00    -0.205 F 
ATOM     92  C   UNL A   1      46.326  27.941  36.835  1.00  0.00     0.022 A 
BRANCH  90  93
ATOM     93  S   UNL A   1      44.928  26.090  38.291  1.00  0.00     0.127 S 
ATOM     94  O   UNL A   1      44.390  26.840  39.426  1.00  0.00    -0.237 OA
ATOM     95  O   UNL A   1      43.987  25.153  37.679  1.00  0.00    -0.237 OA
ATOM     96  O   UNL A   1      46.275  25.566  38.473  1.00  0.00    -0.744 OA
ENDBRANCH  90  93
ENDBRANCH  63  86
ENDBRANCH  37  38
ENDBRANCH  29  32
ENDBRANCH  27  28
ENDBRANCH  26  27
ENDBRANCH  25  26
ENDBRANCH   1  25
TORSDOF 22
ENDMDL
MODEL 2
REMARK VINA RESULT:     -10.3      1.234      2.119
REMARK SMILES CC[C@](C)([NH3+])C(=O)NC[C@](C)(O)C(=O)NCCCCCCNC(=O)c1ccc(-c2c3nc(c(-c4cccc(S(=O)(=O)[O-])c4F)c4ccc([nH]4)c(-c4cccc(S(=O)(=O)[O-])c4F)c4nc(c(-c5cccc(S(=O)(=O)[O-])c5F)c5ccc2[nH]5)C=C4)C=C3)cc1
REMARK SMILES IDX 18 1 17 2 16 3 15 4 13 5 14 6 10 8 11 9 9 10 8 11 6 12 7 13
REMARK SMILES IDX 3 15 4 16 2 17 1 18 5 19 12 23 19 25 20 26 21 27 22 28 23 29
REMARK SMILES IDX 24 31 25 32 26 33 87 34 27 35 86 36 28 37 29 38 30 39 80 40
REMARK SMILES IDX 31 41 85 42 79 43 81 44 32 45 84 46 78 47 77 48 33 50 65 51
REMARK SMILES IDX 45 52 64 53 46 54 49 55 63 56 82 57 47 58 48 59 62 61 83 62
REMARK SMILES IDX 50 63 34 64 35 65 43 66 36 67 38 68 44 69 37 70 39 71 40 72
REMARK SMILES IDX 41 73 42 74 66 75 67 76 75 77 68 78 70 79 76 80 69 81 71 82
REMARK SMILES IDX 72 83 73 84 74 85 51 86 52 87 60 88 53 89 55 90 61 91 54 92
REMARK SMILES IDX 56 93 57 94 58 95 59 96
REMARK H PARENT 15 7 8 14 5 20 5 21 5 22 12 24 22 30 81 49 49 60
REMARK Flexibility Score: inf
ROOT
ATOM      1  C   UNL A   1      32.560  29.298  27.449  1.00  0.00     0.002 C 
ENDROOT
BRANCH   1   2
ATOM      2  C   UNL A   1      32.456  27.781  27.268  1.00  0.00     0.021 C 
BRANCH   2   3
ATOM      3  C   UNL A   1      31.301  27.325  26.389  1.00  0.00     0.116 C 
BRANCH   3   4
ATOM      4  N   UNL A   1      30.612  26.158  26.905  1.00  0.00    -0.354 N 
ATOM      5  C   UNL A   1      30.492  24.916  26.353  1.00  0.00     0.253 C 
ATOM      6  O   UNL A   1      30.061  24.008  27.075  1.00  0.00    -0.272 OA
ATOM      7  H   UNL A   1      30.169  26.279  27.776  1.00  0.00     0.163 HD
BRANCH   5   8
ATOM      8  C   UNL A   1      30.935  24.631  24.888  1.00  0.00     0.157 C 
ATOM      9  C   UNL A   1      31.031  23.100  24.695  1.00  0.00     0.055 C 
BRANCH   8  10
ATOM     10  C   UNL A   1      32.354  25.212  24.654  1.00  0.00     0.161 C 
BRANCH  10  11
ATOM     11  N   UNL A   1      32.833  25.226  23.284  1.00  0.00    -0.347 N 
ATOM     12  C   UNL A   1      33.135  26.223  22.404  1.00  0.00     0.281 C 
ATOM     13  O   UNL A   1      33.504  25.822  21.293  1.00  0.00    -0.268 OA
ATOM     14  H   UNL A   1      32.969  24.325  22.912  1.00  0.00     0.163 HD
BRANCH  12  15
ATOM     15  C   UNL A   1      33.068  27.754  22.732  1.00  0.00     0.170 C 
ATOM     16  C   UNL A   1      34.066  28.026  23.891  1.00  0.00     0.090 C 
BRANCH  15  17
ATOM     17  C   UNL A   1      31.675  28.196  23.241  1.00  0.00     0.075 C 
ATOM     18  C   UNL A   1      30.500  28.124  22.281  1.00  0.00     0.011 C 
ENDBRANCH  15  17
BRANCH  15  19
ATOM     19  N   UNL A   1      33.570  28.579  21.614  1.00  0.00    -0.345 N 
ATOM     20  H   UNL A   1      32.825  28.717  20.931  1.00  0.00     0.345 HD
ATOM     21  H   UNL A   1      34.357  28.106  21.169  1.00  0.00     0.345 HD
ATOM     22  H   UNL A   1      33.875  29.484  21.971  1.00  0.00     0.345 HD
ENDBRANCH  15  19
ENDBRANCH  12  15
ENDBRANCH  10  11
ENDBRANCH   8  10
BRANCH   8  23
ATOM     23  O   UNL A   1      30.011  25.084  23.897  1.00  0.00    -0.378 OA
ATOM     24  H   UNL A   1      30.454  25.127  23.036  1.00  0.00     0.212 HD
ENDBRANCH   8  23
ENDBRANCH   5   8
ENDBRANCH   3   4
ENDBRANCH   2   3
ENDBRANCH   1   2
BRANCH   1  25
ATOM     25  C   UNL A   1      31.853  30.150  26.388  1.00  0.00     0.002 C 
BRANCH  25  26
ATOM     26  C   UNL A   1      31.620  31.619  26.750  1.00  0.00     0.021 C 
BRANCH  26  27
ATOM     27  C   UNL A   1      32.866  32.406  27.146  1.00  0.00     0.116 C 
BRANCH  27  28
ATOM     28  N   UNL A   1      32.567  33.777  27.528  1.00  0.00    -0.352 N 
ATOM     29  C   UNL A   1      33.114  34.546  28.521  1.00  0.00     0.251 C 
ATOM     30  H   UNL A   1      31.867  34.218  26.993  1.00  0.00     0.163 HD
ATOM     31  O   UNL A   1      32.625  35.647  28.779  1.00  0.00    -0.269 OA
BRANCH  29  32
ATOM     32  C   UNL A   1      34.269  34.052  29.301  1.00  0.00     0.039 A 
ATOM     33  C   UNL A   1      34.026  33.274  30.435  1.00  0.00     0.014 A 
ATOM     34  C   UNL A   1      35.583  34.356  28.930  1.00  0.00     0.014 A 
ATOM     35  C   UNL A   1      35.098  32.754  31.163  1.00  0.00     0.010 A 
ATOM     36  C   UNL A   1      36.650  33.777  29.614  1.00  0.00     0.010 A 
ATOM     37  C   UNL A   1      36.420  32.972  30.739  1.00  0.00    -0.014 A 
BRANCH  37  38
ATOM     38  C   UNL A   1      37.560  32.334  31.447  1.00  0.00     0.031 A 
ATOM     39  C   UNL A   1      38.317  31.195  30.819  1.00  0.00     0.074 A 
ATOM     40  C   UNL A   1      37.874  32.744  32.692  1.00  0.00     0.049 A 
ATOM     41  N   UNL A   1      39.334  30.522  31.294  1.00  0.00    -0.248 NA
ATOM     42  C   UNL A   1      37.862  30.735  29.498  1.00  0.00     0.031 C 
ATOM     43  C   UNL A   1      37.162  33.780  33.445  1.00  0.00     0.029 A 
ATOM     44  N   UNL A   1      38.857  32.326  33.555  1.00  0.00    -0.354 N 
ATOM     45  C   UNL A   1      39.622  29.545  30.349  1.00  0.00     0.074 A 
ATOM     46  C   UNL A   1      38.650  29.690  29.287  1.00  0.00     0.031 C 
ATOM     47  C   UNL A   1      37.740  33.928  34.646  1.00  0.00     0.029 A 
ATOM     48  C   UNL A   1      38.839  32.976  34.768  1.00  0.00     0.049 A 
ATOM     49  H   UNL A   1      39.514  31.629  33.326  1.00  0.00     0.167 HD
ATOM     50  C   UNL A   1      40.619  28.629  30.350  1.00  0.00     0.034 A 
ATOM     51  C   UNL A   1      39.615  32.819  35.858  1.00  0.00     0.034 A 
ATOM     52  C   UNL A   1      41.600  28.505  31.395  1.00  0.00     0.049 A 
ATOM     53  C   UNL A   1      40.734  31.815  35.820  1.00  0.00     0.074 A 
ATOM     54  C   UNL A   1      42.702  27.669  31.448  1.00  0.00     0.029 A 
ATOM     55  N   UNL A   1      41.592  29.228  32.579  1.00  0.00    -0.354 N 
ATOM     56  N   UNL A   1      41.093  31.015  34.845  1.00  0.00    -0.248 NA
ATOM     57  C   UNL A   1      41.579  31.718  37.018  1.00  0.00     0.031 C 
ATOM     58  C   UNL A   1      43.337  27.858  32.679  1.00  0.00     0.029 A 
ATOM     59  C   UNL A   1      42.657  28.843  33.377  1.00  0.00     0.049 A 
ATOM     60  H   UNL A   1      40.927  29.913  32.817  1.00  0.00     0.167 HD
ATOM     61  C   UNL A   1      42.222  30.344  35.299  1.00  0.00     0.074 A 
ATOM     62  C   UNL A   1      42.503  30.852  36.626  1.00  0.00     0.031 C 
ATOM     63  C   UNL A   1      42.953  29.385  34.679  1.00  0.00     0.034 A 
BRANCH  50  64
ATOM     64  C   UNL A   1      40.728  27.708  29.161  1.00  0.00     0.023 A 
ATOM     65  C   UNL A   1      39.912  26.560  29.088  1.00  0.00     0.012 A 
ATOM     66  C   UNL A   1      41.588  28.010  28.086  1.00  0.00     0.148 A 
ATOM     67  C   UNL A   1      39.975  25.709  27.985  1.00  0.00     0.002 A 
ATOM     68  C   UNL A   1      41.612  27.183  26.968  1.00  0.00     0.091 A 
ATOM     69  F   UNL A   1      42.370  29.095  28.178  1.00  0.00    -0.205 F 
ATOM     70  C   UNL A   1      40.815  26.026  26.923  1.00  0.00     0.022 A 
BRANCH  68  71
ATOM     71  S   UNL A   1      42.597  27.547  25.511  1.00  0.00     0.127 S 
ATOM     72  O   UNL A   1      43.952  27.536  26.062  1.00  0.00    -0.237 OA
ATOM     73  O   UNL A   1      42.285  26.413  24.639  1.00  0.00    -0.237 OA
ATOM     74  O   UNL A   1      42.133  28.836  25.022  1.00  0.00    -0.744 OA
ENDBRANCH  68  71
ENDBRANCH  50  64
BRANCH  51  75
ATOM     75  C   UNL A   1      39.394  33.675  37.059  1.00  0.00     0.023 A 
ATOM     76  C   UNL A   1      39.860  35.004  37.059  1.00  0.00     0.012 A 
ATOM     77  C   UNL A   1      38.709  33.187  38.188  1.00  0.00     0.148 A 
ATOM     78  C   UNL A   1      39.680  35.821  38.175  1.00  0.00     0.002 A 
ATOM     79  C   UNL A   1      38.481  34.024  39.274  1.00  0.00     0.091 A 
ATOM     80  F   UNL A   1      38.282  31.917  38.171  1.00  0.00    -0.205 F 
ATOM     81  C   UNL A   1      38.982  35.335  39.278  1.00  0.00     0.022 A 
BRANCH  79  82
ATOM     82  S   UNL A   1      37.486  33.525  40.683  1.00  0.00     0.127 S 
ATOM     83  O   UNL A   1      36.266  33.052  40.034  1.00  0.00    -0.237 OA
ATOM     84  O   UNL A   1      38.313  32.475  41.279  1.00  0.00    -0.237 OA
ATOM     85  O   UNL A   1      37.342  34.718  41.506  1.00  0.00    -0.744 OA
ENDBRANCH  79  82
ENDBRANCH  51  75
BRANCH  63  86
ATOM     86  C   UNL A   1      44.152  28.839  35.411  1.00  0.00     0.023 A 
ATOM     87  C   UNL A   1      45.418  29.431  35.230  1.00  0.00     0.012 A 
ATOM     88  C   UNL A   1      44.012  27.775  36.324  1.00  0.00     0.148 A 
ATOM     89  C   UNL A   1      46.532  28.946  35.916  1.00  0.00     0.002 A 
ATOM     90  C   UNL A   1      45.115  27.333  37.044  1.00  0.00     0.091 A 
ATOM     91  F   UNL A   1      42.803  27.213  36.471  1.00  0.00    -0.205 F 
ATOM     92  C   UNL A   1      46.379  27.907  36.829  1.00  0.00     0.022 A 
BRANCH  90  93
ATOM     93  S   UNL A   1      44.995  26.068  38.313  1.00  0.00     0.127 S 
ATOM     94  O   UNL A   1      44.117  26.710  39.291  1.00  0.00    -0.237 OA
ATOM     95  O   UNL A   1      44.386  24.955  37.585  1.00  0.00    -0.237 OA
ATOM     96  O   UNL A   1      46.357  25.821  38.766  1.00  0.00    -0.744 OA
ENDBRANCH  90  93
ENDBRANCH  63  86
ENDBRANCH  37  38
ENDBRANCH  29  32
ENDBRANCH  27  28
ENDBRANCH  26  27
ENDBRANCH  25  26
ENDBRANCH   1  25
TORSDOF 22
ENDMDL
MODEL 3
REMARK VINA RESULT:     -10.2      5.786      9.146
REMARK SMILES CC[C@](C)([NH3+])C(=O)NC[C@](C)(O)C(=O)NCCCCCCNC(=O)c1ccc(-c2c3nc(c(-c4cccc(S(=O)(=O)[O-])c4F)c4ccc([nH]4)c(-c4cccc(S(=O)(=O)[O-])c4F)c4nc(c(-c5cccc(S(=O)(=O)[O-])c5F)c5ccc2[nH]5)C=C4)C=C3)cc1
REMARK SMILES IDX 18 1 17 2 16 3 15 4 13 5 14 6 10 8 11 9 9 10 8 11 6 12 7 13
REMARK SMILES IDX 3 15 4 16 2 17 1 18 5 19 12 23 19 25 20 26 21 27 22 28 23 29
REMARK SMILES IDX 24 31 25 32 26 33 87 34 27 35 86 36 28 37 29 38 30 39 80 40
REMARK SMILES IDX 31 41 85 42 79 43 81 44 32 45 84 46 78 47 77 48 33 50 65 51
REMARK SMILES IDX 45 52 64 53 46 54 49 55 63 56 82 57 47 58 48 59 62 61 83 62
REMARK SMILES IDX 50 63 34 64 35 65 43 66 36 67 38 68 44 69 37 70 39 71 40 72
REMARK SMILES IDX 41 73 42 74 66 75 67 76 75 77 68 78 70 79 76 80 69 81 71 82
REMARK SMILES IDX 72 83 73 84 74 85 51 86 52 87 60 88 53 89 55 90 61 91 54 92
REMARK SMILES IDX 56 93 57 94 58 95 59 96
REMARK H PARENT 15 7 8 14 5 20 5 21 5 22 12 24 22 30 81 49 49 60
REMARK Flexibility Score: inf
ROOT
ATOM      1  C   UNL A   1      36.115  23.060  25.758  1.00  0.00     0.002 C 
ENDROOT
BRANCH   1   2
ATOM      2  C   UNL A   1      35.038  24.139  25.617  1.00  0.00     0.021 C 
BRANCH   2   3
ATOM      3  C   UNL A   1      33.667  23.618  25.211  1.00  0.00     0.116 C 
BRANCH   3   4
ATOM      4  N   UNL A   1      32.768  23.432  26.333  1.00  0.00    -0.354 N 
ATOM      5  C   UNL A   1      31.502  23.909  26.510  1.00  0.00     0.253 C 
ATOM      6  O   UNL A   1      30.836  23.432  27.437  1.00  0.00    -0.272 OA
ATOM      7  H   UNL A   1      33.121  22.882  27.070  1.00  0.00     0.163 HD
BRANCH   5   8
ATOM      8  C   UNL A   1      30.892  24.972  25.550  1.00  0.00     0.157 C 
ATOM      9  C   UNL A   1      30.712  24.326  24.157  1.00  0.00     0.055 C 
BRANCH   8  10
ATOM     10  C   UNL A   1      31.887  26.151  25.383  1.00  0.00     0.161 C 
BRANCH  10  11
ATOM     11  N   UNL A   1      31.310  27.479  25.292  1.00  0.00    -0.347 N 
ATOM     12  C   UNL A   1      31.285  28.427  24.312  1.00  0.00     0.281 C 
ATOM     13  O   UNL A   1      30.694  29.467  24.629  1.00  0.00    -0.268 OA
ATOM     14  H   UNL A   1      30.836  27.753  26.109  1.00  0.00     0.163 HD
BRANCH  12  15
ATOM     15  C   UNL A   1      31.908  28.252  22.885  1.00  0.00     0.170 C 
ATOM     16  C   UNL A   1      31.043  27.210  22.123  1.00  0.00     0.090 C 
BRANCH  15  17
ATOM     17  C   UNL A   1      33.346  27.681  22.925  1.00  0.00     0.075 C 
ATOM     18  C   UNL A   1      33.600  26.323  22.294  1.00  0.00     0.011 C 
ENDBRANCH  15  17
BRANCH  15  19
ATOM     19  N   UNL A   1      31.792  29.485  22.078  1.00  0.00    -0.345 N 
ATOM     20  H   UNL A   1      32.072  29.290  21.117  1.00  0.00     0.345 HD
ATOM     21  H   UNL A   1      32.397  30.206  22.471  1.00  0.00     0.345 HD
ATOM     22  H   UNL A   1      30.825  29.808  22.091  1.00  0.00     0.345 HD
ENDBRANCH  15  19
ENDBRANCH  12  15
ENDBRANCH  10  11
ENDBRANCH   8  10
BRANCH   8  23
ATOM     23  O   UNL A   1      29.594  25.429  25.931  1.00  0.00    -0.378 OA
ATOM     24  H   UNL A   1      28.978  25.310  25.191  1.00  0.00     0.212 HD
ENDBRANCH   8  23
ENDBRANCH   5   8
ENDBRANCH   3   4
ENDBRANCH   2   3
ENDBRANCH   1   2
BRANCH   1  25
ATOM     25  C   UNL A   1      35.893  21.780  24.943  1.00  0.00     0.002 C 
BRANCH  25  26
ATOM     26  C   UNL A   1      36.988  20.716  25.049  1.00  0.00     0.021 C 
BRANCH  26  27
ATOM     27  C   UNL A   1      38.412  21.248  25.186  1.00  0.00     0.116 C 
BRANCH  27  28
ATOM     28  N   UNL A   1      39.280  20.345  25.926  1.00  0.00    -0.352 N 
ATOM     29  C   UNL A   1      40.340  20.630  26.746  1.00  0.00     0.251 C 
ATOM     30  H   UNL A   1      39.075  19.388  25.822  1.00  0.00     0.163 HD
ATOM     31  O   UNL A   1      41.043  19.714  27.175  1.00  0.00    -0.269 OA
BRANCH  29  32
ATOM     32  C   UNL A   1      40.661  22.030  27.097  1.00  0.00     0.039 A 
ATOM     33  C   UNL A   1      41.499  22.271  28.188  1.00  0.00     0.014 A 
ATOM     34  C   UNL A   1      40.137  23.103  26.368  1.00  0.00     0.014 A 
ATOM     35  C   UNL A   1      41.857  23.581  28.514  1.00  0.00     0.010 A 
ATOM     36  C   UNL A   1      40.554  24.403  26.648  1.00  0.00     0.010 A 
ATOM     37  C   UNL A   1      41.415  24.657  27.725  1.00  0.00    -0.014 A 
BRANCH  37  38
ATOM     38  C   UNL A   1      41.879  26.041  28.002  1.00  0.00     0.031 A 
ATOM     39  C   UNL A   1      43.275  26.472  27.644  1.00  0.00     0.074 A 
ATOM     40  C   UNL A   1      41.054  26.897  28.638  1.00  0.00     0.049 A 
ATOM     41  N   UNL A   1      43.846  27.638  27.813  1.00  0.00    -0.248 NA
ATOM     42  C   UNL A   1      44.155  25.461  27.037  1.00  0.00     0.031 C 
ATOM     43  C   UNL A   1      39.706  26.573  29.114  1.00  0.00     0.029 A 
ATOM     44  N   UNL A   1      41.232  28.204  29.014  1.00  0.00    -0.354 N 
ATOM     45  C   UNL A   1      45.153  27.494  27.364  1.00  0.00     0.074 A 
ATOM     46  C   UNL A   1      45.302  26.117  26.945  1.00  0.00     0.031 C 
ATOM     47  C   UNL A   1      39.176  27.655  29.704  1.00  0.00     0.029 A 
ATOM     48  C   UNL A   1      40.153  28.738  29.681  1.00  0.00     0.049 A 
ATOM     49  H   UNL A   1      42.053  28.713  28.823  1.00  0.00     0.167 HD
ATOM     50  C   UNL A   1      46.131  28.427  27.282  1.00  0.00     0.034 A 
ATOM     51  C   UNL A   1      39.973  29.960  30.220  1.00  0.00     0.034 A 
ATOM     52  C   UNL A   1      45.969  29.802  27.674  1.00  0.00     0.049 A 
ATOM     53  C   UNL A   1      41.064  30.986  30.087  1.00  0.00     0.074 A 
ATOM     54  C   UNL A   1      46.871  30.845  27.548  1.00  0.00     0.029 A 
ATOM     55  N   UNL A   1      44.838  30.324  28.284  1.00  0.00    -0.354 N 
ATOM     56  N   UNL A   1      42.234  30.876  29.506  1.00  0.00    -0.248 NA
ATOM     57  C   UNL A   1      40.796  32.317  30.651  1.00  0.00     0.031 C 
ATOM     58  C   UNL A   1      46.299  31.989  28.115  1.00  0.00     0.029 A 
ATOM     59  C   UNL A   1      45.025  31.669  28.557  1.00  0.00     0.049 A 
ATOM     60  H   UNL A   1      44.022  29.815  28.490  1.00  0.00     0.167 HD
ATOM     61  C   UNL A   1      42.828  32.129  29.605  1.00  0.00     0.074 A 
ATOM     62  C   UNL A   1      41.876  32.989  30.279  1.00  0.00     0.031 C 
ATOM     63  C   UNL A   1      44.056  32.528  29.189  1.00  0.00     0.034 A 
BRANCH  50  64
ATOM     64  C   UNL A   1      47.458  28.004  26.706  1.00  0.00     0.023 A 
ATOM     65  C   UNL A   1      48.512  27.642  27.570  1.00  0.00     0.012 A 
ATOM     66  C   UNL A   1      47.645  27.900  25.313  1.00  0.00     0.148 A 
ATOM     67  C   UNL A   1      49.739  27.220  27.060  1.00  0.00     0.002 A 
ATOM     68  C   UNL A   1      48.855  27.435  24.811  1.00  0.00     0.091 A 
ATOM     69  F   UNL A   1      46.639  28.265  24.504  1.00  0.00    -0.205 F 
ATOM     70  C   UNL A   1      49.907  27.107  25.684  1.00  0.00     0.022 A 
BRANCH  68  71
ATOM     71  S   UNL A   1      49.144  27.173  23.058  1.00  0.00     0.127 S 
ATOM     72  O   UNL A   1      50.587  26.934  23.030  1.00  0.00    -0.237 OA
ATOM     73  O   UNL A   1      48.326  25.990  22.786  1.00  0.00    -0.237 OA
ATOM     74  O   UNL A   1      48.701  28.386  22.390  1.00  0.00    -0.744 OA
ENDBRANCH  68  71
ENDBRANCH  50  64
BRANCH  51  75
ATOM     75  C   UNL A   1      38.681  30.297  30.885  1.00  0.00     0.023 A 
ATOM     76  C   UNL A   1      38.455  29.882  32.212  1.00  0.00     0.012 A 
ATOM     77  C   UNL A   1      37.689  31.043  30.220  1.00  0.00     0.148 A 
ATOM     78  C   UNL A   1      37.250  30.172  32.852  1.00  0.00     0.002 A 
ATOM     79  C   UNL A   1      36.514  31.378  30.883  1.00  0.00     0.091 A 
ATOM     80  F   UNL A   1      37.920  31.421  28.955  1.00  0.00    -0.205 F 
ATOM     81  C   UNL A   1      36.284  30.927  32.193  1.00  0.00     0.022 A 
BRANCH  79  82
ATOM     82  S   UNL A   1      35.271  32.452  30.158  1.00  0.00     0.127 S 
ATOM     83  O   UNL A   1      34.334  32.614  31.267  1.00  0.00    -0.237 OA
ATOM     84  O   UNL A   1      36.056  33.645  29.836  1.00  0.00    -0.237 OA
ATOM     85  O   UNL A   1      34.759  31.737  28.998  1.00  0.00    -0.744 OA
ENDBRANCH  79  82
ENDBRANCH  51  75
BRANCH  63  86
ATOM     86  C   UNL A   1      44.435  33.968  29.417  1.00  0.00     0.023 A 
ATOM     87  C   UNL A   1      44.928  34.377  30.671  1.00  0.00     0.012 A 
ATOM     88  C   UNL A   1      44.358  34.905  28.367  1.00  0.00     0.148 A 
ATOM     89  C   UNL A   1      45.300  35.704  30.889  1.00  0.00     0.002 A 
ATOM     90  C   UNL A   1      44.781  36.212  28.575  1.00  0.00     0.091 A 
ATOM     91  F   UNL A   1      43.870  34.503  27.184  1.00  0.00    -0.205 F 
ATOM     92  C   UNL A   1      45.237  36.617  29.840  1.00  0.00     0.022 A 
BRANCH  90  93
ATOM     93  S   UNL A   1      44.830  37.432  27.257  1.00  0.00     0.127 S 
ATOM     94  O   UNL A   1      45.451  38.572  27.931  1.00  0.00    -0.237 OA
ATOM     95  O   UNL A   1      45.677  36.778  26.261  1.00  0.00    -0.237 OA
ATOM     96  O   UNL A   1      43.448  37.631  26.841  1.00  0.00    -0.744 OA
ENDBRANCH  90  93
ENDBRANCH  63  86
ENDBRANCH  37  38
ENDBRANCH  29  32
ENDBRANCH  27  28
ENDBRANCH  26  27
ENDBRANCH  25  26
ENDBRANCH   1  25
TORSDOF 22
ENDMDL
