MODEL 1
REMARK VINA RESULT:     -12.2      0.000      0.000
REMARK SMILES NC(=O)Nc1ccc(C(=O)N2C[C@@H](O)C[C@@H]2C(=O)NCCCCCCNC(=O)c2ccc(-c3c4nc(c(-c5cccc(S(=O)(=O)[O-])c5F)c5ccc([nH]5)c(-c5cccc(S(=O)(=O)[O-])c5F)c5nc(c(-c6cccc(S(=O)(=O)[O-])c6F)c6ccc3[nH]6)C=C5)C=C4)cc2)cc1
REMARK SMILES IDX 22 1 21 2 20 3 19 4 17 5 18 6 16 8 11 9 12 10 13 11 15 12
REMARK SMILES IDX 9 13 10 14 8 15 5 16 6 17 93 18 7 19 92 20 4 21 1 22 2 23
REMARK SMILES IDX 3 26 14 28 23 30 24 31 25 32 26 33 27 34 28 36 29 37 30 38
REMARK SMILES IDX 91 39 31 40 90 41 32 42 33 43 34 44 84 45 35 46 89 47 83 48
REMARK SMILES IDX 85 49 36 50 88 51 82 52 81 53 37 55 69 56 49 57 68 58 50 59
REMARK SMILES IDX 53 60 67 61 86 62 51 63 52 64 66 66 87 67 54 68 38 69 39 70
REMARK SMILES IDX 47 71 40 72 42 73 48 74 41 75 43 76 44 77 45 78 46 79 70 80
REMARK SMILES IDX 71 81 79 82 72 83 74 84 80 85 73 86 75 87 76 88 77 89 78 90
REMARK SMILES IDX 55 91 56 92 64 93 57 94 59 95 65 96 58 97 60 98 61 99 62 100
REMARK SMILES IDX 63 101
REMARK H PARENT 19 7 1 24 1 25 4 27 14 29 26 35 85 54 53 65
REMARK Flexibility Score: inf
ROOT
ATOM      1  C   UNL A   1      32.825  30.345  26.351  1.00  0.00     0.002 C 
ENDROOT
BRANCH   1   2
ATOM      2  C   UNL A   1      32.989  28.921  26.879  1.00  0.00     0.021 C 
BRANCH   2   3
ATOM      3  C   UNL A   1      33.984  28.078  26.092  1.00  0.00     0.116 C 
BRANCH   3   4
ATOM      4  N   UNL A   1      33.590  26.694  25.985  1.00  0.00    -0.354 N 
ATOM      5  C   UNL A   1      32.974  26.037  24.958  1.00  0.00     0.242 C 
ATOM      6  O   UNL A   1      32.677  24.854  25.158  1.00  0.00    -0.273 OA
ATOM      7  H   UNL A   1      33.797  26.138  26.770  1.00  0.00     0.163 HD
BRANCH   5   8
ATOM      8  C   UNL A   1      32.453  26.767  23.696  1.00  0.00     0.177 C 
ATOM      9  N   UNL A   1      31.162  26.325  23.159  1.00  0.00    -0.324 N 
ATOM     10  C   UNL A   1      31.229  26.259  21.708  1.00  0.00     0.152 C 
ATOM     11  C   UNL A   1      32.686  25.898  21.429  1.00  0.00     0.136 C 
ATOM     12  C   UNL A   1      33.452  26.621  22.538  1.00  0.00     0.069 C 
BRANCH   9  13
ATOM     13  C   UNL A   1      30.003  26.614  23.861  1.00  0.00     0.254 C 
ATOM     14  O   UNL A   1      29.354  25.726  24.410  1.00  0.00    -0.269 OA
BRANCH  13  15
ATOM     15  C   UNL A   1      29.405  27.989  23.745  1.00  0.00     0.040 A 
ATOM     16  C   UNL A   1      28.304  30.464  22.946  1.00  0.00     0.042 A 
ATOM     17  C   UNL A   1      27.516  29.316  22.950  1.00  0.00     0.027 A 
ATOM     18  C   UNL A   1      29.607  30.396  23.441  1.00  0.00     0.027 A 
ATOM     19  C   UNL A   1      28.071  28.083  23.315  1.00  0.00     0.016 A 
ATOM     20  C   UNL A   1      30.146  29.171  23.856  1.00  0.00     0.016 A 
BRANCH  16  21
ATOM     21  N   UNL A   1      27.746  31.653  22.455  1.00  0.00    -0.308 N 
ATOM     22  N   UNL A   1      28.725  31.688  20.361  1.00  0.00    -0.351 N 
ATOM     23  C   UNL A   1      28.045  32.348  21.324  1.00  0.00     0.316 C 
ATOM     24  H   UNL A   1      28.965  32.148  19.524  1.00  0.00     0.161 HD
ATOM     25  H   UNL A   1      28.981  30.748  20.496  1.00  0.00     0.161 HD
ATOM     26  O   UNL A   1      27.617  33.472  21.114  1.00  0.00    -0.249 OA
ATOM     27  H   UNL A   1      27.032  32.042  23.012  1.00  0.00     0.171 HD
ENDBRANCH  16  21
ENDBRANCH  13  15
ENDBRANCH   9  13
BRANCH  11  28
ATOM     28  O   UNL A   1      33.135  26.286  20.144  1.00  0.00    -0.391 OA
ATOM     29  H   UNL A   1      33.841  25.687  19.853  1.00  0.00     0.211 HD
ENDBRANCH  11  28
ENDBRANCH   5   8
ENDBRANCH   3   4
ENDBRANCH   2   3
ENDBRANCH   1   2
BRANCH   1  30
ATOM     30  C   UNL A   1      31.435  30.959  26.556  1.00  0.00     0.002 C 
BRANCH  30  31
ATOM     31  C   UNL A   1      31.417  32.465  26.833  1.00  0.00     0.021 C 
BRANCH  31  32
ATOM     32  C   UNL A   1      32.765  33.072  27.200  1.00  0.00     0.116 C 
BRANCH  32  33
ATOM     33  N   UNL A   1      32.611  34.399  27.776  1.00  0.00    -0.352 N 
ATOM     34  C   UNL A   1      33.145  34.949  28.914  1.00  0.00     0.251 C 
ATOM     35  H   UNL A   1      32.026  35.003  27.264  1.00  0.00     0.163 HD
ATOM     36  O   UNL A   1      32.660  35.990  29.353  1.00  0.00    -0.269 OA
BRANCH  34  37
ATOM     37  C   UNL A   1      34.288  34.315  29.613  1.00  0.00     0.039 A 
ATOM     38  C   UNL A   1      35.578  34.493  29.101  1.00  0.00     0.014 A 
ATOM     39  C   UNL A   1      34.097  33.495  30.726  1.00  0.00     0.014 A 
ATOM     40  C   UNL A   1      36.670  33.883  29.727  1.00  0.00     0.010 A 
ATOM     41  C   UNL A   1      35.193  32.970  31.407  1.00  0.00     0.010 A 
ATOM     42  C   UNL A   1      36.490  33.136  30.902  1.00  0.00    -0.014 A 
BRANCH  42  43
ATOM     43  C   UNL A   1      37.637  32.503  31.605  1.00  0.00     0.031 A 
ATOM     44  C   UNL A   1      38.390  31.366  30.960  1.00  0.00     0.074 A 
ATOM     45  C   UNL A   1      37.946  32.889  32.859  1.00  0.00     0.049 A 
ATOM     46  N   UNL A   1      39.372  30.648  31.441  1.00  0.00    -0.248 NA
ATOM     47  C   UNL A   1      37.963  30.961  29.610  1.00  0.00     0.031 C 
ATOM     48  C   UNL A   1      37.238  33.914  33.628  1.00  0.00     0.029 A 
ATOM     49  N   UNL A   1      38.921  32.446  33.716  1.00  0.00    -0.354 N 
ATOM     50  C   UNL A   1      39.647  29.683  30.479  1.00  0.00     0.074 A 
ATOM     51  C   UNL A   1      38.703  29.881  29.401  1.00  0.00     0.031 C 
ATOM     52  C   UNL A   1      37.807  34.029  34.838  1.00  0.00     0.029 A 
ATOM     53  C   UNL A   1      38.903  33.071  34.942  1.00  0.00     0.049 A 
ATOM     54  H   UNL A   1      39.573  31.748  33.477  1.00  0.00     0.167 HD
ATOM     55  C   UNL A   1      40.618  28.739  30.472  1.00  0.00     0.034 A 
ATOM     56  C   UNL A   1      39.682  32.892  36.027  1.00  0.00     0.034 A 
ATOM     57  C   UNL A   1      41.597  28.587  31.516  1.00  0.00     0.049 A 
ATOM     58  C   UNL A   1      40.803  31.890  35.964  1.00  0.00     0.074 A 
ATOM     59  C   UNL A   1      42.681  27.728  31.560  1.00  0.00     0.029 A 
ATOM     60  N   UNL A   1      41.612  29.314  32.695  1.00  0.00    -0.354 N 
ATOM     61  N   UNL A   1      41.146  31.096  34.979  1.00  0.00    -0.248 NA
ATOM     62  C   UNL A   1      41.670  31.789  37.147  1.00  0.00     0.031 C 
ATOM     63  C   UNL A   1      43.346  27.928  32.775  1.00  0.00     0.029 A 
ATOM     64  C   UNL A   1      42.687  28.924  33.477  1.00  0.00     0.049 A 
ATOM     65  H   UNL A   1      40.957  30.006  32.941  1.00  0.00     0.167 HD
ATOM     66  C   UNL A   1      42.286  30.427  35.407  1.00  0.00     0.074 A 
ATOM     67  C   UNL A   1      42.590  30.928  36.732  1.00  0.00     0.031 C 
ATOM     68  C   UNL A   1      43.007  29.471  34.770  1.00  0.00     0.034 A 
BRANCH  55  69
ATOM     69  C   UNL A   1      40.714  27.839  29.267  1.00  0.00     0.023 A 
ATOM     70  C   UNL A   1      39.893  26.694  29.189  1.00  0.00     0.012 A 
ATOM     71  C   UNL A   1      41.569  28.147  28.191  1.00  0.00     0.148 A 
ATOM     72  C   UNL A   1      39.948  25.851  28.080  1.00  0.00     0.002 A 
ATOM     73  C   UNL A   1      41.587  27.327  27.069  1.00  0.00     0.091 A 
ATOM     74  F   UNL A   1      42.359  29.226  28.290  1.00  0.00    -0.205 F 
ATOM     75  C   UNL A   1      40.786  26.174  27.016  1.00  0.00     0.022 A 
BRANCH  73  76
ATOM     76  S   UNL A   1      42.573  27.697  25.612  1.00  0.00     0.127 S 
ATOM     77  O   UNL A   1      43.916  27.792  26.184  1.00  0.00    -0.237 OA
ATOM     78  O   UNL A   1      42.348  26.516  24.778  1.00  0.00    -0.237 OA
ATOM     79  O   UNL A   1      42.034  28.936  25.068  1.00  0.00    -0.744 OA
ENDBRANCH  73  76
ENDBRANCH  55  69
BRANCH  56  80
ATOM     80  C   UNL A   1      39.482  33.745  37.232  1.00  0.00     0.023 A 
ATOM     81  C   UNL A   1      39.964  35.068  37.227  1.00  0.00     0.012 A 
ATOM     82  C   UNL A   1      38.791  33.271  38.364  1.00  0.00     0.148 A 
ATOM     83  C   UNL A   1      39.789  35.894  38.338  1.00  0.00     0.002 A 
ATOM     84  C   UNL A   1      38.575  34.115  39.448  1.00  0.00     0.091 A 
ATOM     85  F   UNL A   1      38.350  32.004  38.355  1.00  0.00    -0.205 F 
ATOM     86  C   UNL A   1      39.087  35.422  39.443  1.00  0.00     0.022 A 
BRANCH  84  87
ATOM     87  S   UNL A   1      37.576  33.630  40.860  1.00  0.00     0.127 S 
ATOM     88  O   UNL A   1      36.399  33.059  40.212  1.00  0.00    -0.237 OA
ATOM     89  O   UNL A   1      38.443  32.657  41.528  1.00  0.00    -0.237 OA
ATOM     90  O   UNL A   1      37.352  34.852  41.620  1.00  0.00    -0.744 OA
ENDBRANCH  84  87
ENDBRANCH  56  80
BRANCH  68  91
ATOM     91  C   UNL A   1      44.215  28.922  35.481  1.00  0.00     0.023 A 
ATOM     92  C   UNL A   1      45.479  29.506  35.266  1.00  0.00     0.012 A 
ATOM     93  C   UNL A   1      44.088  27.872  36.412  1.00  0.00     0.148 A 
ATOM     94  C   UNL A   1      46.603  29.032  35.940  1.00  0.00     0.002 A 
ATOM     95  C   UNL A   1      45.205  27.436  37.116  1.00  0.00     0.091 A 
ATOM     96  F   UNL A   1      42.881  27.315  36.589  1.00  0.00    -0.205 F 
ATOM     97  C   UNL A   1      46.465  28.006  36.872  1.00  0.00     0.022 A 
BRANCH  95  98
ATOM     98  S   UNL A   1      45.098  26.188  38.404  1.00  0.00     0.127 S 
ATOM     99  O   UNL A   1      44.159  26.804  39.338  1.00  0.00    -0.237 OA
ATOM    100  O   UNL A   1      44.568  25.033  37.678  1.00  0.00    -0.237 OA
ATOM    101  O   UNL A   1      46.457  26.013  38.901  1.00  0.00    -0.744 OA
ENDBRANCH  95  98
ENDBRANCH  68  91
ENDBRANCH  42  43
ENDBRANCH  34  37
ENDBRANCH  32  33
ENDBRANCH  31  32
ENDBRANCH  30  31
ENDBRANCH   1  30
TORSDOF 20
ENDMDL
MODEL 2
REMARK VINA RESULT:     -12.1      6.907     12.168
REMARK SMILES NC(=O)Nc1ccc(C(=O)N2C[C@@H](O)C[C@@H]2C(=O)NCCCCCCNC(=O)c2ccc(-c3c4nc(c(-c5cccc(S(=O)(=O)[O-])c5F)c5ccc([nH]5)c(-c5cccc(S(=O)(=O)[O-])c5F)c5nc(c(-c6cccc(S(=O)(=O)[O-])c6F)c6ccc3[nH]6)C=C5)C=C4)cc2)cc1
REMARK SMILES IDX 22 1 21 2 20 3 19 4 17 5 18 6 16 8 11 9 12 10 13 11 15 12
REMARK SMILES IDX 9 13 10 14 8 15 5 16 6 17 93 18 7 19 92 20 4 21 1 22 2 23
REMARK SMILES IDX 3 26 14 28 23 30 24 31 25 32 26 33 27 34 28 36 29 37 30 38
REMARK SMILES IDX 91 39 31 40 90 41 32 42 33 43 34 44 84 45 35 46 89 47 83 48
REMARK SMILES IDX 85 49 36 50 88 51 82 52 81 53 37 55 69 56 49 57 68 58 50 59
REMARK SMILES IDX 53 60 67 61 86 62 51 63 52 64 66 66 87 67 54 68 38 69 39 70
REMARK SMILES IDX 47 71 40 72 42 73 48 74 41 75 43 76 44 77 45 78 46 79 70 80
REMARK SMILES IDX 71 81 79 82 72 83 74 84 80 85 73 86 75 87 76 88 77 89 78 90
REMARK SMILES IDX 55 91 56 92 64 93 57 94 59 95 65 96 58 97 60 98 61 99 62 100
REMARK SMILES IDX 63 101
REMARK H PARENT 19 7 1 24 1 25 4 27 14 29 26 35 85 54 53 65
REMARK Flexibility Score: inf
ROOT
ATOM      1  C   UNL A   1      37.052  21.977  24.084  1.00  0.00     0.002 C 
ENDROOT
BRANCH   1   2
ATOM      2  C   UNL A   1      37.325  23.087  25.098  1.00  0.00     0.021 C 
BRANCH   2   3
ATOM      3  C   UNL A   1      36.110  23.486  25.925  1.00  0.00     0.116 C 
BRANCH   3   4
ATOM      4  N   UNL A   1      35.411  24.627  25.384  1.00  0.00    -0.354 N 
ATOM      5  C   UNL A   1      34.071  24.891  25.340  1.00  0.00     0.242 C 
ATOM      6  O   UNL A   1      33.731  25.919  24.744  1.00  0.00    -0.273 OA
ATOM      7  H   UNL A   1      35.986  25.320  24.987  1.00  0.00     0.163 HD
BRANCH   5   8
ATOM      8  C   UNL A   1      33.005  23.865  25.794  1.00  0.00     0.177 C 
ATOM      9  N   UNL A   1      32.259  23.173  24.738  1.00  0.00    -0.324 N 
ATOM     10  C   UNL A   1      30.853  23.090  25.101  1.00  0.00     0.152 C 
ATOM     11  C   UNL A   1      30.619  24.353  25.927  1.00  0.00     0.136 C 
ATOM     12  C   UNL A   1      31.942  24.545  26.670  1.00  0.00     0.069 C 
BRANCH   9  13
ATOM     13  C   UNL A   1      32.907  22.224  23.963  1.00  0.00     0.254 C 
ATOM     14  O   UNL A   1      33.514  22.545  22.943  1.00  0.00    -0.269 OA
BRANCH  13  15
ATOM     15  C   UNL A   1      32.663  20.767  24.238  1.00  0.00     0.040 A 
ATOM     16  C   UNL A   1      32.791  18.006  24.817  1.00  0.00     0.042 A 
ATOM     17  C   UNL A   1      32.897  18.941  25.843  1.00  0.00     0.027 A 
ATOM     18  C   UNL A   1      32.516  18.445  23.521  1.00  0.00     0.027 A 
ATOM     19  C   UNL A   1      32.866  20.311  25.551  1.00  0.00     0.016 A 
ATOM     20  C   UNL A   1      32.432  19.815  23.238  1.00  0.00     0.016 A 
BRANCH  16  21
ATOM     21  N   UNL A   1      32.952  16.649  25.134  1.00  0.00    -0.308 N 
ATOM     22  N   UNL A   1      35.255  16.585  25.340  1.00  0.00    -0.351 N 
ATOM     23  C   UNL A   1      34.091  15.909  25.219  1.00  0.00     0.316 C 
ATOM     24  H   UNL A   1      36.106  16.094  25.405  1.00  0.00     0.161 HD
ATOM     25  H   UNL A   1      35.251  17.569  25.363  1.00  0.00     0.161 HD
ATOM     26  O   UNL A   1      34.076  14.692  25.313  1.00  0.00    -0.249 OA
ATOM     27  H   UNL A   1      32.118  16.161  25.322  1.00  0.00     0.171 HD
ENDBRANCH  16  21
ENDBRANCH  13  15
ENDBRANCH   9  13
BRANCH  11  28
ATOM     28  O   UNL A   1      29.526  24.256  26.821  1.00  0.00    -0.391 OA
ATOM     29  H   UNL A   1      29.599  24.947  27.498  1.00  0.00     0.211 HD
ENDBRANCH  11  28
ENDBRANCH   5   8
ENDBRANCH   3   4
ENDBRANCH   2   3
ENDBRANCH   1   2
BRANCH   1  30
ATOM     30  C   UNL A   1      36.697  20.614  24.691  1.00  0.00     0.002 C 
BRANCH  30  31
ATOM     31  C   UNL A   1      37.882  19.671  24.922  1.00  0.00     0.021 C 
BRANCH  31  32
ATOM     32  C   UNL A   1      38.782  20.036  26.095  1.00  0.00     0.116 C 
BRANCH  32  33
ATOM     33  N   UNL A   1      39.973  19.201  26.132  1.00  0.00    -0.352 N 
ATOM     34  C   UNL A   1      41.303  19.537  26.139  1.00  0.00     0.251 C 
ATOM     35  H   UNL A   1      39.794  18.233  26.155  1.00  0.00     0.163 HD
ATOM     36  O   UNL A   1      42.135  18.667  25.891  1.00  0.00    -0.269 OA
BRANCH  34  37
ATOM     37  C   UNL A   1      41.746  20.918  26.440  1.00  0.00     0.039 A 
ATOM     38  C   UNL A   1      41.721  21.876  25.421  1.00  0.00     0.014 A 
ATOM     39  C   UNL A   1      42.249  21.264  27.697  1.00  0.00     0.014 A 
ATOM     40  C   UNL A   1      42.159  23.180  25.674  1.00  0.00     0.010 A 
ATOM     41  C   UNL A   1      42.591  22.585  27.975  1.00  0.00     0.010 A 
ATOM     42  C   UNL A   1      42.576  23.553  26.962  1.00  0.00    -0.014 A 
BRANCH  42  43
ATOM     43  C   UNL A   1      43.018  24.939  27.266  1.00  0.00     0.031 A 
ATOM     44  C   UNL A   1      42.072  25.911  27.926  1.00  0.00     0.074 A 
ATOM     45  C   UNL A   1      44.237  25.353  26.869  1.00  0.00     0.049 A 
ATOM     46  N   UNL A   1      42.253  27.175  28.211  1.00  0.00    -0.248 NA
ATOM     47  C   UNL A   1      40.735  25.406  28.284  1.00  0.00     0.031 C 
ATOM     48  C   UNL A   1      45.212  24.539  26.140  1.00  0.00     0.029 A 
ATOM     49  N   UNL A   1      44.856  26.571  27.000  1.00  0.00    -0.354 N 
ATOM     50  C   UNL A   1      41.046  27.625  28.736  1.00  0.00     0.074 A 
ATOM     51  C   UNL A   1      40.126  26.509  28.695  1.00  0.00     0.031 C 
ATOM     52  C   UNL A   1      46.309  25.274  25.898  1.00  0.00     0.029 A 
ATOM     53  C   UNL A   1      46.107  26.618  26.430  1.00  0.00     0.049 A 
ATOM     54  H   UNL A   1      44.444  27.338  27.459  1.00  0.00     0.167 HD
ATOM     55  C   UNL A   1      40.738  28.844  29.240  1.00  0.00     0.034 A 
ATOM     56  C   UNL A   1      46.993  27.630  26.345  1.00  0.00     0.034 A 
ATOM     57  C   UNL A   1      41.675  29.931  29.341  1.00  0.00     0.049 A 
ATOM     58  C   UNL A   1      46.656  28.951  26.983  1.00  0.00     0.074 A 
ATOM     59  C   UNL A   1      41.492  31.172  29.924  1.00  0.00     0.029 A 
ATOM     60  N   UNL A   1      42.971  29.904  28.850  1.00  0.00    -0.354 N 
ATOM     61  N   UNL A   1      45.564  29.306  27.617  1.00  0.00    -0.248 NA
ATOM     62  C   UNL A   1      47.687  29.996  26.929  1.00  0.00     0.031 C 
ATOM     63  C   UNL A   1      42.677  31.902  29.775  1.00  0.00     0.029 A 
ATOM     64  C   UNL A   1      43.602  31.108  29.115  1.00  0.00     0.049 A 
ATOM     65  H   UNL A   1      43.382  29.142  28.383  1.00  0.00     0.167 HD
ATOM     66  C   UNL A   1      45.790  30.601  28.067  1.00  0.00     0.074 A 
ATOM     67  C   UNL A   1      47.132  30.959  27.654  1.00  0.00     0.031 C 
ATOM     68  C   UNL A   1      44.956  31.428  28.746  1.00  0.00     0.034 A 
BRANCH  55  69
ATOM     69  C   UNL A   1      39.347  29.046  29.786  1.00  0.00     0.023 A 
ATOM     70  C   UNL A   1      39.055  28.643  31.105  1.00  0.00     0.012 A 
ATOM     71  C   UNL A   1      38.347  29.679  29.021  1.00  0.00     0.148 A 
ATOM     72  C   UNL A   1      37.782  28.832  31.643  1.00  0.00     0.002 A 
ATOM     73  C   UNL A   1      37.094  29.904  29.579  1.00  0.00     0.091 A 
ATOM     74  F   UNL A   1      38.635  30.036  27.762  1.00  0.00    -0.205 F 
ATOM     75  C   UNL A   1      36.806  29.471  30.884  1.00  0.00     0.022 A 
BRANCH  73  76
ATOM     76  S   UNL A   1      35.792  30.790  28.713  1.00  0.00     0.127 S 
ATOM     77  O   UNL A   1      35.025  31.347  29.827  1.00  0.00    -0.237 OA
ATOM     78  O   UNL A   1      36.548  31.775  27.941  1.00  0.00    -0.237 OA
ATOM     79  O   UNL A   1      35.096  29.794  27.910  1.00  0.00    -0.744 OA
ENDBRANCH  73  76
ENDBRANCH  55  69
BRANCH  56  80
ATOM     80  C   UNL A   1      48.320  27.403  25.707  1.00  0.00     0.023 A 
ATOM     81  C   UNL A   1      49.408  27.003  26.506  1.00  0.00     0.012 A 
ATOM     82  C   UNL A   1      48.504  27.545  24.318  1.00  0.00     0.148 A 
ATOM     83  C   UNL A   1      50.663  26.778  25.939  1.00  0.00     0.002 A 
ATOM     84  C   UNL A   1      49.744  27.270  23.752  1.00  0.00     0.091 A 
ATOM     85  F   UNL A   1      47.459  27.939  23.576  1.00  0.00    -0.205 F 
ATOM     86  C   UNL A   1      50.828  26.901  24.562  1.00  0.00     0.022 A 
BRANCH  84  87
ATOM     87  S   UNL A   1      50.013  27.285  21.976  1.00  0.00     0.127 S 
ATOM     88  O   UNL A   1      48.981  26.365  21.508  1.00  0.00    -0.237 OA
ATOM     89  O   UNL A   1      49.780  28.692  21.643  1.00  0.00    -0.237 OA
ATOM     90  O   UNL A   1      51.390  26.847  21.785  1.00  0.00    -0.744 OA
ENDBRANCH  84  87
ENDBRANCH  56  80
BRANCH  68  91
ATOM     91  C   UNL A   1      45.476  32.792  29.114  1.00  0.00     0.023 A 
ATOM     92  C   UNL A   1      46.151  32.976  30.336  1.00  0.00     0.012 A 
ATOM     93  C   UNL A   1      45.357  33.875  28.220  1.00  0.00     0.148 A 
ATOM     94  C   UNL A   1      46.669  34.224  30.679  1.00  0.00     0.002 A 
ATOM     95  C   UNL A   1      45.917  35.104  28.548  1.00  0.00     0.091 A 
ATOM     96  F   UNL A   1      44.693  33.686  27.070  1.00  0.00    -0.205 F 
ATOM     97  C   UNL A   1      46.562  35.284  29.782  1.00  0.00     0.022 A 
BRANCH  95  98
ATOM     98  S   UNL A   1      45.909  36.494  27.409  1.00  0.00     0.127 S 
ATOM     99  O   UNL A   1      44.504  36.896  27.440  1.00  0.00    -0.237 OA
ATOM    100  O   UNL A   1      46.827  37.433  28.055  1.00  0.00    -0.237 OA
ATOM    101  O   UNL A   1      46.386  35.968  26.137  1.00  0.00    -0.744 OA
ENDBRANCH  95  98
ENDBRANCH  68  91
ENDBRANCH  42  43
ENDBRANCH  34  37
ENDBRANCH  32  33
ENDBRANCH  31  32
ENDBRANCH  30  31
ENDBRANCH   1  30
TORSDOF 20
ENDMDL
MODEL 3
REMARK VINA RESULT:     -12.0      6.503     12.439
REMARK SMILES NC(=O)Nc1ccc(C(=O)N2C[C@@H](O)C[C@@H]2C(=O)NCCCCCCNC(=O)c2ccc(-c3c4nc(c(-c5cccc(S(=O)(=O)[O-])c5F)c5ccc([nH]5)c(-c5cccc(S(=O)(=O)[O-])c5F)c5nc(c(-c6cccc(S(=O)(=O)[O-])c6F)c6ccc3[nH]6)C=C5)C=C4)cc2)cc1
REMARK SMILES IDX 22 1 21 2 20 3 19 4 17 5 18 6 16 8 11 9 12 10 13 11 15 12
REMARK SMILES IDX 9 13 10 14 8 15 5 16 6 17 93 18 7 19 92 20 4 21 1 22 2 23
REMARK SMILES IDX 3 26 14 28 23 30 24 31 25 32 26 33 27 34 28 36 29 37 30 38
REMARK SMILES IDX 91 39 31 40 90 41 32 42 33 43 34 44 84 45 35 46 89 47 83 48
REMARK SMILES IDX 85 49 36 50 88 51 82 52 81 53 37 55 69 56 49 57 68 58 50 59
REMARK SMILES IDX 53 60 67 61 86 62 51 63 52 64 66 66 87 67 54 68 38 69 39 70
REMARK SMILES IDX 47 71 40 72 42 73 48 74 41 75 43 76 44 77 45 78 46 79 70 80
REMARK SMILES IDX 71 81 79 82 72 83 74 84 80 85 73 86 75 87 76 88 77 89 78 90
REMARK SMILES IDX 55 91 56 92 64 93 57 94 59 95 65 96 58 97 60 98 61 99 62 100
REMARK SMILES IDX 63 101
REMARK H PARENT 19 7 1 24 1 25 4 27 14 29 26 35 85 54 53 65
REMARK Flexibility Score: inf
ROOT
ATOM      1  C   UNL A   1      37.243  21.890  24.486  1.00  0.00     0.002 C 
ENDROOT
BRANCH   1   2
ATOM      2  C   UNL A   1      36.047  22.792  24.185  1.00  0.00     0.021 C 
BRANCH   2   3
ATOM      3  C   UNL A   1      35.842  23.911  25.197  1.00  0.00     0.116 C 
BRANCH   3   4
ATOM      4  N   UNL A   1      34.801  24.834  24.817  1.00  0.00    -0.354 N 
ATOM      5  C   UNL A   1      33.456  24.778  25.047  1.00  0.00     0.242 C 
ATOM      6  O   UNL A   1      32.771  25.673  24.538  1.00  0.00    -0.273 OA
ATOM      7  H   UNL A   1      35.106  25.624  24.315  1.00  0.00     0.163 HD
BRANCH   5   8
ATOM      8  C   UNL A   1      32.773  23.553  25.702  1.00  0.00     0.177 C 
ATOM      9  N   UNL A   1      31.934  22.719  24.836  1.00  0.00    -0.324 N 
ATOM     10  C   UNL A   1      30.717  22.346  25.540  1.00  0.00     0.152 C 
ATOM     11  C   UNL A   1      30.456  23.533  26.464  1.00  0.00     0.136 C 
ATOM     12  C   UNL A   1      31.859  23.998  26.855  1.00  0.00     0.069 C 
BRANCH   9  13
ATOM     13  C   UNL A   1      32.536  21.926  23.873  1.00  0.00     0.254 C 
ATOM     14  O   UNL A   1      32.856  22.387  22.779  1.00  0.00    -0.269 OA
BRANCH  13  15
ATOM     15  C   UNL A   1      32.577  20.437  24.076  1.00  0.00     0.040 A 
ATOM     16  C   UNL A   1      33.234  17.706  24.368  1.00  0.00     0.042 A 
ATOM     17  C   UNL A   1      33.472  18.598  25.411  1.00  0.00     0.027 A 
ATOM     18  C   UNL A   1      32.573  18.156  23.225  1.00  0.00     0.027 A 
ATOM     19  C   UNL A   1      33.176  19.958  25.253  1.00  0.00     0.016 A 
ATOM     20  C   UNL A   1      32.228  19.508  23.089  1.00  0.00     0.016 A 
BRANCH  16  21
ATOM     21  N   UNL A   1      33.659  16.378  24.519  1.00  0.00    -0.308 N 
ATOM     22  N   UNL A   1      31.779  15.496  25.536  1.00  0.00    -0.351 N 
ATOM     23  C   UNL A   1      33.082  15.357  25.209  1.00  0.00     0.316 C 
ATOM     24  H   UNL A   1      31.317  14.784  26.035  1.00  0.00     0.161 HD
ATOM     25  H   UNL A   1      31.291  16.310  25.275  1.00  0.00     0.161 HD
ATOM     26  O   UNL A   1      33.659  14.301  25.419  1.00  0.00    -0.249 OA
ATOM     27  H   UNL A   1      34.500  16.153  24.058  1.00  0.00     0.171 HD
ENDBRANCH  16  21
ENDBRANCH  13  15
ENDBRANCH   9  13
BRANCH  11  28
ATOM     28  O   UNL A   1      29.675  23.213  27.600  1.00  0.00    -0.391 OA
ATOM     29  H   UNL A   1      29.062  23.940  27.787  1.00  0.00     0.211 HD
ENDBRANCH  11  28
ENDBRANCH   5   8
ENDBRANCH   3   4
ENDBRANCH   2   3
ENDBRANCH   1   2
BRANCH   1  30
ATOM     30  C   UNL A   1      36.901  20.414  24.722  1.00  0.00     0.002 C 
BRANCH  30  31
ATOM     31  C   UNL A   1      38.100  19.495  24.973  1.00  0.00     0.021 C 
BRANCH  31  32
ATOM     32  C   UNL A   1      39.201  20.089  25.842  1.00  0.00     0.116 C 
BRANCH  32  33
ATOM     33  N   UNL A   1      40.318  19.169  25.988  1.00  0.00    -0.352 N 
ATOM     34  C   UNL A   1      41.665  19.405  26.090  1.00  0.00     0.251 C 
ATOM     35  H   UNL A   1      40.065  18.218  26.018  1.00  0.00     0.163 HD
ATOM     36  O   UNL A   1      42.445  18.469  25.925  1.00  0.00    -0.269 OA
BRANCH  34  37
ATOM     37  C   UNL A   1      42.189  20.757  26.395  1.00  0.00     0.039 A 
ATOM     38  C   UNL A   1      42.426  21.647  25.341  1.00  0.00     0.014 A 
ATOM     39  C   UNL A   1      42.512  21.136  27.700  1.00  0.00     0.014 A 
ATOM     40  C   UNL A   1      42.946  22.919  25.601  1.00  0.00     0.010 A 
ATOM     41  C   UNL A   1      42.934  22.436  27.968  1.00  0.00     0.010 A 
ATOM     42  C   UNL A   1      43.181  23.334  26.922  1.00  0.00    -0.014 A 
BRANCH  42  43
ATOM     43  C   UNL A   1      43.703  24.692  27.229  1.00  0.00     0.031 A 
ATOM     44  C   UNL A   1      42.778  25.762  27.751  1.00  0.00     0.074 A 
ATOM     45  C   UNL A   1      44.989  24.989  26.956  1.00  0.00     0.049 A 
ATOM     46  N   UNL A   1      43.033  27.018  28.015  1.00  0.00    -0.248 NA
ATOM     47  C   UNL A   1      41.373  25.382  27.975  1.00  0.00     0.031 C 
ATOM     48  C   UNL A   1      45.964  24.070  26.365  1.00  0.00     0.029 A 
ATOM     49  N   UNL A   1      45.691  26.158  27.116  1.00  0.00    -0.354 N 
ATOM     50  C   UNL A   1      41.820  27.584  28.389  1.00  0.00     0.074 A 
ATOM     51  C   UNL A   1      40.819  26.546  28.281  1.00  0.00     0.031 C 
ATOM     52  C   UNL A   1      47.138  24.705  26.222  1.00  0.00     0.029 A 
ATOM     53  C   UNL A   1      46.996  26.081  26.686  1.00  0.00     0.049 A 
ATOM     54  H   UNL A   1      45.299  26.974  27.502  1.00  0.00     0.167 HD
ATOM     55  C   UNL A   1      41.564  28.844  28.817  1.00  0.00     0.034 A 
ATOM     56  C   UNL A   1      47.967  27.014  26.668  1.00  0.00     0.034 A 
ATOM     57  C   UNL A   1      42.573  29.855  28.987  1.00  0.00     0.049 A 
ATOM     58  C   UNL A   1      47.677  28.382  27.222  1.00  0.00     0.074 A 
ATOM     59  C   UNL A   1      42.434  31.129  29.507  1.00  0.00     0.029 A 
ATOM     60  N   UNL A   1      43.907  29.704  28.643  1.00  0.00    -0.354 N 
ATOM     61  N   UNL A   1      46.558  28.850  27.721  1.00  0.00    -0.248 NA
ATOM     62  C   UNL A   1      48.792  29.338  27.250  1.00  0.00     0.031 C 
ATOM     63  C   UNL A   1      43.686  31.755  29.466  1.00  0.00     0.029 A 
ATOM     64  C   UNL A   1      44.605  30.863  28.938  1.00  0.00     0.049 A 
ATOM     65  H   UNL A   1      44.300  28.893  28.248  1.00  0.00     0.167 HD
ATOM     66  C   UNL A   1      46.842  30.140  28.153  1.00  0.00     0.074 A 
ATOM     67  C   UNL A   1      48.246  30.371  27.879  1.00  0.00     0.031 C 
ATOM     68  C   UNL A   1      46.013  31.058  28.709  1.00  0.00     0.034 A 
BRANCH  55  69
ATOM     69  C   UNL A   1      40.145  29.179  29.201  1.00  0.00     0.023 A 
ATOM     70  C   UNL A   1      39.217  29.522  28.195  1.00  0.00     0.012 A 
ATOM     71  C   UNL A   1      39.713  29.106  30.540  1.00  0.00     0.148 A 
ATOM     72  C   UNL A   1      37.894  29.822  28.517  1.00  0.00     0.002 A 
ATOM     73  C   UNL A   1      38.382  29.363  30.848  1.00  0.00     0.091 A 
ATOM     74  F   UNL A   1      40.612  28.801  31.486  1.00  0.00    -0.205 F 
ATOM     75  C   UNL A   1      37.475  29.732  29.841  1.00  0.00     0.022 A 
BRANCH  73  76
ATOM     76  S   UNL A   1      37.723  29.198  32.512  1.00  0.00     0.127 S 
ATOM     77  O   UNL A   1      38.610  30.082  33.268  1.00  0.00    -0.237 OA
ATOM     78  O   UNL A   1      36.357  29.695  32.355  1.00  0.00    -0.237 OA
ATOM     79  O   UNL A   1      37.820  27.783  32.843  1.00  0.00    -0.744 OA
ENDBRANCH  73  76
ENDBRANCH  55  69
BRANCH  56  80
ATOM     80  C   UNL A   1      49.331  26.656  26.186  1.00  0.00     0.023 A 
ATOM     81  C   UNL A   1      50.139  25.811  26.973  1.00  0.00     0.012 A 
ATOM     82  C   UNL A   1      49.819  27.112  24.947  1.00  0.00     0.148 A 
ATOM     83  C   UNL A   1      51.419  25.453  26.549  1.00  0.00     0.002 A 
ATOM     84  C   UNL A   1      51.076  26.710  24.507  1.00  0.00     0.091 A 
ATOM     85  F   UNL A   1      49.041  27.925  24.218  1.00  0.00    -0.205 F 
ATOM     86  C   UNL A   1      51.883  25.893  25.313  1.00  0.00     0.022 A 
BRANCH  84  87
ATOM     87  S   UNL A   1      51.702  27.130  22.876  1.00  0.00     0.127 S 
ATOM     88  O   UNL A   1      52.916  26.323  22.803  1.00  0.00    -0.237 OA
ATOM     89  O   UNL A   1      50.613  26.683  22.006  1.00  0.00    -0.237 OA
ATOM     90  O   UNL A   1      51.899  28.574  22.893  1.00  0.00    -0.744 OA
ENDBRANCH  84  87
ENDBRANCH  56  80
BRANCH  68  91
ATOM     91  C   UNL A   1      46.605  32.389  29.090  1.00  0.00     0.023 A 
ATOM     92  C   UNL A   1      47.209  32.551  30.352  1.00  0.00     0.012 A 
ATOM     93  C   UNL A   1      46.622  33.459  28.173  1.00  0.00     0.148 A 
ATOM     94  C   UNL A   1      47.792  33.766  30.709  1.00  0.00     0.002 A 
ATOM     95  C   UNL A   1      47.246  34.652  28.518  1.00  0.00     0.091 A 
ATOM     96  F   UNL A   1      46.024  33.293  26.984  1.00  0.00    -0.205 F 
ATOM     97  C   UNL A   1      47.820  34.812  29.789  1.00  0.00     0.022 A 
BRANCH  95  98
ATOM     98  S   UNL A   1      47.413  36.015  27.359  1.00  0.00     0.127 S 
ATOM     99  O   UNL A   1      48.558  35.585  26.558  1.00  0.00    -0.237 OA
ATOM    100  O   UNL A   1      46.131  35.987  26.654  1.00  0.00    -0.237 OA
ATOM    101  O   UNL A   1      47.626  37.205  28.172  1.00  0.00    -0.744 OA
ENDBRANCH  95  98
ENDBRANCH  68  91
ENDBRANCH  42  43
ENDBRANCH  34  37
ENDBRANCH  32  33
ENDBRANCH  31  32
ENDBRANCH  30  31
ENDBRANCH   1  30
TORSDOF 20
ENDMDL
