MODEL 1
REMARK VINA RESULT:     -11.8      0.000      0.000
REMARK SMILES CN(C(=O)N1CCC(C(=O)NCCCCCCNC(=O)c2ccc(-c3c4nc(c(-c5cccc(S(=O)(=O)[O-])c5F)c5ccc([nH]5)c(-c5cccc(S(=O)(=O)[O-])c5F)c5nc(c(-c6cccc(S(=O)(=O)[O-])c6F)c6ccc3[nH]6)C=C5)C=C4)cc2)CC1)[C@H]1CCSC1
REMARK SMILES IDX 15 1 14 2 13 3 12 4 11 5 9 6 10 7 8 9 3 10 4 11 5 12 6 13
REMARK SMILES IDX 85 14 7 15 84 16 2 17 1 18 86 19 87 20 90 21 88 22 89 23
REMARK SMILES IDX 16 24 17 25 18 26 19 27 20 29 21 30 22 31 83 32 23 33 82 34
REMARK SMILES IDX 24 35 25 36 26 37 76 38 27 39 81 40 75 41 77 42 28 43 80 44
REMARK SMILES IDX 74 45 73 46 29 48 61 49 41 50 60 51 42 52 45 53 59 54 78 55
REMARK SMILES IDX 43 56 44 57 58 59 79 60 46 61 30 62 31 63 39 64 32 65 34 66
REMARK SMILES IDX 40 67 33 68 35 69 36 70 37 71 38 72 62 73 63 74 71 75 64 76
REMARK SMILES IDX 66 77 72 78 65 79 67 80 68 81 69 82 70 83 47 84 48 85 56 86
REMARK SMILES IDX 49 87 51 88 57 89 50 90 52 91 53 92 54 93 55 94
REMARK H PARENT 11 8 18 28 77 47 45 58
REMARK Flexibility Score: inf
ROOT
ATOM      1  C   UNL A   1      31.711  30.209  26.944  1.00  0.00     0.002 C 
ENDROOT
BRANCH   1   2
ATOM      2  C   UNL A   1      31.841  29.312  25.708  1.00  0.00     0.002 C 
BRANCH   2   3
ATOM      3  C   UNL A   1      33.209  29.349  25.015  1.00  0.00     0.021 C 
BRANCH   3   4
ATOM      4  C   UNL A   1      33.177  28.931  23.547  1.00  0.00     0.116 C 
BRANCH   4   5
ATOM      5  N   UNL A   1      31.862  29.151  22.967  1.00  0.00    -0.356 N 
ATOM      6  C   UNL A   1      30.946  28.276  22.474  1.00  0.00     0.223 C 
ATOM      7  O   UNL A   1      29.905  28.739  21.999  1.00  0.00    -0.275 OA
ATOM      8  H   UNL A   1      31.587  30.096  22.924  1.00  0.00     0.163 HD
BRANCH   6   9
ATOM      9  C   UNL A   1      31.163  26.772  22.522  1.00  0.00     0.082 C 
ATOM     10  C   UNL A   1      33.606  24.289  24.398  1.00  0.00     0.320 C 
ATOM     11  O   UNL A   1      34.580  25.035  24.310  1.00  0.00    -0.248 OA
ATOM     12  N   UNL A   1      32.532  24.460  23.542  1.00  0.00    -0.325 N 
ATOM     13  C   UNL A   1      32.791  24.872  22.172  1.00  0.00     0.122 C 
ATOM     14  C   UNL A   1      31.190  24.729  24.038  1.00  0.00     0.122 C 
ATOM     15  C   UNL A   1      32.527  26.355  21.957  1.00  0.00     0.035 C 
ATOM     16  C   UNL A   1      30.846  26.210  23.915  1.00  0.00     0.035 C 
BRANCH  10  17
ATOM     17  N   UNL A   1      33.543  23.211  25.272  1.00  0.00    -0.324 N 
ATOM     18  C   UNL A   1      33.383  23.337  26.716  1.00  0.00     0.149 C 
BRANCH  17  19
ATOM     19  C   UNL A   1      33.564  21.822  24.767  1.00  0.00     0.097 C 
ATOM     20  C   UNL A   1      34.634  20.910  25.378  1.00  0.00     0.037 C 
ATOM     21  C   UNL A   1      32.236  21.078  24.894  1.00  0.00     0.094 C 
ATOM     22  C   UNL A   1      34.455  19.558  24.707  1.00  0.00     0.072 C 
ATOM     23  S   UNL A   1      32.662  19.337  24.590  1.00  0.00    -0.160 SA
ENDBRANCH  17  19
ENDBRANCH  10  17
ENDBRANCH   6   9
ENDBRANCH   4   5
ENDBRANCH   3   4
ENDBRANCH   2   3
ENDBRANCH   1   2
BRANCH   1  24
ATOM     24  C   UNL A   1      31.715  31.713  26.662  1.00  0.00     0.021 C 
BRANCH  24  25
ATOM     25  C   UNL A   1      32.889  32.471  27.268  1.00  0.00     0.116 C 
BRANCH  25  26
ATOM     26  N   UNL A   1      32.553  33.855  27.573  1.00  0.00    -0.352 N 
ATOM     27  C   UNL A   1      33.073  34.664  28.553  1.00  0.00     0.251 C 
ATOM     28  H   UNL A   1      31.864  34.264  27.000  1.00  0.00     0.163 HD
ATOM     29  O   UNL A   1      32.565  35.756  28.792  1.00  0.00    -0.269 OA
BRANCH  27  30
ATOM     30  C   UNL A   1      34.238  34.195  29.331  1.00  0.00     0.039 A 
ATOM     31  C   UNL A   1      34.029  33.441  30.489  1.00  0.00     0.014 A 
ATOM     32  C   UNL A   1      35.535  34.481  28.896  1.00  0.00     0.014 A 
ATOM     33  C   UNL A   1      35.126  32.925  31.184  1.00  0.00     0.010 A 
ATOM     34  C   UNL A   1      36.620  33.911  29.550  1.00  0.00     0.010 A 
ATOM     35  C   UNL A   1      36.429  33.134  30.704  1.00  0.00    -0.014 A 
BRANCH  35  36
ATOM     36  C   UNL A   1      37.621  32.573  31.390  1.00  0.00     0.031 A 
ATOM     37  C   UNL A   1      38.373  31.436  30.753  1.00  0.00     0.074 A 
ATOM     38  C   UNL A   1      37.947  32.997  32.627  1.00  0.00     0.049 A 
ATOM     39  N   UNL A   1      39.343  30.711  31.241  1.00  0.00    -0.248 NA
ATOM     40  C   UNL A   1      37.954  31.041  29.395  1.00  0.00     0.031 C 
ATOM     41  C   UNL A   1      37.254  34.049  33.374  1.00  0.00     0.029 A 
ATOM     42  N   UNL A   1      38.923  32.566  33.491  1.00  0.00    -0.354 N 
ATOM     43  C   UNL A   1      39.611  29.740  30.282  1.00  0.00     0.074 A 
ATOM     44  C   UNL A   1      38.690  29.959  29.189  1.00  0.00     0.031 C 
ATOM     45  C   UNL A   1      37.824  34.179  34.584  1.00  0.00     0.029 A 
ATOM     46  C   UNL A   1      38.898  33.199  34.714  1.00  0.00     0.049 A 
ATOM     47  H   UNL A   1      39.579  31.870  33.260  1.00  0.00     0.167 HD
ATOM     48  C   UNL A   1      40.553  28.769  30.301  1.00  0.00     0.034 A 
ATOM     49  C   UNL A   1      39.651  33.005  35.816  1.00  0.00     0.034 A 
ATOM     50  C   UNL A   1      41.510  28.603  31.360  1.00  0.00     0.049 A 
ATOM     51  C   UNL A   1      40.730  31.953  35.782  1.00  0.00     0.074 A 
ATOM     52  C   UNL A   1      42.571  27.718  31.427  1.00  0.00     0.029 A 
ATOM     53  N   UNL A   1      41.525  29.340  32.533  1.00  0.00    -0.354 N 
ATOM     54  N   UNL A   1      41.071  31.149  34.804  1.00  0.00    -0.248 NA
ATOM     55  C   UNL A   1      41.555  31.806  36.992  1.00  0.00     0.031 C 
ATOM     56  C   UNL A   1      43.220  27.910  32.651  1.00  0.00     0.029 A 
ATOM     57  C   UNL A   1      42.575  28.929  33.334  1.00  0.00     0.049 A 
ATOM     58  H   UNL A   1      40.884  30.050  32.763  1.00  0.00     0.167 HD
ATOM     59  C   UNL A   1      42.176  30.439  35.259  1.00  0.00     0.074 A 
ATOM     60  C   UNL A   1      42.455  30.913  36.599  1.00  0.00     0.031 C 
ATOM     61  C   UNL A   1      42.888  29.472  34.630  1.00  0.00     0.034 A 
BRANCH  48  62
ATOM     62  C   UNL A   1      40.636  27.841  29.118  1.00  0.00     0.023 A 
ATOM     63  C   UNL A   1      39.747  26.751  29.025  1.00  0.00     0.012 A 
ATOM     64  C   UNL A   1      41.541  28.086  28.068  1.00  0.00     0.148 A 
ATOM     65  C   UNL A   1      39.778  25.902  27.920  1.00  0.00     0.002 A 
ATOM     66  C   UNL A   1      41.538  27.261  26.949  1.00  0.00     0.091 A 
ATOM     67  F   UNL A   1      42.394  29.115  28.185  1.00  0.00    -0.205 F 
ATOM     68  C   UNL A   1      40.664  26.162  26.878  1.00  0.00     0.022 A 
BRANCH  66  69
ATOM     69  S   UNL A   1      42.583  27.561  25.520  1.00  0.00     0.127 S 
ATOM     70  O   UNL A   1      42.373  26.342  24.740  1.00  0.00    -0.237 OA
ATOM     71  O   UNL A   1      41.982  28.764  24.943  1.00  0.00    -0.237 OA
ATOM     72  O   UNL A   1      43.931  27.746  26.039  1.00  0.00    -0.744 OA
ENDBRANCH  66  69
ENDBRANCH  48  62
BRANCH  49  73
ATOM     73  C   UNL A   1      39.479  33.882  37.010  1.00  0.00     0.023 A 
ATOM     74  C   UNL A   1      39.919  35.219  36.939  1.00  0.00     0.012 A 
ATOM     75  C   UNL A   1      38.879  33.422  38.199  1.00  0.00     0.148 A 
ATOM     76  C   UNL A   1      39.801  36.070  38.037  1.00  0.00     0.002 A 
ATOM     77  C   UNL A   1      38.717  34.293  39.275  1.00  0.00     0.091 A 
ATOM     78  F   UNL A   1      38.479  32.145  38.260  1.00  0.00    -0.205 F 
ATOM     79  C   UNL A   1      39.192  35.611  39.201  1.00  0.00     0.022 A 
BRANCH  77  80
ATOM     80  S   UNL A   1      37.827  33.825  40.765  1.00  0.00     0.127 S 
ATOM     81  O   UNL A   1      38.805  32.985  41.450  1.00  0.00    -0.237 OA
ATOM     82  O   UNL A   1      37.580  35.121  41.398  1.00  0.00    -0.237 OA
ATOM     83  O   UNL A   1      36.620  33.157  40.299  1.00  0.00    -0.744 OA
ENDBRANCH  77  80
ENDBRANCH  49  73
BRANCH  61  84
ATOM     84  C   UNL A   1      44.083  28.896  35.342  1.00  0.00     0.023 A 
ATOM     85  C   UNL A   1      45.350  29.487  35.178  1.00  0.00     0.012 A 
ATOM     86  C   UNL A   1      43.924  27.841  36.262  1.00  0.00     0.148 A 
ATOM     87  C   UNL A   1      46.447  29.023  35.904  1.00  0.00     0.002 A 
ATOM     88  C   UNL A   1      45.010  27.415  37.017  1.00  0.00     0.091 A 
ATOM     89  F   UNL A   1      42.712  27.281  36.390  1.00  0.00    -0.205 F 
ATOM     90  C   UNL A   1      46.273  27.999  36.832  1.00  0.00     0.022 A 
BRANCH  88  91
ATOM     91  S   UNL A   1      44.858  26.173  38.308  1.00  0.00     0.127 S 
ATOM     92  O   UNL A   1      44.607  24.963  37.528  1.00  0.00    -0.237 OA
ATOM     93  O   UNL A   1      46.174  26.227  38.945  1.00  0.00    -0.237 OA
ATOM     94  O   UNL A   1      43.757  26.609  39.157  1.00  0.00    -0.744 OA
ENDBRANCH  88  91
ENDBRANCH  61  84
ENDBRANCH  35  36
ENDBRANCH  27  30
ENDBRANCH  25  26
ENDBRANCH  24  25
ENDBRANCH   1  24
TORSDOF 18
ENDMDL
MODEL 2
REMARK VINA RESULT:     -11.4      6.450     11.789
REMARK SMILES CN(C(=O)N1CCC(C(=O)NCCCCCCNC(=O)c2ccc(-c3c4nc(c(-c5cccc(S(=O)(=O)[O-])c5F)c5ccc([nH]5)c(-c5cccc(S(=O)(=O)[O-])c5F)c5nc(c(-c6cccc(S(=O)(=O)[O-])c6F)c6ccc3[nH]6)C=C5)C=C4)cc2)CC1)[C@H]1CCSC1
REMARK SMILES IDX 15 1 14 2 13 3 12 4 11 5 9 6 10 7 8 9 3 10 4 11 5 12 6 13
REMARK SMILES IDX 85 14 7 15 84 16 2 17 1 18 86 19 87 20 90 21 88 22 89 23
REMARK SMILES IDX 16 24 17 25 18 26 19 27 20 29 21 30 22 31 83 32 23 33 82 34
REMARK SMILES IDX 24 35 25 36 26 37 76 38 27 39 81 40 75 41 77 42 28 43 80 44
REMARK SMILES IDX 74 45 73 46 29 48 61 49 41 50 60 51 42 52 45 53 59 54 78 55
REMARK SMILES IDX 43 56 44 57 58 59 79 60 46 61 30 62 31 63 39 64 32 65 34 66
REMARK SMILES IDX 40 67 33 68 35 69 36 70 37 71 38 72 62 73 63 74 71 75 64 76
REMARK SMILES IDX 66 77 72 78 65 79 67 80 68 81 69 82 70 83 47 84 48 85 56 86
REMARK SMILES IDX 49 87 51 88 57 89 50 90 52 91 53 92 54 93 55 94
REMARK H PARENT 11 8 18 28 77 47 45 58
REMARK Flexibility Score: inf
ROOT
ATOM      1  C   UNL A   1      36.760  21.189  24.644  1.00  0.00     0.002 C 
ENDROOT
BRANCH   1   2
ATOM      2  C   UNL A   1      35.510  20.941  25.496  1.00  0.00     0.002 C 
BRANCH   2   3
ATOM      3  C   UNL A   1      34.473  19.998  24.875  1.00  0.00     0.021 C 
BRANCH   3   4
ATOM      4  C   UNL A   1      33.118  20.007  25.580  1.00  0.00     0.116 C 
BRANCH   4   5
ATOM      5  N   UNL A   1      33.180  20.757  26.824  1.00  0.00    -0.356 N 
ATOM      6  C   UNL A   1      32.877  22.053  27.101  1.00  0.00     0.223 C 
ATOM      7  O   UNL A   1      33.056  22.452  28.255  1.00  0.00    -0.275 OA
ATOM      8  H   UNL A   1      33.494  20.237  27.599  1.00  0.00     0.163 HD
BRANCH   6   9
ATOM      9  C   UNL A   1      32.307  22.989  26.047  1.00  0.00     0.082 C 
ATOM     10  C   UNL A   1      31.417  26.836  25.813  1.00  0.00     0.320 C 
ATOM     11  O   UNL A   1      30.997  26.903  26.966  1.00  0.00    -0.248 OA
ATOM     12  N   UNL A   1      31.496  25.607  25.182  1.00  0.00    -0.325 N 
ATOM     13  C   UNL A   1      30.467  24.616  25.455  1.00  0.00     0.122 C 
ATOM     14  C   UNL A   1      32.757  25.083  24.675  1.00  0.00     0.122 C 
ATOM     15  C   UNL A   1      30.937  23.555  26.439  1.00  0.00     0.035 C 
ATOM     16  C   UNL A   1      33.340  24.043  25.624  1.00  0.00     0.035 C 
BRANCH  10  17
ATOM     17  N   UNL A   1      31.755  27.950  25.054  1.00  0.00    -0.324 N 
ATOM     18  C   UNL A   1      33.110  28.476  24.932  1.00  0.00     0.149 C 
BRANCH  17  19
ATOM     19  C   UNL A   1      30.740  28.651  24.241  1.00  0.00     0.097 C 
ATOM     20  C   UNL A   1      30.645  30.166  24.459  1.00  0.00     0.037 C 
ATOM     21  C   UNL A   1      30.871  28.438  22.734  1.00  0.00     0.094 C 
ATOM     22  C   UNL A   1      29.547  30.649  23.526  1.00  0.00     0.072 C 
ATOM     23  S   UNL A   1      29.790  29.703  22.001  1.00  0.00    -0.160 SA
ENDBRANCH  17  19
ENDBRANCH  10  17
ENDBRANCH   6   9
ENDBRANCH   4   5
ENDBRANCH   3   4
ENDBRANCH   2   3
ENDBRANCH   1   2
BRANCH   1  24
ATOM     24  C   UNL A   1      37.852  20.123  24.761  1.00  0.00     0.021 C 
BRANCH  24  25
ATOM     25  C   UNL A   1      38.877  20.380  25.859  1.00  0.00     0.116 C 
BRANCH  25  26
ATOM     26  N   UNL A   1      39.854  19.306  25.962  1.00  0.00    -0.352 N 
ATOM     27  C   UNL A   1      41.213  19.402  26.136  1.00  0.00     0.251 C 
ATOM     28  H   UNL A   1      39.494  18.392  25.899  1.00  0.00     0.163 HD
ATOM     29  O   UNL A   1      41.925  18.407  26.034  1.00  0.00    -0.269 OA
BRANCH  27  30
ATOM     30  C   UNL A   1      41.811  20.722  26.426  1.00  0.00     0.039 A 
ATOM     31  C   UNL A   1      42.025  21.622  25.379  1.00  0.00     0.014 A 
ATOM     32  C   UNL A   1      42.132  21.074  27.740  1.00  0.00     0.014 A 
ATOM     33  C   UNL A   1      42.513  22.901  25.657  1.00  0.00     0.010 A 
ATOM     34  C   UNL A   1      42.553  22.368  28.020  1.00  0.00     0.010 A 
ATOM     35  C   UNL A   1      42.756  23.293  26.983  1.00  0.00    -0.014 A 
BRANCH  35  36
ATOM     36  C   UNL A   1      43.238  24.655  27.327  1.00  0.00     0.031 A 
ATOM     37  C   UNL A   1      42.293  25.633  27.971  1.00  0.00     0.074 A 
ATOM     38  C   UNL A   1      44.472  25.046  26.952  1.00  0.00     0.049 A 
ATOM     39  N   UNL A   1      42.463  26.903  28.221  1.00  0.00    -0.248 NA
ATOM     40  C   UNL A   1      40.966  25.119  28.355  1.00  0.00     0.031 C 
ATOM     41  C   UNL A   1      45.456  24.206  26.266  1.00  0.00     0.029 A 
ATOM     42  N   UNL A   1      45.096  26.264  27.061  1.00  0.00    -0.354 N 
ATOM     43  C   UNL A   1      41.252  27.355  28.733  1.00  0.00     0.074 A 
ATOM     44  C   UNL A   1      40.350  26.225  28.745  1.00  0.00     0.031 C 
ATOM     45  C   UNL A   1      46.557  24.934  26.012  1.00  0.00     0.029 A 
ATOM     46  C   UNL A   1      46.346  26.299  26.485  1.00  0.00     0.049 A 
ATOM     47  H   UNL A   1      44.688  27.040  27.509  1.00  0.00     0.167 HD
ATOM     48  C   UNL A   1      40.929  28.593  29.175  1.00  0.00     0.034 A 
ATOM     49  C   UNL A   1      47.218  27.319  26.347  1.00  0.00     0.034 A 
ATOM     50  C   UNL A   1      41.854  29.691  29.225  1.00  0.00     0.049 A 
ATOM     51  C   UNL A   1      46.849  28.671  26.903  1.00  0.00     0.074 A 
ATOM     52  C   UNL A   1      41.657  30.955  29.751  1.00  0.00     0.029 A 
ATOM     53  N   UNL A   1      43.150  29.655  28.737  1.00  0.00    -0.354 N 
ATOM     54  N   UNL A   1      45.755  29.037  27.527  1.00  0.00    -0.248 NA
ATOM     55  C   UNL A   1      47.848  29.741  26.768  1.00  0.00     0.031 C 
ATOM     56  C   UNL A   1      42.832  31.690  29.567  1.00  0.00     0.029 A 
ATOM     57  C   UNL A   1      43.766  30.876  28.945  1.00  0.00     0.049 A 
ATOM     58  H   UNL A   1      43.570  28.877  28.304  1.00  0.00     0.167 HD
ATOM     59  C   UNL A   1      45.955  30.362  27.902  1.00  0.00     0.074 A 
ATOM     60  C   UNL A   1      47.278  30.731  27.444  1.00  0.00     0.031 C 
ATOM     61  C   UNL A   1      45.114  31.199  28.556  1.00  0.00     0.034 A 
BRANCH  48  62
ATOM     62  C   UNL A   1      39.533  28.816  29.692  1.00  0.00     0.023 A 
ATOM     63  C   UNL A   1      39.234  28.521  31.038  1.00  0.00     0.012 A 
ATOM     64  C   UNL A   1      38.538  29.381  28.871  1.00  0.00     0.148 A 
ATOM     65  C   UNL A   1      37.959  28.758  31.550  1.00  0.00     0.002 A 
ATOM     66  C   UNL A   1      37.282  29.654  29.400  1.00  0.00     0.091 A 
ATOM     67  F   UNL A   1      38.835  29.634  27.588  1.00  0.00    -0.205 F 
ATOM     68  C   UNL A   1      36.988  29.333  30.736  1.00  0.00     0.022 A 
BRANCH  66  69
ATOM     69  S   UNL A   1      35.988  30.469  28.456  1.00  0.00     0.127 S 
ATOM     70  O   UNL A   1      35.398  29.344  27.733  1.00  0.00    -0.237 OA
ATOM     71  O   UNL A   1      35.142  31.028  29.511  1.00  0.00    -0.237 OA
ATOM     72  O   UNL A   1      36.660  31.462  27.629  1.00  0.00    -0.744 OA
ENDBRANCH  66  69
ENDBRANCH  48  62
BRANCH  49  73
ATOM     73  C   UNL A   1      48.561  27.085  25.742  1.00  0.00     0.023 A 
ATOM     74  C   UNL A   1      49.566  26.488  26.530  1.00  0.00     0.012 A 
ATOM     75  C   UNL A   1      48.853  27.427  24.406  1.00  0.00     0.148 A 
ATOM     76  C   UNL A   1      50.843  26.271  26.015  1.00  0.00     0.002 A 
ATOM     77  C   UNL A   1      50.115  27.160  23.883  1.00  0.00     0.091 A 
ATOM     78  F   UNL A   1      47.894  28.008  23.672  1.00  0.00    -0.205 F 
ATOM     79  C   UNL A   1      51.116  26.598  24.690  1.00  0.00     0.022 A 
BRANCH  77  80
ATOM     80  S   UNL A   1      50.514  27.426  22.150  1.00  0.00     0.127 S 
ATOM     81  O   UNL A   1      49.440  26.701  21.478  1.00  0.00    -0.237 OA
ATOM     82  O   UNL A   1      50.437  28.883  22.035  1.00  0.00    -0.237 OA
ATOM     83  O   UNL A   1      51.857  26.891  21.978  1.00  0.00    -0.744 OA
ENDBRANCH  77  80
ENDBRANCH  49  73
BRANCH  61  84
ATOM     84  C   UNL A   1      45.606  32.584  28.884  1.00  0.00     0.023 A 
ATOM     85  C   UNL A   1      46.389  32.797  30.034  1.00  0.00     0.012 A 
ATOM     86  C   UNL A   1      45.387  33.648  27.987  1.00  0.00     0.148 A 
ATOM     87  C   UNL A   1      46.930  34.055  30.298  1.00  0.00     0.002 A 
ATOM     88  C   UNL A   1      45.968  34.886  28.231  1.00  0.00     0.091 A 
ATOM     89  F   UNL A   1      44.623  33.427  26.906  1.00  0.00    -0.205 F 
ATOM     90  C   UNL A   1      46.732  35.093  29.390  1.00  0.00     0.022 A 
BRANCH  88  91
ATOM     91  S   UNL A   1      45.852  36.251  27.067  1.00  0.00     0.127 S 
ATOM     92  O   UNL A   1      46.407  37.355  27.848  1.00  0.00    -0.237 OA
ATOM     93  O   UNL A   1      46.702  35.794  25.967  1.00  0.00    -0.237 OA
ATOM     94  O   UNL A   1      44.441  36.372  26.728  1.00  0.00    -0.744 OA
ENDBRANCH  88  91
ENDBRANCH  61  84
ENDBRANCH  35  36
ENDBRANCH  27  30
ENDBRANCH  25  26
ENDBRANCH  24  25
ENDBRANCH   1  24
TORSDOF 18
ENDMDL
MODEL 3
REMARK VINA RESULT:     -11.2      5.755     11.862
REMARK SMILES CN(C(=O)N1CCC(C(=O)NCCCCCCNC(=O)c2ccc(-c3c4nc(c(-c5cccc(S(=O)(=O)[O-])c5F)c5ccc([nH]5)c(-c5cccc(S(=O)(=O)[O-])c5F)c5nc(c(-c6cccc(S(=O)(=O)[O-])c6F)c6ccc3[nH]6)C=C5)C=C4)cc2)CC1)[C@H]1CCSC1
REMARK SMILES IDX 15 1 14 2 13 3 12 4 11 5 9 6 10 7 8 9 3 10 4 11 5 12 6 13
REMARK SMILES IDX 85 14 7 15 84 16 2 17 1 18 86 19 87 20 90 21 88 22 89 23
REMARK SMILES IDX 16 24 17 25 18 26 19 27 20 29 21 30 22 31 83 32 23 33 82 34
REMARK SMILES IDX 24 35 25 36 26 37 76 38 27 39 81 40 75 41 77 42 28 43 80 44
REMARK SMILES IDX 74 45 73 46 29 48 61 49 41 50 60 51 42 52 45 53 59 54 78 55
REMARK SMILES IDX 43 56 44 57 58 59 79 60 46 61 30 62 31 63 39 64 32 65 34 66
REMARK SMILES IDX 40 67 33 68 35 69 36 70 37 71 38 72 62 73 63 74 71 75 64 76
REMARK SMILES IDX 66 77 72 78 65 79 67 80 68 81 69 82 70 83 47 84 48 85 56 86
REMARK SMILES IDX 49 87 51 88 57 89 50 90 52 91 53 92 54 93 55 94
REMARK H PARENT 11 8 18 28 77 47 45 58
REMARK Flexibility Score: inf
ROOT
ATOM      1  C   UNL A   1      36.856  20.677  24.713  1.00  0.00     0.002 C 
ENDROOT
BRANCH   1   2
ATOM      2  C   UNL A   1      35.469  20.373  25.290  1.00  0.00     0.002 C 
BRANCH   2   3
ATOM      3  C   UNL A   1      34.755  19.165  24.672  1.00  0.00     0.021 C 
BRANCH   3   4
ATOM      4  C   UNL A   1      33.234  19.205  24.799  1.00  0.00     0.116 C 
BRANCH   4   5
ATOM      5  N   UNL A   1      32.619  19.698  23.577  1.00  0.00    -0.356 N 
ATOM      6  C   UNL A   1      32.330  20.963  23.170  1.00  0.00     0.223 C 
ATOM      7  O   UNL A   1      31.764  21.102  22.082  1.00  0.00    -0.275 OA
ATOM      8  H   UNL A   1      32.369  18.996  22.933  1.00  0.00     0.163 HD
BRANCH   6   9
ATOM      9  C   UNL A   1      32.708  22.180  23.999  1.00  0.00     0.082 C 
ATOM     10  C   UNL A   1      32.483  26.108  23.587  1.00  0.00     0.320 C 
ATOM     11  O   UNL A   1      32.752  26.090  22.387  1.00  0.00    -0.248 OA
ATOM     12  N   UNL A   1      32.819  25.026  24.382  1.00  0.00    -0.325 N 
ATOM     13  C   UNL A   1      34.056  24.315  24.104  1.00  0.00     0.122 C 
ATOM     14  C   UNL A   1      31.815  24.278  25.126  1.00  0.00     0.122 C 
ATOM     15  C   UNL A   1      33.816  23.017  23.347  1.00  0.00     0.035 C 
ATOM     16  C   UNL A   1      31.463  22.976  24.417  1.00  0.00     0.035 C 
BRANCH  10  17
ATOM     17  N   UNL A   1      31.916  27.203  24.229  1.00  0.00    -0.324 N 
ATOM     18  C   UNL A   1      30.485  27.483  24.258  1.00  0.00     0.149 C 
BRANCH  17  19
ATOM     19  C   UNL A   1      32.750  28.142  25.007  1.00  0.00     0.097 C 
ATOM     20  C   UNL A   1      32.092  29.482  25.354  1.00  0.00     0.037 C 
ATOM     21  C   UNL A   1      33.297  27.576  26.316  1.00  0.00     0.094 C 
ATOM     22  C   UNL A   1      33.133  30.261  26.141  1.00  0.00     0.072 C 
ATOM     23  S   UNL A   1      33.912  29.030  27.217  1.00  0.00    -0.160 SA
ENDBRANCH  17  19
ENDBRANCH  10  17
ENDBRANCH   6   9
ENDBRANCH   4   5
ENDBRANCH   3   4
ENDBRANCH   2   3
ENDBRANCH   1   2
BRANCH   1  24
ATOM     24  C   UNL A   1      37.940  19.648  25.040  1.00  0.00     0.021 C 
BRANCH  24  25
ATOM     25  C   UNL A   1      39.146  20.209  25.783  1.00  0.00     0.116 C 
BRANCH  25  26
ATOM     26  N   UNL A   1      40.231  19.243  25.879  1.00  0.00    -0.352 N 
ATOM     27  C   UNL A   1      41.565  19.477  26.104  1.00  0.00     0.251 C 
ATOM     28  H   UNL A   1      39.974  18.298  25.769  1.00  0.00     0.163 HD
ATOM     29  O   UNL A   1      42.384  18.569  25.990  1.00  0.00    -0.269 OA
BRANCH  27  30
ATOM     30  C   UNL A   1      42.006  20.840  26.467  1.00  0.00     0.039 A 
ATOM     31  C   UNL A   1      42.237  21.150  27.810  1.00  0.00     0.014 A 
ATOM     32  C   UNL A   1      42.214  21.799  25.472  1.00  0.00     0.014 A 
ATOM     33  C   UNL A   1      42.733  22.411  28.152  1.00  0.00     0.010 A 
ATOM     34  C   UNL A   1      42.769  23.028  25.809  1.00  0.00     0.010 A 
ATOM     35  C   UNL A   1      43.027  23.350  27.151  1.00  0.00    -0.014 A 
BRANCH  35  36
ATOM     36  C   UNL A   1      43.590  24.688  27.466  1.00  0.00     0.031 A 
ATOM     37  C   UNL A   1      42.676  25.775  27.962  1.00  0.00     0.074 A 
ATOM     38  C   UNL A   1      44.882  24.955  27.193  1.00  0.00     0.049 A 
ATOM     39  N   UNL A   1      42.930  27.042  28.159  1.00  0.00    -0.248 NA
ATOM     40  C   UNL A   1      41.280  25.394  28.242  1.00  0.00     0.031 C 
ATOM     41  C   UNL A   1      45.851  23.999  26.652  1.00  0.00     0.029 A 
ATOM     42  N   UNL A   1      45.595  26.124  27.298  1.00  0.00    -0.354 N 
ATOM     43  C   UNL A   1      41.720  27.618  28.526  1.00  0.00     0.074 A 
ATOM     44  C   UNL A   1      40.727  26.567  28.511  1.00  0.00     0.031 C 
ATOM     45  C   UNL A   1      47.028  24.621  26.468  1.00  0.00     0.029 A 
ATOM     46  C   UNL A   1      46.891  26.024  26.845  1.00  0.00     0.049 A 
ATOM     47  H   UNL A   1      45.215  26.956  27.661  1.00  0.00     0.167 HD
ATOM     48  C   UNL A   1      41.463  28.903  28.867  1.00  0.00     0.034 A 
ATOM     49  C   UNL A   1      47.856  26.961  26.738  1.00  0.00     0.034 A 
ATOM     50  C   UNL A   1      42.469  29.925  28.949  1.00  0.00     0.049 A 
ATOM     51  C   UNL A   1      47.554  28.369  27.182  1.00  0.00     0.074 A 
ATOM     52  C   UNL A   1      42.333  31.231  29.385  1.00  0.00     0.029 A 
ATOM     53  N   UNL A   1      43.797  29.756  28.591  1.00  0.00    -0.354 N 
ATOM     54  N   UNL A   1      46.442  28.860  27.676  1.00  0.00    -0.248 NA
ATOM     55  C   UNL A   1      48.648  29.347  27.088  1.00  0.00     0.031 C 
ATOM     56  C   UNL A   1      43.579  31.857  29.276  1.00  0.00     0.029 A 
ATOM     57  C   UNL A   1      44.493  30.935  28.793  1.00  0.00     0.049 A 
ATOM     58  H   UNL A   1      44.188  28.922  28.244  1.00  0.00     0.167 HD
ATOM     59  C   UNL A   1      46.718  30.184  27.998  1.00  0.00     0.074 A 
ATOM     60  C   UNL A   1      48.104  30.418  27.651  1.00  0.00     0.031 C 
ATOM     61  C   UNL A   1      45.894  31.125  28.521  1.00  0.00     0.034 A 
BRANCH  48  62
ATOM     62  C   UNL A   1      40.049  29.268  29.233  1.00  0.00     0.023 A 
ATOM     63  C   UNL A   1      39.123  29.573  28.215  1.00  0.00     0.012 A 
ATOM     64  C   UNL A   1      39.619  29.242  30.574  1.00  0.00     0.148 A 
ATOM     65  C   UNL A   1      37.799  29.875  28.527  1.00  0.00     0.002 A 
ATOM     66  C   UNL A   1      38.287  29.502  30.874  1.00  0.00     0.091 A 
ATOM     67  F   UNL A   1      40.519  28.971  31.530  1.00  0.00    -0.205 F 
ATOM     68  C   UNL A   1      37.378  29.829  29.853  1.00  0.00     0.022 A 
BRANCH  66  69
ATOM     69  S   UNL A   1      37.628  29.387  32.542  1.00  0.00     0.127 S 
ATOM     70  O   UNL A   1      38.500  30.311  33.267  1.00  0.00    -0.237 OA
ATOM     71  O   UNL A   1      36.254  29.857  32.365  1.00  0.00    -0.237 OA
ATOM     72  O   UNL A   1      37.745  27.987  32.924  1.00  0.00    -0.744 OA
ENDBRANCH  66  69
ENDBRANCH  48  62
BRANCH  49  73
ATOM     73  C   UNL A   1      49.225  26.584  26.280  1.00  0.00     0.023 A 
ATOM     74  C   UNL A   1      49.996  25.722  27.085  1.00  0.00     0.012 A 
ATOM     75  C   UNL A   1      49.764  27.049  25.064  1.00  0.00     0.148 A 
ATOM     76  C   UNL A   1      51.289  25.360  26.710  1.00  0.00     0.002 A 
ATOM     77  C   UNL A   1      51.037  26.642  24.671  1.00  0.00     0.091 A 
ATOM     78  F   UNL A   1      49.027  27.880  24.315  1.00  0.00    -0.205 F 
ATOM     79  C   UNL A   1      51.806  25.812  25.499  1.00  0.00     0.022 A 
BRANCH  77  80
ATOM     80  S   UNL A   1      51.730  27.069  23.068  1.00  0.00     0.127 S 
ATOM     81  O   UNL A   1      52.898  26.195  23.001  1.00  0.00    -0.237 OA
ATOM     82  O   UNL A   1      50.643  26.711  22.155  1.00  0.00    -0.237 OA
ATOM     83  O   UNL A   1      51.998  28.498  23.133  1.00  0.00    -0.744 OA
ENDBRANCH  77  80
ENDBRANCH  49  73
BRANCH  61  84
ATOM     84  C   UNL A   1      46.470  32.483  28.820  1.00  0.00     0.023 A 
ATOM     85  C   UNL A   1      47.065  32.734  30.071  1.00  0.00     0.012 A 
ATOM     86  C   UNL A   1      46.522  33.471  27.817  1.00  0.00     0.148 A 
ATOM     87  C   UNL A   1      47.686  33.956  30.326  1.00  0.00     0.002 A 
ATOM     88  C   UNL A   1      47.183  34.668  28.062  1.00  0.00     0.091 A 
ATOM     89  F   UNL A   1      45.933  33.218  26.638  1.00  0.00    -0.205 F 
ATOM     90  C   UNL A   1      47.758  34.915  29.319  1.00  0.00     0.022 A 
BRANCH  88  91
ATOM     91  S   UNL A   1      47.414  35.919  26.792  1.00  0.00     0.127 S 
ATOM     92  O   UNL A   1      46.046  36.113  26.314  1.00  0.00    -0.237 OA
ATOM     93  O   UNL A   1      47.958  37.041  27.557  1.00  0.00    -0.237 OA
ATOM     94  O   UNL A   1      48.338  35.344  25.824  1.00  0.00    -0.744 OA
ENDBRANCH  88  91
ENDBRANCH  61  84
ENDBRANCH  35  36
ENDBRANCH  27  30
ENDBRANCH  25  26
ENDBRANCH  24  25
ENDBRANCH   1  24
TORSDOF 18
ENDMDL
