MODEL 1
REMARK VINA RESULT:     -12.2      0.000      0.000
REMARK SMILES COc1ccc2c(c1)[C@@](NC=O)(C(=O)NCCCCCCNC(=O)c1ccc(-c3c4nc(c(-c5cccc(S(=O)(=O)[O-])c5F)c5ccc([nH]5)c(-c5cccc(S(=O)(=O)[O-])c5F)c5nc(c(-c6cccc(S(=O)(=O)[O-])c6F)c6ccc3[nH]6)C=C5)C=C4)cc1)CCC2
REMARK SMILES IDX 19 1 18 2 17 3 16 4 15 5 13 6 14 7 9 9 3 10 4 11 8 12 5 13
REMARK SMILES IDX 7 14 6 15 90 16 88 17 89 18 2 19 1 20 10 21 11 22 12 24
REMARK SMILES IDX 20 25 21 26 22 27 23 28 24 30 25 31 26 32 87 33 27 34 86 35
REMARK SMILES IDX 28 36 29 37 30 38 80 39 31 40 85 41 79 42 81 43 32 44 84 45
REMARK SMILES IDX 78 46 77 47 33 49 65 50 45 51 64 52 46 53 49 54 63 55 82 56
REMARK SMILES IDX 47 57 48 58 62 60 83 61 50 62 34 63 35 64 43 65 36 66 38 67
REMARK SMILES IDX 44 68 37 69 39 70 40 71 41 72 42 73 66 74 67 75 75 76 68 77
REMARK SMILES IDX 70 78 76 79 69 80 71 81 72 82 73 83 74 84 51 85 52 86 60 87
REMARK SMILES IDX 53 88 55 89 61 90 54 91 56 92 57 93 58 94 59 95
REMARK H PARENT 15 8 10 23 22 29 81 48 49 59
REMARK Flexibility Score: inf
ROOT
ATOM      1  C   UNL A   1      31.245  31.322  26.239  1.00  0.00     0.002 C 
ENDROOT
BRANCH   1   2
ATOM      2  C   UNL A   1      32.265  30.385  26.890  1.00  0.00     0.002 C 
BRANCH   2   3
ATOM      3  C   UNL A   1      31.787  28.961  27.172  1.00  0.00     0.021 C 
BRANCH   3   4
ATOM      4  C   UNL A   1      31.953  27.970  26.029  1.00  0.00     0.116 C 
BRANCH   4   5
ATOM      5  N   UNL A   1      32.803  28.443  24.947  1.00  0.00    -0.354 N 
ATOM      6  C   UNL A   1      32.592  28.395  23.589  1.00  0.00     0.250 C 
ATOM      7  O   UNL A   1      33.414  28.990  22.880  1.00  0.00    -0.272 OA
ATOM      8  H   UNL A   1      33.650  28.859  25.226  1.00  0.00     0.163 HD
BRANCH   6   9
ATOM      9  C   UNL A   1      31.444  27.515  22.949  1.00  0.00     0.144 C 
ATOM     10  C   UNL A   1      29.025  30.409  22.227  1.00  0.00     0.119 A 
ATOM     11  C   UNL A   1      27.832  29.901  22.729  1.00  0.00     0.047 A 
ATOM     12  C   UNL A   1      30.164  29.606  22.238  1.00  0.00     0.053 A 
ATOM     13  C   UNL A   1      27.763  28.592  23.205  1.00  0.00     0.008 A 
ATOM     14  C   UNL A   1      30.133  28.293  22.767  1.00  0.00    -0.006 A 
ATOM     15  C   UNL A   1      28.901  27.774  23.223  1.00  0.00    -0.042 A 
ATOM     16  C   UNL A   1      28.790  26.417  23.876  1.00  0.00     0.036 C 
ATOM     17  C   UNL A   1      31.279  26.308  23.915  1.00  0.00     0.044 C 
ATOM     18  C   UNL A   1      30.001  25.531  23.625  1.00  0.00     0.008 C 
BRANCH  10  19
ATOM     19  O   UNL A   1      28.984  31.716  21.835  1.00  0.00    -0.497 OA
ATOM     20  C   UNL A   1      28.770  32.684  22.854  1.00  0.00     0.278 C 
ENDBRANCH  10  19
BRANCH   9  21
ATOM     21  N   UNL A   1      31.939  26.954  21.666  1.00  0.00    -0.341 N 
ATOM     22  C   UNL A   1      32.867  25.992  21.441  1.00  0.00     0.338 C 
ATOM     23  H   UNL A   1      31.532  27.339  20.857  1.00  0.00     0.164 HD
ATOM     24  O   UNL A   1      33.024  25.484  20.334  1.00  0.00    -0.279 OA
ENDBRANCH   9  21
ENDBRANCH   6   9
ENDBRANCH   4   5
ENDBRANCH   3   4
ENDBRANCH   2   3
ENDBRANCH   1   2
BRANCH   1  25
ATOM     25  C   UNL A   1      31.418  32.816  26.524  1.00  0.00     0.021 C 
BRANCH  25  26
ATOM     26  C   UNL A   1      32.706  33.213  27.240  1.00  0.00     0.116 C 
BRANCH  26  27
ATOM     27  N   UNL A   1      32.601  34.494  27.920  1.00  0.00    -0.352 N 
ATOM     28  C   UNL A   1      33.309  34.978  28.994  1.00  0.00     0.251 C 
ATOM     29  H   UNL A   1      31.922  35.108  27.556  1.00  0.00     0.163 HD
ATOM     30  O   UNL A   1      32.972  36.035  29.521  1.00  0.00    -0.269 OA
BRANCH  28  31
ATOM     31  C   UNL A   1      34.457  34.215  29.533  1.00  0.00     0.039 A 
ATOM     32  C   UNL A   1      35.742  34.525  29.080  1.00  0.00     0.014 A 
ATOM     33  C   UNL A   1      34.272  33.207  30.483  1.00  0.00     0.014 A 
ATOM     34  C   UNL A   1      36.848  33.874  29.633  1.00  0.00     0.010 A 
ATOM     35  C   UNL A   1      35.379  32.608  31.082  1.00  0.00     0.010 A 
ATOM     36  C   UNL A   1      36.679  32.942  30.670  1.00  0.00    -0.014 A 
BRANCH  36  37
ATOM     37  C   UNL A   1      37.850  32.348  31.368  1.00  0.00     0.031 A 
ATOM     38  C   UNL A   1      38.600  31.192  30.765  1.00  0.00     0.074 A 
ATOM     39  C   UNL A   1      38.180  32.795  32.596  1.00  0.00     0.049 A 
ATOM     40  N   UNL A   1      39.600  30.510  31.261  1.00  0.00    -0.248 NA
ATOM     41  C   UNL A   1      38.154  30.725  29.442  1.00  0.00     0.031 C 
ATOM     42  C   UNL A   1      37.482  33.857  33.325  1.00  0.00     0.029 A 
ATOM     43  N   UNL A   1      39.165  32.392  33.464  1.00  0.00    -0.354 N 
ATOM     44  C   UNL A   1      39.886  29.520  30.331  1.00  0.00     0.074 A 
ATOM     45  C   UNL A   1      38.932  29.668  29.253  1.00  0.00     0.031 C 
ATOM     46  C   UNL A   1      38.057  34.019  34.526  1.00  0.00     0.029 A 
ATOM     47  C   UNL A   1      39.139  33.051  34.673  1.00  0.00     0.049 A 
ATOM     48  H   UNL A   1      39.828  31.699  33.244  1.00  0.00     0.167 HD
ATOM     49  C   UNL A   1      40.870  28.588  30.357  1.00  0.00     0.034 A 
ATOM     50  C   UNL A   1      39.885  32.883  35.782  1.00  0.00     0.034 A 
ATOM     51  C   UNL A   1      41.833  28.459  31.419  1.00  0.00     0.049 A 
ATOM     52  C   UNL A   1      40.978  31.850  35.780  1.00  0.00     0.074 A 
ATOM     53  C   UNL A   1      42.917  27.603  31.496  1.00  0.00     0.029 A 
ATOM     54  N   UNL A   1      41.820  29.193  32.595  1.00  0.00    -0.354 N 
ATOM     55  N   UNL A   1      41.337  31.030  34.822  1.00  0.00    -0.248 NA
ATOM     56  C   UNL A   1      41.789  31.738  37.001  1.00  0.00     0.031 C 
ATOM     57  C   UNL A   1      43.539  27.794  32.734  1.00  0.00     0.029 A 
ATOM     58  C   UNL A   1      42.864  28.795  33.414  1.00  0.00     0.049 A 
ATOM     59  H   UNL A   1      41.164  29.893  32.817  1.00  0.00     0.167 HD
ATOM     60  C   UNL A   1      42.431  30.327  35.311  1.00  0.00     0.074 A 
ATOM     61  C   UNL A   1      42.693  30.836  36.641  1.00  0.00     0.031 C 
ATOM     62  C   UNL A   1      43.142  29.336  34.720  1.00  0.00     0.034 A 
BRANCH  49  63
ATOM     63  C   UNL A   1      40.984  27.656  29.178  1.00  0.00     0.023 A 
ATOM     64  C   UNL A   1      40.221  26.471  29.151  1.00  0.00     0.012 A 
ATOM     65  C   UNL A   1      41.793  27.980  28.071  1.00  0.00     0.148 A 
ATOM     66  C   UNL A   1      40.287  25.606  28.060  1.00  0.00     0.002 A 
ATOM     67  C   UNL A   1      41.819  27.137  26.967  1.00  0.00     0.091 A 
ATOM     68  F   UNL A   1      42.526  29.102  28.122  1.00  0.00    -0.205 F 
ATOM     69  C   UNL A   1      41.077  25.944  26.964  1.00  0.00     0.022 A 
BRANCH  67  70
ATOM     70  S   UNL A   1      42.741  27.518  25.473  1.00  0.00     0.127 S 
ATOM     71  O   UNL A   1      44.107  27.609  25.986  1.00  0.00    -0.237 OA
ATOM     72  O   UNL A   1      42.478  26.344  24.641  1.00  0.00    -0.237 OA
ATOM     73  O   UNL A   1      42.184  28.763  24.963  1.00  0.00    -0.744 OA
ENDBRANCH  67  70
ENDBRANCH  49  63
BRANCH  50  74
ATOM     74  C   UNL A   1      39.642  33.738  36.978  1.00  0.00     0.023 A 
ATOM     75  C   UNL A   1      40.052  35.085  36.966  1.00  0.00     0.012 A 
ATOM     76  C   UNL A   1      38.984  33.230  38.116  1.00  0.00     0.148 A 
ATOM     77  C   UNL A   1      39.843  35.902  38.078  1.00  0.00     0.002 A 
ATOM     78  C   UNL A   1      38.726  34.065  39.196  1.00  0.00     0.091 A 
ATOM     79  F   UNL A   1      38.612  31.943  38.111  1.00  0.00    -0.205 F 
ATOM     80  C   UNL A   1      39.171  35.396  39.188  1.00  0.00     0.022 A 
BRANCH  78  81
ATOM     81  S   UNL A   1      37.750  33.536  40.609  1.00  0.00     0.127 S 
ATOM     82  O   UNL A   1      38.626  32.540  41.220  1.00  0.00    -0.237 OA
ATOM     83  O   UNL A   1      37.612  34.783  41.362  1.00  0.00    -0.237 OA
ATOM     84  O   UNL A   1      36.502  33.028  40.057  1.00  0.00    -0.744 OA
ENDBRANCH  78  81
ENDBRANCH  50  74
BRANCH  62  85
ATOM     85  C   UNL A   1      44.292  28.744  35.493  1.00  0.00     0.023 A 
ATOM     86  C   UNL A   1      45.580  29.304  35.371  1.00  0.00     0.012 A 
ATOM     87  C   UNL A   1      44.085  27.680  36.393  1.00  0.00     0.148 A 
ATOM     88  C   UNL A   1      46.648  28.794  36.108  1.00  0.00     0.002 A 
ATOM     89  C   UNL A   1      45.142  27.212  37.163  1.00  0.00     0.091 A 
ATOM     90  F   UNL A   1      42.855  27.151  36.484  1.00  0.00    -0.205 F 
ATOM     91  C   UNL A   1      46.426  27.758  37.012  1.00  0.00     0.022 A 
BRANCH  89  92
ATOM     92  S   UNL A   1      44.936  25.945  38.420  1.00  0.00     0.127 S 
ATOM     93  O   UNL A   1      46.317  25.725  38.851  1.00  0.00    -0.237 OA
ATOM     94  O   UNL A   1      44.092  26.623  39.404  1.00  0.00    -0.237 OA
ATOM     95  O   UNL A   1      44.305  24.814  37.755  1.00  0.00    -0.744 OA
ENDBRANCH  89  92
ENDBRANCH  62  85
ENDBRANCH  36  37
ENDBRANCH  28  31
ENDBRANCH  26  27
ENDBRANCH  25  26
ENDBRANCH   1  25
TORSDOF 18
ENDMDL
MODEL 2
REMARK VINA RESULT:     -11.8      5.665      8.715
REMARK SMILES COc1ccc2c(c1)[C@@](NC=O)(C(=O)NCCCCCCNC(=O)c1ccc(-c3c4nc(c(-c5cccc(S(=O)(=O)[O-])c5F)c5ccc([nH]5)c(-c5cccc(S(=O)(=O)[O-])c5F)c5nc(c(-c6cccc(S(=O)(=O)[O-])c6F)c6ccc3[nH]6)C=C5)C=C4)cc1)CCC2
REMARK SMILES IDX 19 1 18 2 17 3 16 4 15 5 13 6 14 7 9 9 3 10 4 11 8 12 5 13
REMARK SMILES IDX 7 14 6 15 90 16 88 17 89 18 2 19 1 20 10 21 11 22 12 24
REMARK SMILES IDX 20 25 21 26 22 27 23 28 24 30 25 31 26 32 87 33 27 34 86 35
REMARK SMILES IDX 28 36 29 37 30 38 80 39 31 40 85 41 79 42 81 43 32 44 84 45
REMARK SMILES IDX 78 46 77 47 33 49 65 50 45 51 64 52 46 53 49 54 63 55 82 56
REMARK SMILES IDX 47 57 48 58 62 60 83 61 50 62 34 63 35 64 43 65 36 66 38 67
REMARK SMILES IDX 44 68 37 69 39 70 40 71 41 72 42 73 66 74 67 75 75 76 68 77
REMARK SMILES IDX 70 78 76 79 69 80 71 81 72 82 73 83 74 84 51 85 52 86 60 87
REMARK SMILES IDX 53 88 55 89 61 90 54 91 56 92 57 93 58 94 59 95
REMARK H PARENT 15 8 10 23 22 29 81 48 49 59
REMARK Flexibility Score: inf
ROOT
ATOM      1  C   UNL A   1      36.051  23.082  26.194  1.00  0.00     0.002 C 
ENDROOT
BRANCH   1   2
ATOM      2  C   UNL A   1      34.556  23.402  26.123  1.00  0.00     0.002 C 
BRANCH   2   3
ATOM      3  C   UNL A   1      34.155  24.531  25.173  1.00  0.00     0.021 C 
BRANCH   3   4
ATOM      4  C   UNL A   1      33.306  24.119  23.979  1.00  0.00     0.116 C 
BRANCH   4   5
ATOM      5  N   UNL A   1      33.586  24.865  22.762  1.00  0.00    -0.354 N 
ATOM      6  C   UNL A   1      33.053  26.055  22.327  1.00  0.00     0.250 C 
ATOM      7  O   UNL A   1      33.559  26.550  21.312  1.00  0.00    -0.272 OA
ATOM      8  H   UNL A   1      34.255  24.460  22.163  1.00  0.00     0.163 HD
BRANCH   6   9
ATOM      9  C   UNL A   1      31.771  26.695  22.998  1.00  0.00     0.144 C 
ATOM     10  C   UNL A   1      33.602  28.362  25.933  1.00  0.00     0.119 A 
ATOM     11  C   UNL A   1      32.805  27.979  27.007  1.00  0.00     0.047 A 
ATOM     12  C   UNL A   1      33.221  28.005  24.641  1.00  0.00     0.053 A 
ATOM     13  C   UNL A   1      31.619  27.275  26.795  1.00  0.00     0.008 A 
ATOM     14  C   UNL A   1      32.050  27.243  24.405  1.00  0.00    -0.006 A 
ATOM     15  C   UNL A   1      31.225  26.908  25.501  1.00  0.00    -0.042 A 
ATOM     16  C   UNL A   1      30.005  26.032  25.353  1.00  0.00     0.036 C 
ATOM     17  C   UNL A   1      30.715  25.555  23.013  1.00  0.00     0.044 C 
ATOM     18  C   UNL A   1      29.534  25.898  23.912  1.00  0.00     0.008 C 
BRANCH  10  19
ATOM     19  O   UNL A   1      34.761  29.003  26.266  1.00  0.00    -0.497 OA
ATOM     20  C   UNL A   1      34.925  29.359  27.632  1.00  0.00     0.278 C 
ENDBRANCH  10  19
BRANCH   9  21
ATOM     21  N   UNL A   1      31.236  27.743  22.091  1.00  0.00    -0.341 N 
ATOM     22  C   UNL A   1      30.430  28.798  22.365  1.00  0.00     0.338 C 
ATOM     23  H   UNL A   1      31.508  27.658  21.149  1.00  0.00     0.164 HD
ATOM     24  O   UNL A   1      30.238  29.699  21.553  1.00  0.00    -0.279 OA
ENDBRANCH   9  21
ENDBRANCH   6   9
ENDBRANCH   4   5
ENDBRANCH   3   4
ENDBRANCH   2   3
ENDBRANCH   1   2
BRANCH   1  25
ATOM     25  C   UNL A   1      36.467  21.681  25.736  1.00  0.00     0.021 C 
BRANCH  25  26
ATOM     26  C   UNL A   1      37.814  21.584  25.025  1.00  0.00     0.116 C 
BRANCH  26  27
ATOM     27  N   UNL A   1      38.718  20.637  25.658  1.00  0.00    -0.352 N 
ATOM     28  C   UNL A   1      39.833  20.868  26.428  1.00  0.00     0.251 C 
ATOM     29  H   UNL A   1      38.499  19.688  25.514  1.00  0.00     0.163 HD
ATOM     30  O   UNL A   1      40.555  19.930  26.754  1.00  0.00    -0.269 OA
BRANCH  28  31
ATOM     31  C   UNL A   1      40.179  22.246  26.842  1.00  0.00     0.039 A 
ATOM     32  C   UNL A   1      41.079  22.426  27.896  1.00  0.00     0.014 A 
ATOM     33  C   UNL A   1      39.627  23.355  26.194  1.00  0.00     0.014 A 
ATOM     34  C   UNL A   1      41.482  23.716  28.251  1.00  0.00     0.010 A 
ATOM     35  C   UNL A   1      40.082  24.635  26.504  1.00  0.00     0.010 A 
ATOM     36  C   UNL A   1      41.021  24.829  27.529  1.00  0.00    -0.014 A 
BRANCH  36  37
ATOM     37  C   UNL A   1      41.550  26.192  27.799  1.00  0.00     0.031 A 
ATOM     38  C   UNL A   1      42.962  26.557  27.432  1.00  0.00     0.074 A 
ATOM     39  C   UNL A   1      40.779  27.077  28.463  1.00  0.00     0.049 A 
ATOM     40  N   UNL A   1      43.607  27.673  27.651  1.00  0.00    -0.248 NA
ATOM     41  C   UNL A   1      43.762  25.526  26.752  1.00  0.00     0.031 C 
ATOM     42  C   UNL A   1      39.420  26.818  28.945  1.00  0.00     0.029 A 
ATOM     43  N   UNL A   1      41.037  28.360  28.878  1.00  0.00    -0.354 N 
ATOM     44  C   UNL A   1      44.893  27.474  27.164  1.00  0.00     0.074 A 
ATOM     45  C   UNL A   1      44.947  26.115  26.666  1.00  0.00     0.031 C 
ATOM     46  C   UNL A   1      38.966  27.904  29.589  1.00  0.00     0.029 A 
ATOM     47  C   UNL A   1      40.011  28.922  29.603  1.00  0.00     0.049 A 
ATOM     48  H   UNL A   1      41.876  28.834  28.677  1.00  0.00     0.167 HD
ATOM     49  C   UNL A   1      45.927  28.348  27.111  1.00  0.00     0.034 A 
ATOM     50  C   UNL A   1      39.926  30.114  30.227  1.00  0.00     0.034 A 
ATOM     51  C   UNL A   1      45.863  29.705  27.584  1.00  0.00     0.049 A 
ATOM     52  C   UNL A   1      41.083  31.070  30.141  1.00  0.00     0.074 A 
ATOM     53  C   UNL A   1      46.828  30.692  27.497  1.00  0.00     0.029 A 
ATOM     54  N   UNL A   1      44.781  30.264  28.247  1.00  0.00    -0.354 N 
ATOM     55  N   UNL A   1      42.234  30.920  29.532  1.00  0.00    -0.248 NA
ATOM     56  C   UNL A   1      40.920  32.372  30.803  1.00  0.00     0.031 C 
ATOM     57  C   UNL A   1      46.345  31.837  28.138  1.00  0.00     0.029 A 
ATOM     58  C   UNL A   1      45.063  31.575  28.594  1.00  0.00     0.049 A 
ATOM     59  H   UNL A   1      43.937  29.797  28.444  1.00  0.00     0.167 HD
ATOM     60  C   UNL A   1      42.920  32.115  29.713  1.00  0.00     0.074 A 
ATOM     61  C   UNL A   1      42.044  32.989  30.464  1.00  0.00     0.031 C 
ATOM     62  C   UNL A   1      44.169  32.451  29.308  1.00  0.00     0.034 A 
BRANCH  49  63
ATOM     63  C   UNL A   1      47.211  27.877  26.477  1.00  0.00     0.023 A 
ATOM     64  C   UNL A   1      48.222  27.317  27.286  1.00  0.00     0.012 A 
ATOM     65  C   UNL A   1      47.394  27.927  25.081  1.00  0.00     0.148 A 
ATOM     66  C   UNL A   1      49.407  26.849  26.721  1.00  0.00     0.002 A 
ATOM     67  C   UNL A   1      48.558  27.415  24.521  1.00  0.00     0.091 A 
ATOM     68  F   UNL A   1      46.430  28.478  24.329  1.00  0.00    -0.205 F 
ATOM     69  C   UNL A   1      49.570  26.888  25.339  1.00  0.00     0.022 A 
BRANCH  67  70
ATOM     70  S   UNL A   1      48.834  27.345  22.747  1.00  0.00     0.127 S 
ATOM     71  O   UNL A   1      50.284  27.513  22.667  1.00  0.00    -0.237 OA
ATOM     72  O   UNL A   1      48.356  26.003  22.414  1.00  0.00    -0.237 OA
ATOM     73  O   UNL A   1      48.050  28.431  22.175  1.00  0.00    -0.744 OA
ENDBRANCH  67  70
ENDBRANCH  49  63
BRANCH  50  74
ATOM     74  C   UNL A   1      38.682  30.481  30.961  1.00  0.00     0.023 A 
ATOM     75  C   UNL A   1      38.508  30.058  32.293  1.00  0.00     0.012 A 
ATOM     76  C   UNL A   1      37.682  31.267  30.354  1.00  0.00     0.148 A 
ATOM     77  C   UNL A   1      37.348  30.381  32.997  1.00  0.00     0.002 A 
ATOM     78  C   UNL A   1      36.556  31.635  31.080  1.00  0.00     0.091 A 
ATOM     79  F   UNL A   1      37.861  31.649  29.083  1.00  0.00    -0.205 F 
ATOM     80  C   UNL A   1      36.377  31.179  32.395  1.00  0.00     0.022 A 
BRANCH  78  81
ATOM     81  S   UNL A   1      35.323  32.768  30.431  1.00  0.00     0.127 S 
ATOM     82  O   UNL A   1      34.978  32.138  29.159  1.00  0.00    -0.237 OA
ATOM     83  O   UNL A   1      34.282  32.699  31.458  1.00  0.00    -0.237 OA
ATOM     84  O   UNL A   1      35.986  34.061  30.337  1.00  0.00    -0.744 OA
ENDBRANCH  78  81
ENDBRANCH  50  74
BRANCH  62  85
ATOM     85  C   UNL A   1      44.666  33.833  29.646  1.00  0.00     0.023 A 
ATOM     86  C   UNL A   1      45.325  34.061  30.871  1.00  0.00     0.012 A 
ATOM     87  C   UNL A   1      44.543  34.889  28.721  1.00  0.00     0.148 A 
ATOM     88  C   UNL A   1      45.825  35.324  31.183  1.00  0.00     0.002 A 
ATOM     89  C   UNL A   1      45.090  36.132  29.017  1.00  0.00     0.091 A 
ATOM     90  F   UNL A   1      43.899  34.657  27.568  1.00  0.00    -0.205 F 
ATOM     91  C   UNL A   1      45.718  36.355  30.252  1.00  0.00     0.022 A 
BRANCH  89  92
ATOM     92  S   UNL A   1      45.086  37.493  27.845  1.00  0.00     0.127 S 
ATOM     93  O   UNL A   1      45.786  36.905  26.703  1.00  0.00    -0.237 OA
ATOM     94  O   UNL A   1      43.655  37.714  27.635  1.00  0.00    -0.237 OA
ATOM     95  O   UNL A   1      45.780  38.593  28.500  1.00  0.00    -0.744 OA
ENDBRANCH  89  92
ENDBRANCH  62  85
ENDBRANCH  36  37
ENDBRANCH  28  31
ENDBRANCH  26  27
ENDBRANCH  25  26
ENDBRANCH   1  25
TORSDOF 18
ENDMDL
MODEL 3
REMARK VINA RESULT:     -11.6      6.606     11.842
REMARK SMILES COc1ccc2c(c1)[C@@](NC=O)(C(=O)NCCCCCCNC(=O)c1ccc(-c3c4nc(c(-c5cccc(S(=O)(=O)[O-])c5F)c5ccc([nH]5)c(-c5cccc(S(=O)(=O)[O-])c5F)c5nc(c(-c6cccc(S(=O)(=O)[O-])c6F)c6ccc3[nH]6)C=C5)C=C4)cc1)CCC2
REMARK SMILES IDX 19 1 18 2 17 3 16 4 15 5 13 6 14 7 9 9 3 10 4 11 8 12 5 13
REMARK SMILES IDX 7 14 6 15 90 16 88 17 89 18 2 19 1 20 10 21 11 22 12 24
REMARK SMILES IDX 20 25 21 26 22 27 23 28 24 30 25 31 26 32 87 33 27 34 86 35
REMARK SMILES IDX 28 36 29 37 30 38 80 39 31 40 85 41 79 42 81 43 32 44 84 45
REMARK SMILES IDX 78 46 77 47 33 49 65 50 45 51 64 52 46 53 49 54 63 55 82 56
REMARK SMILES IDX 47 57 48 58 62 60 83 61 50 62 34 63 35 64 43 65 36 66 38 67
REMARK SMILES IDX 44 68 37 69 39 70 40 71 41 72 42 73 66 74 67 75 75 76 68 77
REMARK SMILES IDX 70 78 76 79 69 80 71 81 72 82 73 83 74 84 51 85 52 86 60 87
REMARK SMILES IDX 53 88 55 89 61 90 54 91 56 92 57 93 58 94 59 95
REMARK H PARENT 15 8 10 23 22 29 81 48 49 59
REMARK Flexibility Score: inf
ROOT
ATOM      1  C   UNL A   1      36.184  20.258  24.753  1.00  0.00     0.002 C 
ENDROOT
BRANCH   1   2
ATOM      2  C   UNL A   1      36.110  21.589  25.505  1.00  0.00     0.002 C 
BRANCH   2   3
ATOM      3  C   UNL A   1      35.651  22.797  24.688  1.00  0.00     0.021 C 
BRANCH   3   4
ATOM      4  C   UNL A   1      34.925  23.884  25.468  1.00  0.00     0.116 C 
BRANCH   4   5
ATOM      5  N   UNL A   1      34.464  23.469  26.784  1.00  0.00    -0.354 N 
ATOM      6  C   UNL A   1      33.238  22.975  27.161  1.00  0.00     0.250 C 
ATOM      7  O   UNL A   1      33.140  22.568  28.326  1.00  0.00    -0.272 OA
ATOM      8  H   UNL A   1      35.124  23.552  27.508  1.00  0.00     0.163 HD
BRANCH   6   9
ATOM      9  C   UNL A   1      31.975  23.046  26.210  1.00  0.00     0.144 C 
ATOM     10  C   UNL A   1      32.655  19.764  24.336  1.00  0.00     0.119 A 
ATOM     11  C   UNL A   1      32.488  20.162  23.015  1.00  0.00     0.047 A 
ATOM     12  C   UNL A   1      32.417  20.680  25.359  1.00  0.00     0.053 A 
ATOM     13  C   UNL A   1      32.054  21.453  22.712  1.00  0.00     0.008 A 
ATOM     14  C   UNL A   1      32.029  22.013  25.076  1.00  0.00    -0.006 A 
ATOM     15  C   UNL A   1      31.813  22.386  23.731  1.00  0.00    -0.042 A 
ATOM     16  C   UNL A   1      31.478  23.802  23.331  1.00  0.00     0.036 C 
ATOM     17  C   UNL A   1      31.960  24.505  25.672  1.00  0.00     0.044 C 
ATOM     18  C   UNL A   1      31.004  24.657  24.497  1.00  0.00     0.008 C 
BRANCH  10  19
ATOM     19  O   UNL A   1      33.130  18.495  24.507  1.00  0.00    -0.497 OA
ATOM     20  C   UNL A   1      32.248  17.557  25.109  1.00  0.00     0.278 C 
ENDBRANCH  10  19
BRANCH   9  21
ATOM     21  N   UNL A   1      30.751  22.897  27.038  1.00  0.00    -0.341 N 
ATOM     22  C   UNL A   1      29.530  22.413  26.701  1.00  0.00     0.338 C 
ATOM     23  H   UNL A   1      30.839  23.196  27.971  1.00  0.00     0.164 HD
ATOM     24  O   UNL A   1      28.675  22.158  27.545  1.00  0.00    -0.279 OA
ENDBRANCH   9  21
ENDBRANCH   6   9
ENDBRANCH   4   5
ENDBRANCH   3   4
ENDBRANCH   2   3
ENDBRANCH   1   2
BRANCH   1  25
ATOM     25  C   UNL A   1      37.476  19.454  24.926  1.00  0.00     0.021 C 
BRANCH  25  26
ATOM     26  C   UNL A   1      38.567  20.117  25.764  1.00  0.00     0.116 C 
BRANCH  26  27
ATOM     27  N   UNL A   1      39.770  19.307  25.864  1.00  0.00    -0.352 N 
ATOM     28  C   UNL A   1      41.061  19.685  26.145  1.00  0.00     0.251 C 
ATOM     29  H   UNL A   1      39.641  18.343  25.709  1.00  0.00     0.163 HD
ATOM     30  O   UNL A   1      41.973  18.869  26.041  1.00  0.00    -0.269 OA
BRANCH  28  31
ATOM     31  C   UNL A   1      41.358  21.078  26.545  1.00  0.00     0.039 A 
ATOM     32  C   UNL A   1      42.031  21.303  27.750  1.00  0.00     0.014 A 
ATOM     33  C   UNL A   1      40.984  22.157  25.740  1.00  0.00     0.014 A 
ATOM     34  C   UNL A   1      42.392  22.604  28.110  1.00  0.00     0.010 A 
ATOM     35  C   UNL A   1      41.406  23.445  26.066  1.00  0.00     0.010 A 
ATOM     36  C   UNL A   1      42.122  23.681  27.250  1.00  0.00    -0.014 A 
BRANCH  36  37
ATOM     37  C   UNL A   1      42.626  25.047  27.548  1.00  0.00     0.031 A 
ATOM     38  C   UNL A   1      41.750  26.058  28.236  1.00  0.00     0.074 A 
ATOM     39  C   UNL A   1      43.850  25.407  27.112  1.00  0.00     0.049 A 
ATOM     40  N   UNL A   1      42.000  27.311  28.516  1.00  0.00    -0.248 NA
ATOM     41  C   UNL A   1      40.408  25.610  28.642  1.00  0.00     0.031 C 
ATOM     42  C   UNL A   1      44.766  24.545  26.361  1.00  0.00     0.029 A 
ATOM     43  N   UNL A   1      44.523  26.601  27.205  1.00  0.00    -0.354 N 
ATOM     44  C   UNL A   1      40.845  27.810  29.103  1.00  0.00     0.074 A 
ATOM     45  C   UNL A   1      39.879  26.732  29.110  1.00  0.00     0.031 C 
ATOM     46  C   UNL A   1      45.876  25.236  26.062  1.00  0.00     0.029 A 
ATOM     47  C   UNL A   1      45.740  26.600  26.562  1.00  0.00     0.049 A 
ATOM     48  H   UNL A   1      44.169  27.383  27.686  1.00  0.00     0.167 HD
ATOM     49  C   UNL A   1      40.616  29.043  29.615  1.00  0.00     0.034 A 
ATOM     50  C   UNL A   1      46.636  27.589  26.376  1.00  0.00     0.034 A 
ATOM     51  C   UNL A   1      41.588  30.105  29.629  1.00  0.00     0.049 A 
ATOM     52  C   UNL A   1      46.363  28.946  26.965  1.00  0.00     0.074 A 
ATOM     53  C   UNL A   1      41.480  31.361  30.198  1.00  0.00     0.029 A 
ATOM     54  N   UNL A   1      42.838  30.044  29.033  1.00  0.00    -0.354 N 
ATOM     55  N   UNL A   1      45.329  29.350  27.661  1.00  0.00    -0.248 NA
ATOM     56  C   UNL A   1      47.394  29.975  26.769  1.00  0.00     0.031 C 
ATOM     57  C   UNL A   1      42.650  32.073  29.917  1.00  0.00     0.029 A 
ATOM     58  C   UNL A   1      43.503  31.248  29.203  1.00  0.00     0.049 A 
ATOM     59  H   UNL A   1      43.200  29.262  28.557  1.00  0.00     0.167 HD
ATOM     60  C   UNL A   1      45.595  30.668  28.010  1.00  0.00     0.074 A 
ATOM     61  C   UNL A   1      46.902  30.986  27.472  1.00  0.00     0.031 C 
ATOM     62  C   UNL A   1      44.820  31.542  28.697  1.00  0.00     0.034 A 
BRANCH  49  63
ATOM     63  C   UNL A   1      39.272  29.303  30.245  1.00  0.00     0.023 A 
ATOM     64  C   UNL A   1      38.992  28.784  31.526  1.00  0.00     0.012 A 
ATOM     65  C   UNL A   1      38.312  30.111  29.604  1.00  0.00     0.148 A 
ATOM     66  C   UNL A   1      37.767  29.033  32.144  1.00  0.00     0.002 A 
ATOM     67  C   UNL A   1      37.112  30.394  30.246  1.00  0.00     0.091 A 
ATOM     68  F   UNL A   1      38.588  30.582  28.379  1.00  0.00    -0.205 F 
ATOM     69  C   UNL A   1      36.833  29.846  31.508  1.00  0.00     0.022 A 
BRANCH  67  70
ATOM     70  S   UNL A   1      35.873  31.494  29.549  1.00  0.00     0.127 S 
ATOM     71  O   UNL A   1      35.274  30.647  28.519  1.00  0.00    -0.237 OA
ATOM     72  O   UNL A   1      35.012  31.755  30.703  1.00  0.00    -0.237 OA
ATOM     73  O   UNL A   1      36.599  32.655  29.055  1.00  0.00    -0.744 OA
ENDBRANCH  67  70
ENDBRANCH  49  63
BRANCH  50  74
ATOM     74  C   UNL A   1      47.894  27.320  25.623  1.00  0.00     0.023 A 
ATOM     75  C   UNL A   1      48.995  26.746  26.287  1.00  0.00     0.012 A 
ATOM     76  C   UNL A   1      47.994  27.606  24.247  1.00  0.00     0.148 A 
ATOM     77  C   UNL A   1      50.185  26.494  25.605  1.00  0.00     0.002 A 
ATOM     78  C   UNL A   1      49.162  27.297  23.560  1.00  0.00     0.091 A 
ATOM     79  F   UNL A   1      46.940  28.162  23.636  1.00  0.00    -0.205 F 
ATOM     80  C   UNL A   1      50.266  26.759  24.240  1.00  0.00     0.022 A 
BRANCH  78  81
ATOM     81  S   UNL A   1      49.306  27.479  21.779  1.00  0.00     0.127 S 
ATOM     82  O   UNL A   1      49.667  28.889  21.651  1.00  0.00    -0.237 OA
ATOM     83  O   UNL A   1      50.381  26.536  21.466  1.00  0.00    -0.237 OA
ATOM     84  O   UNL A   1      48.006  27.108  21.238  1.00  0.00    -0.744 OA
ENDBRANCH  78  81
ENDBRANCH  50  74
BRANCH  62  85
ATOM     85  C   UNL A   1      45.367  32.926  28.934  1.00  0.00     0.023 A 
ATOM     86  C   UNL A   1      46.106  33.198  30.102  1.00  0.00     0.012 A 
ATOM     87  C   UNL A   1      45.212  33.937  27.965  1.00  0.00     0.148 A 
ATOM     88  C   UNL A   1      46.653  34.462  30.319  1.00  0.00     0.002 A 
ATOM     89  C   UNL A   1      45.804  35.179  28.163  1.00  0.00     0.091 A 
ATOM     90  F   UNL A   1      44.492  33.664  26.866  1.00  0.00    -0.205 F 
ATOM     91  C   UNL A   1      46.513  35.447  29.344  1.00  0.00     0.022 A 
BRANCH  89  92
ATOM     92  S   UNL A   1      45.758  36.480  26.925  1.00  0.00     0.127 S 
ATOM     93  O   UNL A   1      44.322  36.740  26.819  1.00  0.00    -0.237 OA
ATOM     94  O   UNL A   1      46.524  37.546  27.570  1.00  0.00    -0.237 OA
ATOM     95  O   UNL A   1      46.378  35.924  25.731  1.00  0.00    -0.744 OA
ENDBRANCH  89  92
ENDBRANCH  62  85
ENDBRANCH  36  37
ENDBRANCH  28  31
ENDBRANCH  26  27
ENDBRANCH  25  26
ENDBRANCH   1  25
TORSDOF 18
ENDMDL
