MODEL 1
REMARK VINA RESULT:     -10.1      0.000      0.000
REMARK SMILES CC(C)(C[NH2+]C[C@@H](O)C1CC1)C(=O)NCCCCCCNC(=O)c1ccc(-c2c3nc(c(-c4cccc(S(=O)(=O)[O-])c4F)c4ccc([nH]4)c(-c4cccc(S(=O)(=O)[O-])c4F)c4nc(c(-c5cccc(S(=O)(=O)[O-])c5F)c5ccc2[nH]5)C=C4)C=C3)cc1
REMARK SMILES IDX 16 1 15 2 14 3 12 4 13 5 2 7 1 8 3 9 4 10 5 11 6 14 7 15
REMARK SMILES IDX 8 16 9 18 10 19 11 20 17 21 18 22 19 23 20 24 21 25 22 26
REMARK SMILES IDX 23 28 24 29 25 30 86 31 26 32 85 33 27 34 28 35 29 36 79 37
REMARK SMILES IDX 30 38 84 39 78 40 80 41 31 42 83 43 77 44 76 45 32 47 64 48
REMARK SMILES IDX 44 49 63 50 45 51 48 52 62 53 81 54 46 55 47 56 61 58 82 59
REMARK SMILES IDX 49 60 33 61 34 62 42 63 35 64 37 65 43 66 36 67 38 68 39 69
REMARK SMILES IDX 40 70 41 71 65 72 66 73 74 74 67 75 69 76 75 77 68 78 70 79
REMARK SMILES IDX 71 80 72 81 73 82 50 83 51 84 59 85 52 86 54 87 60 88 53 89
REMARK SMILES IDX 55 90 56 91 57 92 58 93
REMARK H PARENT 14 6 5 12 5 13 8 17 21 27 80 46 48 57
REMARK Flexibility Score: inf
ROOT
ATOM      1  C   UNL A   1      36.481  23.355  24.618  1.00  0.00     0.021 C 
ENDROOT
BRANCH   1   2
ATOM      2  C   UNL A   1      35.683  23.970  25.765  1.00  0.00     0.116 C 
BRANCH   2   3
ATOM      3  N   UNL A   1      35.093  22.946  26.604  1.00  0.00    -0.355 N 
ATOM      4  C   UNL A   1      33.805  22.592  26.850  1.00  0.00     0.231 C 
ATOM      5  O   UNL A   1      33.645  21.680  27.670  1.00  0.00    -0.274 OA
ATOM      6  H   UNL A   1      35.754  22.401  27.089  1.00  0.00     0.163 HD
BRANCH   4   7
ATOM      7  C   UNL A   1      32.607  23.219  26.110  1.00  0.00     0.092 C 
ATOM      8  C   UNL A   1      32.870  24.738  25.951  1.00  0.00     0.027 C 
ATOM      9  C   UNL A   1      31.342  23.087  26.983  1.00  0.00     0.027 C 
BRANCH   7  10
ATOM     10  C   UNL A   1      32.355  22.614  24.705  1.00  0.00     0.276 C 
BRANCH  10  11
ATOM     11  N   UNL A   1      33.096  21.383  24.427  1.00  0.00    -0.343 N 
ATOM     12  H   UNL A   1      33.950  21.384  24.985  1.00  0.00     0.346 HD
ATOM     13  H   UNL A   1      33.293  21.367  23.425  1.00  0.00     0.346 HD
BRANCH  11  14
ATOM     14  C   UNL A   1      32.331  20.161  24.741  1.00  0.00     0.292 C 
BRANCH  14  15
ATOM     15  C   UNL A   1      33.173  18.958  25.228  1.00  0.00     0.172 C 
BRANCH  15  16
ATOM     16  O   UNL A   1      32.923  18.725  26.615  1.00  0.00    -0.387 OA
ATOM     17  H   UNL A   1      32.313  19.399  26.951  1.00  0.00     0.211 HD
ENDBRANCH  15  16
BRANCH  15  18
ATOM     18  C   UNL A   1      32.839  17.704  24.478  1.00  0.00     0.023 C 
ATOM     19  C   UNL A   1      33.078  17.617  22.991  1.00  0.00     0.007 C 
ATOM     20  C   UNL A   1      33.950  16.839  23.936  1.00  0.00     0.007 C 
ENDBRANCH  15  18
ENDBRANCH  14  15
ENDBRANCH  11  14
ENDBRANCH  10  11
ENDBRANCH   7  10
ENDBRANCH   4   7
ENDBRANCH   2   3
ENDBRANCH   1   2
BRANCH   1  21
ATOM     21  C   UNL A   1      37.437  22.236  25.054  1.00  0.00     0.002 C 
BRANCH  21  22
ATOM     22  C   UNL A   1      37.090  20.844  24.515  1.00  0.00     0.002 C 
BRANCH  22  23
ATOM     23  C   UNL A   1      38.027  19.723  24.968  1.00  0.00     0.021 C 
BRANCH  23  24
ATOM     24  C   UNL A   1      39.156  20.176  25.886  1.00  0.00     0.116 C 
BRANCH  24  25
ATOM     25  N   UNL A   1      40.198  19.166  26.004  1.00  0.00    -0.352 N 
ATOM     26  C   UNL A   1      41.551  19.333  26.155  1.00  0.00     0.251 C 
ATOM     27  H   UNL A   1      39.888  18.233  25.971  1.00  0.00     0.163 HD
ATOM     28  O   UNL A   1      42.308  18.371  26.024  1.00  0.00    -0.269 OA
BRANCH  26  29
ATOM     29  C   UNL A   1      42.096  20.671  26.460  1.00  0.00     0.039 A 
ATOM     30  C   UNL A   1      42.398  21.537  25.407  1.00  0.00     0.014 A 
ATOM     31  C   UNL A   1      42.308  21.069  27.784  1.00  0.00     0.014 A 
ATOM     32  C   UNL A   1      42.861  22.825  25.685  1.00  0.00     0.010 A 
ATOM     33  C   UNL A   1      42.695  22.377  28.059  1.00  0.00     0.010 A 
ATOM     34  C   UNL A   1      42.983  23.267  27.013  1.00  0.00    -0.014 A 
BRANCH  34  35
ATOM     35  C   UNL A   1      43.403  24.656  27.327  1.00  0.00     0.031 A 
ATOM     36  C   UNL A   1      42.421  25.630  27.919  1.00  0.00     0.074 A 
ATOM     37  C   UNL A   1      44.645  25.065  27.001  1.00  0.00     0.049 A 
ATOM     38  N   UNL A   1      42.587  26.896  28.207  1.00  0.00    -0.248 NA
ATOM     39  C   UNL A   1      41.066  25.126  28.198  1.00  0.00     0.031 C 
ATOM     40  C   UNL A   1      45.666  24.237  26.356  1.00  0.00     0.029 A 
ATOM     41  N   UNL A   1      45.253  26.287  27.144  1.00  0.00    -0.354 N 
ATOM     42  C   UNL A   1      41.355  27.346  28.668  1.00  0.00     0.074 A 
ATOM     43  C   UNL A   1      40.440  26.229  28.586  1.00  0.00     0.031 C 
ATOM     44  C   UNL A   1      46.773  24.972  26.165  1.00  0.00     0.029 A 
ATOM     45  C   UNL A   1      46.532  26.330  26.639  1.00  0.00     0.049 A 
ATOM     46  H   UNL A   1      44.816  27.061  27.569  1.00  0.00     0.167 HD
ATOM     47  C   UNL A   1      41.021  28.570  29.142  1.00  0.00     0.034 A 
ATOM     48  C   UNL A   1      47.407  27.351  26.556  1.00  0.00     0.034 A 
ATOM     49  C   UNL A   1      41.943  29.668  29.251  1.00  0.00     0.049 A 
ATOM     50  C   UNL A   1      47.019  28.695  27.110  1.00  0.00     0.074 A 
ATOM     51  C   UNL A   1      41.725  30.922  29.796  1.00  0.00     0.029 A 
ATOM     52  N   UNL A   1      43.252  29.653  28.796  1.00  0.00    -0.354 N 
ATOM     53  N   UNL A   1      45.897  29.058  27.683  1.00  0.00    -0.248 NA
ATOM     54  C   UNL A   1      48.029  29.760  27.039  1.00  0.00     0.031 C 
ATOM     55  C   UNL A   1      42.892  31.676  29.636  1.00  0.00     0.029 A 
ATOM     56  C   UNL A   1      43.850  30.879  29.032  1.00  0.00     0.049 A 
ATOM     57  H   UNL A   1      43.692  28.883  28.368  1.00  0.00     0.167 HD
ATOM     58  C   UNL A   1      46.080  30.380  28.074  1.00  0.00     0.074 A 
ATOM     59  C   UNL A   1      47.428  30.745  27.689  1.00  0.00     0.031 C 
ATOM     60  C   UNL A   1      45.207  31.217  28.687  1.00  0.00     0.034 A 
BRANCH  47  61
ATOM     61  C   UNL A   1      39.605  28.775  29.616  1.00  0.00     0.023 A 
ATOM     62  C   UNL A   1      39.234  28.361  30.912  1.00  0.00     0.012 A 
ATOM     63  C   UNL A   1      38.657  29.426  28.802  1.00  0.00     0.148 A 
ATOM     64  C   UNL A   1      37.933  28.552  31.375  1.00  0.00     0.002 A 
ATOM     65  C   UNL A   1      37.376  29.658  29.290  1.00  0.00     0.091 A 
ATOM     66  F   UNL A   1      39.021  29.796  27.566  1.00  0.00    -0.205 F 
ATOM     67  C   UNL A   1      37.008  29.209  30.569  1.00  0.00     0.022 A 
BRANCH  65  68
ATOM     68  S   UNL A   1      36.136  30.569  28.362  1.00  0.00     0.127 S 
ATOM     69  O   UNL A   1      36.865  31.787  28.014  1.00  0.00    -0.237 OA
ATOM     70  O   UNL A   1      35.875  29.672  27.237  1.00  0.00    -0.237 OA
ATOM     71  O   UNL A   1      35.010  30.753  29.267  1.00  0.00    -0.744 OA
ENDBRANCH  65  68
ENDBRANCH  47  61
BRANCH  48  72
ATOM     72  C   UNL A   1      48.760  27.126  25.970  1.00  0.00     0.023 A 
ATOM     73  C   UNL A   1      49.779  26.572  26.769  1.00  0.00     0.012 A 
ATOM     74  C   UNL A   1      49.033  27.435  24.624  1.00  0.00     0.148 A 
ATOM     75  C   UNL A   1      51.056  26.362  26.248  1.00  0.00     0.002 A 
ATOM     76  C   UNL A   1      50.291  27.170  24.095  1.00  0.00     0.091 A 
ATOM     77  F   UNL A   1      48.052  27.968  23.882  1.00  0.00    -0.205 F 
ATOM     78  C   UNL A   1      51.310  26.652  24.910  1.00  0.00     0.022 A 
BRANCH  76  79
ATOM     79  S   UNL A   1      50.670  27.388  22.352  1.00  0.00     0.127 S 
ATOM     80  O   UNL A   1      50.505  28.830  22.189  1.00  0.00    -0.237 OA
ATOM     81  O   UNL A   1      52.052  26.913  22.284  1.00  0.00    -0.237 OA
ATOM     82  O   UNL A   1      49.714  26.558  21.634  1.00  0.00    -0.744 OA
ENDBRANCH  76  79
ENDBRANCH  48  72
BRANCH  60  83
ATOM     83  C   UNL A   1      45.689  32.605  29.027  1.00  0.00     0.023 A 
ATOM     84  C   UNL A   1      46.410  32.832  30.216  1.00  0.00     0.012 A 
ATOM     85  C   UNL A   1      45.488  33.669  28.126  1.00  0.00     0.148 A 
ATOM     86  C   UNL A   1      46.893  34.104  30.519  1.00  0.00     0.002 A 
ATOM     87  C   UNL A   1      46.018  34.922  28.408  1.00  0.00     0.091 A 
ATOM     88  F   UNL A   1      44.784  33.437  27.008  1.00  0.00    -0.205 F 
ATOM     89  C   UNL A   1      46.709  35.144  29.610  1.00  0.00     0.022 A 
BRANCH  87  90
ATOM     90  S   UNL A   1      45.918  36.294  27.254  1.00  0.00     0.127 S 
ATOM     91  O   UNL A   1      44.503  36.272  26.888  1.00  0.00    -0.237 OA
ATOM     92  O   UNL A   1      46.315  37.429  28.089  1.00  0.00    -0.237 OA
ATOM     93  O   UNL A   1      46.847  35.983  26.175  1.00  0.00    -0.744 OA
ENDBRANCH  87  90
ENDBRANCH  60  83
ENDBRANCH  34  35
ENDBRANCH  26  29
ENDBRANCH  24  25
ENDBRANCH  23  24
ENDBRANCH  22  23
ENDBRANCH  21  22
ENDBRANCH   1  21
TORSDOF 22
ENDMDL
MODEL 2
REMARK VINA RESULT:     -10.1      1.467      7.832
REMARK SMILES CC(C)(C[NH2+]C[C@@H](O)C1CC1)C(=O)NCCCCCCNC(=O)c1ccc(-c2c3nc(c(-c4cccc(S(=O)(=O)[O-])c4F)c4ccc([nH]4)c(-c4cccc(S(=O)(=O)[O-])c4F)c4nc(c(-c5cccc(S(=O)(=O)[O-])c5F)c5ccc2[nH]5)C=C4)C=C3)cc1
REMARK SMILES IDX 16 1 15 2 14 3 12 4 13 5 2 7 1 8 3 9 4 10 5 11 6 14 7 15
REMARK SMILES IDX 8 16 9 18 10 19 11 20 17 21 18 22 19 23 20 24 21 25 22 26
REMARK SMILES IDX 23 28 24 29 25 30 86 31 26 32 85 33 27 34 28 35 29 36 79 37
REMARK SMILES IDX 30 38 84 39 78 40 80 41 31 42 83 43 77 44 76 45 32 47 64 48
REMARK SMILES IDX 44 49 63 50 45 51 48 52 62 53 81 54 46 55 47 56 61 58 82 59
REMARK SMILES IDX 49 60 33 61 34 62 42 63 35 64 37 65 43 66 36 67 38 68 39 69
REMARK SMILES IDX 40 70 41 71 65 72 66 73 74 74 67 75 69 76 75 77 68 78 70 79
REMARK SMILES IDX 71 80 72 81 73 82 50 83 51 84 59 85 52 86 54 87 60 88 53 89
REMARK SMILES IDX 55 90 56 91 57 92 58 93
REMARK H PARENT 14 6 5 12 5 13 8 17 21 27 80 46 48 57
REMARK Flexibility Score: inf
ROOT
ATOM      1  C   UNL A   1      36.850  22.990  24.754  1.00  0.00     0.021 C 
ENDROOT
BRANCH   1   2
ATOM      2  C   UNL A   1      36.081  23.669  25.885  1.00  0.00     0.116 C 
BRANCH   2   3
ATOM      3  N   UNL A   1      35.395  22.698  26.713  1.00  0.00    -0.355 N 
ATOM      4  C   UNL A   1      34.077  22.449  26.934  1.00  0.00     0.231 C 
ATOM      5  O   UNL A   1      33.830  21.554  27.751  1.00  0.00    -0.274 OA
ATOM      6  H   UNL A   1      36.000  22.103  27.211  1.00  0.00     0.163 HD
BRANCH   4   7
ATOM      7  C   UNL A   1      32.948  23.168  26.171  1.00  0.00     0.092 C 
ATOM      8  C   UNL A   1      33.237  24.690  26.189  1.00  0.00     0.027 C 
ATOM      9  C   UNL A   1      31.617  22.970  26.924  1.00  0.00     0.027 C 
BRANCH   7  10
ATOM     10  C   UNL A   1      32.803  22.713  24.696  1.00  0.00     0.276 C 
BRANCH  10  11
ATOM     11  N   UNL A   1      33.405  21.412  24.394  1.00  0.00    -0.343 N 
ATOM     12  H   UNL A   1      34.240  21.300  24.968  1.00  0.00     0.346 HD
ATOM     13  H   UNL A   1      33.621  21.402  23.396  1.00  0.00     0.346 HD
BRANCH  11  14
ATOM     14  C   UNL A   1      32.499  20.278  24.657  1.00  0.00     0.292 C 
BRANCH  14  15
ATOM     15  C   UNL A   1      33.180  18.991  25.177  1.00  0.00     0.172 C 
BRANCH  15  16
ATOM     16  O   UNL A   1      32.865  18.802  26.557  1.00  0.00    -0.387 OA
ATOM     17  H   UNL A   1      32.039  19.265  26.766  1.00  0.00     0.211 HD
ENDBRANCH  15  16
BRANCH  15  18
ATOM     18  C   UNL A   1      32.724  17.776  24.425  1.00  0.00     0.023 C 
ATOM     19  C   UNL A   1      32.695  17.778  22.917  1.00  0.00     0.007 C 
ATOM     20  C   UNL A   1      33.726  16.961  23.645  1.00  0.00     0.007 C 
ENDBRANCH  15  18
ENDBRANCH  14  15
ENDBRANCH  11  14
ENDBRANCH  10  11
ENDBRANCH   7  10
ENDBRANCH   4   7
ENDBRANCH   2   3
ENDBRANCH   1   2
BRANCH   1  21
ATOM     21  C   UNL A   1      37.847  21.926  25.230  1.00  0.00     0.002 C 
BRANCH  21  22
ATOM     22  C   UNL A   1      37.572  20.508  24.718  1.00  0.00     0.002 C 
BRANCH  22  23
ATOM     23  C   UNL A   1      38.449  19.416  25.335  1.00  0.00     0.021 C 
BRANCH  23  24
ATOM     24  C   UNL A   1      39.702  19.932  26.033  1.00  0.00     0.116 C 
BRANCH  24  25
ATOM     25  N   UNL A   1      40.802  18.983  25.945  1.00  0.00    -0.352 N 
ATOM     26  C   UNL A   1      42.152  19.224  25.905  1.00  0.00     0.251 C 
ATOM     27  H   UNL A   1      40.540  18.034  25.909  1.00  0.00     0.163 HD
ATOM     28  O   UNL A   1      42.930  18.316  25.615  1.00  0.00    -0.269 OA
BRANCH  26  29
ATOM     29  C   UNL A   1      42.664  20.578  26.197  1.00  0.00     0.039 A 
ATOM     30  C   UNL A   1      43.135  21.366  25.144  1.00  0.00     0.014 A 
ATOM     31  C   UNL A   1      42.680  21.067  27.506  1.00  0.00     0.014 A 
ATOM     32  C   UNL A   1      43.570  22.668  25.400  1.00  0.00     0.010 A 
ATOM     33  C   UNL A   1      43.040  22.389  27.746  1.00  0.00     0.010 A 
ATOM     34  C   UNL A   1      43.497  23.202  26.698  1.00  0.00    -0.014 A 
BRANCH  34  35
ATOM     35  C   UNL A   1      43.885  24.608  26.975  1.00  0.00     0.031 A 
ATOM     36  C   UNL A   1      45.313  25.049  26.807  1.00  0.00     0.074 A 
ATOM     37  C   UNL A   1      42.966  25.467  27.460  1.00  0.00     0.049 A 
ATOM     38  N   UNL A   1      45.850  26.217  27.054  1.00  0.00    -0.248 NA
ATOM     39  C   UNL A   1      46.271  24.041  26.325  1.00  0.00     0.031 C 
ATOM     40  C   UNL A   1      41.566  25.142  27.737  1.00  0.00     0.029 A 
ATOM     41  N   UNL A   1      43.078  26.784  27.830  1.00  0.00    -0.354 N 
ATOM     42  C   UNL A   1      47.207  26.074  26.791  1.00  0.00     0.074 A 
ATOM     43  C   UNL A   1      47.419  24.698  26.401  1.00  0.00     0.031 C 
ATOM     44  C   UNL A   1      40.948  26.229  28.226  1.00  0.00     0.029 A 
ATOM     45  C   UNL A   1      41.913  27.317  28.333  1.00  0.00     0.049 A 
ATOM     46  H   UNL A   1      43.912  27.300  27.744  1.00  0.00     0.167 HD
ATOM     47  C   UNL A   1      48.185  27.010  26.842  1.00  0.00     0.034 A 
ATOM     48  C   UNL A   1      41.655  28.540  28.834  1.00  0.00     0.034 A 
ATOM     49  C   UNL A   1      47.964  28.385  27.199  1.00  0.00     0.049 A 
ATOM     50  C   UNL A   1      42.753  29.569  28.859  1.00  0.00     0.074 A 
ATOM     51  C   UNL A   1      48.871  29.431  27.200  1.00  0.00     0.029 A 
ATOM     52  N   UNL A   1      46.754  28.907  27.633  1.00  0.00    -0.354 N 
ATOM     53  N   UNL A   1      43.997  29.457  28.461  1.00  0.00    -0.248 NA
ATOM     54  C   UNL A   1      42.404  30.902  29.370  1.00  0.00     0.031 C 
ATOM     55  C   UNL A   1      48.219  30.575  27.669  1.00  0.00     0.029 A 
ATOM     56  C   UNL A   1      46.895  30.254  27.920  1.00  0.00     0.049 A 
ATOM     57  H   UNL A   1      45.918  28.395  27.724  1.00  0.00     0.167 HD
ATOM     58  C   UNL A   1      44.567  30.712  28.636  1.00  0.00     0.074 A 
ATOM     59  C   UNL A   1      43.527  31.573  29.159  1.00  0.00     0.031 C 
ATOM     60  C   UNL A   1      45.840  31.112  28.395  1.00  0.00     0.034 A 
BRANCH  47  61
ATOM     61  C   UNL A   1      49.581  26.585  26.465  1.00  0.00     0.023 A 
ATOM     62  C   UNL A   1      50.301  25.718  27.313  1.00  0.00     0.012 A 
ATOM     63  C   UNL A   1      50.160  26.998  25.250  1.00  0.00     0.148 A 
ATOM     64  C   UNL A   1      51.588  25.301  26.977  1.00  0.00     0.002 A 
ATOM     65  C   UNL A   1      51.424  26.539  24.898  1.00  0.00     0.091 A 
ATOM     66  F   UNL A   1      49.470  27.837  24.464  1.00  0.00    -0.205 F 
ATOM     67  C   UNL A   1      52.145  25.703  25.767  1.00  0.00     0.022 A 
BRANCH  65  68
ATOM     68  S   UNL A   1      52.196  26.931  23.323  1.00  0.00     0.127 S 
ATOM     69  O   UNL A   1      51.078  26.755  22.397  1.00  0.00    -0.237 OA
ATOM     70  O   UNL A   1      52.610  28.319  23.523  1.00  0.00    -0.237 OA
ATOM     71  O   UNL A   1      53.292  25.986  23.165  1.00  0.00    -0.744 OA
ENDBRANCH  65  68
ENDBRANCH  47  61
BRANCH  48  72
ATOM     72  C   UNL A   1      40.280  28.877  29.304  1.00  0.00     0.023 A 
ATOM     73  C   UNL A   1      39.314  29.307  28.374  1.00  0.00     0.012 A 
ATOM     74  C   UNL A   1      39.921  28.751  30.659  1.00  0.00     0.148 A 
ATOM     75  C   UNL A   1      38.025  29.639  28.790  1.00  0.00     0.002 A 
ATOM     76  C   UNL A   1      38.618  29.028  31.059  1.00  0.00     0.091 A 
ATOM     77  F   UNL A   1      40.857  28.348  31.530  1.00  0.00    -0.205 F 
ATOM     78  C   UNL A   1      37.674  29.491  30.129  1.00  0.00     0.022 A 
BRANCH  76  79
ATOM     79  S   UNL A   1      38.042  28.741  32.736  1.00  0.00     0.127 S 
ATOM     80  O   UNL A   1      36.685  29.279  32.682  1.00  0.00    -0.237 OA
ATOM     81  O   UNL A   1      38.125  27.283  32.836  1.00  0.00    -0.237 OA
ATOM     82  O   UNL A   1      38.970  29.455  33.600  1.00  0.00    -0.744 OA
ENDBRANCH  76  79
ENDBRANCH  48  72
BRANCH  60  83
ATOM     83  C   UNL A   1      46.180  32.559  28.650  1.00  0.00     0.023 A 
ATOM     84  C   UNL A   1      46.855  32.929  29.830  1.00  0.00     0.012 A 
ATOM     85  C   UNL A   1      45.894  33.540  27.681  1.00  0.00     0.148 A 
ATOM     86  C   UNL A   1      47.208  34.259  30.057  1.00  0.00     0.002 A 
ATOM     87  C   UNL A   1      46.296  34.854  27.889  1.00  0.00     0.091 A 
ATOM     88  F   UNL A   1      45.236  33.171  26.572  1.00  0.00    -0.205 F 
ATOM     89  C   UNL A   1      46.942  35.217  29.082  1.00  0.00     0.022 A 
BRANCH  87  90
ATOM     90  S   UNL A   1      46.085  36.135  26.648  1.00  0.00     0.127 S 
ATOM     91  O   UNL A   1      46.749  35.540  25.490  1.00  0.00    -0.237 OA
ATOM     92  O   UNL A   1      44.629  36.222  26.539  1.00  0.00    -0.237 OA
ATOM     93  O   UNL A   1      46.724  37.329  27.187  1.00  0.00    -0.744 OA
ENDBRANCH  87  90
ENDBRANCH  60  83
ENDBRANCH  34  35
ENDBRANCH  26  29
ENDBRANCH  24  25
ENDBRANCH  23  24
ENDBRANCH  22  23
ENDBRANCH  21  22
ENDBRANCH   1  21
TORSDOF 22
ENDMDL
MODEL 3
REMARK VINA RESULT:     -10.0      5.656     10.507
REMARK SMILES CC(C)(C[NH2+]C[C@@H](O)C1CC1)C(=O)NCCCCCCNC(=O)c1ccc(-c2c3nc(c(-c4cccc(S(=O)(=O)[O-])c4F)c4ccc([nH]4)c(-c4cccc(S(=O)(=O)[O-])c4F)c4nc(c(-c5cccc(S(=O)(=O)[O-])c5F)c5ccc2[nH]5)C=C4)C=C3)cc1
REMARK SMILES IDX 16 1 15 2 14 3 12 4 13 5 2 7 1 8 3 9 4 10 5 11 6 14 7 15
REMARK SMILES IDX 8 16 9 18 10 19 11 20 17 21 18 22 19 23 20 24 21 25 22 26
REMARK SMILES IDX 23 28 24 29 25 30 86 31 26 32 85 33 27 34 28 35 29 36 79 37
REMARK SMILES IDX 30 38 84 39 78 40 80 41 31 42 83 43 77 44 76 45 32 47 64 48
REMARK SMILES IDX 44 49 63 50 45 51 48 52 62 53 81 54 46 55 47 56 61 58 82 59
REMARK SMILES IDX 49 60 33 61 34 62 42 63 35 64 37 65 43 66 36 67 38 68 39 69
REMARK SMILES IDX 40 70 41 71 65 72 66 73 74 74 67 75 69 76 75 77 68 78 70 79
REMARK SMILES IDX 71 80 72 81 73 82 50 83 51 84 59 85 52 86 54 87 60 88 53 89
REMARK SMILES IDX 55 90 56 91 57 92 58 93
REMARK H PARENT 14 6 5 12 5 13 8 17 21 27 80 46 48 57
REMARK Flexibility Score: inf
ROOT
ATOM      1  C   UNL A   1      33.368  25.427  23.149  1.00  0.00     0.021 C 
ENDROOT
BRANCH   1   2
ATOM      2  C   UNL A   1      31.982  24.800  23.267  1.00  0.00     0.116 C 
BRANCH   2   3
ATOM      3  N   UNL A   1      31.213  25.416  24.330  1.00  0.00    -0.355 N 
ATOM      4  C   UNL A   1      30.789  24.961  25.538  1.00  0.00     0.231 C 
ATOM      5  O   UNL A   1      30.102  25.750  26.198  1.00  0.00    -0.274 OA
ATOM      6  H   UNL A   1      30.948  26.345  24.141  1.00  0.00     0.163 HD
BRANCH   4   7
ATOM      7  C   UNL A   1      31.188  23.584  26.103  1.00  0.00     0.092 C 
ATOM      8  C   UNL A   1      30.056  23.093  27.040  1.00  0.00     0.027 C 
ATOM      9  C   UNL A   1      32.445  23.740  26.985  1.00  0.00     0.027 C 
BRANCH   7  10
ATOM     10  C   UNL A   1      31.427  22.507  25.014  1.00  0.00     0.276 C 
BRANCH  10  11
ATOM     11  N   UNL A   1      32.066  21.281  25.495  1.00  0.00    -0.343 N 
ATOM     12  H   UNL A   1      31.406  20.783  26.093  1.00  0.00     0.346 HD
ATOM     13  H   UNL A   1      32.909  21.555  26.001  1.00  0.00     0.346 HD
BRANCH  11  14
ATOM     14  C   UNL A   1      32.483  20.378  24.406  1.00  0.00     0.292 C 
BRANCH  14  15
ATOM     15  C   UNL A   1      33.182  19.073  24.855  1.00  0.00     0.172 C 
BRANCH  15  16
ATOM     16  O   UNL A   1      32.948  18.856  26.247  1.00  0.00    -0.387 OA
ATOM     17  H   UNL A   1      33.093  19.684  26.732  1.00  0.00     0.211 HD
ENDBRANCH  15  16
BRANCH  15  18
ATOM     18  C   UNL A   1      32.669  17.880  24.106  1.00  0.00     0.023 C 
ATOM     19  C   UNL A   1      33.599  17.060  23.247  1.00  0.00     0.007 C 
ATOM     20  C   UNL A   1      33.078  16.494  24.539  1.00  0.00     0.007 C 
ENDBRANCH  15  18
ENDBRANCH  14  15
ENDBRANCH  11  14
ENDBRANCH  10  11
ENDBRANCH   7  10
ENDBRANCH   4   7
ENDBRANCH   2   3
ENDBRANCH   1   2
BRANCH   1  21
ATOM     21  C   UNL A   1      33.601  26.606  24.103  1.00  0.00     0.002 C 
BRANCH  21  22
ATOM     22  C   UNL A   1      33.667  27.981  23.427  1.00  0.00     0.002 C 
BRANCH  22  23
ATOM     23  C   UNL A   1      32.706  29.027  23.996  1.00  0.00     0.021 C 
BRANCH  23  24
ATOM     24  C   UNL A   1      32.810  29.226  25.504  1.00  0.00     0.116 C 
BRANCH  24  25
ATOM     25  N   UNL A   1      32.331  30.538  25.912  1.00  0.00    -0.352 N 
ATOM     26  C   UNL A   1      32.815  31.371  26.890  1.00  0.00     0.251 C 
ATOM     27  H   UNL A   1      31.549  30.876  25.418  1.00  0.00     0.163 HD
ATOM     28  O   UNL A   1      32.158  32.349  27.245  1.00  0.00    -0.269 OA
BRANCH  26  29
ATOM     29  C   UNL A   1      34.118  31.080  27.522  1.00  0.00     0.039 A 
ATOM     30  C   UNL A   1      35.004  32.133  27.763  1.00  0.00     0.014 A 
ATOM     31  C   UNL A   1      34.463  29.773  27.875  1.00  0.00     0.014 A 
ATOM     32  C   UNL A   1      36.215  31.879  28.410  1.00  0.00     0.010 A 
ATOM     33  C   UNL A   1      35.633  29.535  28.588  1.00  0.00     0.010 A 
ATOM     34  C   UNL A   1      36.526  30.584  28.857  1.00  0.00    -0.014 A 
BRANCH  34  35
ATOM     35  C   UNL A   1      37.775  30.309  29.612  1.00  0.00     0.031 A 
ATOM     36  C   UNL A   1      38.828  29.404  29.034  1.00  0.00     0.074 A 
ATOM     37  C   UNL A   1      37.922  30.807  30.856  1.00  0.00     0.049 A 
ATOM     38  N   UNL A   1      39.954  29.003  29.568  1.00  0.00    -0.248 NA
ATOM     39  C   UNL A   1      38.573  28.853  27.693  1.00  0.00     0.031 C 
ATOM     40  C   UNL A   1      36.940  31.637  31.557  1.00  0.00     0.029 A 
ATOM     41  N   UNL A   1      38.943  30.668  31.762  1.00  0.00    -0.354 N 
ATOM     42  C   UNL A   1      40.522  28.132  28.647  1.00  0.00     0.074 A 
ATOM     43  C   UNL A   1      39.601  28.031  27.536  1.00  0.00     0.031 C 
ATOM     44  C   UNL A   1      37.409  31.938  32.778  1.00  0.00     0.029 A 
ATOM     45  C   UNL A   1      38.705  31.294  32.964  1.00  0.00     0.049 A 
ATOM     46  H   UNL A   1      39.769  30.167  31.571  1.00  0.00     0.167 HD
ATOM     47  C   UNL A   1      41.715  27.493  28.706  1.00  0.00     0.034 A 
ATOM     48  C   UNL A   1      39.440  31.336  34.091  1.00  0.00     0.034 A 
ATOM     49  C   UNL A   1      42.642  27.621  29.797  1.00  0.00     0.049 A 
ATOM     50  C   UNL A   1      40.772  30.637  34.123  1.00  0.00     0.074 A 
ATOM     51  C   UNL A   1      43.913  27.083  29.914  1.00  0.00     0.029 A 
ATOM     52  N   UNL A   1      42.397  28.324  30.967  1.00  0.00    -0.354 N 
ATOM     53  N   UNL A   1      41.361  29.942  33.180  1.00  0.00    -0.248 NA
ATOM     54  C   UNL A   1      41.556  30.756  35.360  1.00  0.00     0.031 C 
ATOM     55  C   UNL A   1      44.420  27.431  31.170  1.00  0.00     0.029 A 
ATOM     56  C   UNL A   1      43.485  28.220  31.818  1.00  0.00     0.049 A 
ATOM     57  H   UNL A   1      41.572  28.823  31.163  1.00  0.00     0.167 HD
ATOM     58  C   UNL A   1      42.599  29.574  33.695  1.00  0.00     0.074 A 
ATOM     59  C   UNL A   1      42.681  30.140  35.026  1.00  0.00     0.031 C 
ATOM     60  C   UNL A   1      43.575  28.827  33.121  1.00  0.00     0.034 A 
BRANCH  47  61
ATOM     61  C   UNL A   1      42.104  26.626  27.535  1.00  0.00     0.023 A 
ATOM     62  C   UNL A   1      42.779  27.195  26.436  1.00  0.00     0.012 A 
ATOM     63  C   UNL A   1      41.853  25.240  27.547  1.00  0.00     0.148 A 
ATOM     64  C   UNL A   1      43.159  26.410  25.349  1.00  0.00     0.002 A 
ATOM     65  C   UNL A   1      42.279  24.455  26.481  1.00  0.00     0.091 A 
ATOM     66  F   UNL A   1      41.194  24.717  28.591  1.00  0.00    -0.205 F 
ATOM     67  C   UNL A   1      42.919  25.040  25.377  1.00  0.00     0.022 A 
BRANCH  65  68
ATOM     68  S   UNL A   1      42.092  22.668  26.459  1.00  0.00     0.127 S 
ATOM     69  O   UNL A   1      40.637  22.524  26.498  1.00  0.00    -0.237 OA
ATOM     70  O   UNL A   1      42.705  22.312  25.180  1.00  0.00    -0.237 OA
ATOM     71  O   UNL A   1      42.799  22.174  27.631  1.00  0.00    -0.744 OA
ENDBRANCH  65  68
ENDBRANCH  47  61
BRANCH  48  72
ATOM     72  C   UNL A   1      38.956  32.114  35.267  1.00  0.00     0.023 A 
ATOM     73  C   UNL A   1      39.043  33.520  35.253  1.00  0.00     0.012 A 
ATOM     74  C   UNL A   1      38.391  31.472  36.385  1.00  0.00     0.148 A 
ATOM     75  C   UNL A   1      38.608  34.270  36.346  1.00  0.00     0.002 A 
ATOM     76  C   UNL A   1      37.907  32.228  37.447  1.00  0.00     0.091 A 
ATOM     77  F   UNL A   1      38.325  30.133  36.383  1.00  0.00    -0.205 F 
ATOM     78  C   UNL A   1      38.032  33.626  37.438  1.00  0.00     0.022 A 
BRANCH  76  79
ATOM     79  S   UNL A   1      37.032  31.495  38.834  1.00  0.00     0.127 S 
ATOM     80  O   UNL A   1      38.012  31.626  39.908  1.00  0.00    -0.237 OA
ATOM     81  O   UNL A   1      35.866  32.372  38.950  1.00  0.00    -0.237 OA
ATOM     82  O   UNL A   1      36.719  30.132  38.427  1.00  0.00    -0.744 OA
ENDBRANCH  76  79
ENDBRANCH  48  72
BRANCH  60  83
ATOM     83  C   UNL A   1      44.843  28.609  33.906  1.00  0.00     0.023 A 
ATOM     84  C   UNL A   1      45.906  29.528  33.803  1.00  0.00     0.012 A 
ATOM     85  C   UNL A   1      44.948  27.529  34.805  1.00  0.00     0.148 A 
ATOM     86  C   UNL A   1      47.067  29.356  34.555  1.00  0.00     0.002 A 
ATOM     87  C   UNL A   1      46.086  27.393  35.590  1.00  0.00     0.091 A 
ATOM     88  F   UNL A   1      43.933  26.655  34.876  1.00  0.00    -0.205 F 
ATOM     89  C   UNL A   1      47.152  28.298  35.458  1.00  0.00     0.022 A 
BRANCH  87  90
ATOM     90  S   UNL A   1      46.243  26.121  36.849  1.00  0.00     0.127 S 
ATOM     91  O   UNL A   1      46.177  24.900  36.048  1.00  0.00    -0.237 OA
ATOM     92  O   UNL A   1      47.561  26.409  37.415  1.00  0.00    -0.237 OA
ATOM     93  O   UNL A   1      45.132  26.324  37.769  1.00  0.00    -0.744 OA
ENDBRANCH  87  90
ENDBRANCH  60  83
ENDBRANCH  34  35
ENDBRANCH  26  29
ENDBRANCH  24  25
ENDBRANCH  23  24
ENDBRANCH  22  23
ENDBRANCH  21  22
ENDBRANCH   1  21
TORSDOF 22
ENDMDL
