MODEL 1
REMARK VINA RESULT:     -11.9      0.000      0.000
REMARK SMILES CCn1nc(-c2cccnc2)c2cc(C(=O)NCCCCCCNC(=O)c3ccc(-c4c5nc(c(-c6cccc(S(=O)(=O)[O-])c6F)c6ccc([nH]6)c(-c6cccc(S(=O)(=O)[O-])c6F)c6nc(c(-c7cccc(S(=O)(=O)[O-])c7F)c7ccc4[nH]7)C=C6)C=C5)cc3)sc21
REMARK SMILES IDX 21 1 20 2 19 3 18 4 17 5 15 6 16 7 14 9 3 10 4 11 91 12 5 13
REMARK SMILES IDX 12 14 90 15 13 16 2 17 1 18 6 19 7 20 11 21 8 22 10 23 9 24
REMARK SMILES IDX 22 25 23 26 24 27 25 28 26 30 27 31 28 32 89 33 29 34 88 35
REMARK SMILES IDX 30 36 31 37 32 38 82 39 33 40 87 41 81 42 83 43 34 44 86 45
REMARK SMILES IDX 80 46 79 47 35 49 67 50 47 51 66 52 48 53 51 54 65 55 84 56
REMARK SMILES IDX 49 57 50 58 64 60 85 61 52 62 36 63 37 64 45 65 38 66 40 67
REMARK SMILES IDX 46 68 39 69 41 70 42 71 43 72 44 73 68 74 69 75 77 76 70 77
REMARK SMILES IDX 72 78 78 79 71 80 73 81 74 82 75 83 76 84 53 85 54 86 62 87
REMARK SMILES IDX 55 88 57 89 63 90 56 91 58 92 59 93 60 94 61 95
REMARK H PARENT 17 8 24 29 83 48 51 59
REMARK Flexibility Score: inf
ROOT
ATOM      1  C   UNL A   1      32.603  28.997  25.597  1.00  0.00     0.002 C 
ENDROOT
BRANCH   1   2
ATOM      2  C   UNL A   1      31.480  29.542  24.697  1.00  0.00     0.002 C 
BRANCH   2   3
ATOM      3  C   UNL A   1      31.269  28.798  23.373  1.00  0.00     0.021 C 
BRANCH   3   4
ATOM      4  C   UNL A   1      31.713  27.335  23.427  1.00  0.00     0.116 C 
BRANCH   4   5
ATOM      5  N   UNL A   1      32.308  26.906  22.171  1.00  0.00    -0.351 N 
ATOM      6  C   UNL A   1      32.944  25.749  21.774  1.00  0.00     0.261 C 
ATOM      7  O   UNL A   1      33.214  25.695  20.569  1.00  0.00    -0.268 OA
ATOM      8  H   UNL A   1      32.244  27.583  21.458  1.00  0.00     0.163 HD
BRANCH   6   9
ATOM      9  C   UNL A   1      33.207  24.622  22.663  1.00  0.00     0.095 A 
ATOM     10  N   UNL A   1      33.381  21.191  24.121  1.00  0.00    -0.254 N 
ATOM     11  N   UNL A   1      34.620  21.004  24.664  1.00  0.00    -0.171 NA
ATOM     12  C   UNL A   1      33.217  22.461  23.706  1.00  0.00     0.122 A 
ATOM     13  C   UNL A   1      35.201  22.236  24.626  1.00  0.00     0.103 A 
ATOM     14  C   UNL A   1      34.361  23.104  23.924  1.00  0.00     0.040 A 
ATOM     15  S   UNL A   1      32.037  23.381  23.018  1.00  0.00    -0.110 S 
ATOM     16  C   UNL A   1      34.399  24.388  23.378  1.00  0.00     0.038 A 
BRANCH  10  17
ATOM     17  C   UNL A   1      32.507  20.072  23.836  1.00  0.00     0.142 C 
ATOM     18  C   UNL A   1      33.144  18.735  24.142  1.00  0.00     0.029 C 
ENDBRANCH  10  17
BRANCH  13  19
ATOM     19  C   UNL A   1      36.482  22.473  25.267  1.00  0.00     0.021 A 
ATOM     20  C   UNL A   1      36.775  23.693  25.878  1.00  0.00     0.013 A 
ATOM     21  C   UNL A   1      37.499  21.525  25.206  1.00  0.00     0.121 A 
ATOM     22  C   UNL A   1      38.049  23.918  26.397  1.00  0.00     0.021 A 
ATOM     23  N   UNL A   1      38.743  21.710  25.717  1.00  0.00    -0.264 NA
ATOM     24  C   UNL A   1      38.990  22.907  26.287  1.00  0.00     0.111 A 
ENDBRANCH  13  19
ENDBRANCH   6   9
ENDBRANCH   4   5
ENDBRANCH   3   4
ENDBRANCH   2   3
ENDBRANCH   1   2
BRANCH   1  25
ATOM     25  C   UNL A   1      32.751  29.657  26.976  1.00  0.00     0.021 C 
BRANCH  25  26
ATOM     26  C   UNL A   1      34.180  30.066  27.300  1.00  0.00     0.116 C 
BRANCH  26  27
ATOM     27  N   UNL A   1      34.228  31.205  28.217  1.00  0.00    -0.352 N 
ATOM     28  C   UNL A   1      35.092  31.421  29.273  1.00  0.00     0.251 C 
ATOM     29  H   UNL A   1      33.557  31.909  28.061  1.00  0.00     0.163 HD
ATOM     30  O   UNL A   1      34.809  32.205  30.163  1.00  0.00    -0.269 OA
BRANCH  28  31
ATOM     31  C   UNL A   1      36.366  30.678  29.297  1.00  0.00     0.039 A 
ATOM     32  C   UNL A   1      37.517  31.200  28.703  1.00  0.00     0.014 A 
ATOM     33  C   UNL A   1      36.396  29.453  29.958  1.00  0.00     0.014 A 
ATOM     34  C   UNL A   1      38.716  30.512  28.858  1.00  0.00     0.010 A 
ATOM     35  C   UNL A   1      37.600  28.866  30.249  1.00  0.00     0.010 A 
ATOM     36  C   UNL A   1      38.755  29.357  29.659  1.00  0.00    -0.014 A 
BRANCH  36  37
ATOM     37  C   UNL A   1      40.026  28.715  29.974  1.00  0.00     0.031 A 
ATOM     38  C   UNL A   1      40.444  28.857  31.394  1.00  0.00     0.074 A 
ATOM     39  C   UNL A   1      40.695  27.917  29.116  1.00  0.00     0.049 A 
ATOM     40  N   UNL A   1      41.382  29.617  31.850  1.00  0.00    -0.248 NA
ATOM     41  C   UNL A   1      39.632  28.220  32.442  1.00  0.00     0.031 C 
ATOM     42  C   UNL A   1      40.266  27.432  27.797  1.00  0.00     0.029 A 
ATOM     43  N   UNL A   1      41.871  27.258  29.303  1.00  0.00    -0.354 N 
ATOM     44  C   UNL A   1      41.446  29.361  33.216  1.00  0.00     0.074 A 
ATOM     45  C   UNL A   1      40.230  28.667  33.549  1.00  0.00     0.031 C 
ATOM     46  C   UNL A   1      41.028  26.377  27.432  1.00  0.00     0.029 A 
ATOM     47  C   UNL A   1      42.106  26.234  28.391  1.00  0.00     0.049 A 
ATOM     48  H   UNL A   1      42.501  27.485  30.025  1.00  0.00     0.167 HD
ATOM     49  C   UNL A   1      42.611  29.523  33.904  1.00  0.00     0.034 A 
ATOM     50  C   UNL A   1      43.102  25.316  28.441  1.00  0.00     0.034 A 
ATOM     51  C   UNL A   1      43.589  30.226  33.111  1.00  0.00     0.049 A 
ATOM     52  C   UNL A   1      44.171  25.888  29.289  1.00  0.00     0.074 A 
ATOM     53  C   UNL A   1      43.659  31.467  32.512  1.00  0.00     0.029 A 
ATOM     54  N   UNL A   1      44.547  29.452  32.502  1.00  0.00    -0.354 N 
ATOM     55  N   UNL A   1      44.866  26.937  28.949  1.00  0.00    -0.248 NA
ATOM     56  C   UNL A   1      44.175  25.561  30.703  1.00  0.00     0.031 C 
ATOM     57  C   UNL A   1      44.322  31.235  31.270  1.00  0.00     0.029 A 
ATOM     58  C   UNL A   1      44.686  29.888  31.213  1.00  0.00     0.049 A 
ATOM     59  H   UNL A   1      45.046  28.714  32.922  1.00  0.00     0.167 HD
ATOM     60  C   UNL A   1      44.981  27.661  30.128  1.00  0.00     0.074 A 
ATOM     61  C   UNL A   1      44.650  26.711  31.189  1.00  0.00     0.031 C 
ATOM     62  C   UNL A   1      45.041  29.025  30.107  1.00  0.00     0.034 A 
BRANCH  49  63
ATOM     63  C   UNL A   1      43.034  28.733  35.121  1.00  0.00     0.023 A 
ATOM     64  C   UNL A   1      43.577  29.463  36.204  1.00  0.00     0.012 A 
ATOM     65  C   UNL A   1      43.193  27.330  35.151  1.00  0.00     0.148 A 
ATOM     66  C   UNL A   1      44.294  28.837  37.228  1.00  0.00     0.002 A 
ATOM     67  C   UNL A   1      43.840  26.704  36.212  1.00  0.00     0.091 A 
ATOM     68  F   UNL A   1      42.838  26.594  34.096  1.00  0.00    -0.205 F 
ATOM     69  C   UNL A   1      44.422  27.455  37.235  1.00  0.00     0.022 A 
BRANCH  67  70
ATOM     70  S   UNL A   1      44.001  24.915  36.299  1.00  0.00     0.127 S 
ATOM     71  O   UNL A   1      42.617  24.488  36.123  1.00  0.00    -0.237 OA
ATOM     72  O   UNL A   1      44.886  24.643  35.166  1.00  0.00    -0.237 OA
ATOM     73  O   UNL A   1      44.595  24.637  37.601  1.00  0.00    -0.744 OA
ENDBRANCH  67  70
ENDBRANCH  49  63
BRANCH  50  74
ATOM     74  C   UNL A   1      43.108  23.894  28.031  1.00  0.00     0.023 A 
ATOM     75  C   UNL A   1      42.105  23.026  28.506  1.00  0.00     0.012 A 
ATOM     76  C   UNL A   1      43.900  23.468  26.942  1.00  0.00     0.148 A 
ATOM     77  C   UNL A   1      41.866  21.793  27.887  1.00  0.00     0.002 A 
ATOM     78  C   UNL A   1      43.657  22.243  26.328  1.00  0.00     0.091 A 
ATOM     79  F   UNL A   1      44.822  24.307  26.449  1.00  0.00    -0.205 F 
ATOM     80  C   UNL A   1      42.632  21.408  26.791  1.00  0.00     0.022 A 
BRANCH  78  81
ATOM     81  S   UNL A   1      44.571  21.701  24.878  1.00  0.00     0.127 S 
ATOM     82  O   UNL A   1      44.148  22.678  23.874  1.00  0.00    -0.237 OA
ATOM     83  O   UNL A   1      45.954  21.838  25.325  1.00  0.00    -0.237 OA
ATOM     84  O   UNL A   1      44.128  20.338  24.613  1.00  0.00    -0.744 OA
ENDBRANCH  78  81
ENDBRANCH  50  74
BRANCH  62  85
ATOM     85  C   UNL A   1      45.268  29.703  28.778  1.00  0.00     0.023 A 
ATOM     86  C   UNL A   1      44.225  29.962  27.862  1.00  0.00     0.012 A 
ATOM     87  C   UNL A   1      46.542  30.235  28.522  1.00  0.00     0.148 A 
ATOM     88  C   UNL A   1      44.458  30.715  26.707  1.00  0.00     0.002 A 
ATOM     89  C   UNL A   1      46.757  31.024  27.399  1.00  0.00     0.091 A 
ATOM     90  F   UNL A   1      47.521  29.981  29.404  1.00  0.00    -0.205 F 
ATOM     91  C   UNL A   1      45.721  31.258  26.483  1.00  0.00     0.022 A 
BRANCH  89  92
ATOM     92  S   UNL A   1      48.326  31.849  27.126  1.00  0.00     0.127 S 
ATOM     93  O   UNL A   1      48.607  32.414  28.443  1.00  0.00    -0.237 OA
ATOM     94  O   UNL A   1      49.199  30.741  26.736  1.00  0.00    -0.237 OA
ATOM     95  O   UNL A   1      48.089  32.819  26.063  1.00  0.00    -0.744 OA
ENDBRANCH  89  92
ENDBRANCH  62  85
ENDBRANCH  36  37
ENDBRANCH  28  31
ENDBRANCH  26  27
ENDBRANCH  25  26
ENDBRANCH   1  25
TORSDOF 18
ENDMDL
MODEL 2
REMARK VINA RESULT:     -11.8      2.529      7.990
REMARK SMILES CCn1nc(-c2cccnc2)c2cc(C(=O)NCCCCCCNC(=O)c3ccc(-c4c5nc(c(-c6cccc(S(=O)(=O)[O-])c6F)c6ccc([nH]6)c(-c6cccc(S(=O)(=O)[O-])c6F)c6nc(c(-c7cccc(S(=O)(=O)[O-])c7F)c7ccc4[nH]7)C=C6)C=C5)cc3)sc21
REMARK SMILES IDX 21 1 20 2 19 3 18 4 17 5 15 6 16 7 14 9 3 10 4 11 91 12 5 13
REMARK SMILES IDX 12 14 90 15 13 16 2 17 1 18 6 19 7 20 11 21 8 22 10 23 9 24
REMARK SMILES IDX 22 25 23 26 24 27 25 28 26 30 27 31 28 32 89 33 29 34 88 35
REMARK SMILES IDX 30 36 31 37 32 38 82 39 33 40 87 41 81 42 83 43 34 44 86 45
REMARK SMILES IDX 80 46 79 47 35 49 67 50 47 51 66 52 48 53 51 54 65 55 84 56
REMARK SMILES IDX 49 57 50 58 64 60 85 61 52 62 36 63 37 64 45 65 38 66 40 67
REMARK SMILES IDX 46 68 39 69 41 70 42 71 43 72 44 73 68 74 69 75 77 76 70 77
REMARK SMILES IDX 72 78 78 79 71 80 73 81 74 82 75 83 76 84 53 85 54 86 62 87
REMARK SMILES IDX 55 88 57 89 63 90 56 91 58 92 59 93 60 94 61 95
REMARK H PARENT 17 8 24 29 83 48 51 59
REMARK Flexibility Score: inf
ROOT
ATOM      1  C   UNL A   1      36.963  20.355  25.088  1.00  0.00     0.002 C 
ENDROOT
BRANCH   1   2
ATOM      2  C   UNL A   1      36.600  21.590  24.245  1.00  0.00     0.002 C 
BRANCH   2   3
ATOM      3  C   UNL A   1      37.189  22.921  24.729  1.00  0.00     0.021 C 
BRANCH   3   4
ATOM      4  C   UNL A   1      36.814  23.258  26.173  1.00  0.00     0.116 C 
BRANCH   4   5
ATOM      5  N   UNL A   1      35.530  22.684  26.544  1.00  0.00    -0.351 N 
ATOM      6  C   UNL A   1      34.226  23.020  26.247  1.00  0.00     0.261 C 
ATOM      7  O   UNL A   1      33.381  22.212  26.649  1.00  0.00    -0.268 OA
ATOM      8  H   UNL A   1      35.609  21.895  27.127  1.00  0.00     0.163 HD
BRANCH   6   9
ATOM      9  C   UNL A   1      33.849  24.179  25.444  1.00  0.00     0.095 A 
ATOM     10  N   UNL A   1      32.219  26.398  22.924  1.00  0.00    -0.254 N 
ATOM     11  N   UNL A   1      31.910  27.588  23.519  1.00  0.00    -0.171 NA
ATOM     12  C   UNL A   1      32.936  25.612  23.750  1.00  0.00     0.122 A 
ATOM     13  C   UNL A   1      32.522  27.534  24.734  1.00  0.00     0.103 A 
ATOM     14  C   UNL A   1      33.058  26.255  24.908  1.00  0.00     0.040 A 
ATOM     15  S   UNL A   1      33.652  24.130  23.715  1.00  0.00    -0.110 S 
ATOM     16  C   UNL A   1      33.627  25.486  25.925  1.00  0.00     0.038 A 
BRANCH  10  17
ATOM     17  C   UNL A   1      31.615  26.002  21.669  1.00  0.00     0.142 C 
ATOM     18  C   UNL A   1      32.634  25.754  20.580  1.00  0.00     0.029 C 
ENDBRANCH  10  17
BRANCH  13  19
ATOM     19  C   UNL A   1      32.552  28.697  25.603  1.00  0.00     0.021 A 
ATOM     20  C   UNL A   1      31.624  29.731  25.466  1.00  0.00     0.013 A 
ATOM     21  C   UNL A   1      33.569  28.868  26.537  1.00  0.00     0.121 A 
ATOM     22  C   UNL A   1      31.743  30.875  26.253  1.00  0.00     0.021 A 
ATOM     23  N   UNL A   1      33.701  29.963  27.328  1.00  0.00    -0.264 NA
ATOM     24  C   UNL A   1      32.792  30.945  27.155  1.00  0.00     0.111 A 
ENDBRANCH  13  19
ENDBRANCH   6   9
ENDBRANCH   4   5
ENDBRANCH   3   4
ENDBRANCH   2   3
ENDBRANCH   1   2
BRANCH   1  25
ATOM     25  C   UNL A   1      38.340  19.728  24.819  1.00  0.00     0.021 C 
BRANCH  25  26
ATOM     26  C   UNL A   1      39.369  20.046  25.892  1.00  0.00     0.116 C 
BRANCH  26  27
ATOM     27  N   UNL A   1      40.567  19.216  25.763  1.00  0.00    -0.352 N 
ATOM     28  C   UNL A   1      41.891  19.603  25.839  1.00  0.00     0.251 C 
ATOM     29  H   UNL A   1      40.409  18.258  25.601  1.00  0.00     0.163 HD
ATOM     30  O   UNL A   1      42.774  18.908  25.366  1.00  0.00    -0.269 OA
BRANCH  28  31
ATOM     31  C   UNL A   1      42.210  20.879  26.508  1.00  0.00     0.039 A 
ATOM     32  C   UNL A   1      42.538  22.018  25.771  1.00  0.00     0.014 A 
ATOM     33  C   UNL A   1      42.142  20.922  27.898  1.00  0.00     0.014 A 
ATOM     34  C   UNL A   1      42.713  23.221  26.447  1.00  0.00     0.010 A 
ATOM     35  C   UNL A   1      42.152  22.132  28.543  1.00  0.00     0.010 A 
ATOM     36  C   UNL A   1      42.491  23.276  27.834  1.00  0.00    -0.014 A 
BRANCH  36  37
ATOM     37  C   UNL A   1      42.502  24.553  28.538  1.00  0.00     0.031 A 
ATOM     38  C   UNL A   1      41.294  25.388  28.307  1.00  0.00     0.074 A 
ATOM     39  C   UNL A   1      43.434  24.895  29.453  1.00  0.00     0.049 A 
ATOM     40  N   UNL A   1      41.219  26.452  27.581  1.00  0.00    -0.248 NA
ATOM     41  C   UNL A   1      39.992  24.904  28.791  1.00  0.00     0.031 C 
ATOM     42  C   UNL A   1      44.508  24.065  30.016  1.00  0.00     0.029 A 
ATOM     43  N   UNL A   1      43.537  26.042  30.178  1.00  0.00    -0.354 N 
ATOM     44  C   UNL A   1      39.915  26.916  27.723  1.00  0.00     0.074 A 
ATOM     45  C   UNL A   1      39.165  25.828  28.295  1.00  0.00     0.031 C 
ATOM     46  C   UNL A   1      44.972  24.634  31.151  1.00  0.00     0.029 A 
ATOM     47  C   UNL A   1      44.368  25.945  31.290  1.00  0.00     0.049 A 
ATOM     48  H   UNL A   1      43.063  26.870  29.937  1.00  0.00     0.167 HD
ATOM     49  C   UNL A   1      39.625  28.240  27.589  1.00  0.00     0.034 A 
ATOM     50  C   UNL A   1      44.521  26.867  32.270  1.00  0.00     0.034 A 
ATOM     51  C   UNL A   1      40.741  28.962  27.029  1.00  0.00     0.049 A 
ATOM     52  C   UNL A   1      44.093  28.167  31.708  1.00  0.00     0.074 A 
ATOM     53  C   UNL A   1      41.459  28.902  25.852  1.00  0.00     0.029 A 
ATOM     54  N   UNL A   1      41.523  29.656  27.920  1.00  0.00    -0.354 N 
ATOM     55  N   UNL A   1      44.731  28.772  30.746  1.00  0.00    -0.248 NA
ATOM     56  C   UNL A   1      42.719  28.585  31.913  1.00  0.00     0.031 C 
ATOM     57  C   UNL A   1      42.811  29.146  26.237  1.00  0.00     0.029 A 
ATOM     58  C   UNL A   1      42.834  29.416  27.607  1.00  0.00     0.049 A 
ATOM     59  H   UNL A   1      41.198  30.225  28.655  1.00  0.00     0.167 HD
ATOM     60  C   UNL A   1      43.721  29.270  29.934  1.00  0.00     0.074 A 
ATOM     61  C   UNL A   1      42.517  29.235  30.763  1.00  0.00     0.031 C 
ATOM     62  C   UNL A   1      43.899  29.382  28.585  1.00  0.00     0.034 A 
BRANCH  49  63
ATOM     63  C   UNL A   1      38.513  28.977  28.300  1.00  0.00     0.023 A 
ATOM     64  C   UNL A   1      37.696  29.821  27.514  1.00  0.00     0.012 A 
ATOM     65  C   UNL A   1      38.408  29.109  29.703  1.00  0.00     0.148 A 
ATOM     66  C   UNL A   1      36.866  30.788  28.091  1.00  0.00     0.002 A 
ATOM     67  C   UNL A   1      37.525  30.019  30.273  1.00  0.00     0.091 A 
ATOM     68  F   UNL A   1      39.253  28.453  30.502  1.00  0.00    -0.205 F 
ATOM     69  C   UNL A   1      36.776  30.884  29.473  1.00  0.00     0.022 A 
BRANCH  67  70
ATOM     70  S   UNL A   1      37.332  30.162  32.055  1.00  0.00     0.127 S 
ATOM     71  O   UNL A   1      37.030  28.784  32.429  1.00  0.00    -0.237 OA
ATOM     72  O   UNL A   1      38.656  30.640  32.458  1.00  0.00    -0.237 OA
ATOM     73  O   UNL A   1      36.262  31.129  32.260  1.00  0.00    -0.744 OA
ENDBRANCH  67  70
ENDBRANCH  49  63
BRANCH  50  74
ATOM     74  C   UNL A   1      44.765  26.687  33.719  1.00  0.00     0.023 A 
ATOM     75  C   UNL A   1      45.983  27.118  34.281  1.00  0.00     0.012 A 
ATOM     76  C   UNL A   1      43.697  26.384  34.592  1.00  0.00     0.148 A 
ATOM     77  C   UNL A   1      46.119  27.289  35.664  1.00  0.00     0.002 A 
ATOM     78  C   UNL A   1      43.836  26.558  35.965  1.00  0.00     0.091 A 
ATOM     79  F   UNL A   1      42.519  26.023  34.066  1.00  0.00    -0.205 F 
ATOM     80  C   UNL A   1      45.042  27.023  36.504  1.00  0.00     0.022 A 
BRANCH  78  81
ATOM     81  S   UNL A   1      42.474  26.282  37.108  1.00  0.00     0.127 S 
ATOM     82  O   UNL A   1      41.541  27.341  36.723  1.00  0.00    -0.237 OA
ATOM     83  O   UNL A   1      42.053  24.931  36.751  1.00  0.00    -0.237 OA
ATOM     84  O   UNL A   1      43.037  26.434  38.443  1.00  0.00    -0.744 OA
ENDBRANCH  78  81
ENDBRANCH  50  74
BRANCH  62  85
ATOM     85  C   UNL A   1      45.298  29.224  28.041  1.00  0.00     0.023 A 
ATOM     86  C   UNL A   1      46.254  30.263  28.069  1.00  0.00     0.012 A 
ATOM     87  C   UNL A   1      45.704  27.942  27.638  1.00  0.00     0.148 A 
ATOM     88  C   UNL A   1      47.577  30.029  27.682  1.00  0.00     0.002 A 
ATOM     89  C   UNL A   1      47.030  27.702  27.300  1.00  0.00     0.091 A 
ATOM     90  F   UNL A   1      44.784  26.965  27.617  1.00  0.00    -0.205 F 
ATOM     91  C   UNL A   1      47.968  28.745  27.311  1.00  0.00     0.022 A 
BRANCH  89  92
ATOM     92  S   UNL A   1      47.615  26.046  26.935  1.00  0.00     0.127 S 
ATOM     93  O   UNL A   1      46.927  25.749  25.682  1.00  0.00    -0.237 OA
ATOM     94  O   UNL A   1      49.060  26.245  26.809  1.00  0.00    -0.237 OA
ATOM     95  O   UNL A   1      47.228  25.223  28.075  1.00  0.00    -0.744 OA
ENDBRANCH  89  92
ENDBRANCH  62  85
ENDBRANCH  36  37
ENDBRANCH  28  31
ENDBRANCH  26  27
ENDBRANCH  25  26
ENDBRANCH   1  25
TORSDOF 18
ENDMDL
MODEL 3
REMARK VINA RESULT:     -11.7      3.192      9.283
REMARK SMILES CCn1nc(-c2cccnc2)c2cc(C(=O)NCCCCCCNC(=O)c3ccc(-c4c5nc(c(-c6cccc(S(=O)(=O)[O-])c6F)c6ccc([nH]6)c(-c6cccc(S(=O)(=O)[O-])c6F)c6nc(c(-c7cccc(S(=O)(=O)[O-])c7F)c7ccc4[nH]7)C=C6)C=C5)cc3)sc21
REMARK SMILES IDX 21 1 20 2 19 3 18 4 17 5 15 6 16 7 14 9 3 10 4 11 91 12 5 13
REMARK SMILES IDX 12 14 90 15 13 16 2 17 1 18 6 19 7 20 11 21 8 22 10 23 9 24
REMARK SMILES IDX 22 25 23 26 24 27 25 28 26 30 27 31 28 32 89 33 29 34 88 35
REMARK SMILES IDX 30 36 31 37 32 38 82 39 33 40 87 41 81 42 83 43 34 44 86 45
REMARK SMILES IDX 80 46 79 47 35 49 67 50 47 51 66 52 48 53 51 54 65 55 84 56
REMARK SMILES IDX 49 57 50 58 64 60 85 61 52 62 36 63 37 64 45 65 38 66 40 67
REMARK SMILES IDX 46 68 39 69 41 70 42 71 43 72 44 73 68 74 69 75 77 76 70 77
REMARK SMILES IDX 72 78 78 79 71 80 73 81 74 82 75 83 76 84 53 85 54 86 62 87
REMARK SMILES IDX 55 88 57 89 63 90 56 91 58 92 59 93 60 94 61 95
REMARK H PARENT 17 8 24 29 83 48 51 59
REMARK Flexibility Score: inf
ROOT
ATOM      1  C   UNL A   1      35.391  21.896  24.632  1.00  0.00     0.002 C 
ENDROOT
BRANCH   1   2
ATOM      2  C   UNL A   1      34.430  22.670  23.712  1.00  0.00     0.002 C 
BRANCH   2   3
ATOM      3  C   UNL A   1      33.000  22.122  23.632  1.00  0.00     0.021 C 
BRANCH   3   4
ATOM      4  C   UNL A   1      31.985  23.152  23.134  1.00  0.00     0.116 C 
BRANCH   4   5
ATOM      5  N   UNL A   1      32.529  23.968  22.060  1.00  0.00    -0.351 N 
ATOM      6  C   UNL A   1      32.624  25.330  21.865  1.00  0.00     0.261 C 
ATOM      7  O   UNL A   1      33.273  25.664  20.868  1.00  0.00    -0.268 OA
ATOM      8  H   UNL A   1      32.907  23.439  21.321  1.00  0.00     0.163 HD
BRANCH   6   9
ATOM      9  C   UNL A   1      32.092  26.322  22.794  1.00  0.00     0.095 A 
ATOM     10  N   UNL A   1      31.769  28.837  25.532  1.00  0.00    -0.254 N 
ATOM     11  N   UNL A   1      31.029  29.891  25.078  1.00  0.00    -0.171 NA
ATOM     12  C   UNL A   1      31.798  27.837  24.631  1.00  0.00     0.122 A 
ATOM     13  C   UNL A   1      30.544  29.477  23.875  1.00  0.00     0.103 A 
ATOM     14  C   UNL A   1      31.123  28.246  23.559  1.00  0.00     0.040 A 
ATOM     15  S   UNL A   1      32.430  26.322  24.502  1.00  0.00    -0.110 S 
ATOM     16  C   UNL A   1      31.219  27.380  22.468  1.00  0.00     0.038 A 
BRANCH  10  17
ATOM     17  C   UNL A   1      32.587  28.947  26.721  1.00  0.00     0.142 C 
ATOM     18  C   UNL A   1      34.065  29.045  26.411  1.00  0.00     0.029 C 
ENDBRANCH  10  17
BRANCH  13  19
ATOM     19  C   UNL A   1      29.573  30.278  23.151  1.00  0.00     0.021 A 
ATOM     20  C   UNL A   1      29.297  30.044  21.803  1.00  0.00     0.013 A 
ATOM     21  C   UNL A   1      28.956  31.372  23.751  1.00  0.00     0.121 A 
ATOM     22  C   UNL A   1      28.431  30.894  21.116  1.00  0.00     0.021 A 
ATOM     23  N   UNL A   1      28.097  32.207  23.113  1.00  0.00    -0.264 NA
ATOM     24  C   UNL A   1      27.868  31.955  21.808  1.00  0.00     0.111 A 
ENDBRANCH  13  19
ENDBRANCH   6   9
ENDBRANCH   4   5
ENDBRANCH   3   4
ENDBRANCH   2   3
ENDBRANCH   1   2
BRANCH   1  25
ATOM     25  C   UNL A   1      36.890  22.169  24.434  1.00  0.00     0.021 C 
BRANCH  25  26
ATOM     26  C   UNL A   1      37.549  22.825  25.636  1.00  0.00     0.116 C 
BRANCH  26  27
ATOM     27  N   UNL A   1      38.520  21.939  26.279  1.00  0.00    -0.352 N 
ATOM     28  C   UNL A   1      39.746  22.263  26.827  1.00  0.00     0.251 C 
ATOM     29  H   UNL A   1      38.266  20.989  26.327  1.00  0.00     0.163 HD
ATOM     30  O   UNL A   1      40.599  21.409  27.000  1.00  0.00    -0.269 OA
BRANCH  28  31
ATOM     31  C   UNL A   1      39.997  23.668  27.198  1.00  0.00     0.039 A 
ATOM     32  C   UNL A   1      39.065  24.668  26.913  1.00  0.00     0.014 A 
ATOM     33  C   UNL A   1      41.179  23.965  27.871  1.00  0.00     0.014 A 
ATOM     34  C   UNL A   1      39.300  25.954  27.390  1.00  0.00     0.010 A 
ATOM     35  C   UNL A   1      41.329  25.185  28.479  1.00  0.00     0.010 A 
ATOM     36  C   UNL A   1      40.424  26.199  28.199  1.00  0.00    -0.014 A 
BRANCH  36  37
ATOM     37  C   UNL A   1      40.603  27.492  28.848  1.00  0.00     0.031 A 
ATOM     38  C   UNL A   1      41.625  28.360  28.205  1.00  0.00     0.074 A 
ATOM     39  C   UNL A   1      39.809  27.949  29.840  1.00  0.00     0.049 A 
ATOM     40  N   UNL A   1      42.805  28.626  28.655  1.00  0.00    -0.248 NA
ATOM     41  C   UNL A   1      41.383  28.853  26.841  1.00  0.00     0.031 C 
ATOM     42  C   UNL A   1      38.578  27.348  30.372  1.00  0.00     0.029 A 
ATOM     43  N   UNL A   1      39.870  29.133  30.505  1.00  0.00    -0.354 N 
ATOM     44  C   UNL A   1      43.360  29.526  27.751  1.00  0.00     0.074 A 
ATOM     45  C   UNL A   1      42.539  29.464  26.571  1.00  0.00     0.031 C 
ATOM     46  C   UNL A   1      37.888  28.277  31.072  1.00  0.00     0.029 A 
ATOM     47  C   UNL A   1      38.708  29.466  31.194  1.00  0.00     0.049 A 
ATOM     48  H   UNL A   1      40.669  29.708  30.498  1.00  0.00     0.167 HD
ATOM     49  C   UNL A   1      44.300  30.428  28.150  1.00  0.00     0.034 A 
ATOM     50  C   UNL A   1      38.432  30.647  31.796  1.00  0.00     0.034 A 
ATOM     51  C   UNL A   1      44.793  30.115  29.470  1.00  0.00     0.049 A 
ATOM     52  C   UNL A   1      39.729  31.310  32.057  1.00  0.00     0.074 A 
ATOM     53  C   UNL A   1      45.438  29.041  30.048  1.00  0.00     0.029 A 
ATOM     54  N   UNL A   1      44.261  30.846  30.505  1.00  0.00    -0.354 N 
ATOM     55  N   UNL A   1      40.610  30.845  32.897  1.00  0.00    -0.248 NA
ATOM     56  C   UNL A   1      40.233  32.248  31.071  1.00  0.00     0.031 C 
ATOM     57  C   UNL A   1      44.865  28.930  31.350  1.00  0.00     0.029 A 
ATOM     58  C   UNL A   1      43.961  29.982  31.522  1.00  0.00     0.049 A 
ATOM     59  H   UNL A   1      44.122  31.821  30.512  1.00  0.00     0.167 HD
ATOM     60  C   UNL A   1      41.825  31.041  32.253  1.00  0.00     0.074 A 
ATOM     61  C   UNL A   1      41.542  32.015  31.201  1.00  0.00     0.031 C 
ATOM     62  C   UNL A   1      42.865  30.178  32.445  1.00  0.00     0.034 A 
BRANCH  49  63
ATOM     63  C   UNL A   1      44.515  31.801  27.557  1.00  0.00     0.023 A 
ATOM     64  C   UNL A   1      45.705  32.004  26.820  1.00  0.00     0.012 A 
ATOM     65  C   UNL A   1      43.779  32.952  27.913  1.00  0.00     0.148 A 
ATOM     66  C   UNL A   1      46.169  33.286  26.508  1.00  0.00     0.002 A 
ATOM     67  C   UNL A   1      44.204  34.222  27.535  1.00  0.00     0.091 A 
ATOM     68  F   UNL A   1      42.729  32.848  28.732  1.00  0.00    -0.205 F 
ATOM     69  C   UNL A   1      45.415  34.397  26.862  1.00  0.00     0.022 A 
BRANCH  67  70
ATOM     70  S   UNL A   1      43.251  35.695  27.926  1.00  0.00     0.127 S 
ATOM     71  O   UNL A   1      42.921  35.466  29.329  1.00  0.00    -0.237 OA
ATOM     72  O   UNL A   1      44.232  36.754  27.682  1.00  0.00    -0.237 OA
ATOM     73  O   UNL A   1      42.129  35.697  26.997  1.00  0.00    -0.744 OA
ENDBRANCH  67  70
ENDBRANCH  49  63
BRANCH  50  74
ATOM     74  C   UNL A   1      37.146  31.366  31.939  1.00  0.00     0.023 A 
ATOM     75  C   UNL A   1      36.753  31.849  33.203  1.00  0.00     0.012 A 
ATOM     76  C   UNL A   1      36.466  31.848  30.799  1.00  0.00     0.148 A 
ATOM     77  C   UNL A   1      35.747  32.814  33.326  1.00  0.00     0.002 A 
ATOM     78  C   UNL A   1      35.468  32.809  30.925  1.00  0.00     0.091 A 
ATOM     79  F   UNL A   1      36.866  31.435  29.589  1.00  0.00    -0.205 F 
ATOM     80  C   UNL A   1      35.115  33.305  32.187  1.00  0.00     0.022 A 
BRANCH  78  81
ATOM     81  S   UNL A   1      34.643  33.525  29.497  1.00  0.00     0.127 S 
ATOM     82  O   UNL A   1      35.734  34.260  28.856  1.00  0.00    -0.237 OA
ATOM     83  O   UNL A   1      34.198  32.335  28.779  1.00  0.00    -0.237 OA
ATOM     84  O   UNL A   1      33.582  34.371  30.031  1.00  0.00    -0.744 OA
ENDBRANCH  78  81
ENDBRANCH  50  74
BRANCH  62  85
ATOM     85  C   UNL A   1      42.761  29.185  33.577  1.00  0.00     0.023 A 
ATOM     86  C   UNL A   1      42.157  27.917  33.432  1.00  0.00     0.012 A 
ATOM     87  C   UNL A   1      43.435  29.481  34.773  1.00  0.00     0.148 A 
ATOM     88  C   UNL A   1      42.207  26.977  34.466  1.00  0.00     0.002 A 
ATOM     89  C   UNL A   1      43.524  28.527  35.779  1.00  0.00     0.091 A 
ATOM     90  F   UNL A   1      44.005  30.689  34.894  1.00  0.00    -0.205 F 
ATOM     91  C   UNL A   1      42.903  27.278  35.635  1.00  0.00     0.022 A 
BRANCH  89  92
ATOM     92  S   UNL A   1      44.510  28.813  37.250  1.00  0.00     0.127 S 
ATOM     93  O   UNL A   1      44.293  27.582  38.006  1.00  0.00    -0.237 OA
ATOM     94  O   UNL A   1      45.858  28.963  36.699  1.00  0.00    -0.237 OA
ATOM     95  O   UNL A   1      43.980  30.026  37.859  1.00  0.00    -0.744 OA
ENDBRANCH  89  92
ENDBRANCH  62  85
ENDBRANCH  36  37
ENDBRANCH  28  31
ENDBRANCH  26  27
ENDBRANCH  25  26
ENDBRANCH   1  25
TORSDOF 18
ENDMDL
