MODEL 1
REMARK VINA RESULT:     -12.7      0.000      0.000
REMARK SMILES CC1(C)O[C@H]2C[C@H]3[C@@H]4CCC5=CC(=O)C=C[C@]5(C)[C@@]4(F)[C@H](O)C[C@@]3(C)[C@@]2(C(=O)NCCCCCCNC(=O)c2ccc(-c3c4nc(c(-c5cccc(S(=O)(=O)[O-])c5F)c5ccc([nH]5)c(-c5cccc(S(=O)(=O)[O-])c5F)c5nc(c(-c6cccc(S(=O)(=O)[O-])c6F)c6ccc3[nH]6)C=C5)C=C4)cc2)O1
REMARK SMILES IDX 33 1 32 2 31 3 30 4 29 5 27 6 28 7 26 9 1 10 2 11 3 12 4 13
REMARK SMILES IDX 102 14 5 15 6 16 24 17 7 18 23 19 25 20 8 21 21 22 9 23
REMARK SMILES IDX 19 24 10 25 17 26 20 27 11 28 16 29 18 30 12 31 15 32 13 33
REMARK SMILES IDX 14 34 22 35 34 37 35 38 36 39 37 40 38 42 39 43 40 44 101 45
REMARK SMILES IDX 41 46 100 47 42 48 43 49 44 50 94 51 45 52 99 53 93 54 95 55
REMARK SMILES IDX 46 56 98 57 92 58 91 59 47 61 79 62 59 63 78 64 60 65 63 66
REMARK SMILES IDX 77 67 96 68 61 69 62 70 76 72 97 73 64 74 48 75 49 76 57 77
REMARK SMILES IDX 50 78 52 79 58 80 51 81 53 82 54 83 55 84 56 85 80 86 81 87
REMARK SMILES IDX 89 88 82 89 84 90 90 91 83 92 85 93 86 94 87 95 88 96 65 97
REMARK SMILES IDX 66 98 74 99 67 100 69 101 75 102 68 103 70 104 71 105 72 106
REMARK SMILES IDX 73 107
REMARK H PARENT 29 8 22 36 36 41 95 60 63 71
REMARK Flexibility Score: inf
ROOT
ATOM      1  C   UNL A   1      39.932  21.281  26.224  1.00  0.00     0.002 C 
ENDROOT
BRANCH   1   2
ATOM      2  C   UNL A   1      38.509  21.617  25.755  1.00  0.00     0.002 C 
BRANCH   2   3
ATOM      3  C   UNL A   1      37.720  20.491  25.086  1.00  0.00     0.021 C 
BRANCH   3   4
ATOM      4  C   UNL A   1      36.212  20.544  25.277  1.00  0.00     0.116 C 
BRANCH   4   5
ATOM      5  N   UNL A   1      35.681  21.185  26.460  1.00  0.00    -0.353 N 
ATOM      6  C   UNL A   1      34.715  22.176  26.505  1.00  0.00     0.255 C 
ATOM      7  O   UNL A   1      34.231  22.468  27.600  1.00  0.00    -0.272 OA
ATOM      8  H   UNL A   1      36.045  20.884  27.324  1.00  0.00     0.163 HD
BRANCH   6   9
ATOM      9  C   UNL A   1      34.301  22.912  25.202  1.00  0.00     0.181 C 
ATOM     10  C   UNL A   1      31.381  22.270  23.294  1.00  0.00     0.075 C 
ATOM     11  C   UNL A   1      32.487  21.788  24.241  1.00  0.00     0.164 C 
ATOM     12  C   UNL A   1      31.987  20.582  25.023  1.00  0.00     0.075 C 
ATOM     13  O   UNL A   1      33.615  21.380  23.464  1.00  0.00    -0.344 OA
ATOM     14  O   UNL A   1      32.846  22.850  25.150  1.00  0.00    -0.331 OA
ATOM     15  C   UNL A   1      34.716  22.205  23.847  1.00  0.00     0.164 C 
ATOM     16  C   UNL A   1      34.896  23.368  22.750  1.00  0.00     0.040 C 
ATOM     17  C   UNL A   1      34.908  24.361  24.942  1.00  0.00     0.014 C 
ATOM     18  C   UNL A   1      34.307  24.570  23.510  1.00  0.00     0.008 C 
ATOM     19  C   UNL A   1      34.704  25.636  25.768  1.00  0.00     0.046 C 
ATOM     20  C   UNL A   1      36.473  24.202  25.005  1.00  0.00     0.015 C 
ATOM     21  C   UNL A   1      33.141  25.607  23.289  1.00  0.00     0.035 C 
ATOM     22  C   UNL A   1      33.360  26.324  25.687  1.00  0.00     0.154 C 
ATOM     23  C   UNL A   1      32.872  26.002  21.844  1.00  0.00     0.012 C 
ATOM     24  C   UNL A   1      33.036  26.810  24.250  1.00  0.00     0.152 C 
ATOM     25  C   UNL A   1      31.406  26.441  21.736  1.00  0.00     0.032 C 
ATOM     26  C   UNL A   1      31.589  27.486  24.159  1.00  0.00     0.044 C 
ATOM     27  F   UNL A   1      33.992  27.704  23.856  1.00  0.00    -0.239 F 
ATOM     28  C   UNL A   1      31.015  27.514  22.723  1.00  0.00    -0.053 C 
ATOM     29  C   UNL A   1      31.571  28.905  24.729  1.00  0.00    -0.009 C 
ATOM     30  C   UNL A   1      30.553  26.683  25.015  1.00  0.00     0.024 C 
ATOM     31  C   UNL A   1      30.084  28.425  22.376  1.00  0.00     0.052 C 
ATOM     32  C   UNL A   1      30.655  29.822  24.381  1.00  0.00     0.048 C 
ATOM     33  C   UNL A   1      29.680  29.501  23.316  1.00  0.00     0.178 C 
ATOM     34  O   UNL A   1      28.631  30.100  23.182  1.00  0.00    -0.290 OA
BRANCH  22  35
ATOM     35  O   UNL A   1      33.338  27.396  26.628  1.00  0.00    -0.390 OA
ATOM     36  H   UNL A   1      32.901  28.166  26.231  1.00  0.00     0.211 HD
ENDBRANCH  22  35
ENDBRANCH   6   9
ENDBRANCH   4   5
ENDBRANCH   3   4
ENDBRANCH   2   3
ENDBRANCH   1   2
BRANCH   1  37
ATOM     37  C   UNL A   1      40.375  19.816  26.125  1.00  0.00     0.021 C 
BRANCH  37  38
ATOM     38  C   UNL A   1      41.792  19.499  26.598  1.00  0.00     0.116 C 
BRANCH  38  39
ATOM     39  N   UNL A   1      42.715  19.282  25.499  1.00  0.00    -0.352 N 
ATOM     40  C   UNL A   1      43.609  20.131  24.898  1.00  0.00     0.251 C 
ATOM     41  H   UNL A   1      42.696  18.373  25.122  1.00  0.00     0.163 HD
ATOM     42  O   UNL A   1      44.183  19.756  23.878  1.00  0.00    -0.269 OA
BRANCH  40  43
ATOM     43  C   UNL A   1      43.886  21.482  25.442  1.00  0.00     0.039 A 
ATOM     44  C   UNL A   1      43.559  22.590  24.653  1.00  0.00     0.014 A 
ATOM     45  C   UNL A   1      44.511  21.678  26.677  1.00  0.00     0.014 A 
ATOM     46  C   UNL A   1      43.828  23.883  25.112  1.00  0.00     0.010 A 
ATOM     47  C   UNL A   1      44.708  22.972  27.168  1.00  0.00     0.010 A 
ATOM     48  C   UNL A   1      44.385  24.089  26.385  1.00  0.00    -0.014 A 
BRANCH  48  49
ATOM     49  C   UNL A   1      44.613  25.471  26.890  1.00  0.00     0.031 A 
ATOM     50  C   UNL A   1      45.991  26.082  26.895  1.00  0.00     0.074 A 
ATOM     51  C   UNL A   1      43.571  26.170  27.385  1.00  0.00     0.049 A 
ATOM     52  N   UNL A   1      46.353  27.291  27.239  1.00  0.00    -0.248 NA
ATOM     53  C   UNL A   1      47.112  25.220  26.485  1.00  0.00     0.031 C 
ATOM     54  C   UNL A   1      42.206  25.661  27.533  1.00  0.00     0.029 A 
ATOM     55  N   UNL A   1      43.498  27.454  27.867  1.00  0.00    -0.354 N 
ATOM     56  C   UNL A   1      47.737  27.327  27.124  1.00  0.00     0.074 A 
ATOM     57  C   UNL A   1      48.156  26.008  26.702  1.00  0.00     0.031 C 
ATOM     58  C   UNL A   1      41.429  26.622  28.056  1.00  0.00     0.029 A 
ATOM     59  C   UNL A   1      42.242  27.810  28.301  1.00  0.00     0.049 A 
ATOM     60  H   UNL A   1      44.272  28.062  27.899  1.00  0.00     0.167 HD
ATOM     61  C   UNL A   1      48.582  28.367  27.328  1.00  0.00     0.034 A 
ATOM     62  C   UNL A   1      41.792  28.962  28.836  1.00  0.00     0.034 A 
ATOM     63  C   UNL A   1      48.158  29.689  27.704  1.00  0.00     0.049 A 
ATOM     64  C   UNL A   1      42.739  30.124  28.971  1.00  0.00     0.074 A 
ATOM     65  C   UNL A   1      48.924  30.838  27.820  1.00  0.00     0.029 A 
ATOM     66  N   UNL A   1      46.862  30.040  28.045  1.00  0.00    -0.354 N 
ATOM     67  N   UNL A   1      44.010  30.194  28.660  1.00  0.00    -0.248 NA
ATOM     68  C   UNL A   1      42.176  31.382  29.483  1.00  0.00     0.031 C 
ATOM     69  C   UNL A   1      48.096  31.873  28.265  1.00  0.00     0.029 A 
ATOM     70  C   UNL A   1      46.808  31.381  28.387  1.00  0.00     0.049 A 
ATOM     71  H   UNL A   1      46.092  29.426  28.044  1.00  0.00     0.167 HD
ATOM     72  C   UNL A   1      44.391  31.507  28.910  1.00  0.00     0.074 A 
ATOM     73  C   UNL A   1      43.206  32.206  29.362  1.00  0.00     0.031 C 
ATOM     74  C   UNL A   1      45.616  32.079  28.795  1.00  0.00     0.034 A 
BRANCH  61  75
ATOM     75  C   UNL A   1      50.056  28.139  27.104  1.00  0.00     0.023 A 
ATOM     76  C   UNL A   1      50.884  27.797  28.193  1.00  0.00     0.012 A 
ATOM     77  C   UNL A   1      50.601  28.172  25.806  1.00  0.00     0.148 A 
ATOM     78  C   UNL A   1      52.237  27.520  27.997  1.00  0.00     0.002 A 
ATOM     79  C   UNL A   1      51.939  27.848  25.612  1.00  0.00     0.091 A 
ATOM     80  F   UNL A   1      49.803  28.515  24.786  1.00  0.00    -0.205 F 
ATOM     81  C   UNL A   1      52.761  27.534  26.707  1.00  0.00     0.022 A 
BRANCH  79  82
ATOM     82  S   UNL A   1      52.692  27.751  23.983  1.00  0.00     0.127 S 
ATOM     83  O   UNL A   1      52.837  29.165  23.641  1.00  0.00    -0.237 OA
ATOM     84  O   UNL A   1      53.950  27.061  24.269  1.00  0.00    -0.237 OA
ATOM     85  O   UNL A   1      51.760  27.002  23.152  1.00  0.00    -0.744 OA
ENDBRANCH  79  82
ENDBRANCH  61  75
BRANCH  62  86
ATOM     86  C   UNL A   1      40.360  29.095  29.230  1.00  0.00     0.023 A 
ATOM     87  C   UNL A   1      39.377  29.292  28.240  1.00  0.00     0.012 A 
ATOM     88  C   UNL A   1      39.968  29.021  30.580  1.00  0.00     0.148 A 
ATOM     89  C   UNL A   1      38.037  29.458  28.592  1.00  0.00     0.002 A 
ATOM     90  C   UNL A   1      38.624  29.124  30.919  1.00  0.00     0.091 A 
ATOM     91  F   UNL A   1      40.919  28.845  31.509  1.00  0.00    -0.205 F 
ATOM     92  C   UNL A   1      37.659  29.365  29.930  1.00  0.00     0.022 A 
BRANCH  90  93
ATOM     93  S   UNL A   1      38.037  28.873  32.597  1.00  0.00     0.127 S 
ATOM     94  O   UNL A   1      36.653  29.329  32.502  1.00  0.00    -0.237 OA
ATOM     95  O   UNL A   1      38.202  27.429  32.763  1.00  0.00    -0.237 OA
ATOM     96  O   UNL A   1      38.915  29.674  33.440  1.00  0.00    -0.744 OA
ENDBRANCH  90  93
ENDBRANCH  62  86
BRANCH  74  97
ATOM     97  C   UNL A   1      45.730  33.545  29.130  1.00  0.00     0.023 A 
ATOM     98  C   UNL A   1      46.152  33.943  30.415  1.00  0.00     0.012 A 
ATOM     99  C   UNL A   1      45.451  34.528  28.161  1.00  0.00     0.148 A 
ATOM    100  C   UNL A   1      46.239  35.295  30.746  1.00  0.00     0.002 A 
ATOM    101  C   UNL A   1      45.594  35.873  28.481  1.00  0.00     0.091 A 
ATOM    102  F   UNL A   1      45.033  34.135  26.949  1.00  0.00    -0.205 F 
ATOM    103  C   UNL A   1      45.970  36.259  29.778  1.00  0.00     0.022 A 
BRANCH 101 104
ATOM    104  S   UNL A   1      45.365  37.175  27.265  1.00  0.00     0.127 S 
ATOM    105  O   UNL A   1      45.757  38.362  28.022  1.00  0.00    -0.237 OA
ATOM    106  O   UNL A   1      46.305  36.787  26.212  1.00  0.00    -0.237 OA
ATOM    107  O   UNL A   1      43.965  37.111  26.872  1.00  0.00    -0.744 OA
ENDBRANCH 101 104
ENDBRANCH  74  97
ENDBRANCH  48  49
ENDBRANCH  40  43
ENDBRANCH  38  39
ENDBRANCH  37  38
ENDBRANCH   1  37
TORSDOF 17
ENDMDL
MODEL 2
REMARK VINA RESULT:     -12.7      5.982     10.471
REMARK SMILES CC1(C)O[C@H]2C[C@H]3[C@@H]4CCC5=CC(=O)C=C[C@]5(C)[C@@]4(F)[C@H](O)C[C@@]3(C)[C@@]2(C(=O)NCCCCCCNC(=O)c2ccc(-c3c4nc(c(-c5cccc(S(=O)(=O)[O-])c5F)c5ccc([nH]5)c(-c5cccc(S(=O)(=O)[O-])c5F)c5nc(c(-c6cccc(S(=O)(=O)[O-])c6F)c6ccc3[nH]6)C=C5)C=C4)cc2)O1
REMARK SMILES IDX 33 1 32 2 31 3 30 4 29 5 27 6 28 7 26 9 1 10 2 11 3 12 4 13
REMARK SMILES IDX 102 14 5 15 6 16 24 17 7 18 23 19 25 20 8 21 21 22 9 23
REMARK SMILES IDX 19 24 10 25 17 26 20 27 11 28 16 29 18 30 12 31 15 32 13 33
REMARK SMILES IDX 14 34 22 35 34 37 35 38 36 39 37 40 38 42 39 43 40 44 101 45
REMARK SMILES IDX 41 46 100 47 42 48 43 49 44 50 94 51 45 52 99 53 93 54 95 55
REMARK SMILES IDX 46 56 98 57 92 58 91 59 47 61 79 62 59 63 78 64 60 65 63 66
REMARK SMILES IDX 77 67 96 68 61 69 62 70 76 72 97 73 64 74 48 75 49 76 57 77
REMARK SMILES IDX 50 78 52 79 58 80 51 81 53 82 54 83 55 84 56 85 80 86 81 87
REMARK SMILES IDX 89 88 82 89 84 90 90 91 83 92 85 93 86 94 87 95 88 96 65 97
REMARK SMILES IDX 66 98 74 99 67 100 69 101 75 102 68 103 70 104 71 105 72 106
REMARK SMILES IDX 73 107
REMARK H PARENT 29 8 22 36 36 41 95 60 63 71
REMARK Flexibility Score: inf
ROOT
ATOM      1  C   UNL A   1      34.209  31.654  28.052  1.00  0.00     0.002 C 
ENDROOT
BRANCH   1   2
ATOM      2  C   UNL A   1      33.616  30.555  27.158  1.00  0.00     0.002 C 
BRANCH   2   3
ATOM      3  C   UNL A   1      32.202  30.787  26.626  1.00  0.00     0.021 C 
BRANCH   3   4
ATOM      4  C   UNL A   1      31.884  30.123  25.296  1.00  0.00     0.116 C 
BRANCH   4   5
ATOM      5  N   UNL A   1      32.976  29.754  24.421  1.00  0.00    -0.353 N 
ATOM      6  C   UNL A   1      33.300  28.480  23.989  1.00  0.00     0.255 C 
ATOM      7  O   UNL A   1      34.134  28.365  23.090  1.00  0.00    -0.272 OA
ATOM      8  H   UNL A   1      33.549  30.488  24.101  1.00  0.00     0.163 HD
BRANCH   6   9
ATOM      9  C   UNL A   1      32.646  27.244  24.666  1.00  0.00     0.181 C 
ATOM     10  C   UNL A   1      30.011  25.292  23.318  1.00  0.00     0.075 C 
ATOM     11  C   UNL A   1      30.744  26.633  23.450  1.00  0.00     0.164 C 
ATOM     12  C   UNL A   1      30.468  27.478  22.214  1.00  0.00     0.075 C 
ATOM     13  O   UNL A   1      30.233  27.329  24.589  1.00  0.00    -0.344 OA
ATOM     14  O   UNL A   1      32.162  26.401  23.581  1.00  0.00    -0.331 OA
ATOM     15  C   UNL A   1      31.324  27.527  25.489  1.00  0.00     0.164 C 
ATOM     16  C   UNL A   1      31.248  26.410  26.647  1.00  0.00     0.040 C 
ATOM     17  C   UNL A   1      33.490  26.471  25.775  1.00  0.00     0.014 C 
ATOM     18  C   UNL A   1      32.372  25.459  26.198  1.00  0.00     0.008 C 
ATOM     19  C   UNL A   1      34.815  25.721  25.603  1.00  0.00     0.046 C 
ATOM     20  C   UNL A   1      33.882  27.543  26.859  1.00  0.00     0.015 C 
ATOM     21  C   UNL A   1      32.499  23.937  25.810  1.00  0.00     0.035 C 
ATOM     22  C   UNL A   1      34.788  24.393  24.881  1.00  0.00     0.154 C 
ATOM     23  C   UNL A   1      31.575  22.985  26.556  1.00  0.00     0.012 C 
ATOM     24  C   UNL A   1      33.910  23.344  25.612  1.00  0.00     0.152 C 
ATOM     25  C   UNL A   1      31.344  21.754  25.668  1.00  0.00     0.032 C 
ATOM     26  C   UNL A   1      33.840  21.960  24.814  1.00  0.00     0.044 C 
ATOM     27  F   UNL A   1      34.418  23.133  26.864  1.00  0.00    -0.239 F 
ATOM     28  C   UNL A   1      32.618  21.093  25.197  1.00  0.00    -0.053 C 
ATOM     29  C   UNL A   1      35.111  21.127  24.978  1.00  0.00    -0.009 C 
ATOM     30  C   UNL A   1      33.710  22.221  23.275  1.00  0.00     0.024 C 
ATOM     31  C   UNL A   1      32.640  19.758  25.011  1.00  0.00     0.052 C 
ATOM     32  C   UNL A   1      35.142  19.796  24.805  1.00  0.00     0.048 C 
ATOM     33  C   UNL A   1      33.877  19.071  24.557  1.00  0.00     0.178 C 
ATOM     34  O   UNL A   1      33.839  17.965  24.055  1.00  0.00    -0.290 OA
BRANCH  22  35
ATOM     35  O   UNL A   1      36.130  23.937  24.712  1.00  0.00    -0.390 OA
ATOM     36  H   UNL A   1      36.700  24.356  25.376  1.00  0.00     0.211 HD
ENDBRANCH  22  35
ENDBRANCH   6   9
ENDBRANCH   4   5
ENDBRANCH   3   4
ENDBRANCH   2   3
ENDBRANCH   1   2
BRANCH   1  37
ATOM     37  C   UNL A   1      34.028  33.106  27.591  1.00  0.00     0.021 C 
BRANCH  37  38
ATOM     38  C   UNL A   1      32.622  33.688  27.710  1.00  0.00     0.116 C 
BRANCH  38  39
ATOM     39  N   UNL A   1      32.619  35.048  28.219  1.00  0.00    -0.352 N 
ATOM     40  C   UNL A   1      33.352  35.631  29.221  1.00  0.00     0.251 C 
ATOM     41  H   UNL A   1      31.985  35.652  27.770  1.00  0.00     0.163 HD
ATOM     42  O   UNL A   1      33.065  36.774  29.572  1.00  0.00    -0.269 OA
BRANCH  40  43
ATOM     43  C   UNL A   1      34.465  34.915  29.890  1.00  0.00     0.039 A 
ATOM     44  C   UNL A   1      34.207  34.297  31.119  1.00  0.00     0.014 A 
ATOM     45  C   UNL A   1      35.761  34.891  29.368  1.00  0.00     0.014 A 
ATOM     46  C   UNL A   1      35.231  33.635  31.800  1.00  0.00     0.010 A 
ATOM     47  C   UNL A   1      36.765  34.163  30.011  1.00  0.00     0.010 A 
ATOM     48  C   UNL A   1      36.518  33.541  31.243  1.00  0.00    -0.014 A 
BRANCH  48  49
ATOM     49  C   UNL A   1      37.587  32.782  31.947  1.00  0.00     0.031 A 
ATOM     50  C   UNL A   1      38.275  31.612  31.291  1.00  0.00     0.074 A 
ATOM     51  C   UNL A   1      37.918  33.128  33.208  1.00  0.00     0.049 A 
ATOM     52  N   UNL A   1      39.267  30.885  31.737  1.00  0.00    -0.248 NA
ATOM     53  C   UNL A   1      37.771  31.185  29.975  1.00  0.00     0.031 C 
ATOM     54  C   UNL A   1      37.261  34.173  33.997  1.00  0.00     0.029 A 
ATOM     55  N   UNL A   1      38.878  32.631  34.055  1.00  0.00    -0.354 N 
ATOM     56  C   UNL A   1      39.482  29.898  30.782  1.00  0.00     0.074 A 
ATOM     57  C   UNL A   1      38.500  30.103  29.741  1.00  0.00     0.031 C 
ATOM     58  C   UNL A   1      37.843  34.248  35.204  1.00  0.00     0.029 A 
ATOM     59  C   UNL A   1      38.900  33.244  35.286  1.00  0.00     0.049 A 
ATOM     60  H   UNL A   1      39.493  31.903  33.804  1.00  0.00     0.167 HD
ATOM     61  C   UNL A   1      40.426  28.926  30.761  1.00  0.00     0.034 A 
ATOM     62  C   UNL A   1      39.683  33.027  36.361  1.00  0.00     0.034 A 
ATOM     63  C   UNL A   1      41.430  28.753  31.776  1.00  0.00     0.049 A 
ATOM     64  C   UNL A   1      40.775  31.995  36.273  1.00  0.00     0.074 A 
ATOM     65  C   UNL A   1      42.499  27.873  31.787  1.00  0.00     0.029 A 
ATOM     66  N   UNL A   1      41.481  29.455  32.969  1.00  0.00    -0.354 N 
ATOM     67  N   UNL A   1      41.090  31.209  35.273  1.00  0.00    -0.248 NA
ATOM     68  C   UNL A   1      41.651  31.856  37.445  1.00  0.00     0.031 C 
ATOM     69  C   UNL A   1      43.176  28.021  33.002  1.00  0.00     0.029 A 
ATOM     70  C   UNL A   1      42.553  29.020  33.731  1.00  0.00     0.049 A 
ATOM     71  H   UNL A   1      40.850  30.162  33.236  1.00  0.00     0.167 HD
ATOM     72  C   UNL A   1      42.216  30.505  35.682  1.00  0.00     0.074 A 
ATOM     73  C   UNL A   1      42.549  30.986  37.007  1.00  0.00     0.031 C 
ATOM     74  C   UNL A   1      42.903  29.534  35.030  1.00  0.00     0.034 A 
BRANCH  61  75
ATOM     75  C   UNL A   1      40.455  27.990  29.578  1.00  0.00     0.023 A 
ATOM     76  C   UNL A   1      39.539  26.919  29.510  1.00  0.00     0.012 A 
ATOM     77  C   UNL A   1      41.323  28.226  28.494  1.00  0.00     0.148 A 
ATOM     78  C   UNL A   1      39.508  26.082  28.395  1.00  0.00     0.002 A 
ATOM     79  C   UNL A   1      41.253  27.416  27.367  1.00  0.00     0.091 A 
ATOM     80  F   UNL A   1      42.197  29.238  28.584  1.00  0.00    -0.205 F 
ATOM     81  C   UNL A   1      40.355  26.337  27.320  1.00  0.00     0.022 A 
BRANCH  79  82
ATOM     82  S   UNL A   1      42.238  27.712  25.893  1.00  0.00     0.127 S 
ATOM     83  O   UNL A   1      43.595  27.511  26.400  1.00  0.00    -0.237 OA
ATOM     84  O   UNL A   1      41.762  26.662  24.992  1.00  0.00    -0.237 OA
ATOM     85  O   UNL A   1      41.928  29.069  25.466  1.00  0.00    -0.744 OA
ENDBRANCH  79  82
ENDBRANCH  61  75
BRANCH  62  86
ATOM     86  C   UNL A   1      39.501  33.843  37.596  1.00  0.00     0.023 A 
ATOM     87  C   UNL A   1      40.077  35.126  37.677  1.00  0.00     0.012 A 
ATOM     88  C   UNL A   1      38.757  33.355  38.686  1.00  0.00     0.148 A 
ATOM     89  C   UNL A   1      39.952  35.889  38.839  1.00  0.00     0.002 A 
ATOM     90  C   UNL A   1      38.583  34.145  39.816  1.00  0.00     0.091 A 
ATOM     91  F   UNL A   1      38.226  32.127  38.596  1.00  0.00    -0.205 F 
ATOM     92  C   UNL A   1      39.198  35.403  39.904  1.00  0.00     0.022 A 
BRANCH  90  93
ATOM     93  S   UNL A   1      37.512  33.657  41.171  1.00  0.00     0.127 S 
ATOM     94  O   UNL A   1      37.351  34.915  41.895  1.00  0.00    -0.237 OA
ATOM     95  O   UNL A   1      36.318  33.195  40.463  1.00  0.00    -0.237 OA
ATOM     96  O   UNL A   1      38.231  32.604  41.877  1.00  0.00    -0.744 OA
ENDBRANCH  90  93
ENDBRANCH  62  86
BRANCH  74  97
ATOM     97  C   UNL A   1      44.106  28.950  35.725  1.00  0.00     0.023 A 
ATOM     98  C   UNL A   1      45.389  29.479  35.476  1.00  0.00     0.012 A 
ATOM     99  C   UNL A   1      43.964  27.899  36.651  1.00  0.00     0.148 A 
ATOM    100  C   UNL A   1      46.515  28.934  36.092  1.00  0.00     0.002 A 
ATOM    101  C   UNL A   1      45.083  27.398  37.305  1.00  0.00     0.091 A 
ATOM    102  F   UNL A   1      42.740  27.394  36.865  1.00  0.00    -0.205 F 
ATOM    103  C   UNL A   1      46.361  27.901  37.014  1.00  0.00     0.022 A 
BRANCH 101 104
ATOM    104  S   UNL A   1      44.961  26.138  38.579  1.00  0.00     0.127 S 
ATOM    105  O   UNL A   1      44.609  24.955  37.796  1.00  0.00    -0.237 OA
ATOM    106  O   UNL A   1      46.316  26.121  39.132  1.00  0.00    -0.237 OA
ATOM    107  O   UNL A   1      43.941  26.606  39.507  1.00  0.00    -0.744 OA
ENDBRANCH 101 104
ENDBRANCH  74  97
ENDBRANCH  48  49
ENDBRANCH  40  43
ENDBRANCH  38  39
ENDBRANCH  37  38
ENDBRANCH   1  37
TORSDOF 17
ENDMDL
MODEL 3
REMARK VINA RESULT:     -12.3      5.334     11.026
REMARK SMILES CC1(C)O[C@H]2C[C@H]3[C@@H]4CCC5=CC(=O)C=C[C@]5(C)[C@@]4(F)[C@H](O)C[C@@]3(C)[C@@]2(C(=O)NCCCCCCNC(=O)c2ccc(-c3c4nc(c(-c5cccc(S(=O)(=O)[O-])c5F)c5ccc([nH]5)c(-c5cccc(S(=O)(=O)[O-])c5F)c5nc(c(-c6cccc(S(=O)(=O)[O-])c6F)c6ccc3[nH]6)C=C5)C=C4)cc2)O1
REMARK SMILES IDX 33 1 32 2 31 3 30 4 29 5 27 6 28 7 26 9 1 10 2 11 3 12 4 13
REMARK SMILES IDX 102 14 5 15 6 16 24 17 7 18 23 19 25 20 8 21 21 22 9 23
REMARK SMILES IDX 19 24 10 25 17 26 20 27 11 28 16 29 18 30 12 31 15 32 13 33
REMARK SMILES IDX 14 34 22 35 34 37 35 38 36 39 37 40 38 42 39 43 40 44 101 45
REMARK SMILES IDX 41 46 100 47 42 48 43 49 44 50 94 51 45 52 99 53 93 54 95 55
REMARK SMILES IDX 46 56 98 57 92 58 91 59 47 61 79 62 59 63 78 64 60 65 63 66
REMARK SMILES IDX 77 67 96 68 61 69 62 70 76 72 97 73 64 74 48 75 49 76 57 77
REMARK SMILES IDX 50 78 52 79 58 80 51 81 53 82 54 83 55 84 56 85 80 86 81 87
REMARK SMILES IDX 89 88 82 89 84 90 90 91 83 92 85 93 86 94 87 95 88 96 65 97
REMARK SMILES IDX 66 98 74 99 67 100 69 101 75 102 68 103 70 104 71 105 72 106
REMARK SMILES IDX 73 107
REMARK H PARENT 29 8 22 36 36 41 95 60 63 71
REMARK Flexibility Score: inf
ROOT
ATOM      1  C   UNL A   1      35.721  34.428  34.027  1.00  0.00     0.002 C 
ENDROOT
BRANCH   1   2
ATOM      2  C   UNL A   1      34.443  34.057  33.259  1.00  0.00     0.002 C 
BRANCH   2   3
ATOM      3  C   UNL A   1      34.290  34.638  31.854  1.00  0.00     0.021 C 
BRANCH   3   4
ATOM      4  C   UNL A   1      34.961  33.850  30.740  1.00  0.00     0.116 C 
BRANCH   4   5
ATOM      5  N   UNL A   1      36.178  34.368  30.154  1.00  0.00    -0.353 N 
ATOM      6  C   UNL A   1      37.248  33.632  29.675  1.00  0.00     0.255 C 
ATOM      7  O   UNL A   1      38.115  34.219  29.026  1.00  0.00    -0.272 OA
ATOM      8  H   UNL A   1      36.253  35.348  30.090  1.00  0.00     0.163 HD
BRANCH   6   9
ATOM      9  C   UNL A   1      37.350  32.116  29.997  1.00  0.00     0.181 C 
ATOM     10  C   UNL A   1      35.884  29.492  28.116  1.00  0.00     0.075 C 
ATOM     11  C   UNL A   1      35.878  30.945  28.605  1.00  0.00     0.164 C 
ATOM     12  C   UNL A   1      35.106  31.804  27.613  1.00  0.00     0.075 C 
ATOM     13  O   UNL A   1      35.208  31.006  29.865  1.00  0.00    -0.344 OA
ATOM     14  O   UNL A   1      37.235  31.425  28.719  1.00  0.00    -0.331 OA
ATOM     15  C   UNL A   1      36.146  31.502  30.821  1.00  0.00     0.164 C 
ATOM     16  C   UNL A   1      36.737  30.260  31.657  1.00  0.00     0.040 C 
ATOM     17  C   UNL A   1      38.567  31.629  30.902  1.00  0.00     0.014 C 
ATOM     18  C   UNL A   1      38.132  30.128  31.020  1.00  0.00     0.008 C 
ATOM     19  C   UNL A   1      40.066  31.699  30.590  1.00  0.00     0.046 C 
ATOM     20  C   UNL A   1      38.490  32.465  32.233  1.00  0.00     0.015 C 
ATOM     21  C   UNL A   1      38.947  29.011  30.265  1.00  0.00     0.035 C 
ATOM     22  C   UNL A   1      40.620  30.746  29.557  1.00  0.00     0.154 C 
ATOM     23  C   UNL A   1      38.684  27.581  30.717  1.00  0.00     0.012 C 
ATOM     24  C   UNL A   1      40.441  29.262  29.971  1.00  0.00     0.152 C 
ATOM     25  C   UNL A   1      38.997  26.645  29.541  1.00  0.00     0.032 C 
ATOM     26  C   UNL A   1      40.977  28.257  28.848  1.00  0.00     0.044 C 
ATOM     27  F   UNL A   1      41.108  29.044  31.145  1.00  0.00    -0.239 F 
ATOM     28  C   UNL A   1      40.378  26.836  28.960  1.00  0.00    -0.053 C 
ATOM     29  C   UNL A   1      42.503  28.154  28.838  1.00  0.00    -0.009 C 
ATOM     30  C   UNL A   1      40.587  28.771  27.421  1.00  0.00     0.024 C 
ATOM     31  C   UNL A   1      41.031  25.775  28.445  1.00  0.00     0.052 C 
ATOM     32  C   UNL A   1      43.161  27.097  28.337  1.00  0.00     0.048 C 
ATOM     33  C   UNL A   1      42.394  25.921  27.873  1.00  0.00     0.178 C 
ATOM     34  O   UNL A   1      42.851  25.096  27.107  1.00  0.00    -0.290 OA
BRANCH  22  35
ATOM     35  O   UNL A   1      41.989  31.071  29.321  1.00  0.00    -0.390 OA
ATOM     36  H   UNL A   1      42.440  31.205  30.170  1.00  0.00     0.211 HD
ENDBRANCH  22  35
ENDBRANCH   6   9
ENDBRANCH   4   5
ENDBRANCH   3   4
ENDBRANCH   2   3
ENDBRANCH   1   2
BRANCH   1  37
ATOM     37  C   UNL A   1      36.190  33.454  35.116  1.00  0.00     0.021 C 
BRANCH  37  38
ATOM     38  C   UNL A   1      36.958  34.063  36.287  1.00  0.00     0.116 C 
BRANCH  38  39
ATOM     39  N   UNL A   1      37.078  33.153  37.412  1.00  0.00    -0.352 N 
ATOM     40  C   UNL A   1      37.861  32.040  37.585  1.00  0.00     0.251 C 
ATOM     41  H   UNL A   1      36.500  33.370  38.179  1.00  0.00     0.163 HD
ATOM     42  O   UNL A   1      37.678  31.340  38.579  1.00  0.00    -0.269 OA
BRANCH  40  43
ATOM     43  C   UNL A   1      38.906  31.663  36.603  1.00  0.00     0.039 A 
ATOM     44  C   UNL A   1      40.192  32.187  36.775  1.00  0.00     0.014 A 
ATOM     45  C   UNL A   1      38.634  30.862  35.491  1.00  0.00     0.014 A 
ATOM     46  C   UNL A   1      41.202  31.882  35.859  1.00  0.00     0.010 A 
ATOM     47  C   UNL A   1      39.663  30.495  34.619  1.00  0.00     0.010 A 
ATOM     48  C   UNL A   1      40.955  31.014  34.782  1.00  0.00    -0.014 A 
BRANCH  48  49
ATOM     49  C   UNL A   1      42.052  30.647  33.845  1.00  0.00     0.031 A 
ATOM     50  C   UNL A   1      42.626  29.253  33.824  1.00  0.00     0.074 A 
ATOM     51  C   UNL A   1      42.563  31.592  33.029  1.00  0.00     0.049 A 
ATOM     52  N   UNL A   1      43.536  28.751  33.029  1.00  0.00    -0.248 NA
ATOM     53  C   UNL A   1      42.134  28.306  34.838  1.00  0.00     0.031 C 
ATOM     54  C   UNL A   1      42.170  33.003  33.021  1.00  0.00     0.029 A 
ATOM     55  N   UNL A   1      43.532  31.514  32.059  1.00  0.00    -0.354 N 
ATOM     56  C   UNL A   1      43.754  27.450  33.467  1.00  0.00     0.074 A 
ATOM     57  C   UNL A   1      42.897  27.245  34.614  1.00  0.00     0.031 C 
ATOM     58  C   UNL A   1      42.880  33.653  32.086  1.00  0.00     0.029 A 
ATOM     59  C   UNL A   1      43.793  32.714  31.441  1.00  0.00     0.049 A 
ATOM     60  H   UNL A   1      43.996  30.676  31.828  1.00  0.00     0.167 HD
ATOM     61  C   UNL A   1      44.573  26.503  32.947  1.00  0.00     0.034 A 
ATOM     62  C   UNL A   1      44.667  33.028  30.465  1.00  0.00     0.034 A 
ATOM     63  C   UNL A   1      45.390  26.695  31.778  1.00  0.00     0.049 A 
ATOM     64  C   UNL A   1      45.502  31.935  29.854  1.00  0.00     0.074 A 
ATOM     65  C   UNL A   1      46.163  25.763  31.107  1.00  0.00     0.029 A 
ATOM     66  N   UNL A   1      45.559  27.902  31.118  1.00  0.00    -0.354 N 
ATOM     67  N   UNL A   1      45.540  30.659  30.152  1.00  0.00    -0.248 NA
ATOM     68  C   UNL A   1      46.379  32.316  28.737  1.00  0.00     0.031 C 
ATOM     69  C   UNL A   1      46.825  26.415  30.062  1.00  0.00     0.029 A 
ATOM     70  C   UNL A   1      46.435  27.743  30.057  1.00  0.00     0.049 A 
ATOM     71  H   UNL A   1      45.120  28.748  31.366  1.00  0.00     0.167 HD
ATOM     72  C   UNL A   1      46.418  30.081  29.244  1.00  0.00     0.074 A 
ATOM     73  C   UNL A   1      46.861  31.140  28.361  1.00  0.00     0.031 C 
ATOM     74  C   UNL A   1      46.837  28.794  29.158  1.00  0.00     0.034 A 
BRANCH  61  75
ATOM     75  C   UNL A   1      44.599  25.148  33.607  1.00  0.00     0.023 A 
ATOM     76  C   UNL A   1      43.875  24.078  33.040  1.00  0.00     0.012 A 
ATOM     77  C   UNL A   1      45.413  24.910  34.732  1.00  0.00     0.148 A 
ATOM     78  C   UNL A   1      43.938  22.803  33.600  1.00  0.00     0.002 A 
ATOM     79  C   UNL A   1      45.508  23.626  35.255  1.00  0.00     0.091 A 
ATOM     80  F   UNL A   1      46.081  25.942  35.267  1.00  0.00    -0.205 F 
ATOM     81  C   UNL A   1      44.762  22.574  34.698  1.00  0.00     0.022 A 
BRANCH  79  82
ATOM     82  S   UNL A   1      46.607  23.207  36.614  1.00  0.00     0.127 S 
ATOM     83  O   UNL A   1      46.330  21.782  36.787  1.00  0.00    -0.237 OA
ATOM     84  O   UNL A   1      47.921  23.508  36.047  1.00  0.00    -0.237 OA
ATOM     85  O   UNL A   1      46.213  24.057  37.729  1.00  0.00    -0.744 OA
ENDBRANCH  79  82
ENDBRANCH  61  75
BRANCH  62  86
ATOM     86  C   UNL A   1      44.757  34.428  29.962  1.00  0.00     0.023 A 
ATOM     87  C   UNL A   1      45.779  35.277  30.433  1.00  0.00     0.012 A 
ATOM     88  C   UNL A   1      43.840  34.921  29.015  1.00  0.00     0.148 A 
ATOM     89  C   UNL A   1      45.857  36.602  30.004  1.00  0.00     0.002 A 
ATOM     90  C   UNL A   1      43.961  36.223  28.544  1.00  0.00     0.091 A 
ATOM     91  F   UNL A   1      42.867  34.103  28.586  1.00  0.00    -0.205 F 
ATOM     92  C   UNL A   1      44.954  37.073  29.054  1.00  0.00     0.022 A 
BRANCH  90  93
ATOM     93  S   UNL A   1      42.933  36.862  27.219  1.00  0.00     0.127 S 
ATOM     94  O   UNL A   1      43.171  35.888  26.158  1.00  0.00    -0.237 OA
ATOM     95  O   UNL A   1      41.599  36.810  27.817  1.00  0.00    -0.237 OA
ATOM     96  O   UNL A   1      43.420  38.212  26.965  1.00  0.00    -0.744 OA
ENDBRANCH  90  93
ENDBRANCH  62  86
BRANCH  74  97
ATOM     97  C   UNL A   1      47.798  28.451  28.048  1.00  0.00     0.023 A 
ATOM     98  C   UNL A   1      49.181  28.376  28.312  1.00  0.00     0.012 A 
ATOM     99  C   UNL A   1      47.329  28.168  26.751  1.00  0.00     0.148 A 
ATOM    100  C   UNL A   1      50.084  28.083  27.291  1.00  0.00     0.002 A 
ATOM    101  C   UNL A   1      48.229  27.821  25.750  1.00  0.00     0.091 A 
ATOM    102  F   UNL A   1      46.012  28.260  26.510  1.00  0.00    -0.205 F 
ATOM    103  C   UNL A   1      49.608  27.796  26.014  1.00  0.00     0.022 A 
BRANCH 101 104
ATOM    104  S   UNL A   1      47.693  27.339  24.106  1.00  0.00     0.127 S 
ATOM    105  O   UNL A   1      47.006  26.077  24.374  1.00  0.00    -0.237 OA
ATOM    106  O   UNL A   1      46.810  28.445  23.729  1.00  0.00    -0.237 OA
ATOM    107  O   UNL A   1      48.904  27.239  23.305  1.00  0.00    -0.744 OA
ENDBRANCH 101 104
ENDBRANCH  74  97
ENDBRANCH  48  49
ENDBRANCH  40  43
ENDBRANCH  38  39
ENDBRANCH  37  38
ENDBRANCH   1  37
TORSDOF 17
ENDMDL
