MODEL 1
REMARK VINA RESULT:     -10.7      0.000      0.000
REMARK SMILES O=C(/C=C/C(=O)NCc1ccc(-c2cccs2)s1)NCCCCCCNC(=O)c1ccc(-c2c3nc(c(-c4cccc(S(=O)(=O)[O-])c4F)c4ccc([nH]4)c(-c4cccc(S(=O)(=O)[O-])c4F)c4nc(c(-c5cccc(S(=O)(=O)[O-])c5F)c5ccc2[nH]5)C=C4)C=C3)cc1
REMARK SMILES IDX 22 1 21 2 20 3 19 4 1 5 2 6 3 8 4 9 5 10 6 11 7 12 8 14 9 15
REMARK SMILES IDX 10 16 18 17 11 18 12 19 13 20 14 21 17 22 15 23 16 24 23 25
REMARK SMILES IDX 24 26 25 27 26 28 27 29 28 31 29 32 30 33 91 34 31 35 90 36
REMARK SMILES IDX 32 37 33 38 34 39 84 40 35 41 89 42 83 43 85 44 36 45 88 46
REMARK SMILES IDX 82 47 81 48 37 50 69 51 49 52 68 53 50 54 53 55 67 56 86 57
REMARK SMILES IDX 51 58 52 59 66 61 87 62 54 63 38 64 39 65 47 66 40 67 42 68
REMARK SMILES IDX 48 69 41 70 43 71 44 72 45 73 46 74 70 75 71 76 79 77 72 78
REMARK SMILES IDX 74 79 80 80 73 81 75 82 76 83 77 84 78 85 55 86 56 87 64 88
REMARK SMILES IDX 57 89 59 90 65 91 58 92 60 93 61 94 62 95 63 96
REMARK H PARENT 19 7 7 13 26 30 85 49 53 60
REMARK Flexibility Score: inf
ROOT
ATOM      1  C   UNL A   1      37.608  22.607  25.745  1.00  0.00     0.002 C 
ENDROOT
BRANCH   1   2
ATOM      2  C   UNL A   1      36.818  21.948  24.605  1.00  0.00     0.021 C 
BRANCH   2   3
ATOM      3  C   UNL A   1      35.816  20.884  25.050  1.00  0.00     0.116 C 
BRANCH   3   4
ATOM      4  N   UNL A   1      34.487  21.435  25.220  1.00  0.00    -0.353 N 
ATOM      5  O   UNL A   1      33.335  19.468  24.870  1.00  0.00    -0.270 OA
ATOM      6  C   UNL A   1      33.361  20.670  25.093  1.00  0.00     0.244 C 
ATOM      7  H   UNL A   1      34.392  22.391  25.437  1.00  0.00     0.163 HD
BRANCH   6   8
ATOM      8  C   UNL A   1      32.094  21.392  25.325  1.00  0.00     0.077 C 
ATOM      9  C   UNL A   1      31.989  22.362  26.240  1.00  0.00     0.077 C 
BRANCH   9  10
ATOM     10  C   UNL A   1      30.776  23.147  26.549  1.00  0.00     0.244 C 
ATOM     11  O   UNL A   1      30.215  22.950  27.626  1.00  0.00    -0.270 OA
ATOM     12  N   UNL A   1      30.296  24.109  25.728  1.00  0.00    -0.348 N 
ATOM     13  H   UNL A   1      29.483  24.549  26.067  1.00  0.00     0.164 HD
BRANCH  12  14
ATOM     14  C   UNL A   1      30.743  24.619  24.447  1.00  0.00     0.163 C 
BRANCH  14  15
ATOM     15  C   UNL A   1      31.116  26.060  24.627  1.00  0.00     0.024 A 
ATOM     16  C   UNL A   1      30.626  27.176  23.970  1.00  0.00     0.018 A 
ATOM     17  S   UNL A   1      32.294  26.503  25.792  1.00  0.00    -0.138 S 
ATOM     18  C   UNL A   1      31.192  28.388  24.454  1.00  0.00     0.022 A 
ATOM     19  C   UNL A   1      32.103  28.172  25.468  1.00  0.00     0.045 A 
BRANCH  19  20
ATOM     20  C   UNL A   1      32.785  29.185  26.224  1.00  0.00     0.044 A 
ATOM     21  C   UNL A   1      32.302  30.446  26.519  1.00  0.00     0.021 A 
ATOM     22  S   UNL A   1      34.364  28.960  26.845  1.00  0.00    -0.143 S 
ATOM     23  C   UNL A   1      33.230  31.223  27.269  1.00  0.00     0.012 A 
ATOM     24  C   UNL A   1      34.400  30.536  27.507  1.00  0.00     0.065 A 
ENDBRANCH  19  20
ENDBRANCH  14  15
ENDBRANCH  12  14
ENDBRANCH   9  10
ENDBRANCH   6   8
ENDBRANCH   3   4
ENDBRANCH   2   3
ENDBRANCH   1   2
BRANCH   1  25
ATOM     25  C   UNL A   1      39.022  22.065  25.973  1.00  0.00     0.002 C 
BRANCH  25  26
ATOM     26  C   UNL A   1      39.282  20.654  25.442  1.00  0.00     0.021 C 
BRANCH  26  27
ATOM     27  C   UNL A   1      39.715  19.637  26.493  1.00  0.00     0.116 C 
BRANCH  27  28
ATOM     28  N   UNL A   1      40.898  18.890  26.093  1.00  0.00    -0.352 N 
ATOM     29  C   UNL A   1      42.179  19.348  25.879  1.00  0.00     0.251 C 
ATOM     30  H   UNL A   1      40.764  17.924  25.956  1.00  0.00     0.163 HD
ATOM     31  O   UNL A   1      43.026  18.608  25.396  1.00  0.00    -0.269 OA
BRANCH  29  32
ATOM     32  C   UNL A   1      42.517  20.749  26.216  1.00  0.00     0.039 A 
ATOM     33  C   UNL A   1      42.531  21.143  27.558  1.00  0.00     0.014 A 
ATOM     34  C   UNL A   1      42.833  21.667  25.212  1.00  0.00     0.014 A 
ATOM     35  C   UNL A   1      42.926  22.439  27.897  1.00  0.00     0.010 A 
ATOM     36  C   UNL A   1      43.288  22.937  25.555  1.00  0.00     0.010 A 
ATOM     37  C   UNL A   1      43.340  23.338  26.900  1.00  0.00    -0.014 A 
BRANCH  37  38
ATOM     38  C   UNL A   1      43.839  24.699  27.230  1.00  0.00     0.031 A 
ATOM     39  C   UNL A   1      42.886  25.743  27.749  1.00  0.00     0.074 A 
ATOM     40  C   UNL A   1      45.116  25.030  26.951  1.00  0.00     0.049 A 
ATOM     41  N   UNL A   1      43.100  27.012  27.980  1.00  0.00    -0.248 NA
ATOM     42  C   UNL A   1      41.503  25.312  28.016  1.00  0.00     0.031 C 
ATOM     43  C   UNL A   1      46.120  24.130  26.377  1.00  0.00     0.029 A 
ATOM     44  N   UNL A   1      45.780  26.226  27.076  1.00  0.00    -0.354 N 
ATOM     45  C   UNL A   1      41.873  27.541  28.364  1.00  0.00     0.074 A 
ATOM     46  C   UNL A   1      40.914  26.459  28.325  1.00  0.00     0.031 C 
ATOM     47  C   UNL A   1      47.265  24.807  26.191  1.00  0.00     0.029 A 
ATOM     48  C   UNL A   1      47.071  26.194  26.601  1.00  0.00     0.049 A 
ATOM     49  H   UNL A   1      45.370  27.031  27.468  1.00  0.00     0.167 HD
ATOM     50  C   UNL A   1      41.577  28.807  28.737  1.00  0.00     0.034 A 
ATOM     51  C   UNL A   1      47.991  27.175  26.494  1.00  0.00     0.034 A 
ATOM     52  C   UNL A   1      42.546  29.863  28.846  1.00  0.00     0.049 A 
ATOM     53  C   UNL A   1      47.644  28.561  26.973  1.00  0.00     0.074 A 
ATOM     54  C   UNL A   1      42.365  31.147  29.330  1.00  0.00     0.029 A 
ATOM     55  N   UNL A   1      43.873  29.762  28.464  1.00  0.00    -0.354 N 
ATOM     56  N   UNL A   1      46.526  28.995  27.502  1.00  0.00    -0.248 NA
ATOM     57  C   UNL A   1      48.695  29.585  26.872  1.00  0.00     0.031 C 
ATOM     58  C   UNL A   1      43.580  31.829  29.222  1.00  0.00     0.029 A 
ATOM     59  C   UNL A   1      44.521  30.963  28.691  1.00  0.00     0.049 A 
ATOM     60  H   UNL A   1      44.293  28.955  28.087  1.00  0.00     0.167 HD
ATOM     61  C   UNL A   1      46.755  30.324  27.840  1.00  0.00     0.074 A 
ATOM     62  C   UNL A   1      48.122  30.621  27.470  1.00  0.00     0.031 C 
ATOM     63  C   UNL A   1      45.905  31.222  28.393  1.00  0.00     0.034 A 
BRANCH  50  64
ATOM     64  C   UNL A   1      40.154  29.126  29.114  1.00  0.00     0.023 A 
ATOM     65  C   UNL A   1      39.192  29.315  28.102  1.00  0.00     0.012 A 
ATOM     66  C   UNL A   1      39.752  29.134  30.464  1.00  0.00     0.148 A 
ATOM     67  C   UNL A   1      37.853  29.526  28.428  1.00  0.00     0.002 A 
ATOM     68  C   UNL A   1      38.410  29.303  30.780  1.00  0.00     0.091 A 
ATOM     69  F   UNL A   1      40.688  28.971  31.410  1.00  0.00    -0.205 F 
ATOM     70  C   UNL A   1      37.461  29.508  29.764  1.00  0.00     0.022 A 
BRANCH  68  71
ATOM     71  S   UNL A   1      37.788  29.215  32.463  1.00  0.00     0.127 S 
ATOM     72  O   UNL A   1      38.659  30.169  33.150  1.00  0.00    -0.237 OA
ATOM     73  O   UNL A   1      36.403  29.660  32.301  1.00  0.00    -0.237 OA
ATOM     74  O   UNL A   1      37.938  27.828  32.876  1.00  0.00    -0.744 OA
ENDBRANCH  68  71
ENDBRANCH  50  64
BRANCH  51  75
ATOM     75  C   UNL A   1      49.354  26.879  25.966  1.00  0.00     0.023 A 
ATOM     76  C   UNL A   1      50.298  26.258  26.809  1.00  0.00     0.012 A 
ATOM     77  C   UNL A   1      49.727  27.212  24.651  1.00  0.00     0.148 A 
ATOM     78  C   UNL A   1      51.598  26.014  26.366  1.00  0.00     0.002 A 
ATOM     79  C   UNL A   1      51.008  26.915  24.197  1.00  0.00     0.091 A 
ATOM     80  F   UNL A   1      48.824  27.818  23.866  1.00  0.00    -0.205 F 
ATOM     81  C   UNL A   1      51.951  26.335  25.058  1.00  0.00     0.022 A 
BRANCH  79  82
ATOM     82  S   UNL A   1      51.497  27.178  22.489  1.00  0.00     0.127 S 
ATOM     83  O   UNL A   1      50.328  26.690  21.763  1.00  0.00    -0.237 OA
ATOM     84  O   UNL A   1      51.691  28.628  22.443  1.00  0.00    -0.237 OA
ATOM     85  O   UNL A   1      52.724  26.410  22.318  1.00  0.00    -0.744 OA
ENDBRANCH  79  82
ENDBRANCH  51  75
BRANCH  63  86
ATOM     86  C   UNL A   1      46.430  32.601  28.692  1.00  0.00     0.023 A 
ATOM     87  C   UNL A   1      47.021  32.871  29.941  1.00  0.00     0.012 A 
ATOM     88  C   UNL A   1      46.425  33.598  27.696  1.00  0.00     0.148 A 
ATOM     89  C   UNL A   1      47.578  34.122  30.204  1.00  0.00     0.002 A 
ATOM     90  C   UNL A   1      47.025  34.825  27.947  1.00  0.00     0.091 A 
ATOM     91  F   UNL A   1      45.841  33.324  26.520  1.00  0.00    -0.205 F 
ATOM     92  C   UNL A   1      47.592  35.093  29.204  1.00  0.00     0.022 A 
BRANCH  90  93
ATOM     93  S   UNL A   1      47.180  36.096  26.688  1.00  0.00     0.127 S 
ATOM     94  O   UNL A   1      45.830  36.125  26.126  1.00  0.00    -0.237 OA
ATOM     95  O   UNL A   1      47.538  37.275  27.478  1.00  0.00    -0.237 OA
ATOM     96  O   UNL A   1      48.224  35.638  25.782  1.00  0.00    -0.744 OA
ENDBRANCH  90  93
ENDBRANCH  63  86
ENDBRANCH  37  38
ENDBRANCH  29  32
ENDBRANCH  27  28
ENDBRANCH  26  27
ENDBRANCH  25  26
ENDBRANCH   1  25
TORSDOF 20
ENDMDL
MODEL 2
REMARK VINA RESULT:     -10.6      1.006      7.729
REMARK SMILES O=C(/C=C/C(=O)NCc1ccc(-c2cccs2)s1)NCCCCCCNC(=O)c1ccc(-c2c3nc(c(-c4cccc(S(=O)(=O)[O-])c4F)c4ccc([nH]4)c(-c4cccc(S(=O)(=O)[O-])c4F)c4nc(c(-c5cccc(S(=O)(=O)[O-])c5F)c5ccc2[nH]5)C=C4)C=C3)cc1
REMARK SMILES IDX 22 1 21 2 20 3 19 4 1 5 2 6 3 8 4 9 5 10 6 11 7 12 8 14 9 15
REMARK SMILES IDX 10 16 18 17 11 18 12 19 13 20 14 21 17 22 15 23 16 24 23 25
REMARK SMILES IDX 24 26 25 27 26 28 27 29 28 31 29 32 30 33 91 34 31 35 90 36
REMARK SMILES IDX 32 37 33 38 34 39 84 40 35 41 89 42 83 43 85 44 36 45 88 46
REMARK SMILES IDX 82 47 81 48 37 50 69 51 49 52 68 53 50 54 53 55 67 56 86 57
REMARK SMILES IDX 51 58 52 59 66 61 87 62 54 63 38 64 39 65 47 66 40 67 42 68
REMARK SMILES IDX 48 69 41 70 43 71 44 72 45 73 46 74 70 75 71 76 79 77 72 78
REMARK SMILES IDX 74 79 80 80 73 81 75 82 76 83 77 84 78 85 55 86 56 87 64 88
REMARK SMILES IDX 57 89 59 90 65 91 58 92 60 93 61 94 62 95 63 96
REMARK H PARENT 19 7 7 13 26 30 85 49 53 60
REMARK Flexibility Score: inf
ROOT
ATOM      1  C   UNL A   1      37.901  22.369  25.729  1.00  0.00     0.002 C 
ENDROOT
BRANCH   1   2
ATOM      2  C   UNL A   1      37.147  21.629  24.616  1.00  0.00     0.021 C 
BRANCH   2   3
ATOM      3  C   UNL A   1      36.141  20.588  25.104  1.00  0.00     0.116 C 
BRANCH   3   4
ATOM      4  N   UNL A   1      34.780  21.077  25.025  1.00  0.00    -0.353 N 
ATOM      5  O   UNL A   1      33.802  19.061  24.479  1.00  0.00    -0.270 OA
ATOM      6  C   UNL A   1      33.732  20.262  24.696  1.00  0.00     0.244 C 
ATOM      7  H   UNL A   1      34.603  22.028  25.214  1.00  0.00     0.163 HD
BRANCH   6   8
ATOM      8  C   UNL A   1      32.413  20.925  24.688  1.00  0.00     0.077 C 
ATOM      9  C   UNL A   1      32.057  21.805  25.629  1.00  0.00     0.077 C 
BRANCH   9  10
ATOM     10  C   UNL A   1      30.770  22.525  25.713  1.00  0.00     0.244 C 
ATOM     11  O   UNL A   1      29.938  22.136  26.532  1.00  0.00    -0.270 OA
ATOM     12  N   UNL A   1      30.494  23.624  24.973  1.00  0.00    -0.348 N 
ATOM     13  H   UNL A   1      29.598  23.998  25.138  1.00  0.00     0.164 HD
BRANCH  12  14
ATOM     14  C   UNL A   1      31.259  24.360  23.986  1.00  0.00     0.163 C 
BRANCH  14  15
ATOM     15  C   UNL A   1      32.167  25.305  24.713  1.00  0.00     0.024 A 
ATOM     16  C   UNL A   1      33.512  25.168  25.010  1.00  0.00     0.018 A 
ATOM     17  S   UNL A   1      31.563  26.803  25.292  1.00  0.00    -0.138 S 
ATOM     18  C   UNL A   1      34.046  26.307  25.674  1.00  0.00     0.022 A 
ATOM     19  C   UNL A   1      33.097  27.289  25.872  1.00  0.00     0.045 A 
BRANCH  19  20
ATOM     20  C   UNL A   1      33.329  28.590  26.436  1.00  0.00     0.044 A 
ATOM     21  C   UNL A   1      34.555  29.115  26.796  1.00  0.00     0.021 A 
ATOM     22  S   UNL A   1      32.056  29.679  26.784  1.00  0.00    -0.143 S 
ATOM     23  C   UNL A   1      34.448  30.424  27.347  1.00  0.00     0.012 A 
ATOM     24  C   UNL A   1      33.139  30.848  27.407  1.00  0.00     0.065 A 
ENDBRANCH  19  20
ENDBRANCH  14  15
ENDBRANCH  12  14
ENDBRANCH   9  10
ENDBRANCH   6   8
ENDBRANCH   3   4
ENDBRANCH   2   3
ENDBRANCH   1   2
BRANCH   1  25
ATOM     25  C   UNL A   1      39.316  21.863  26.024  1.00  0.00     0.002 C 
BRANCH  25  26
ATOM     26  C   UNL A   1      39.566  20.386  25.715  1.00  0.00     0.021 C 
BRANCH  26  27
ATOM     27  C   UNL A   1      40.425  19.647  26.737  1.00  0.00     0.116 C 
BRANCH  27  28
ATOM     28  N   UNL A   1      41.639  19.096  26.153  1.00  0.00    -0.352 N 
ATOM     29  C   UNL A   1      42.791  19.750  25.777  1.00  0.00     0.251 C 
ATOM     30  H   UNL A   1      41.635  18.123  26.005  1.00  0.00     0.163 HD
ATOM     31  O   UNL A   1      43.663  19.154  25.158  1.00  0.00    -0.269 OA
BRANCH  29  32
ATOM     32  C   UNL A   1      42.957  21.183  26.108  1.00  0.00     0.039 A 
ATOM     33  C   UNL A   1      43.036  21.566  27.450  1.00  0.00     0.014 A 
ATOM     34  C   UNL A   1      43.049  22.141  25.097  1.00  0.00     0.014 A 
ATOM     35  C   UNL A   1      43.273  22.904  27.777  1.00  0.00     0.010 A 
ATOM     36  C   UNL A   1      43.350  23.462  25.422  1.00  0.00     0.010 A 
ATOM     37  C   UNL A   1      43.465  23.858  26.764  1.00  0.00    -0.014 A 
BRANCH  37  38
ATOM     38  C   UNL A   1      43.794  25.274  27.074  1.00  0.00     0.031 A 
ATOM     39  C   UNL A   1      45.226  25.739  27.029  1.00  0.00     0.074 A 
ATOM     40  C   UNL A   1      42.828  26.108  27.510  1.00  0.00     0.049 A 
ATOM     41  N   UNL A   1      45.729  26.895  27.378  1.00  0.00    -0.248 NA
ATOM     42  C   UNL A   1      46.229  24.769  26.557  1.00  0.00     0.031 C 
ATOM     43  C   UNL A   1      41.414  25.757  27.667  1.00  0.00     0.029 A 
ATOM     44  N   UNL A   1      42.894  27.411  27.937  1.00  0.00    -0.354 N 
ATOM     45  C   UNL A   1      47.105  26.773  27.222  1.00  0.00     0.074 A 
ATOM     46  C   UNL A   1      47.362  25.428  26.757  1.00  0.00     0.031 C 
ATOM     47  C   UNL A   1      40.751  26.815  28.166  1.00  0.00     0.029 A 
ATOM     48  C   UNL A   1      41.692  27.905  28.392  1.00  0.00     0.049 A 
ATOM     49  H   UNL A   1      43.722  27.942  27.920  1.00  0.00     0.167 HD
ATOM     50  C   UNL A   1      48.065  27.704  27.427  1.00  0.00     0.034 A 
ATOM     51  C   UNL A   1      41.387  29.098  28.943  1.00  0.00     0.034 A 
ATOM     52  C   UNL A   1      47.801  29.063  27.817  1.00  0.00     0.049 A 
ATOM     53  C   UNL A   1      42.472  30.132  29.102  1.00  0.00     0.074 A 
ATOM     54  C   UNL A   1      48.696  30.111  27.932  1.00  0.00     0.029 A 
ATOM     55  N   UNL A   1      46.554  29.559  28.160  1.00  0.00    -0.354 N 
ATOM     56  N   UNL A   1      43.740  30.054  28.778  1.00  0.00    -0.248 NA
ATOM     57  C   UNL A   1      42.079  31.430  29.670  1.00  0.00     0.031 C 
ATOM     58  C   UNL A   1      47.993  31.239  28.365  1.00  0.00     0.029 A 
ATOM     59  C   UNL A   1      46.658  30.897  28.497  1.00  0.00     0.049 A 
ATOM     60  H   UNL A   1      45.719  29.038  28.163  1.00  0.00     0.167 HD
ATOM     61  C   UNL A   1      44.282  31.302  29.058  1.00  0.00     0.074 A 
ATOM     62  C   UNL A   1      43.203  32.124  29.564  1.00  0.00     0.031 C 
ATOM     63  C   UNL A   1      45.562  31.727  28.922  1.00  0.00     0.034 A 
BRANCH  50  64
ATOM     64  C   UNL A   1      49.499  27.317  27.179  1.00  0.00     0.023 A 
ATOM     65  C   UNL A   1      50.222  26.649  28.188  1.00  0.00     0.012 A 
ATOM     66  C   UNL A   1      50.092  27.521  25.919  1.00  0.00     0.148 A 
ATOM     67  C   UNL A   1      51.522  26.205  27.951  1.00  0.00     0.002 A 
ATOM     68  C   UNL A   1      51.373  27.039  25.676  1.00  0.00     0.091 A 
ATOM     69  F   UNL A   1      49.392  28.175  24.981  1.00  0.00    -0.205 F 
ATOM     70  C   UNL A   1      52.092  26.388  26.694  1.00  0.00     0.022 A 
BRANCH  68  71
ATOM     71  S   UNL A   1      52.166  27.151  24.069  1.00  0.00     0.127 S 
ATOM     72  O   UNL A   1      53.192  26.113  24.173  1.00  0.00    -0.237 OA
ATOM     73  O   UNL A   1      51.065  26.831  23.160  1.00  0.00    -0.237 OA
ATOM     74  O   UNL A   1      52.670  28.512  23.961  1.00  0.00    -0.744 OA
ENDBRANCH  68  71
ENDBRANCH  50  64
BRANCH  51  75
ATOM     75  C   UNL A   1      39.982  29.413  29.333  1.00  0.00     0.023 A 
ATOM     76  C   UNL A   1      39.047  29.738  28.331  1.00  0.00     0.012 A 
ATOM     77  C   UNL A   1      39.568  29.404  30.679  1.00  0.00     0.148 A 
ATOM     78  C   UNL A   1      37.738  30.089  28.664  1.00  0.00     0.002 A 
ATOM     79  C   UNL A   1      38.247  29.701  30.999  1.00  0.00     0.091 A 
ATOM     80  F   UNL A   1      40.474  29.110  31.623  1.00  0.00    -0.205 F 
ATOM     81  C   UNL A   1      37.336  30.063  29.996  1.00  0.00     0.022 A 
BRANCH  79  82
ATOM     82  S   UNL A   1      37.621  29.561  32.677  1.00  0.00     0.127 S 
ATOM     83  O   UNL A   1      38.620  30.311  33.434  1.00  0.00    -0.237 OA
ATOM     84  O   UNL A   1      36.313  30.210  32.573  1.00  0.00    -0.237 OA
ATOM     85  O   UNL A   1      37.555  28.131  32.944  1.00  0.00    -0.744 OA
ENDBRANCH  79  82
ENDBRANCH  51  75
BRANCH  63  86
ATOM     86  C   UNL A   1      45.872  33.158  29.267  1.00  0.00     0.023 A 
ATOM     87  C   UNL A   1      46.247  33.498  30.581  1.00  0.00     0.012 A 
ATOM     88  C   UNL A   1      45.889  34.147  28.263  1.00  0.00     0.148 A 
ATOM     89  C   UNL A   1      46.609  34.807  30.897  1.00  0.00     0.002 A 
ATOM     90  C   UNL A   1      46.299  35.438  28.574  1.00  0.00     0.091 A 
ATOM     91  F   UNL A   1      45.512  33.805  27.022  1.00  0.00    -0.205 F 
ATOM     92  C   UNL A   1      46.648  35.773  29.892  1.00  0.00     0.022 A 
BRANCH  90  93
ATOM     93  S   UNL A   1      46.477  36.717  27.326  1.00  0.00     0.127 S 
ATOM     94  O   UNL A   1      45.083  37.068  27.058  1.00  0.00    -0.237 OA
ATOM     95  O   UNL A   1      47.238  37.743  28.039  1.00  0.00    -0.237 OA
ATOM     96  O   UNL A   1      47.189  36.099  26.216  1.00  0.00    -0.744 OA
ENDBRANCH  90  93
ENDBRANCH  63  86
ENDBRANCH  37  38
ENDBRANCH  29  32
ENDBRANCH  27  28
ENDBRANCH  26  27
ENDBRANCH  25  26
ENDBRANCH   1  25
TORSDOF 20
ENDMDL
MODEL 3
REMARK VINA RESULT:     -10.1      1.989      7.700
REMARK SMILES O=C(/C=C/C(=O)NCc1ccc(-c2cccs2)s1)NCCCCCCNC(=O)c1ccc(-c2c3nc(c(-c4cccc(S(=O)(=O)[O-])c4F)c4ccc([nH]4)c(-c4cccc(S(=O)(=O)[O-])c4F)c4nc(c(-c5cccc(S(=O)(=O)[O-])c5F)c5ccc2[nH]5)C=C4)C=C3)cc1
REMARK SMILES IDX 22 1 21 2 20 3 19 4 1 5 2 6 3 8 4 9 5 10 6 11 7 12 8 14 9 15
REMARK SMILES IDX 10 16 18 17 11 18 12 19 13 20 14 21 17 22 15 23 16 24 23 25
REMARK SMILES IDX 24 26 25 27 26 28 27 29 28 31 29 32 30 33 91 34 31 35 90 36
REMARK SMILES IDX 32 37 33 38 34 39 84 40 35 41 89 42 83 43 85 44 36 45 88 46
REMARK SMILES IDX 82 47 81 48 37 50 69 51 49 52 68 53 50 54 53 55 67 56 86 57
REMARK SMILES IDX 51 58 52 59 66 61 87 62 54 63 38 64 39 65 47 66 40 67 42 68
REMARK SMILES IDX 48 69 41 70 43 71 44 72 45 73 46 74 70 75 71 76 79 77 72 78
REMARK SMILES IDX 74 79 80 80 73 81 75 82 76 83 77 84 78 85 55 86 56 87 64 88
REMARK SMILES IDX 57 89 59 90 65 91 58 92 60 93 61 94 62 95 63 96
REMARK H PARENT 19 7 7 13 26 30 85 49 53 60
REMARK Flexibility Score: inf
ROOT
ATOM      1  C   UNL A   1      37.426  22.003  25.238  1.00  0.00     0.002 C 
ENDROOT
BRANCH   1   2
ATOM      2  C   UNL A   1      36.706  20.650  25.331  1.00  0.00     0.021 C 
BRANCH   2   3
ATOM      3  C   UNL A   1      35.227  20.683  24.947  1.00  0.00     0.116 C 
BRANCH   3   4
ATOM      4  N   UNL A   1      34.864  21.934  24.313  1.00  0.00    -0.353 N 
ATOM      5  O   UNL A   1      32.874  22.238  25.438  1.00  0.00    -0.270 OA
ATOM      6  C   UNL A   1      33.700  22.588  24.608  1.00  0.00     0.244 C 
ATOM      7  H   UNL A   1      35.477  22.327  23.649  1.00  0.00     0.163 HD
BRANCH   6   8
ATOM      8  C   UNL A   1      33.506  23.861  23.884  1.00  0.00     0.077 C 
ATOM      9  C   UNL A   1      32.821  23.925  22.737  1.00  0.00     0.077 C 
BRANCH   9  10
ATOM     10  C   UNL A   1      32.565  25.141  21.937  1.00  0.00     0.244 C 
ATOM     11  O   UNL A   1      33.315  25.383  20.993  1.00  0.00    -0.270 OA
ATOM     12  N   UNL A   1      31.512  25.959  22.163  1.00  0.00    -0.348 N 
ATOM     13  H   UNL A   1      31.469  26.728  21.548  1.00  0.00     0.164 HD
BRANCH  12  14
ATOM     14  C   UNL A   1      30.433  25.927  23.131  1.00  0.00     0.163 C 
BRANCH  14  15
ATOM     15  C   UNL A   1      30.905  26.617  24.375  1.00  0.00     0.024 A 
ATOM     16  C   UNL A   1      30.696  26.269  25.698  1.00  0.00     0.018 A 
ATOM     17  S   UNL A   1      31.858  28.039  24.259  1.00  0.00    -0.138 S 
ATOM     18  C   UNL A   1      31.350  27.147  26.605  1.00  0.00     0.022 A 
ATOM     19  C   UNL A   1      32.043  28.149  25.956  1.00  0.00     0.045 A 
BRANCH  19  20
ATOM     20  C   UNL A   1      32.874  29.144  26.577  1.00  0.00     0.044 A 
ATOM     21  C   UNL A   1      34.163  28.957  27.036  1.00  0.00     0.021 A 
ATOM     22  S   UNL A   1      32.329  30.739  26.870  1.00  0.00    -0.143 S 
ATOM     23  C   UNL A   1      34.709  30.136  27.621  1.00  0.00     0.012 A 
ATOM     24  C   UNL A   1      33.811  31.179  27.604  1.00  0.00     0.065 A 
ENDBRANCH  19  20
ENDBRANCH  14  15
ENDBRANCH  12  14
ENDBRANCH   9  10
ENDBRANCH   6   8
ENDBRANCH   3   4
ENDBRANCH   2   3
ENDBRANCH   1   2
BRANCH   1  25
ATOM     25  C   UNL A   1      38.667  22.157  26.123  1.00  0.00     0.002 C 
BRANCH  25  26
ATOM     26  C   UNL A   1      39.883  21.329  25.703  1.00  0.00     0.021 C 
BRANCH  26  27
ATOM     27  C   UNL A   1      40.255  20.196  26.655  1.00  0.00     0.116 C 
BRANCH  27  28
ATOM     28  N   UNL A   1      41.342  19.374  26.147  1.00  0.00    -0.352 N 
ATOM     29  C   UNL A   1      42.614  19.753  25.780  1.00  0.00     0.251 C 
ATOM     30  H   UNL A   1      41.141  18.415  26.052  1.00  0.00     0.163 HD
ATOM     31  O   UNL A   1      43.360  18.955  25.226  1.00  0.00    -0.269 OA
BRANCH  29  32
ATOM     32  C   UNL A   1      43.065  21.140  26.038  1.00  0.00     0.039 A 
ATOM     33  C   UNL A   1      43.187  22.026  24.964  1.00  0.00     0.014 A 
ATOM     34  C   UNL A   1      43.352  21.566  27.336  1.00  0.00     0.014 A 
ATOM     35  C   UNL A   1      43.534  23.359  25.200  1.00  0.00     0.010 A 
ATOM     36  C   UNL A   1      43.633  22.908  27.576  1.00  0.00     0.010 A 
ATOM     37  C   UNL A   1      43.728  23.819  26.512  1.00  0.00    -0.014 A 
BRANCH  37  38
ATOM     38  C   UNL A   1      44.022  25.246  26.807  1.00  0.00     0.031 A 
ATOM     39  C   UNL A   1      45.426  25.770  26.660  1.00  0.00     0.074 A 
ATOM     40  C   UNL A   1      43.057  26.038  27.319  1.00  0.00     0.049 A 
ATOM     41  N   UNL A   1      45.906  26.944  26.979  1.00  0.00    -0.248 NA
ATOM     42  C   UNL A   1      46.430  24.843  26.108  1.00  0.00     0.031 C 
ATOM     43  C   UNL A   1      41.674  25.629  27.578  1.00  0.00     0.029 A 
ATOM     44  N   UNL A   1      43.102  27.341  27.751  1.00  0.00    -0.354 N 
ATOM     45  C   UNL A   1      47.270  26.879  26.722  1.00  0.00     0.074 A 
ATOM     46  C   UNL A   1      47.547  25.548  26.229  1.00  0.00     0.031 C 
ATOM     47  C   UNL A   1      41.007  26.656  28.132  1.00  0.00     0.029 A 
ATOM     48  C   UNL A   1      41.918  27.783  28.297  1.00  0.00     0.049 A 
ATOM     49  H   UNL A   1      43.904  27.905  27.676  1.00  0.00     0.167 HD
ATOM     50  C   UNL A   1      48.205  27.848  26.862  1.00  0.00     0.034 A 
ATOM     51  C   UNL A   1      41.606  28.960  28.878  1.00  0.00     0.034 A 
ATOM     52  C   UNL A   1      47.915  29.193  27.281  1.00  0.00     0.049 A 
ATOM     53  C   UNL A   1      42.657  30.036  28.964  1.00  0.00     0.074 A 
ATOM     54  C   UNL A   1      48.774  30.276  27.337  1.00  0.00     0.029 A 
ATOM     55  N   UNL A   1      46.678  29.636  27.719  1.00  0.00    -0.354 N 
ATOM     56  N   UNL A   1      43.899  30.012  28.546  1.00  0.00    -0.248 NA
ATOM     57  C   UNL A   1      42.255  31.315  29.569  1.00  0.00     0.031 C 
ATOM     58  C   UNL A   1      48.059  31.373  27.829  1.00  0.00     0.029 A 
ATOM     59  C   UNL A   1      46.752  30.976  28.057  1.00  0.00     0.049 A 
ATOM     60  H   UNL A   1      45.868  29.081  27.780  1.00  0.00     0.167 HD
ATOM     61  C   UNL A   1      44.410  31.281  28.795  1.00  0.00     0.074 A 
ATOM     62  C   UNL A   1      43.340  32.055  29.385  1.00  0.00     0.031 C 
ATOM     63  C   UNL A   1      45.658  31.757  28.568  1.00  0.00     0.034 A 
BRANCH  50  64
ATOM     64  C   UNL A   1      49.631  27.521  26.506  1.00  0.00     0.023 A 
ATOM     65  C   UNL A   1      50.047  27.596  25.162  1.00  0.00     0.012 A 
ATOM     66  C   UNL A   1      50.577  27.244  27.512  1.00  0.00     0.148 A 
ATOM     67  C   UNL A   1      51.381  27.380  24.821  1.00  0.00     0.002 A 
ATOM     68  C   UNL A   1      51.913  27.072  27.169  1.00  0.00     0.091 A 
ATOM     69  F   UNL A   1      50.155  27.159  28.781  1.00  0.00    -0.205 F 
ATOM     70  C   UNL A   1      52.315  27.132  25.824  1.00  0.00     0.022 A 
BRANCH  68  71
ATOM     71  S   UNL A   1      53.207  26.827  28.391  1.00  0.00     0.127 S 
ATOM     72  O   UNL A   1      53.540  28.206  28.747  1.00  0.00    -0.237 OA
ATOM     73  O   UNL A   1      52.506  26.079  29.434  1.00  0.00    -0.237 OA
ATOM     74  O   UNL A   1      54.264  26.088  27.716  1.00  0.00    -0.744 OA
ENDBRANCH  68  71
ENDBRANCH  50  64
BRANCH  51  75
ATOM     75  C   UNL A   1      40.223  29.215  29.373  1.00  0.00     0.023 A 
ATOM     76  C   UNL A   1      39.251  29.702  28.477  1.00  0.00     0.012 A 
ATOM     77  C   UNL A   1      39.864  28.992  30.716  1.00  0.00     0.148 A 
ATOM     78  C   UNL A   1      37.961  30.002  28.917  1.00  0.00     0.002 A 
ATOM     79  C   UNL A   1      38.561  29.240  31.136  1.00  0.00     0.091 A 
ATOM     80  F   UNL A   1      40.805  28.545  31.561  1.00  0.00    -0.205 F 
ATOM     81  C   UNL A   1      37.614  29.764  30.244  1.00  0.00     0.022 A 
BRANCH  79  82
ATOM     82  S   UNL A   1      38.004  28.836  32.794  1.00  0.00     0.127 S 
ATOM     83  O   UNL A   1      38.923  29.615  33.620  1.00  0.00    -0.237 OA
ATOM     84  O   UNL A   1      36.623  29.321  32.783  1.00  0.00    -0.237 OA
ATOM     85  O   UNL A   1      38.122  27.387  32.897  1.00  0.00    -0.744 OA
ENDBRANCH  79  82
ENDBRANCH  51  75
BRANCH  63  86
ATOM     86  C   UNL A   1      45.935  33.199  28.900  1.00  0.00     0.023 A 
ATOM     87  C   UNL A   1      46.440  33.543  30.168  1.00  0.00     0.012 A 
ATOM     88  C   UNL A   1      45.788  34.199  27.917  1.00  0.00     0.148 A 
ATOM     89  C   UNL A   1      46.771  34.865  30.464  1.00  0.00     0.002 A 
ATOM     90  C   UNL A   1      46.167  35.505  28.201  1.00  0.00     0.091 A 
ATOM     91  F   UNL A   1      45.290  33.852  26.722  1.00  0.00    -0.205 F 
ATOM     92  C   UNL A   1      46.648  35.842  29.477  1.00  0.00     0.022 A 
BRANCH  90  93
ATOM     93  S   UNL A   1      46.138  36.806  26.964  1.00  0.00     0.127 S 
ATOM     94  O   UNL A   1      46.685  36.118  25.795  1.00  0.00    -0.237 OA
ATOM     95  O   UNL A   1      44.712  37.120  26.876  1.00  0.00    -0.237 OA
ATOM     96  O   UNL A   1      46.962  37.883  27.496  1.00  0.00    -0.744 OA
ENDBRANCH  90  93
ENDBRANCH  63  86
ENDBRANCH  37  38
ENDBRANCH  29  32
ENDBRANCH  27  28
ENDBRANCH  26  27
ENDBRANCH  25  26
ENDBRANCH   1  25
TORSDOF 20
ENDMDL
