MODEL 1
REMARK VINA RESULT:     -11.3      0.000      0.000
REMARK SMILES COc1ccc(CSc2ncccc2C(=O)NCCCCCCNC(=O)c2ccc(-c3c4nc(c(-c5cccc(S(=O)(=O)[O-])c5F)c5ccc([nH]5)c(-c5cccc(S(=O)(=O)[O-])c5F)c5nc(c(-c6cccc(S(=O)(=O)[O-])c6F)c6ccc3[nH]6)C=C5)C=C4)cc2)cc1
REMARK SMILES IDX 20 1 19 2 18 3 17 4 15 5 16 6 14 8 9 9 10 10 11 11 13 12
REMARK SMILES IDX 12 13 8 14 7 15 6 16 3 17 4 18 91 19 5 20 90 21 2 22 1 23
REMARK SMILES IDX 21 24 22 25 23 26 24 27 25 28 26 30 27 31 28 32 89 33 29 34
REMARK SMILES IDX 88 35 30 36 31 37 32 38 82 39 33 40 87 41 81 42 83 43 34 44
REMARK SMILES IDX 86 45 80 46 79 47 35 49 67 50 47 51 66 52 48 53 51 54 65 55
REMARK SMILES IDX 84 56 49 57 50 58 64 60 85 61 52 62 36 63 37 64 45 65 38 66
REMARK SMILES IDX 40 67 46 68 39 69 41 70 42 71 43 72 44 73 68 74 69 75 77 76
REMARK SMILES IDX 70 77 72 78 78 79 71 80 73 81 74 82 75 83 76 84 53 85 54 86
REMARK SMILES IDX 62 87 55 88 57 89 63 90 56 91 58 92 59 93 60 94 61 95
REMARK H PARENT 17 7 24 29 83 48 51 59
REMARK Flexibility Score: inf
ROOT
ATOM      1  C   UNL A   1      32.386  29.475  26.578  1.00  0.00     0.002 C 
ENDROOT
BRANCH   1   2
ATOM      2  C   UNL A   1      31.520  28.207  26.675  1.00  0.00     0.021 C 
BRANCH   2   3
ATOM      3  C   UNL A   1      32.344  26.914  26.594  1.00  0.00     0.116 C 
BRANCH   3   4
ATOM      4  N   UNL A   1      31.496  25.807  27.004  1.00  0.00    -0.352 N 
ATOM      5  C   UNL A   1      31.350  24.542  26.485  1.00  0.00     0.254 C 
ATOM      6  O   UNL A   1      30.242  24.021  26.588  1.00  0.00    -0.269 OA
ATOM      7  H   UNL A   1      30.930  25.995  27.788  1.00  0.00     0.163 HD
BRANCH   5   8
ATOM      8  C   UNL A   1      32.491  23.783  25.924  1.00  0.00     0.072 A 
ATOM      9  C   UNL A   1      32.623  23.570  24.543  1.00  0.00     0.109 A 
ATOM     10  N   UNL A   1      33.659  22.845  24.025  1.00  0.00    -0.249 NA
ATOM     11  C   UNL A   1      34.585  22.345  24.866  1.00  0.00     0.112 A 
ATOM     12  C   UNL A   1      33.519  23.310  26.754  1.00  0.00     0.018 A 
ATOM     13  C   UNL A   1      34.567  22.562  26.227  1.00  0.00     0.021 A 
BRANCH   9  14
ATOM     14  S   UNL A   1      31.649  24.290  23.229  1.00  0.00    -0.101 SA
BRANCH  14  15
ATOM     15  C   UNL A   1      32.185  26.022  23.189  1.00  0.00     0.112 C 
BRANCH  15  16
ATOM     16  C   UNL A   1      31.079  27.040  23.097  1.00  0.00    -0.037 A 
ATOM     17  C   UNL A   1      28.993  28.902  22.781  1.00  0.00     0.118 A 
ATOM     18  C   UNL A   1      28.757  27.675  23.400  1.00  0.00     0.047 A 
ATOM     19  C   UNL A   1      30.280  29.212  22.342  1.00  0.00     0.047 A 
ATOM     20  C   UNL A   1      29.786  26.744  23.548  1.00  0.00     0.008 A 
ATOM     21  C   UNL A   1      31.316  28.286  22.500  1.00  0.00     0.008 A 
BRANCH  17  22
ATOM     22  O   UNL A   1      27.901  29.721  22.685  1.00  0.00    -0.497 OA
ATOM     23  C   UNL A   1      27.909  30.870  23.523  1.00  0.00     0.278 C 
ENDBRANCH  17  22
ENDBRANCH  15  16
ENDBRANCH  14  15
ENDBRANCH   9  14
ENDBRANCH   5   8
ENDBRANCH   3   4
ENDBRANCH   2   3
ENDBRANCH   1   2
BRANCH   1  24
ATOM     24  C   UNL A   1      31.694  30.668  25.909  1.00  0.00     0.002 C 
BRANCH  24  25
ATOM     25  C   UNL A   1      31.447  31.862  26.832  1.00  0.00     0.021 C 
BRANCH  25  26
ATOM     26  C   UNL A   1      32.721  32.524  27.345  1.00  0.00     0.116 C 
BRANCH  26  27
ATOM     27  N   UNL A   1      32.515  33.939  27.616  1.00  0.00    -0.352 N 
ATOM     28  C   UNL A   1      33.088  34.718  28.592  1.00  0.00     0.251 C 
ATOM     29  H   UNL A   1      31.880  34.400  27.021  1.00  0.00     0.163 HD
ATOM     30  O   UNL A   1      32.637  35.831  28.838  1.00  0.00    -0.269 OA
BRANCH  28  31
ATOM     31  C   UNL A   1      34.246  34.196  29.348  1.00  0.00     0.039 A 
ATOM     32  C   UNL A   1      34.026  33.491  30.533  1.00  0.00     0.014 A 
ATOM     33  C   UNL A   1      35.546  34.406  28.879  1.00  0.00     0.014 A 
ATOM     34  C   UNL A   1      35.113  32.956  31.228  1.00  0.00     0.010 A 
ATOM     35  C   UNL A   1      36.619  33.809  29.532  1.00  0.00     0.010 A 
ATOM     36  C   UNL A   1      36.416  33.091  30.721  1.00  0.00    -0.014 A 
BRANCH  36  37
ATOM     37  C   UNL A   1      37.586  32.505  31.421  1.00  0.00     0.031 A 
ATOM     38  C   UNL A   1      38.327  31.348  30.805  1.00  0.00     0.074 A 
ATOM     39  C   UNL A   1      37.921  32.947  32.648  1.00  0.00     0.049 A 
ATOM     40  N   UNL A   1      39.315  30.646  31.295  1.00  0.00    -0.248 NA
ATOM     41  C   UNL A   1      37.878  30.903  29.475  1.00  0.00     0.031 C 
ATOM     42  C   UNL A   1      37.235  34.012  33.382  1.00  0.00     0.029 A 
ATOM     43  N   UNL A   1      38.909  32.534  33.509  1.00  0.00    -0.354 N 
ATOM     44  C   UNL A   1      39.578  29.655  30.358  1.00  0.00     0.074 A 
ATOM     45  C   UNL A   1      38.623  29.824  29.285  1.00  0.00     0.031 C 
ATOM     46  C   UNL A   1      37.819  34.168  34.581  1.00  0.00     0.029 A 
ATOM     47  C   UNL A   1      38.900  33.196  34.715  1.00  0.00     0.049 A 
ATOM     48  H   UNL A   1      39.560  31.832  33.285  1.00  0.00     0.167 HD
ATOM     49  C   UNL A   1      40.545  28.707  30.372  1.00  0.00     0.034 A 
ATOM     50  C   UNL A   1      39.669  33.031  35.809  1.00  0.00     0.034 A 
ATOM     51  C   UNL A   1      41.521  28.573  31.419  1.00  0.00     0.049 A 
ATOM     52  C   UNL A   1      40.763  31.997  35.783  1.00  0.00     0.074 A 
ATOM     53  C   UNL A   1      42.595  27.705  31.487  1.00  0.00     0.029 A 
ATOM     54  N   UNL A   1      41.538  29.323  32.585  1.00  0.00    -0.354 N 
ATOM     55  N   UNL A   1      41.093  31.169  34.823  1.00  0.00    -0.248 NA
ATOM     56  C   UNL A   1      41.613  31.900  36.978  1.00  0.00     0.031 C 
ATOM     57  C   UNL A   1      43.248  27.914  32.706  1.00  0.00     0.029 A 
ATOM     58  C   UNL A   1      42.599  28.933  33.382  1.00  0.00     0.049 A 
ATOM     59  H   UNL A   1      40.892  30.030  32.811  1.00  0.00     0.167 HD
ATOM     60  C   UNL A   1      42.213  30.482  35.278  1.00  0.00     0.074 A 
ATOM     61  C   UNL A   1      42.514  31.003  36.596  1.00  0.00     0.031 C 
ATOM     62  C   UNL A   1      42.920  29.500  34.668  1.00  0.00     0.034 A 
BRANCH  49  63
ATOM     63  C   UNL A   1      40.625  27.770  29.195  1.00  0.00     0.023 A 
ATOM     64  C   UNL A   1      39.767  26.653  29.132  1.00  0.00     0.012 A 
ATOM     65  C   UNL A   1      41.509  28.022  28.127  1.00  0.00     0.148 A 
ATOM     66  C   UNL A   1      39.812  25.780  28.047  1.00  0.00     0.002 A 
ATOM     67  C   UNL A   1      41.516  27.173  27.026  1.00  0.00     0.091 A 
ATOM     68  F   UNL A   1      42.333  29.076  28.213  1.00  0.00    -0.205 F 
ATOM     69  C   UNL A   1      40.679  26.045  26.991  1.00  0.00     0.022 A 
BRANCH  67  70
ATOM     70  S   UNL A   1      42.536  27.473  25.579  1.00  0.00     0.127 S 
ATOM     71  O   UNL A   1      43.877  27.490  26.161  1.00  0.00    -0.237 OA
ATOM     72  O   UNL A   1      42.246  26.303  24.750  1.00  0.00    -0.237 OA
ATOM     73  O   UNL A   1      42.081  28.739  25.021  1.00  0.00    -0.744 OA
ENDBRANCH  67  70
ENDBRANCH  49  63
BRANCH  50  74
ATOM     74  C   UNL A   1      39.473  33.909  36.998  1.00  0.00     0.023 A 
ATOM     75  C   UNL A   1      39.873  35.258  36.935  1.00  0.00     0.012 A 
ATOM     76  C   UNL A   1      38.868  33.427  38.174  1.00  0.00     0.148 A 
ATOM     77  C   UNL A   1      39.708  36.101  38.034  1.00  0.00     0.002 A 
ATOM     78  C   UNL A   1      38.655  34.287  39.245  1.00  0.00     0.091 A 
ATOM     79  F   UNL A   1      38.502  32.138  38.218  1.00  0.00    -0.205 F 
ATOM     80  C   UNL A   1      39.091  35.620  39.185  1.00  0.00     0.022 A 
BRANCH  78  81
ATOM     81  S   UNL A   1      37.749  33.789  40.715  1.00  0.00     0.127 S 
ATOM     82  O   UNL A   1      37.618  35.057  41.429  1.00  0.00    -0.237 OA
ATOM     83  O   UNL A   1      36.506  33.272  40.142  1.00  0.00    -0.237 OA
ATOM     84  O   UNL A   1      38.575  32.779  41.364  1.00  0.00    -0.744 OA
ENDBRANCH  78  81
ENDBRANCH  50  74
BRANCH  62  85
ATOM     85  C   UNL A   1      44.121  28.948  35.390  1.00  0.00     0.023 A 
ATOM     86  C   UNL A   1      45.391  29.521  35.184  1.00  0.00     0.012 A 
ATOM     87  C   UNL A   1      43.972  27.914  36.336  1.00  0.00     0.148 A 
ATOM     88  C   UNL A   1      46.502  29.051  35.884  1.00  0.00     0.002 A 
ATOM     89  C   UNL A   1      45.074  27.486  37.067  1.00  0.00     0.091 A 
ATOM     90  F   UNL A   1      42.759  27.370  36.504  1.00  0.00    -0.205 F 
ATOM     91  C   UNL A   1      46.341  28.045  36.834  1.00  0.00     0.022 A 
BRANCH  89  92
ATOM     92  S   UNL A   1      44.942  26.267  38.379  1.00  0.00     0.127 S 
ATOM     93  O   UNL A   1      44.712  25.038  37.621  1.00  0.00    -0.237 OA
ATOM     94  O   UNL A   1      46.257  26.354  39.017  1.00  0.00    -0.237 OA
ATOM     95  O   UNL A   1      43.834  26.699  39.220  1.00  0.00    -0.744 OA
ENDBRANCH  89  92
ENDBRANCH  62  85
ENDBRANCH  36  37
ENDBRANCH  28  31
ENDBRANCH  26  27
ENDBRANCH  25  26
ENDBRANCH  24  25
ENDBRANCH   1  24
TORSDOF 20
ENDMDL
MODEL 2
REMARK VINA RESULT:     -10.8      1.355      7.678
REMARK SMILES COc1ccc(CSc2ncccc2C(=O)NCCCCCCNC(=O)c2ccc(-c3c4nc(c(-c5cccc(S(=O)(=O)[O-])c5F)c5ccc([nH]5)c(-c5cccc(S(=O)(=O)[O-])c5F)c5nc(c(-c6cccc(S(=O)(=O)[O-])c6F)c6ccc3[nH]6)C=C5)C=C4)cc2)cc1
REMARK SMILES IDX 20 1 19 2 18 3 17 4 15 5 16 6 14 8 9 9 10 10 11 11 13 12
REMARK SMILES IDX 12 13 8 14 7 15 6 16 3 17 4 18 91 19 5 20 90 21 2 22 1 23
REMARK SMILES IDX 21 24 22 25 23 26 24 27 25 28 26 30 27 31 28 32 89 33 29 34
REMARK SMILES IDX 88 35 30 36 31 37 32 38 82 39 33 40 87 41 81 42 83 43 34 44
REMARK SMILES IDX 86 45 80 46 79 47 35 49 67 50 47 51 66 52 48 53 51 54 65 55
REMARK SMILES IDX 84 56 49 57 50 58 64 60 85 61 52 62 36 63 37 64 45 65 38 66
REMARK SMILES IDX 40 67 46 68 39 69 41 70 42 71 43 72 44 73 68 74 69 75 77 76
REMARK SMILES IDX 70 77 72 78 78 79 71 80 73 81 74 82 75 83 76 84 53 85 54 86
REMARK SMILES IDX 62 87 55 88 57 89 63 90 56 91 58 92 59 93 60 94 61 95
REMARK H PARENT 17 7 24 29 83 48 51 59
REMARK Flexibility Score: inf
ROOT
ATOM      1  C   UNL A   1      32.250  29.155  26.617  1.00  0.00     0.002 C 
ENDROOT
BRANCH   1   2
ATOM      2  C   UNL A   1      31.412  27.893  26.347  1.00  0.00     0.021 C 
BRANCH   2   3
ATOM      3  C   UNL A   1      32.272  26.640  26.137  1.00  0.00     0.116 C 
BRANCH   3   4
ATOM      4  N   UNL A   1      31.748  25.581  26.985  1.00  0.00    -0.352 N 
ATOM      5  C   UNL A   1      31.718  24.217  26.811  1.00  0.00     0.254 C 
ATOM      6  O   UNL A   1      30.772  23.612  27.311  1.00  0.00    -0.269 OA
ATOM      7  H   UNL A   1      31.347  25.894  27.828  1.00  0.00     0.163 HD
BRANCH   5   8
ATOM      8  C   UNL A   1      32.822  23.481  26.153  1.00  0.00     0.072 A 
ATOM      9  C   UNL A   1      32.707  23.011  24.836  1.00  0.00     0.109 A 
ATOM     10  N   UNL A   1      33.712  22.307  24.236  1.00  0.00    -0.249 NA
ATOM     11  C   UNL A   1      34.847  22.081  24.926  1.00  0.00     0.112 A 
ATOM     12  C   UNL A   1      34.049  23.290  26.805  1.00  0.00     0.018 A 
ATOM     13  C   UNL A   1      35.068  22.562  26.198  1.00  0.00     0.021 A 
BRANCH   9  14
ATOM     14  S   UNL A   1      31.400  23.351  23.665  1.00  0.00    -0.101 SA
BRANCH  14  15
ATOM     15  C   UNL A   1      31.938  24.876  22.843  1.00  0.00     0.112 C 
BRANCH  15  16
ATOM     16  C   UNL A   1      30.968  26.025  22.911  1.00  0.00    -0.037 A 
ATOM     17  C   UNL A   1      29.203  28.200  23.178  1.00  0.00     0.118 A 
ATOM     18  C   UNL A   1      30.405  28.347  22.487  1.00  0.00     0.047 A 
ATOM     19  C   UNL A   1      28.868  26.957  23.715  1.00  0.00     0.047 A 
ATOM     20  C   UNL A   1      31.288  27.273  22.362  1.00  0.00     0.008 A 
ATOM     21  C   UNL A   1      29.746  25.877  23.582  1.00  0.00     0.008 A 
BRANCH  17  22
ATOM     22  O   UNL A   1      28.431  29.328  23.242  1.00  0.00    -0.497 OA
ATOM     23  C   UNL A   1      29.068  30.541  22.859  1.00  0.00     0.278 C 
ENDBRANCH  17  22
ENDBRANCH  15  16
ENDBRANCH  14  15
ENDBRANCH   9  14
ENDBRANCH   5   8
ENDBRANCH   3   4
ENDBRANCH   2   3
ENDBRANCH   1   2
BRANCH   1  24
ATOM     24  C   UNL A   1      31.709  30.431  25.962  1.00  0.00     0.002 C 
BRANCH  24  25
ATOM     25  C   UNL A   1      31.656  31.648  26.887  1.00  0.00     0.021 C 
BRANCH  25  26
ATOM     26  C   UNL A   1      32.922  32.496  26.872  1.00  0.00     0.116 C 
BRANCH  26  27
ATOM     27  N   UNL A   1      32.683  33.824  27.419  1.00  0.00    -0.352 N 
ATOM     28  C   UNL A   1      33.212  34.393  28.551  1.00  0.00     0.251 C 
ATOM     29  H   UNL A   1      32.057  34.388  26.910  1.00  0.00     0.163 HD
ATOM     30  O   UNL A   1      32.734  35.428  29.004  1.00  0.00    -0.269 OA
BRANCH  28  31
ATOM     31  C   UNL A   1      34.357  33.742  29.222  1.00  0.00     0.039 A 
ATOM     32  C   UNL A   1      34.118  32.708  30.129  1.00  0.00     0.014 A 
ATOM     33  C   UNL A   1      35.664  34.157  28.949  1.00  0.00     0.014 A 
ATOM     34  C   UNL A   1      35.197  32.058  30.732  1.00  0.00     0.010 A 
ATOM     35  C   UNL A   1      36.737  33.460  29.493  1.00  0.00     0.010 A 
ATOM     36  C   UNL A   1      36.515  32.414  30.401  1.00  0.00    -0.014 A 
BRANCH  36  37
ATOM     37  C   UNL A   1      37.681  31.718  31.002  1.00  0.00     0.031 A 
ATOM     38  C   UNL A   1      38.074  32.005  32.426  1.00  0.00     0.074 A 
ATOM     39  C   UNL A   1      38.437  30.903  30.242  1.00  0.00     0.049 A 
ATOM     40  N   UNL A   1      39.103  31.567  33.102  1.00  0.00    -0.248 NA
ATOM     41  C   UNL A   1      37.213  32.933  33.180  1.00  0.00     0.031 C 
ATOM     42  C   UNL A   1      38.202  30.602  28.829  1.00  0.00     0.029 A 
ATOM     43  N   UNL A   1      39.579  30.201  30.544  1.00  0.00    -0.354 N 
ATOM     44  C   UNL A   1      39.039  32.193  34.341  1.00  0.00     0.074 A 
ATOM     45  C   UNL A   1      37.889  33.069  34.313  1.00  0.00     0.031 C 
ATOM     46  C   UNL A   1      39.167  29.779  28.387  1.00  0.00     0.029 A 
ATOM     47  C   UNL A   1      40.106  29.519  29.473  1.00  0.00     0.049 A 
ATOM     48  H   UNL A   1      39.981  30.188  31.442  1.00  0.00     0.167 HD
ATOM     49  C   UNL A   1      39.846  32.033  35.417  1.00  0.00     0.034 A 
ATOM     50  C   UNL A   1      41.227  28.777  29.374  1.00  0.00     0.034 A 
ATOM     51  C   UNL A   1      40.961  31.126  35.456  1.00  0.00     0.049 A 
ATOM     52  C   UNL A   1      42.084  28.582  30.596  1.00  0.00     0.074 A 
ATOM     53  C   UNL A   1      41.786  30.824  36.523  1.00  0.00     0.029 A 
ATOM     54  N   UNL A   1      41.411  30.381  34.378  1.00  0.00    -0.354 N 
ATOM     55  N   UNL A   1      41.920  29.064  31.804  1.00  0.00    -0.248 NA
ATOM     56  C   UNL A   1      43.261  27.714  30.451  1.00  0.00     0.031 C 
ATOM     57  C   UNL A   1      42.751  29.913  36.083  1.00  0.00     0.029 A 
ATOM     58  C   UNL A   1      42.507  29.624  34.751  1.00  0.00     0.049 A 
ATOM     59  H   UNL A   1      41.009  30.387  33.479  1.00  0.00     0.167 HD
ATOM     60  C   UNL A   1      42.945  28.525  32.573  1.00  0.00     0.074 A 
ATOM     61  C   UNL A   1      43.717  27.667  31.697  1.00  0.00     0.031 C 
ATOM     62  C   UNL A   1      43.231  28.731  33.882  1.00  0.00     0.034 A 
BRANCH  49  63
ATOM     63  C   UNL A   1      39.521  32.822  36.659  1.00  0.00     0.023 A 
ATOM     64  C   UNL A   1      40.114  34.085  36.858  1.00  0.00     0.012 A 
ATOM     65  C   UNL A   1      38.591  32.340  37.601  1.00  0.00     0.148 A 
ATOM     66  C   UNL A   1      39.818  34.840  37.993  1.00  0.00     0.002 A 
ATOM     67  C   UNL A   1      38.266  33.118  38.706  1.00  0.00     0.091 A 
ATOM     68  F   UNL A   1      38.053  31.127  37.407  1.00  0.00    -0.205 F 
ATOM     69  C   UNL A   1      38.888  34.361  38.910  1.00  0.00     0.022 A 
BRANCH  67  70
ATOM     70  S   UNL A   1      37.019  32.628  39.903  1.00  0.00     0.127 S 
ATOM     71  O   UNL A   1      37.106  33.713  40.879  1.00  0.00    -0.237 OA
ATOM     72  O   UNL A   1      35.800  32.631  39.095  1.00  0.00    -0.237 OA
ATOM     73  O   UNL A   1      37.422  31.315  40.389  1.00  0.00    -0.744 OA
ENDBRANCH  67  70
ENDBRANCH  49  63
BRANCH  50  74
ATOM     74  C   UNL A   1      41.567  28.109  28.086  1.00  0.00     0.023 A 
ATOM     75  C   UNL A   1      42.067  28.880  27.019  1.00  0.00     0.012 A 
ATOM     76  C   UNL A   1      41.427  26.717  27.921  1.00  0.00     0.148 A 
ATOM     77  C   UNL A   1      42.388  28.283  25.800  1.00  0.00     0.002 A 
ATOM     78  C   UNL A   1      41.802  26.122  26.723  1.00  0.00     0.091 A 
ATOM     79  F   UNL A   1      40.941  26.002  28.946  1.00  0.00    -0.205 F 
ATOM     80  C   UNL A   1      42.265  26.904  25.653  1.00  0.00     0.022 A 
BRANCH  78  81
ATOM     81  S   UNL A   1      41.804  24.340  26.492  1.00  0.00     0.127 S 
ATOM     82  O   UNL A   1      40.375  24.046  26.421  1.00  0.00    -0.237 OA
ATOM     83  O   UNL A   1      42.527  24.200  25.227  1.00  0.00    -0.237 OA
ATOM     84  O   UNL A   1      42.507  23.794  27.646  1.00  0.00    -0.744 OA
ENDBRANCH  78  81
ENDBRANCH  50  74
BRANCH  62  85
ATOM     85  C   UNL A   1      44.400  27.985  34.471  1.00  0.00     0.023 A 
ATOM     86  C   UNL A   1      45.684  28.562  34.454  1.00  0.00     0.012 A 
ATOM     87  C   UNL A   1      44.205  26.746  35.113  1.00  0.00     0.148 A 
ATOM     88  C   UNL A   1      46.764  27.903  35.040  1.00  0.00     0.002 A 
ATOM     89  C   UNL A   1      45.275  26.119  35.740  1.00  0.00     0.091 A 
ATOM     90  F   UNL A   1      42.978  26.205  35.102  1.00  0.00    -0.205 F 
ATOM     91  C   UNL A   1      46.557  26.690  35.694  1.00  0.00     0.022 A 
BRANCH  89  92
ATOM     92  S   UNL A   1      45.082  24.607  36.690  1.00  0.00     0.127 S 
ATOM     93  O   UNL A   1      43.954  24.943  37.556  1.00  0.00    -0.237 OA
ATOM     94  O   UNL A   1      44.780  23.624  35.648  1.00  0.00    -0.237 OA
ATOM     95  O   UNL A   1      46.352  24.395  37.371  1.00  0.00    -0.744 OA
ENDBRANCH  89  92
ENDBRANCH  62  85
ENDBRANCH  36  37
ENDBRANCH  28  31
ENDBRANCH  26  27
ENDBRANCH  25  26
ENDBRANCH  24  25
ENDBRANCH   1  24
TORSDOF 20
ENDMDL
MODEL 3
REMARK VINA RESULT:     -10.8      2.489      8.548
REMARK SMILES COc1ccc(CSc2ncccc2C(=O)NCCCCCCNC(=O)c2ccc(-c3c4nc(c(-c5cccc(S(=O)(=O)[O-])c5F)c5ccc([nH]5)c(-c5cccc(S(=O)(=O)[O-])c5F)c5nc(c(-c6cccc(S(=O)(=O)[O-])c6F)c6ccc3[nH]6)C=C5)C=C4)cc2)cc1
REMARK SMILES IDX 20 1 19 2 18 3 17 4 15 5 16 6 14 8 9 9 10 10 11 11 13 12
REMARK SMILES IDX 12 13 8 14 7 15 6 16 3 17 4 18 91 19 5 20 90 21 2 22 1 23
REMARK SMILES IDX 21 24 22 25 23 26 24 27 25 28 26 30 27 31 28 32 89 33 29 34
REMARK SMILES IDX 88 35 30 36 31 37 32 38 82 39 33 40 87 41 81 42 83 43 34 44
REMARK SMILES IDX 86 45 80 46 79 47 35 49 67 50 47 51 66 52 48 53 51 54 65 55
REMARK SMILES IDX 84 56 49 57 50 58 64 60 85 61 52 62 36 63 37 64 45 65 38 66
REMARK SMILES IDX 40 67 46 68 39 69 41 70 42 71 43 72 44 73 68 74 69 75 77 76
REMARK SMILES IDX 70 77 72 78 78 79 71 80 73 81 74 82 75 83 76 84 53 85 54 86
REMARK SMILES IDX 62 87 55 88 57 89 63 90 56 91 58 92 59 93 60 94 61 95
REMARK H PARENT 17 7 24 29 83 48 51 59
REMARK Flexibility Score: inf
ROOT
ATOM      1  C   UNL A   1      31.216  28.594  24.971  1.00  0.00     0.002 C 
ENDROOT
BRANCH   1   2
ATOM      2  C   UNL A   1      31.259  27.552  26.102  1.00  0.00     0.021 C 
BRANCH   2   3
ATOM      3  C   UNL A   1      30.668  26.197  25.688  1.00  0.00     0.116 C 
BRANCH   3   4
ATOM      4  N   UNL A   1      31.018  25.218  26.704  1.00  0.00    -0.352 N 
ATOM      5  C   UNL A   1      31.771  24.070  26.629  1.00  0.00     0.254 C 
ATOM      6  O   UNL A   1      31.463  23.150  27.384  1.00  0.00    -0.269 OA
ATOM      7  H   UNL A   1      30.653  25.410  27.599  1.00  0.00     0.163 HD
BRANCH   5   8
ATOM      8  C   UNL A   1      32.972  23.969  25.767  1.00  0.00     0.072 A 
ATOM      9  C   UNL A   1      32.930  23.315  24.526  1.00  0.00     0.109 A 
ATOM     10  N   UNL A   1      34.043  23.195  23.742  1.00  0.00    -0.249 NA
ATOM     11  C   UNL A   1      35.198  23.740  24.168  1.00  0.00     0.112 A 
ATOM     12  C   UNL A   1      34.176  24.587  26.135  1.00  0.00     0.018 A 
ATOM     13  C   UNL A   1      35.312  24.454  25.341  1.00  0.00     0.021 A 
BRANCH   9  14
ATOM     14  S   UNL A   1      31.492  22.695  23.665  1.00  0.00    -0.101 SA
BRANCH  14  15
ATOM     15  C   UNL A   1      32.174  21.500  22.484  1.00  0.00     0.112 C 
BRANCH  15  16
ATOM     16  C   UNL A   1      32.343  20.098  23.006  1.00  0.00    -0.037 A 
ATOM     17  C   UNL A   1      32.803  17.480  23.931  1.00  0.00     0.118 A 
ATOM     18  C   UNL A   1      32.843  18.560  24.814  1.00  0.00     0.047 A 
ATOM     19  C   UNL A   1      32.506  17.705  22.588  1.00  0.00     0.047 A 
ATOM     20  C   UNL A   1      32.628  19.860  24.356  1.00  0.00     0.008 A 
ATOM     21  C   UNL A   1      32.277  19.007  22.128  1.00  0.00     0.008 A 
BRANCH  17  22
ATOM     22  O   UNL A   1      33.043  16.259  24.499  1.00  0.00    -0.497 OA
ATOM     23  C   UNL A   1      34.226  16.159  25.283  1.00  0.00     0.278 C 
ENDBRANCH  17  22
ENDBRANCH  15  16
ENDBRANCH  14  15
ENDBRANCH   9  14
ENDBRANCH   5   8
ENDBRANCH   3   4
ENDBRANCH   2   3
ENDBRANCH   1   2
BRANCH   1  24
ATOM     24  C   UNL A   1      32.162  29.784  25.166  1.00  0.00     0.002 C 
BRANCH  24  25
ATOM     25  C   UNL A   1      31.745  30.755  26.272  1.00  0.00     0.021 C 
BRANCH  25  26
ATOM     26  C   UNL A   1      32.892  31.201  27.172  1.00  0.00     0.116 C 
BRANCH  26  27
ATOM     27  N   UNL A   1      33.013  32.651  27.204  1.00  0.00    -0.352 N 
ATOM     28  C   UNL A   1      33.878  33.424  27.939  1.00  0.00     0.251 C 
ATOM     29  H   UNL A   1      32.392  33.144  26.620  1.00  0.00     0.163 HD
ATOM     30  O   UNL A   1      33.699  34.633  28.033  1.00  0.00    -0.269 OA
BRANCH  28  31
ATOM     31  C   UNL A   1      35.019  32.781  28.624  1.00  0.00     0.039 A 
ATOM     32  C   UNL A   1      34.773  31.796  29.583  1.00  0.00     0.014 A 
ATOM     33  C   UNL A   1      36.330  33.155  28.313  1.00  0.00     0.014 A 
ATOM     34  C   UNL A   1      35.848  31.153  30.201  1.00  0.00     0.010 A 
ATOM     35  C   UNL A   1      37.397  32.463  28.874  1.00  0.00     0.010 A 
ATOM     36  C   UNL A   1      37.168  31.465  29.835  1.00  0.00    -0.014 A 
BRANCH  36  37
ATOM     37  C   UNL A   1      38.328  30.774  30.452  1.00  0.00     0.031 A 
ATOM     38  C   UNL A   1      38.797  31.176  31.825  1.00  0.00     0.074 A 
ATOM     39  C   UNL A   1      39.014  29.857  29.743  1.00  0.00     0.049 A 
ATOM     40  N   UNL A   1      39.836  30.754  32.497  1.00  0.00    -0.248 NA
ATOM     41  C   UNL A   1      38.012  32.209  32.520  1.00  0.00     0.031 C 
ATOM     42  C   UNL A   1      38.702  29.436  28.376  1.00  0.00     0.029 A 
ATOM     43  N   UNL A   1      40.136  29.133  30.065  1.00  0.00    -0.354 N 
ATOM     44  C   UNL A   1      39.854  31.496  33.672  1.00  0.00     0.074 A 
ATOM     45  C   UNL A   1      38.743  32.419  33.606  1.00  0.00     0.031 C 
ATOM     46  C   UNL A   1      39.609  28.531  27.976  1.00  0.00     0.029 A 
ATOM     47  C   UNL A   1      40.585  28.330  29.043  1.00  0.00     0.049 A 
ATOM     48  H   UNL A   1      40.577  29.186  30.943  1.00  0.00     0.167 HD
ATOM     49  C   UNL A   1      40.701  31.400  34.724  1.00  0.00     0.034 A 
ATOM     50  C   UNL A   1      41.666  27.529  28.971  1.00  0.00     0.034 A 
ATOM     51  C   UNL A   1      41.776  30.449  34.805  1.00  0.00     0.049 A 
ATOM     52  C   UNL A   1      42.568  27.410  30.170  1.00  0.00     0.074 A 
ATOM     53  C   UNL A   1      42.634  30.210  35.862  1.00  0.00     0.029 A 
ATOM     54  N   UNL A   1      42.145  29.585  33.785  1.00  0.00    -0.354 N 
ATOM     55  N   UNL A   1      42.480  28.010  31.332  1.00  0.00    -0.248 NA
ATOM     56  C   UNL A   1      43.699  26.477  30.061  1.00  0.00     0.031 C 
ATOM     57  C   UNL A   1      43.539  29.216  35.472  1.00  0.00     0.029 A 
ATOM     58  C   UNL A   1      43.223  28.816  34.185  1.00  0.00     0.049 A 
ATOM     59  H   UNL A   1      41.703  29.526  32.908  1.00  0.00     0.167 HD
ATOM     60  C   UNL A   1      43.515  27.498  32.106  1.00  0.00     0.074 A 
ATOM     61  C   UNL A   1      44.208  26.525  31.285  1.00  0.00     0.031 C 
ATOM     62  C   UNL A   1      43.867  27.812  33.376  1.00  0.00     0.034 A 
BRANCH  49  63
ATOM     63  C   UNL A   1      40.467  32.316  35.897  1.00  0.00     0.023 A 
ATOM     64  C   UNL A   1      41.264  33.468  36.053  1.00  0.00     0.012 A 
ATOM     65  C   UNL A   1      39.426  32.068  36.814  1.00  0.00     0.148 A 
ATOM     66  C   UNL A   1      41.057  34.339  37.122  1.00  0.00     0.002 A 
ATOM     67  C   UNL A   1      39.196  32.965  37.851  1.00  0.00     0.091 A 
ATOM     68  F   UNL A   1      38.691  30.957  36.664  1.00  0.00    -0.205 F 
ATOM     69  C   UNL A   1      40.018  34.092  38.014  1.00  0.00     0.022 A 
BRANCH  67  70
ATOM     70  S   UNL A   1      37.831  32.782  39.005  1.00  0.00     0.127 S 
ATOM     71  O   UNL A   1      38.022  33.942  39.874  1.00  0.00    -0.237 OA
ATOM     72  O   UNL A   1      36.668  32.867  38.121  1.00  0.00    -0.237 OA
ATOM     73  O   UNL A   1      38.014  31.485  39.642  1.00  0.00    -0.744 OA
ENDBRANCH  67  70
ENDBRANCH  49  63
BRANCH  50  74
ATOM     74  C   UNL A   1      41.919  26.728  27.739  1.00  0.00     0.023 A 
ATOM     75  C   UNL A   1      42.471  27.357  26.606  1.00  0.00     0.012 A 
ATOM     76  C   UNL A   1      41.645  25.347  27.693  1.00  0.00     0.148 A 
ATOM     77  C   UNL A   1      42.712  26.634  25.438  1.00  0.00     0.002 A 
ATOM     78  C   UNL A   1      41.942  24.622  26.545  1.00  0.00     0.091 A 
ATOM     79  F   UNL A   1      41.113  24.768  28.778  1.00  0.00    -0.205 F 
ATOM     80  C   UNL A   1      42.457  25.266  25.409  1.00  0.00     0.022 A 
BRANCH  78  81
ATOM     81  S   UNL A   1      41.771  22.835  26.464  1.00  0.00     0.127 S 
ATOM     82  O   UNL A   1      40.320  22.671  26.498  1.00  0.00    -0.237 OA
ATOM     83  O   UNL A   1      42.397  22.530  25.177  1.00  0.00    -0.237 OA
ATOM     84  O   UNL A   1      42.494  22.317  27.618  1.00  0.00    -0.744 OA
ENDBRANCH  78  81
ENDBRANCH  50  74
BRANCH  62  85
ATOM     85  C   UNL A   1      45.028  27.070  33.986  1.00  0.00     0.023 A 
ATOM     86  C   UNL A   1      46.340  27.556  33.821  1.00  0.00     0.012 A 
ATOM     87  C   UNL A   1      44.805  25.935  34.792  1.00  0.00     0.148 A 
ATOM     88  C   UNL A   1      47.416  26.905  34.422  1.00  0.00     0.002 A 
ATOM     89  C   UNL A   1      45.878  25.322  35.429  1.00  0.00     0.091 A 
ATOM     90  F   UNL A   1      43.552  25.477  34.921  1.00  0.00    -0.205 F 
ATOM     91  C   UNL A   1      47.184  25.798  35.236  1.00  0.00     0.022 A 
BRANCH  89  92
ATOM     92  S   UNL A   1      45.662  23.954  36.573  1.00  0.00     0.127 S 
ATOM     93  O   UNL A   1      46.965  23.913  37.235  1.00  0.00    -0.237 OA
ATOM     94  O   UNL A   1      44.563  24.427  37.417  1.00  0.00    -0.237 OA
ATOM     95  O   UNL A   1      45.339  22.793  35.756  1.00  0.00    -0.744 OA
ENDBRANCH  89  92
ENDBRANCH  62  85
ENDBRANCH  36  37
ENDBRANCH  28  31
ENDBRANCH  26  27
ENDBRANCH  25  26
ENDBRANCH  24  25
ENDBRANCH   1  24
TORSDOF 20
ENDMDL
