MODEL 1
REMARK VINA RESULT:     -11.7      0.000      0.000
REMARK SMILES CC(C)(C)c1csc(C[NH+]2CC(C(=O)NCCCCCCNC(=O)c3ccc(-c4c5nc(c(-c6cccc(S(=O)(=O)[O-])c6F)c6ccc([nH]6)c(-c6cccc(S(=O)(=O)[O-])c6F)c6nc(c(-c7cccc(S(=O)(=O)[O-])c7F)c7ccc4[nH]7)C=C6)C=C5)cc3)C2)n1
REMARK SMILES IDX 18 1 17 2 16 3 15 4 13 5 14 6 12 8 10 9 11 10 88 11 9 13
REMARK SMILES IDX 8 14 5 15 6 16 89 17 7 18 2 19 1 20 3 21 4 22 19 23 20 24
REMARK SMILES IDX 21 25 22 26 23 27 24 29 25 30 26 31 87 32 27 33 86 34 28 35
REMARK SMILES IDX 29 36 30 37 80 38 31 39 85 40 79 41 81 42 32 43 84 44 78 45
REMARK SMILES IDX 77 46 33 48 65 49 45 50 64 51 46 52 49 53 63 54 82 55 47 56
REMARK SMILES IDX 48 57 62 59 83 60 50 61 34 62 35 63 43 64 36 65 38 66 44 67
REMARK SMILES IDX 37 68 39 69 40 70 41 71 42 72 66 73 67 74 75 75 68 76 70 77
REMARK SMILES IDX 76 78 69 79 71 80 72 81 73 82 74 83 51 84 52 85 60 86 53 87
REMARK SMILES IDX 55 88 61 89 54 90 56 91 57 92 58 93 59 94
REMARK H PARENT 15 7 10 12 22 28 81 47 49 58
REMARK Flexibility Score: inf
ROOT
ATOM      1  C   UNL A   1      32.582  26.717  26.495  1.00  0.00     0.002 C 
ENDROOT
BRANCH   1   2
ATOM      2  C   UNL A   1      33.700  27.056  25.503  1.00  0.00     0.021 C 
BRANCH   2   3
ATOM      3  C   UNL A   1      33.615  26.289  24.184  1.00  0.00     0.116 C 
BRANCH   3   4
ATOM      4  N   UNL A   1      32.677  26.908  23.274  1.00  0.00    -0.355 N 
ATOM      5  C   UNL A   1      31.499  26.442  22.747  1.00  0.00     0.234 C 
ATOM      6  O   UNL A   1      30.937  27.214  21.952  1.00  0.00    -0.274 OA
ATOM      7  H   UNL A   1      32.925  27.815  22.983  1.00  0.00     0.163 HD
BRANCH   5   8
ATOM      8  C   UNL A   1      30.892  25.084  23.104  1.00  0.00     0.188 C 
ATOM      9  N   UNL A   1      30.750  23.364  24.280  1.00  0.00    -0.327 N 
ATOM     10  C   UNL A   1      30.373  24.772  24.528  1.00  0.00     0.282 C 
ATOM     11  C   UNL A   1      31.731  23.796  23.266  1.00  0.00     0.282 C 
ATOM     12  H   UNL A   1      30.037  22.678  24.036  1.00  0.00     0.348 HD
BRANCH   9  13
ATOM     13  C   UNL A   1      31.305  22.649  25.443  1.00  0.00     0.331 C 
BRANCH  13  14
ATOM     14  C   UNL A   1      32.339  21.560  25.265  1.00  0.00     0.147 A 
ATOM     15  C   UNL A   1      33.218  19.583  24.698  1.00  0.00     0.057 A 
ATOM     16  C   UNL A   1      34.381  20.307  24.904  1.00  0.00     0.091 A 
ATOM     17  N   UNL A   1      32.060  20.296  25.004  1.00  0.00    -0.240 NA
ATOM     18  S   UNL A   1      34.019  21.943  25.250  1.00  0.00    -0.121 S 
BRANCH  15  19
ATOM     19  C   UNL A   1      33.118  18.152  24.167  1.00  0.00     0.005 C 
ATOM     20  C   UNL A   1      32.433  18.124  22.784  1.00  0.00     0.017 C 
ATOM     21  C   UNL A   1      32.306  17.274  25.135  1.00  0.00     0.017 C 
ATOM     22  C   UNL A   1      34.524  17.534  24.000  1.00  0.00     0.017 C 
ENDBRANCH  15  19
ENDBRANCH  13  14
ENDBRANCH   9  13
ENDBRANCH   5   8
ENDBRANCH   3   4
ENDBRANCH   2   3
ENDBRANCH   1   2
BRANCH   1  23
ATOM     23  C   UNL A   1      31.432  27.729  26.546  1.00  0.00     0.002 C 
BRANCH  23  24
ATOM     24  C   UNL A   1      31.800  29.114  27.084  1.00  0.00     0.021 C 
BRANCH  24  25
ATOM     25  C   UNL A   1      32.613  29.981  26.127  1.00  0.00     0.116 C 
BRANCH  25  26
ATOM     26  N   UNL A   1      32.505  31.396  26.449  1.00  0.00    -0.352 N 
ATOM     27  C   UNL A   1      33.246  32.151  27.319  1.00  0.00     0.251 C 
ATOM     28  H   UNL A   1      31.795  31.882  25.970  1.00  0.00     0.163 HD
ATOM     29  O   UNL A   1      32.871  33.290  27.609  1.00  0.00    -0.269 OA
BRANCH  27  30
ATOM     30  C   UNL A   1      34.480  31.606  27.923  1.00  0.00     0.039 A 
ATOM     31  C   UNL A   1      35.527  32.480  28.226  1.00  0.00     0.014 A 
ATOM     32  C   UNL A   1      34.618  30.236  28.170  1.00  0.00     0.014 A 
ATOM     33  C   UNL A   1      36.690  31.989  28.824  1.00  0.00     0.010 A 
ATOM     34  C   UNL A   1      35.750  29.760  28.829  1.00  0.00     0.010 A 
ATOM     35  C   UNL A   1      36.801  30.629  29.159  1.00  0.00    -0.014 A 
BRANCH  35  36
ATOM     36  C   UNL A   1      37.997  30.108  29.871  1.00  0.00     0.031 A 
ATOM     37  C   UNL A   1      38.323  30.574  31.264  1.00  0.00     0.074 A 
ATOM     38  C   UNL A   1      38.839  29.273  29.229  1.00  0.00     0.049 A 
ATOM     39  N   UNL A   1      39.346  30.264  32.018  1.00  0.00    -0.248 NA
ATOM     40  C   UNL A   1      37.394  31.534  31.883  1.00  0.00     0.031 C 
ATOM     41  C   UNL A   1      38.679  28.809  27.848  1.00  0.00     0.029 A 
ATOM     42  N   UNL A   1      40.012  28.690  29.640  1.00  0.00    -0.354 N 
ATOM     43  C   UNL A   1      39.206  31.013  33.180  1.00  0.00     0.074 A 
ATOM     44  C   UNL A   1      38.012  31.815  33.021  1.00  0.00     0.031 C 
ATOM     45  C   UNL A   1      39.714  28.018  27.528  1.00  0.00     0.029 A 
ATOM     46  C   UNL A   1      40.627  27.941  28.664  1.00  0.00     0.049 A 
ATOM     47  H   UNL A   1      40.378  28.799  30.547  1.00  0.00     0.167 HD
ATOM     48  C   UNL A   1      39.985  31.016  34.288  1.00  0.00     0.034 A 
ATOM     49  C   UNL A   1      41.800  27.278  28.675  1.00  0.00     0.034 A 
ATOM     50  C   UNL A   1      41.147  30.187  34.460  1.00  0.00     0.049 A 
ATOM     51  C   UNL A   1      42.624  27.265  29.934  1.00  0.00     0.074 A 
ATOM     52  C   UNL A   1      41.942  30.045  35.584  1.00  0.00     0.029 A 
ATOM     53  N   UNL A   1      41.693  29.372  33.481  1.00  0.00    -0.354 N 
ATOM     54  N   UNL A   1      42.383  27.846  31.084  1.00  0.00    -0.248 NA
ATOM     55  C   UNL A   1      43.864  26.475  29.910  1.00  0.00     0.031 C 
ATOM     56  C   UNL A   1      42.988  29.169  35.274  1.00  0.00     0.029 A 
ATOM     57  C   UNL A   1      42.823  28.738  33.968  1.00  0.00     0.049 A 
ATOM     58  H   UNL A   1      41.330  29.260  32.573  1.00  0.00     0.167 HD
ATOM     59  C   UNL A   1      43.419  27.465  31.928  1.00  0.00     0.074 A 
ATOM     60  C   UNL A   1      44.278  26.585  31.165  1.00  0.00     0.031 C 
ATOM     61  C   UNL A   1      43.646  27.825  33.216  1.00  0.00     0.034 A 
BRANCH  48  62
ATOM     62  C   UNL A   1      39.585  31.917  35.428  1.00  0.00     0.023 A 
ATOM     63  C   UNL A   1      39.973  33.273  35.416  1.00  0.00     0.012 A 
ATOM     64  C   UNL A   1      38.765  31.443  36.471  1.00  0.00     0.148 A 
ATOM     65  C   UNL A   1      39.579  34.134  36.440  1.00  0.00     0.002 A 
ATOM     66  C   UNL A   1      38.338  32.318  37.463  1.00  0.00     0.091 A 
ATOM     67  F   UNL A   1      38.421  30.147  36.475  1.00  0.00    -0.205 F 
ATOM     68  C   UNL A   1      38.753  33.660  37.455  1.00  0.00     0.022 A 
BRANCH  66  69
ATOM     69  S   UNL A   1      37.207  31.826  38.769  1.00  0.00     0.127 S 
ATOM     70  O   UNL A   1      38.008  32.083  39.965  1.00  0.00    -0.237 OA
ATOM     71  O   UNL A   1      36.090  32.751  38.572  1.00  0.00    -0.237 OA
ATOM     72  O   UNL A   1      36.889  30.427  38.520  1.00  0.00    -0.744 OA
ENDBRANCH  66  69
ENDBRANCH  48  62
BRANCH  49  73
ATOM     73  C   UNL A   1      42.243  26.532  27.464  1.00  0.00     0.023 A 
ATOM     74  C   UNL A   1      42.959  27.203  26.453  1.00  0.00     0.012 A 
ATOM     75  C   UNL A   1      41.982  25.155  27.321  1.00  0.00     0.148 A 
ATOM     76  C   UNL A   1      43.374  26.527  25.305  1.00  0.00     0.002 A 
ATOM     77  C   UNL A   1      42.452  24.473  26.205  1.00  0.00     0.091 A 
ATOM     78  F   UNL A   1      41.290  24.536  28.287  1.00  0.00    -0.205 F 
ATOM     79  C   UNL A   1      43.130  25.160  25.186  1.00  0.00     0.022 A 
BRANCH  77  80
ATOM     80  S   UNL A   1      42.310  22.690  26.043  1.00  0.00     0.127 S 
ATOM     81  O   UNL A   1      42.993  22.225  27.247  1.00  0.00    -0.237 OA
ATOM     82  O   UNL A   1      40.859  22.501  26.043  1.00  0.00    -0.237 OA
ATOM     83  O   UNL A   1      42.955  22.358  24.779  1.00  0.00    -0.744 OA
ENDBRANCH  77  80
ENDBRANCH  49  73
BRANCH  61  84
ATOM     84  C   UNL A   1      44.852  27.240  33.904  1.00  0.00     0.023 A 
ATOM     85  C   UNL A   1      46.086  27.919  33.858  1.00  0.00     0.012 A 
ATOM     86  C   UNL A   1      44.743  26.055  34.658  1.00  0.00     0.148 A 
ATOM     87  C   UNL A   1      47.202  27.408  34.523  1.00  0.00     0.002 A 
ATOM     88  C   UNL A   1      45.845  25.580  35.360  1.00  0.00     0.091 A 
ATOM     89  F   UNL A   1      43.565  25.415  34.676  1.00  0.00    -0.205 F 
ATOM     90  C   UNL A   1      47.078  26.248  35.283  1.00  0.00     0.022 A 
BRANCH  88  91
ATOM     91  S   UNL A   1      45.753  24.149  36.443  1.00  0.00     0.127 S 
ATOM     92  O   UNL A   1      47.121  24.076  36.954  1.00  0.00    -0.237 OA
ATOM     93  O   UNL A   1      44.756  24.569  37.428  1.00  0.00    -0.237 OA
ATOM     94  O   UNL A   1      45.341  23.034  35.601  1.00  0.00    -0.744 OA
ENDBRANCH  88  91
ENDBRANCH  61  84
ENDBRANCH  35  36
ENDBRANCH  27  30
ENDBRANCH  25  26
ENDBRANCH  24  25
ENDBRANCH  23  24
ENDBRANCH   1  23
TORSDOF 19
ENDMDL
MODEL 2
REMARK VINA RESULT:     -11.6      5.912      9.336
REMARK SMILES CC(C)(C)c1csc(C[NH+]2CC(C(=O)NCCCCCCNC(=O)c3ccc(-c4c5nc(c(-c6cccc(S(=O)(=O)[O-])c6F)c6ccc([nH]6)c(-c6cccc(S(=O)(=O)[O-])c6F)c6nc(c(-c7cccc(S(=O)(=O)[O-])c7F)c7ccc4[nH]7)C=C6)C=C5)cc3)C2)n1
REMARK SMILES IDX 18 1 17 2 16 3 15 4 13 5 14 6 12 8 10 9 11 10 88 11 9 13
REMARK SMILES IDX 8 14 5 15 6 16 89 17 7 18 2 19 1 20 3 21 4 22 19 23 20 24
REMARK SMILES IDX 21 25 22 26 23 27 24 29 25 30 26 31 87 32 27 33 86 34 28 35
REMARK SMILES IDX 29 36 30 37 80 38 31 39 85 40 79 41 81 42 32 43 84 44 78 45
REMARK SMILES IDX 77 46 33 48 65 49 45 50 64 51 46 52 49 53 63 54 82 55 47 56
REMARK SMILES IDX 48 57 62 59 83 60 50 61 34 62 35 63 43 64 36 65 38 66 44 67
REMARK SMILES IDX 37 68 39 69 40 70 41 71 42 72 66 73 67 74 75 75 68 76 70 77
REMARK SMILES IDX 76 78 69 79 71 80 72 81 73 82 74 83 51 84 52 85 60 86 53 87
REMARK SMILES IDX 55 88 61 89 54 90 56 91 57 92 58 93 59 94
REMARK H PARENT 15 7 10 12 22 28 81 47 49 58
REMARK Flexibility Score: inf
ROOT
ATOM      1  C   UNL A   1      37.246  21.265  24.994  1.00  0.00     0.002 C 
ENDROOT
BRANCH   1   2
ATOM      2  C   UNL A   1      35.952  22.025  24.687  1.00  0.00     0.021 C 
BRANCH   2   3
ATOM      3  C   UNL A   1      34.687  21.326  25.185  1.00  0.00     0.116 C 
BRANCH   3   4
ATOM      4  N   UNL A   1      33.792  21.016  24.092  1.00  0.00    -0.355 N 
ATOM      5  C   UNL A   1      32.771  21.744  23.535  1.00  0.00     0.234 C 
ATOM      6  O   UNL A   1      32.157  21.174  22.618  1.00  0.00    -0.274 OA
ATOM      7  H   UNL A   1      33.939  20.135  23.679  1.00  0.00     0.163 HD
BRANCH   5   8
ATOM      8  C   UNL A   1      32.403  23.161  23.980  1.00  0.00     0.188 C 
ATOM      9  N   UNL A   1      31.820  25.132  23.608  1.00  0.00    -0.327 N 
ATOM     10  C   UNL A   1      31.095  23.847  23.515  1.00  0.00     0.282 C 
ATOM     11  C   UNL A   1      33.107  24.429  23.444  1.00  0.00     0.282 C 
ATOM     12  H   UNL A   1      31.676  25.745  24.409  1.00  0.00     0.348 HD
BRANCH   9  13
ATOM     13  C   UNL A   1      31.491  26.115  22.561  1.00  0.00     0.331 C 
BRANCH  13  14
ATOM     14  C   UNL A   1      30.985  27.494  22.921  1.00  0.00     0.147 A 
ATOM     15  C   UNL A   1      29.590  29.235  23.075  1.00  0.00     0.057 A 
ATOM     16  C   UNL A   1      30.550  29.622  23.996  1.00  0.00     0.091 A 
ATOM     17  N   UNL A   1      29.909  28.057  22.402  1.00  0.00    -0.240 NA
ATOM     18  S   UNL A   1      31.728  28.396  24.187  1.00  0.00    -0.121 S 
BRANCH  15  19
ATOM     19  C   UNL A   1      28.270  29.951  22.779  1.00  0.00     0.005 C 
ATOM     20  C   UNL A   1      28.150  30.289  21.278  1.00  0.00     0.017 C 
ATOM     21  C   UNL A   1      28.174  31.258  23.585  1.00  0.00     0.017 C 
ATOM     22  C   UNL A   1      27.069  29.052  23.148  1.00  0.00     0.017 C 
ENDBRANCH  15  19
ENDBRANCH  13  14
ENDBRANCH   9  13
ENDBRANCH   5   8
ENDBRANCH   3   4
ENDBRANCH   2   3
ENDBRANCH   1   2
BRANCH   1  23
ATOM     23  C   UNL A   1      37.194  19.758  24.717  1.00  0.00     0.002 C 
BRANCH  23  24
ATOM     24  C   UNL A   1      38.328  18.937  25.336  1.00  0.00     0.021 C 
BRANCH  24  25
ATOM     25  C   UNL A   1      39.548  19.747  25.767  1.00  0.00     0.116 C 
BRANCH  25  26
ATOM     26  N   UNL A   1      40.692  18.896  26.055  1.00  0.00    -0.352 N 
ATOM     27  C   UNL A   1      41.995  19.240  26.300  1.00  0.00     0.251 C 
ATOM     28  H   UNL A   1      40.501  17.930  26.079  1.00  0.00     0.163 HD
ATOM     29  O   UNL A   1      42.863  18.364  26.321  1.00  0.00    -0.269 OA
BRANCH  27  30
ATOM     30  C   UNL A   1      42.369  20.653  26.522  1.00  0.00     0.039 A 
ATOM     31  C   UNL A   1      42.209  21.200  27.798  1.00  0.00     0.014 A 
ATOM     32  C   UNL A   1      42.851  21.445  25.476  1.00  0.00     0.014 A 
ATOM     33  C   UNL A   1      42.584  22.525  28.037  1.00  0.00     0.010 A 
ATOM     34  C   UNL A   1      43.289  22.744  25.732  1.00  0.00     0.010 A 
ATOM     35  C   UNL A   1      43.155  23.300  27.014  1.00  0.00    -0.014 A 
BRANCH  35  36
ATOM     36  C   UNL A   1      43.635  24.682  27.274  1.00  0.00     0.031 A 
ATOM     37  C   UNL A   1      42.688  25.741  27.773  1.00  0.00     0.074 A 
ATOM     38  C   UNL A   1      44.911  25.007  26.983  1.00  0.00     0.049 A 
ATOM     39  N   UNL A   1      42.919  27.006  28.010  1.00  0.00    -0.248 NA
ATOM     40  C   UNL A   1      41.294  25.333  28.012  1.00  0.00     0.031 C 
ATOM     41  C   UNL A   1      45.907  24.093  26.418  1.00  0.00     0.029 A 
ATOM     42  N   UNL A   1      45.580  26.201  27.091  1.00  0.00    -0.354 N 
ATOM     43  C   UNL A   1      41.700  27.553  28.389  1.00  0.00     0.074 A 
ATOM     44  C   UNL A   1      40.723  26.488  28.324  1.00  0.00     0.031 C 
ATOM     45  C   UNL A   1      47.056  24.759  26.228  1.00  0.00     0.029 A 
ATOM     46  C   UNL A   1      46.874  26.151  26.626  1.00  0.00     0.049 A 
ATOM     47  H   UNL A   1      45.173  27.015  27.466  1.00  0.00     0.167 HD
ATOM     48  C   UNL A   1      41.421  28.820  28.779  1.00  0.00     0.034 A 
ATOM     49  C   UNL A   1      47.806  27.119  26.517  1.00  0.00     0.034 A 
ATOM     50  C   UNL A   1      42.401  29.867  28.882  1.00  0.00     0.049 A 
ATOM     51  C   UNL A   1      47.481  28.507  26.997  1.00  0.00     0.074 A 
ATOM     52  C   UNL A   1      42.235  31.154  29.364  1.00  0.00     0.029 A 
ATOM     53  N   UNL A   1      43.724  29.758  28.486  1.00  0.00    -0.354 N 
ATOM     54  N   UNL A   1      46.365  28.961  27.514  1.00  0.00    -0.248 NA
ATOM     55  C   UNL A   1      48.554  29.510  26.913  1.00  0.00     0.031 C 
ATOM     56  C   UNL A   1      43.451  31.833  29.227  1.00  0.00     0.029 A 
ATOM     57  C   UNL A   1      44.382  30.958  28.694  1.00  0.00     0.049 A 
ATOM     58  H   UNL A   1      44.136  28.946  28.111  1.00  0.00     0.167 HD
ATOM     59  C   UNL A   1      46.612  30.288  27.849  1.00  0.00     0.074 A 
ATOM     60  C   UNL A   1      47.990  30.558  27.497  1.00  0.00     0.031 C 
ATOM     61  C   UNL A   1      45.768  31.204  28.385  1.00  0.00     0.034 A 
BRANCH  48  62
ATOM     62  C   UNL A   1      40.000  29.142  29.166  1.00  0.00     0.023 A 
ATOM     63  C   UNL A   1      39.041  29.388  28.162  1.00  0.00     0.012 A 
ATOM     64  C   UNL A   1      39.598  29.126  30.516  1.00  0.00     0.148 A 
ATOM     65  C   UNL A   1      37.712  29.647  28.496  1.00  0.00     0.002 A 
ATOM     66  C   UNL A   1      38.262  29.340  30.839  1.00  0.00     0.091 A 
ATOM     67  F   UNL A   1      40.527  28.909  31.457  1.00  0.00    -0.205 F 
ATOM     68  C   UNL A   1      37.322  29.611  29.832  1.00  0.00     0.022 A 
BRANCH  66  69
ATOM     69  S   UNL A   1      37.643  29.234  32.522  1.00  0.00     0.127 S 
ATOM     70  O   UNL A   1      37.811  27.810  32.808  1.00  0.00    -0.237 OA
ATOM     71  O   UNL A   1      38.562  30.115  33.243  1.00  0.00    -0.237 OA
ATOM     72  O   UNL A   1      36.264  29.702  32.473  1.00  0.00    -0.744 OA
ENDBRANCH  66  69
ENDBRANCH  48  62
BRANCH  49  73
ATOM     73  C   UNL A   1      49.153  26.795  25.970  1.00  0.00     0.023 A 
ATOM     74  C   UNL A   1      50.062  26.052  26.748  1.00  0.00     0.012 A 
ATOM     75  C   UNL A   1      49.527  27.195  24.672  1.00  0.00     0.148 A 
ATOM     76  C   UNL A   1      51.333  25.746  26.260  1.00  0.00     0.002 A 
ATOM     77  C   UNL A   1      50.771  26.833  24.168  1.00  0.00     0.091 A 
ATOM     78  F   UNL A   1      48.653  27.910  23.951  1.00  0.00    -0.205 F 
ATOM     79  C   UNL A   1      51.683  26.128  24.966  1.00  0.00     0.022 A 
BRANCH  77  80
ATOM     80  S   UNL A   1      51.243  27.156  22.465  1.00  0.00     0.127 S 
ATOM     81  O   UNL A   1      50.150  26.528  21.728  1.00  0.00    -0.237 OA
ATOM     82  O   UNL A   1      51.255  28.619  22.427  1.00  0.00    -0.237 OA
ATOM     83  O   UNL A   1      52.555  26.545  22.299  1.00  0.00    -0.744 OA
ENDBRANCH  77  80
ENDBRANCH  49  73
BRANCH  61  84
ATOM     84  C   UNL A   1      46.314  32.581  28.664  1.00  0.00     0.023 A 
ATOM     85  C   UNL A   1      46.844  32.883  29.934  1.00  0.00     0.012 A 
ATOM     86  C   UNL A   1      46.366  33.551  27.643  1.00  0.00     0.148 A 
ATOM     87  C   UNL A   1      47.388  34.141  30.194  1.00  0.00     0.002 A 
ATOM     88  C   UNL A   1      46.957  34.784  27.895  1.00  0.00     0.091 A 
ATOM     89  F   UNL A   1      45.841  33.250  26.448  1.00  0.00    -0.205 F 
ATOM     90  C   UNL A   1      47.455  35.086  29.172  1.00  0.00     0.022 A 
BRANCH  88  91
ATOM     91  S   UNL A   1      47.176  36.026  26.615  1.00  0.00     0.127 S 
ATOM     92  O   UNL A   1      47.433  35.197  25.438  1.00  0.00    -0.237 OA
ATOM     93  O   UNL A   1      45.878  36.701  26.613  1.00  0.00    -0.237 OA
ATOM     94  O   UNL A   1      48.290  36.858  27.048  1.00  0.00    -0.744 OA
ENDBRANCH  88  91
ENDBRANCH  61  84
ENDBRANCH  35  36
ENDBRANCH  27  30
ENDBRANCH  25  26
ENDBRANCH  24  25
ENDBRANCH  23  24
ENDBRANCH   1  23
TORSDOF 19
ENDMDL
MODEL 3
REMARK VINA RESULT:     -11.6      1.561      7.706
REMARK SMILES CC(C)(C)c1csc(C[NH+]2CC(C(=O)NCCCCCCNC(=O)c3ccc(-c4c5nc(c(-c6cccc(S(=O)(=O)[O-])c6F)c6ccc([nH]6)c(-c6cccc(S(=O)(=O)[O-])c6F)c6nc(c(-c7cccc(S(=O)(=O)[O-])c7F)c7ccc4[nH]7)C=C6)C=C5)cc3)C2)n1
REMARK SMILES IDX 18 1 17 2 16 3 15 4 13 5 14 6 12 8 10 9 11 10 88 11 9 13
REMARK SMILES IDX 8 14 5 15 6 16 89 17 7 18 2 19 1 20 3 21 4 22 19 23 20 24
REMARK SMILES IDX 21 25 22 26 23 27 24 29 25 30 26 31 87 32 27 33 86 34 28 35
REMARK SMILES IDX 29 36 30 37 80 38 31 39 85 40 79 41 81 42 32 43 84 44 78 45
REMARK SMILES IDX 77 46 33 48 65 49 45 50 64 51 46 52 49 53 63 54 82 55 47 56
REMARK SMILES IDX 48 57 62 59 83 60 50 61 34 62 35 63 43 64 36 65 38 66 44 67
REMARK SMILES IDX 37 68 39 69 40 70 41 71 42 72 66 73 67 74 75 75 68 76 70 77
REMARK SMILES IDX 76 78 69 79 71 80 72 81 73 82 74 83 51 84 52 85 60 86 53 87
REMARK SMILES IDX 55 88 61 89 54 90 56 91 57 92 58 93 59 94
REMARK H PARENT 15 7 10 12 22 28 81 47 49 58
REMARK Flexibility Score: inf
ROOT
ATOM      1  C   UNL A   1      30.692  30.408  24.593  1.00  0.00     0.002 C 
ENDROOT
BRANCH   1   2
ATOM      2  C   UNL A   1      31.226  29.117  23.963  1.00  0.00     0.021 C 
BRANCH   2   3
ATOM      3  C   UNL A   1      30.436  28.648  22.742  1.00  0.00     0.116 C 
BRANCH   3   4
ATOM      4  N   UNL A   1      29.292  27.853  23.128  1.00  0.00    -0.355 N 
ATOM      5  C   UNL A   1      29.218  26.609  23.704  1.00  0.00     0.234 C 
ATOM      6  O   UNL A   1      28.067  26.177  23.879  1.00  0.00    -0.274 OA
ATOM      7  H   UNL A   1      28.420  28.272  22.948  1.00  0.00     0.163 HD
BRANCH   5   8
ATOM      8  C   UNL A   1      30.446  25.797  24.122  1.00  0.00     0.188 C 
ATOM      9  N   UNL A   1      31.369  24.082  24.876  1.00  0.00    -0.327 N 
ATOM     10  C   UNL A   1      30.695  24.364  23.591  1.00  0.00     0.282 C 
ATOM     11  C   UNL A   1      30.608  25.166  25.524  1.00  0.00     0.282 C 
ATOM     12  H   UNL A   1      32.387  24.073  24.930  1.00  0.00     0.348 HD
BRANCH   9  13
ATOM     13  C   UNL A   1      31.144  22.730  25.418  1.00  0.00     0.331 C 
BRANCH  13  14
ATOM     14  C   UNL A   1      32.232  21.680  25.365  1.00  0.00     0.147 A 
ATOM     15  C   UNL A   1      33.235  19.729  24.931  1.00  0.00     0.057 A 
ATOM     16  C   UNL A   1      34.345  20.503  25.227  1.00  0.00     0.091 A 
ATOM     17  N   UNL A   1      32.027  20.401  25.110  1.00  0.00    -0.240 NA
ATOM     18  S   UNL A   1      33.890  22.130  25.498  1.00  0.00    -0.121 S 
BRANCH  15  19
ATOM     19  C   UNL A   1      33.240  18.284  24.429  1.00  0.00     0.005 C 
ATOM     20  C   UNL A   1      32.527  18.173  23.064  1.00  0.00     0.017 C 
ATOM     21  C   UNL A   1      32.526  17.363  25.432  1.00  0.00     0.017 C 
ATOM     22  C   UNL A   1      34.688  17.780  24.236  1.00  0.00     0.017 C 
ENDBRANCH  15  19
ENDBRANCH  13  14
ENDBRANCH   9  13
ENDBRANCH   5   8
ENDBRANCH   3   4
ENDBRANCH   2   3
ENDBRANCH   1   2
BRANCH   1  23
ATOM     23  C   UNL A   1      31.211  30.702  26.006  1.00  0.00     0.002 C 
BRANCH  23  24
ATOM     24  C   UNL A   1      31.318  32.186  26.369  1.00  0.00     0.021 C 
BRANCH  24  25
ATOM     25  C   UNL A   1      32.654  32.605  26.976  1.00  0.00     0.116 C 
BRANCH  25  26
ATOM     26  N   UNL A   1      32.593  33.935  27.561  1.00  0.00    -0.352 N 
ATOM     27  C   UNL A   1      33.306  34.462  28.605  1.00  0.00     0.251 C 
ATOM     28  H   UNL A   1      31.944  34.548  27.144  1.00  0.00     0.163 HD
ATOM     29  O   UNL A   1      32.968  35.546  29.088  1.00  0.00    -0.269 OA
BRANCH  27  30
ATOM     30  C   UNL A   1      34.465  33.736  29.164  1.00  0.00     0.039 A 
ATOM     31  C   UNL A   1      35.751  34.094  28.750  1.00  0.00     0.014 A 
ATOM     32  C   UNL A   1      34.290  32.689  30.075  1.00  0.00     0.014 A 
ATOM     33  C   UNL A   1      36.862  33.440  29.288  1.00  0.00     0.010 A 
ATOM     34  C   UNL A   1      35.401  32.085  30.661  1.00  0.00     0.010 A 
ATOM     35  C   UNL A   1      36.699  32.449  30.271  1.00  0.00    -0.014 A 
BRANCH  35  36
ATOM     36  C   UNL A   1      37.873  31.804  30.913  1.00  0.00     0.031 A 
ATOM     37  C   UNL A   1      38.670  30.758  30.179  1.00  0.00     0.074 A 
ATOM     38  C   UNL A   1      38.177  32.101  32.193  1.00  0.00     0.049 A 
ATOM     39  N   UNL A   1      39.692  30.058  30.597  1.00  0.00    -0.248 NA
ATOM     40  C   UNL A   1      38.246  30.437  28.806  1.00  0.00     0.031 C 
ATOM     41  C   UNL A   1      37.434  33.038  33.041  1.00  0.00     0.029 A 
ATOM     42  N   UNL A   1      39.168  31.625  33.015  1.00  0.00    -0.354 N 
ATOM     43  C   UNL A   1      40.012  29.192  29.560  1.00  0.00     0.074 A 
ATOM     44  C   UNL A   1      39.057  29.434  28.500  1.00  0.00     0.031 C 
ATOM     45  C   UNL A   1      37.995  33.066  34.260  1.00  0.00     0.029 A 
ATOM     46  C   UNL A   1      39.113  32.129  34.294  1.00  0.00     0.049 A 
ATOM     47  H   UNL A   1      39.853  30.984  32.717  1.00  0.00     0.167 HD
ATOM     48  C   UNL A   1      41.023  28.293  29.484  1.00  0.00     0.034 A 
ATOM     49  C   UNL A   1      39.868  31.858  35.377  1.00  0.00     0.034 A 
ATOM     50  C   UNL A   1      41.996  28.083  30.522  1.00  0.00     0.049 A 
ATOM     51  C   UNL A   1      41.010  30.887  35.252  1.00  0.00     0.074 A 
ATOM     52  C   UNL A   1      43.115  27.269  30.498  1.00  0.00     0.029 A 
ATOM     53  N   UNL A   1      41.962  28.676  31.774  1.00  0.00    -0.354 N 
ATOM     54  N   UNL A   1      41.400  30.203  34.204  1.00  0.00    -0.248 NA
ATOM     55  C   UNL A   1      41.839  30.675  36.448  1.00  0.00     0.031 C 
ATOM     56  C   UNL A   1      43.739  27.344  31.748  1.00  0.00     0.029 A 
ATOM     57  C   UNL A   1      43.029  28.233  32.537  1.00  0.00     0.049 A 
ATOM     58  H   UNL A   1      41.279  29.318  32.076  1.00  0.00     0.167 HD
ATOM     59  C   UNL A   1      42.536  29.510  34.602  1.00  0.00     0.074 A 
ATOM     60  C   UNL A   1      42.786  29.873  35.981  1.00  0.00     0.031 C 
ATOM     61  C   UNL A   1      43.296  28.638  33.893  1.00  0.00     0.034 A 
BRANCH  48  62
ATOM     62  C   UNL A   1      41.158  27.490  28.216  1.00  0.00     0.023 A 
ATOM     63  C   UNL A   1      41.779  28.065  27.087  1.00  0.00     0.012 A 
ATOM     64  C   UNL A   1      40.740  26.145  28.163  1.00  0.00     0.148 A 
ATOM     65  C   UNL A   1      41.952  27.326  25.918  1.00  0.00     0.002 A 
ATOM     66  C   UNL A   1      40.957  25.402  27.009  1.00  0.00     0.091 A 
ATOM     67  F   UNL A   1      40.135  25.622  29.239  1.00  0.00    -0.205 F 
ATOM     68  C   UNL A   1      41.552  25.993  25.883  1.00  0.00     0.022 A 
BRANCH  66  69
ATOM     69  S   UNL A   1      40.553  23.655  26.891  1.00  0.00     0.127 S 
ATOM     70  O   UNL A   1      41.053  23.150  28.168  1.00  0.00    -0.237 OA
ATOM     71  O   UNL A   1      39.094  23.685  26.775  1.00  0.00    -0.237 OA
ATOM     72  O   UNL A   1      41.247  23.161  25.709  1.00  0.00    -0.744 OA
ENDBRANCH  66  69
ENDBRANCH  48  62
BRANCH  49  73
ATOM     73  C   UNL A   1      39.594  32.554  36.665  1.00  0.00     0.023 A 
ATOM     74  C   UNL A   1      40.313  33.720  36.996  1.00  0.00     0.012 A 
ATOM     75  C   UNL A   1      38.606  32.083  37.552  1.00  0.00     0.148 A 
ATOM     76  C   UNL A   1      40.080  34.382  38.202  1.00  0.00     0.002 A 
ATOM     77  C   UNL A   1      38.335  32.782  38.722  1.00  0.00     0.091 A 
ATOM     78  F   UNL A   1      37.941  30.967  37.226  1.00  0.00    -0.205 F 
ATOM     79  C   UNL A   1      39.084  33.919  39.060  1.00  0.00     0.022 A 
BRANCH  77  80
ATOM     80  S   UNL A   1      36.974  32.340  39.808  1.00  0.00     0.127 S 
ATOM     81  O   UNL A   1      35.853  32.285  38.874  1.00  0.00    -0.237 OA
ATOM     82  O   UNL A   1      37.410  31.043  40.327  1.00  0.00    -0.237 OA
ATOM     83  O   UNL A   1      36.914  33.394  40.812  1.00  0.00    -0.744 OA
ENDBRANCH  77  80
ENDBRANCH  49  73
BRANCH  61  84
ATOM     84  C   UNL A   1      44.498  28.039  34.579  1.00  0.00     0.023 A 
ATOM     85  C   UNL A   1      45.735  28.713  34.546  1.00  0.00     0.012 A 
ATOM     86  C   UNL A   1      44.380  26.844  35.316  1.00  0.00     0.148 A 
ATOM     87  C   UNL A   1      46.845  28.189  35.209  1.00  0.00     0.002 A 
ATOM     88  C   UNL A   1      45.478  26.355  36.016  1.00  0.00     0.091 A 
ATOM     89  F   UNL A   1      43.200  26.208  35.320  1.00  0.00    -0.205 F 
ATOM     90  C   UNL A   1      46.713  27.018  35.952  1.00  0.00     0.022 A 
BRANCH  88  91
ATOM     91  S   UNL A   1      45.377  24.909  37.078  1.00  0.00     0.127 S 
ATOM     92  O   UNL A   1      44.124  25.153  37.792  1.00  0.00    -0.237 OA
ATOM     93  O   UNL A   1      45.324  23.816  36.109  1.00  0.00    -0.237 OA
ATOM     94  O   UNL A   1      46.578  24.931  37.902  1.00  0.00    -0.744 OA
ENDBRANCH  88  91
ENDBRANCH  61  84
ENDBRANCH  35  36
ENDBRANCH  27  30
ENDBRANCH  25  26
ENDBRANCH  24  25
ENDBRANCH  23  24
ENDBRANCH   1  23
TORSDOF 19
ENDMDL
