MODEL 1
REMARK VINA RESULT:     -10.9      0.000      0.000
REMARK SMILES C[C@H](Cc1ccc(N)cc1)C(=O)NCCCCCCNC(=O)c1ccc(-c2c3nc(c(-c4cccc(S(=O)(=O)[O-])c4F)c4ccc([nH]4)c(-c4cccc(S(=O)(=O)[O-])c4F)c4nc(c(-c5cccc(S(=O)(=O)[O-])c5F)c5ccc2[nH]5)C=C4)C=C3)cc1
REMARK SMILES IDX 16 1 15 2 14 3 13 4 11 5 12 6 2 8 1 9 3 10 4 11 5 12 10 13
REMARK SMILES IDX 6 14 9 15 7 16 8 17 17 20 18 21 19 22 20 23 21 24 22 26
REMARK SMILES IDX 23 27 24 28 85 29 25 30 84 31 26 32 27 33 28 34 78 35 29 36
REMARK SMILES IDX 83 37 77 38 79 39 30 40 82 41 76 42 75 43 31 45 63 46 43 47
REMARK SMILES IDX 62 48 44 49 47 50 61 51 80 52 45 53 46 54 60 56 81 57 48 58
REMARK SMILES IDX 32 59 33 60 41 61 34 62 36 63 42 64 35 65 37 66 38 67 39 68
REMARK SMILES IDX 40 69 64 70 65 71 73 72 66 73 68 74 74 75 67 76 69 77 70 78
REMARK SMILES IDX 71 79 72 80 49 81 50 82 58 83 51 84 53 85 59 86 52 87 54 88
REMARK SMILES IDX 55 89 56 90 57 91
REMARK H PARENT 13 7 8 18 8 19 20 25 79 44 47 55
REMARK Flexibility Score: inf
ROOT
ATOM      1  C   UNL A   1      35.625  21.856  25.363  1.00  0.00     0.002 C 
ENDROOT
BRANCH   1   2
ATOM      2  C   UNL A   1      34.326  21.112  25.032  1.00  0.00     0.021 C 
BRANCH   2   3
ATOM      3  C   UNL A   1      33.161  22.051  24.717  1.00  0.00     0.116 C 
BRANCH   3   4
ATOM      4  N   UNL A   1      32.449  22.386  25.938  1.00  0.00    -0.356 N 
ATOM      5  C   UNL A   1      32.107  23.588  26.471  1.00  0.00     0.223 C 
ATOM      6  O   UNL A   1      31.625  23.595  27.607  1.00  0.00    -0.275 OA
ATOM      7  H   UNL A   1      32.167  21.609  26.472  1.00  0.00     0.163 HD
BRANCH   5   8
ATOM      8  C   UNL A   1      32.245  24.880  25.680  1.00  0.00     0.079 C 
ATOM      9  C   UNL A   1      33.697  25.362  25.769  1.00  0.00     0.018 C 
BRANCH   8  10
ATOM     10  C   UNL A   1      31.133  25.895  26.014  1.00  0.00     0.048 C 
BRANCH  10  11
ATOM     11  C   UNL A   1      30.955  26.962  24.963  1.00  0.00    -0.047 A 
ATOM     12  C   UNL A   1      31.538  28.224  25.130  1.00  0.00     0.006 A 
ATOM     13  C   UNL A   1      30.250  26.699  23.786  1.00  0.00     0.006 A 
ATOM     14  C   UNL A   1      31.504  29.164  24.100  1.00  0.00     0.026 A 
ATOM     15  C   UNL A   1      30.191  27.658  22.771  1.00  0.00     0.026 A 
ATOM     16  C   UNL A   1      30.828  28.893  22.912  1.00  0.00     0.031 A 
BRANCH  16  17
ATOM     17  N   UNL A   1      30.902  29.776  21.847  1.00  0.00    -0.399 N 
ATOM     18  H   UNL A   1      31.622  30.447  21.813  1.00  0.00     0.156 HD
ATOM     19  H   UNL A   1      30.236  29.732  21.124  1.00  0.00     0.156 HD
ENDBRANCH  16  17
ENDBRANCH  10  11
ENDBRANCH   8  10
ENDBRANCH   5   8
ENDBRANCH   3   4
ENDBRANCH   2   3
ENDBRANCH   1   2
BRANCH   1  20
ATOM     20  C   UNL A   1      36.819  21.470  24.481  1.00  0.00     0.002 C 
BRANCH  20  21
ATOM     21  C   UNL A   1      37.630  20.277  24.992  1.00  0.00     0.021 C 
BRANCH  21  22
ATOM     22  C   UNL A   1      38.811  20.658  25.880  1.00  0.00     0.116 C 
BRANCH  22  23
ATOM     23  N   UNL A   1      39.779  19.575  25.984  1.00  0.00    -0.352 N 
ATOM     24  C   UNL A   1      41.140  19.642  26.124  1.00  0.00     0.251 C 
ATOM     25  H   UNL A   1      39.402  18.666  25.949  1.00  0.00     0.163 HD
ATOM     26  O   UNL A   1      41.827  18.632  25.975  1.00  0.00    -0.269 OA
BRANCH  24  27
ATOM     27  C   UNL A   1      41.778  20.935  26.440  1.00  0.00     0.039 A 
ATOM     28  C   UNL A   1      42.130  21.790  25.394  1.00  0.00     0.014 A 
ATOM     29  C   UNL A   1      42.014  21.306  27.767  1.00  0.00     0.014 A 
ATOM     30  C   UNL A   1      42.657  23.050  25.683  1.00  0.00     0.010 A 
ATOM     31  C   UNL A   1      42.469  22.590  28.054  1.00  0.00     0.010 A 
ATOM     32  C   UNL A   1      42.792  23.475  27.015  1.00  0.00    -0.014 A 
BRANCH  32  33
ATOM     33  C   UNL A   1      43.222  24.859  27.338  1.00  0.00     0.031 A 
ATOM     34  C   UNL A   1      42.258  25.837  27.948  1.00  0.00     0.074 A 
ATOM     35  C   UNL A   1      44.459  25.261  26.989  1.00  0.00     0.049 A 
ATOM     36  N   UNL A   1      42.442  27.099  28.242  1.00  0.00    -0.248 NA
ATOM     37  C   UNL A   1      40.904  25.343  28.242  1.00  0.00     0.031 C 
ATOM     38  C   UNL A   1      45.454  24.430  26.308  1.00  0.00     0.029 A 
ATOM     39  N   UNL A   1      45.078  26.479  27.124  1.00  0.00    -0.354 N 
ATOM     40  C   UNL A   1      41.224  27.556  28.730  1.00  0.00     0.074 A 
ATOM     41  C   UNL A   1      40.298  26.447  28.653  1.00  0.00     0.031 C 
ATOM     42  C   UNL A   1      46.555  25.162  26.079  1.00  0.00     0.029 A 
ATOM     43  C   UNL A   1      46.332  26.522  26.562  1.00  0.00     0.049 A 
ATOM     44  H   UNL A   1      44.664  27.247  27.580  1.00  0.00     0.167 HD
ATOM     45  C   UNL A   1      40.912  28.779  29.225  1.00  0.00     0.034 A 
ATOM     46  C   UNL A   1      47.200  27.544  26.428  1.00  0.00     0.034 A 
ATOM     47  C   UNL A   1      41.842  29.873  29.311  1.00  0.00     0.049 A 
ATOM     48  C   UNL A   1      46.842  28.887  26.998  1.00  0.00     0.074 A 
ATOM     49  C   UNL A   1      41.650  31.124  29.872  1.00  0.00     0.029 A 
ATOM     50  N   UNL A   1      43.133  29.859  28.804  1.00  0.00    -0.354 N 
ATOM     51  N   UNL A   1      45.744  29.254  27.612  1.00  0.00    -0.248 NA
ATOM     52  C   UNL A   1      47.854  29.947  26.890  1.00  0.00     0.031 C 
ATOM     53  C   UNL A   1      42.813  31.877  29.671  1.00  0.00     0.029 A 
ATOM     54  C   UNL A   1      43.743  31.084  29.018  1.00  0.00     0.049 A 
ATOM     55  H   UNL A   1      43.555  29.090  28.357  1.00  0.00     0.167 HD
ATOM     56  C   UNL A   1      45.938  30.580  27.980  1.00  0.00     0.074 A 
ATOM     57  C   UNL A   1      47.272  30.941  27.547  1.00  0.00     0.031 C 
ATOM     58  C   UNL A   1      45.082  31.426  28.608  1.00  0.00     0.034 A 
BRANCH  45  59
ATOM     59  C   UNL A   1      39.512  28.979  29.746  1.00  0.00     0.023 A 
ATOM     60  C   UNL A   1      39.196  28.584  31.064  1.00  0.00     0.012 A 
ATOM     61  C   UNL A   1      38.517  29.581  28.952  1.00  0.00     0.148 A 
ATOM     62  C   UNL A   1      37.904  28.738  31.565  1.00  0.00     0.002 A 
ATOM     63  C   UNL A   1      37.243  29.777  29.476  1.00  0.00     0.091 A 
ATOM     64  F   UNL A   1      38.826  29.934  27.696  1.00  0.00    -0.205 F 
ATOM     65  C   UNL A   1      36.932  29.343  30.774  1.00  0.00     0.022 A 
BRANCH  63  66
ATOM     66  S   UNL A   1      35.943  30.620  28.566  1.00  0.00     0.127 S 
ATOM     67  O   UNL A   1      35.510  29.577  27.637  1.00  0.00    -0.237 OA
ATOM     68  O   UNL A   1      34.980  30.930  29.623  1.00  0.00    -0.237 OA
ATOM     69  O   UNL A   1      36.570  31.784  27.957  1.00  0.00    -0.744 OA
ENDBRANCH  63  66
ENDBRANCH  45  59
BRANCH  46  70
ATOM     70  C   UNL A   1      48.505  27.310  25.751  1.00  0.00     0.023 A 
ATOM     71  C   UNL A   1      49.598  26.818  26.488  1.00  0.00     0.012 A 
ATOM     72  C   UNL A   1      48.646  27.514  24.363  1.00  0.00     0.148 A 
ATOM     73  C   UNL A   1      50.817  26.554  25.860  1.00  0.00     0.002 A 
ATOM     74  C   UNL A   1      49.842  27.192  23.734  1.00  0.00     0.091 A 
ATOM     75  F   UNL A   1      47.594  27.990  23.683  1.00  0.00    -0.205 F 
ATOM     76  C   UNL A   1      50.934  26.728  24.483  1.00  0.00     0.022 A 
BRANCH  74  77
ATOM     77  S   UNL A   1      50.038  27.247  21.950  1.00  0.00     0.127 S 
ATOM     78  O   UNL A   1      51.399  26.742  21.782  1.00  0.00    -0.237 OA
ATOM     79  O   UNL A   1      48.982  26.337  21.504  1.00  0.00    -0.237 OA
ATOM     80  O   UNL A   1      49.832  28.638  21.570  1.00  0.00    -0.744 OA
ENDBRANCH  74  77
ENDBRANCH  46  70
BRANCH  58  81
ATOM     81  C   UNL A   1      45.562  32.829  28.879  1.00  0.00     0.023 A 
ATOM     82  C   UNL A   1      46.271  33.110  30.064  1.00  0.00     0.012 A 
ATOM     83  C   UNL A   1      45.374  33.851  27.927  1.00  0.00     0.148 A 
ATOM     84  C   UNL A   1      46.756  34.394  30.313  1.00  0.00     0.002 A 
ATOM     85  C   UNL A   1      45.904  35.114  28.158  1.00  0.00     0.091 A 
ATOM     86  F   UNL A   1      44.683  33.568  26.814  1.00  0.00    -0.205 F 
ATOM     87  C   UNL A   1      46.584  35.391  29.356  1.00  0.00     0.022 A 
BRANCH  85  88
ATOM     88  S   UNL A   1      45.815  36.438  26.947  1.00  0.00     0.127 S 
ATOM     89  O   UNL A   1      44.373  36.673  26.868  1.00  0.00    -0.237 OA
ATOM     90  O   UNL A   1      46.572  37.506  27.600  1.00  0.00    -0.237 OA
ATOM     91  O   UNL A   1      46.426  35.915  25.733  1.00  0.00    -0.744 OA
ENDBRANCH  85  88
ENDBRANCH  58  81
ENDBRANCH  32  33
ENDBRANCH  24  27
ENDBRANCH  22  23
ENDBRANCH  21  22
ENDBRANCH  20  21
ENDBRANCH   1  20
TORSDOF 19
ENDMDL
MODEL 2
REMARK VINA RESULT:     -10.7      5.930     10.271
REMARK SMILES C[C@H](Cc1ccc(N)cc1)C(=O)NCCCCCCNC(=O)c1ccc(-c2c3nc(c(-c4cccc(S(=O)(=O)[O-])c4F)c4ccc([nH]4)c(-c4cccc(S(=O)(=O)[O-])c4F)c4nc(c(-c5cccc(S(=O)(=O)[O-])c5F)c5ccc2[nH]5)C=C4)C=C3)cc1
REMARK SMILES IDX 16 1 15 2 14 3 13 4 11 5 12 6 2 8 1 9 3 10 4 11 5 12 10 13
REMARK SMILES IDX 6 14 9 15 7 16 8 17 17 20 18 21 19 22 20 23 21 24 22 26
REMARK SMILES IDX 23 27 24 28 85 29 25 30 84 31 26 32 27 33 28 34 78 35 29 36
REMARK SMILES IDX 83 37 77 38 79 39 30 40 82 41 76 42 75 43 31 45 63 46 43 47
REMARK SMILES IDX 62 48 44 49 47 50 61 51 80 52 45 53 46 54 60 56 81 57 48 58
REMARK SMILES IDX 32 59 33 60 41 61 34 62 36 63 42 64 35 65 37 66 38 67 39 68
REMARK SMILES IDX 40 69 64 70 65 71 73 72 66 73 68 74 74 75 67 76 69 77 70 78
REMARK SMILES IDX 71 79 72 80 49 81 50 82 58 83 51 84 53 85 59 86 52 87 54 88
REMARK SMILES IDX 55 89 56 90 57 91
REMARK H PARENT 13 7 8 18 8 19 20 25 79 44 47 55
REMARK Flexibility Score: inf
ROOT
ATOM      1  C   UNL A   1      38.168  33.183  30.213  1.00  0.00     0.002 C 
ENDROOT
BRANCH   1   2
ATOM      2  C   UNL A   1      38.793  34.378  30.944  1.00  0.00     0.021 C 
BRANCH   2   3
ATOM      3  C   UNL A   1      38.232  34.581  32.351  1.00  0.00     0.116 C 
BRANCH   3   4
ATOM      4  N   UNL A   1      38.072  33.298  33.012  1.00  0.00    -0.356 N 
ATOM      5  C   UNL A   1      37.302  32.925  34.067  1.00  0.00     0.223 C 
ATOM      6  O   UNL A   1      37.466  31.791  34.524  1.00  0.00    -0.275 OA
ATOM      7  H   UNL A   1      38.616  32.572  32.629  1.00  0.00     0.163 HD
BRANCH   5   8
ATOM      8  C   UNL A   1      36.227  33.840  34.631  1.00  0.00     0.079 C 
ATOM      9  C   UNL A   1      36.335  33.847  36.160  1.00  0.00     0.018 C 
BRANCH   8  10
ATOM     10  C   UNL A   1      34.840  33.567  34.014  1.00  0.00     0.048 C 
BRANCH  10  11
ATOM     11  C   UNL A   1      34.312  34.711  33.185  1.00  0.00    -0.047 A 
ATOM     12  C   UNL A   1      34.460  36.032  33.626  1.00  0.00     0.006 A 
ATOM     13  C   UNL A   1      33.712  34.481  31.945  1.00  0.00     0.006 A 
ATOM     14  C   UNL A   1      34.111  37.100  32.799  1.00  0.00     0.026 A 
ATOM     15  C   UNL A   1      33.333  35.555  31.135  1.00  0.00     0.026 A 
ATOM     16  C   UNL A   1      33.541  36.873  31.548  1.00  0.00     0.031 A 
BRANCH  16  17
ATOM     17  N   UNL A   1      33.311  37.930  30.681  1.00  0.00    -0.399 N 
ATOM     18  H   UNL A   1      33.144  38.833  31.040  1.00  0.00     0.156 HD
ATOM     19  H   UNL A   1      33.314  37.779  29.709  1.00  0.00     0.156 HD
ENDBRANCH  16  17
ENDBRANCH  10  11
ENDBRANCH   8  10
ENDBRANCH   5   8
ENDBRANCH   3   4
ENDBRANCH   2   3
ENDBRANCH   1   2
BRANCH   1  20
ATOM     20  C   UNL A   1      36.637  33.135  30.268  1.00  0.00     0.002 C 
BRANCH  20  21
ATOM     21  C   UNL A   1      35.933  33.965  29.191  1.00  0.00     0.021 C 
BRANCH  21  22
ATOM     22  C   UNL A   1      35.875  33.293  27.823  1.00  0.00     0.116 C 
BRANCH  22  23
ATOM     23  N   UNL A   1      34.724  32.408  27.705  1.00  0.00    -0.352 N 
ATOM     24  C   UNL A   1      34.674  31.040  27.769  1.00  0.00     0.251 C 
ATOM     25  H   UNL A   1      33.860  32.856  27.559  1.00  0.00     0.163 HD
ATOM     26  O   UNL A   1      33.653  30.443  27.429  1.00  0.00    -0.269 OA
BRANCH  24  27
ATOM     27  C   UNL A   1      35.856  30.288  28.232  1.00  0.00     0.039 A 
ATOM     28  C   UNL A   1      36.977  30.211  27.404  1.00  0.00     0.014 A 
ATOM     29  C   UNL A   1      35.860  29.674  29.489  1.00  0.00     0.014 A 
ATOM     30  C   UNL A   1      38.130  29.573  27.865  1.00  0.00     0.010 A 
ATOM     31  C   UNL A   1      37.034  29.105  29.974  1.00  0.00     0.010 A 
ATOM     32  C   UNL A   1      38.181  29.052  29.169  1.00  0.00    -0.014 A 
BRANCH  32  33
ATOM     33  C   UNL A   1      39.440  28.494  29.723  1.00  0.00     0.031 A 
ATOM     34  C   UNL A   1      40.112  29.142  30.900  1.00  0.00     0.074 A 
ATOM     35  C   UNL A   1      40.029  27.456  29.099  1.00  0.00     0.049 A 
ATOM     36  N   UNL A   1      41.243  28.827  31.478  1.00  0.00    -0.248 NA
ATOM     37  C   UNL A   1      39.442  30.311  31.489  1.00  0.00     0.031 C 
ATOM     38  C   UNL A   1      39.521  26.800  27.893  1.00  0.00     0.029 A 
ATOM     39  N   UNL A   1      41.201  26.794  29.369  1.00  0.00    -0.354 N 
ATOM     40  C   UNL A   1      41.434  29.771  32.479  1.00  0.00     0.074 A 
ATOM     41  C   UNL A   1      40.323  30.695  32.402  1.00  0.00     0.031 C 
ATOM     42  C   UNL A   1      40.377  25.835  27.522  1.00  0.00     0.029 A 
ATOM     43  C   UNL A   1      41.511  25.827  28.441  1.00  0.00     0.049 A 
ATOM     44  H   UNL A   1      41.764  26.991  30.151  1.00  0.00     0.167 HD
ATOM     45  C   UNL A   1      42.427  29.846  33.398  1.00  0.00     0.034 A 
ATOM     46  C   UNL A   1      42.596  25.037  28.325  1.00  0.00     0.034 A 
ATOM     47  C   UNL A   1      43.522  28.916  33.478  1.00  0.00     0.049 A 
ATOM     48  C   UNL A   1      43.679  25.124  29.364  1.00  0.00     0.074 A 
ATOM     49  C   UNL A   1      44.533  28.854  34.422  1.00  0.00     0.029 A 
ATOM     50  N   UNL A   1      43.765  27.897  32.568  1.00  0.00    -0.354 N 
ATOM     51  N   UNL A   1      43.757  25.914  30.407  1.00  0.00    -0.248 NA
ATOM     52  C   UNL A   1      44.804  24.189  29.232  1.00  0.00     0.031 C 
ATOM     53  C   UNL A   1      45.406  27.821  34.061  1.00  0.00     0.029 A 
ATOM     54  C   UNL A   1      44.920  27.215  32.914  1.00  0.00     0.049 A 
ATOM     55  H   UNL A   1      43.199  27.688  31.791  1.00  0.00     0.167 HD
ATOM     56  C   UNL A   1      44.928  25.561  31.067  1.00  0.00     0.074 A 
ATOM     57  C   UNL A   1      45.511  24.464  30.321  1.00  0.00     0.031 C 
ATOM     58  C   UNL A   1      45.478  26.105  32.181  1.00  0.00     0.034 A 
BRANCH  45  59
ATOM     59  C   UNL A   1      42.348  30.956  34.415  1.00  0.00     0.023 A 
ATOM     60  C   UNL A   1      41.720  30.719  35.657  1.00  0.00     0.012 A 
ATOM     61  C   UNL A   1      42.917  32.219  34.162  1.00  0.00     0.148 A 
ATOM     62  C   UNL A   1      41.614  31.734  36.608  1.00  0.00     0.002 A 
ATOM     63  C   UNL A   1      42.851  33.211  35.136  1.00  0.00     0.091 A 
ATOM     64  F   UNL A   1      43.494  32.436  32.972  1.00  0.00    -0.205 F 
ATOM     65  C   UNL A   1      42.187  32.975  36.350  1.00  0.00     0.022 A 
BRANCH  63  66
ATOM     66  S   UNL A   1      43.629  34.818  34.933  1.00  0.00     0.127 S 
ATOM     67  O   UNL A   1      43.140  35.532  36.111  1.00  0.00    -0.237 OA
ATOM     68  O   UNL A   1      45.051  34.478  34.975  1.00  0.00    -0.237 OA
ATOM     69  O   UNL A   1      43.165  35.328  33.650  1.00  0.00    -0.744 OA
ENDBRANCH  63  66
ENDBRANCH  45  59
BRANCH  46  70
ATOM     70  C   UNL A   1      42.681  24.074  27.194  1.00  0.00     0.023 A 
ATOM     71  C   UNL A   1      43.396  24.420  26.032  1.00  0.00     0.012 A 
ATOM     72  C   UNL A   1      42.109  22.789  27.293  1.00  0.00     0.148 A 
ATOM     73  C   UNL A   1      43.521  23.512  24.978  1.00  0.00     0.002 A 
ATOM     74  C   UNL A   1      42.288  21.870  26.268  1.00  0.00     0.091 A 
ATOM     75  F   UNL A   1      41.427  22.485  28.406  1.00  0.00    -0.205 F 
ATOM     76  C   UNL A   1      42.979  22.235  25.102  1.00  0.00     0.022 A 
BRANCH  74  77
ATOM     77  S   UNL A   1      41.751  20.161  26.400  1.00  0.00     0.127 S 
ATOM     78  O   UNL A   1      40.302  20.292  26.267  1.00  0.00    -0.237 OA
ATOM     79  O   UNL A   1      42.423  19.546  25.255  1.00  0.00    -0.237 OA
ATOM     80  O   UNL A   1      42.225  19.695  27.696  1.00  0.00    -0.744 OA
ENDBRANCH  74  77
ENDBRANCH  46  70
BRANCH  58  81
ATOM     81  C   UNL A   1      46.775  25.518  32.676  1.00  0.00     0.023 A 
ATOM     82  C   UNL A   1      48.000  26.006  32.179  1.00  0.00     0.012 A 
ATOM     83  C   UNL A   1      46.782  24.534  33.685  1.00  0.00     0.148 A 
ATOM     84  C   UNL A   1      49.210  25.502  32.654  1.00  0.00     0.002 A 
ATOM     85  C   UNL A   1      47.991  24.073  34.190  1.00  0.00     0.091 A 
ATOM     86  F   UNL A   1      45.606  24.071  34.133  1.00  0.00    -0.205 F 
ATOM     87  C   UNL A   1      49.205  24.546  33.667  1.00  0.00     0.022 A 
BRANCH  85  88
ATOM     88  S   UNL A   1      48.088  22.912  35.558  1.00  0.00     0.127 S 
ATOM     89  O   UNL A   1      49.518  22.932  35.864  1.00  0.00    -0.237 OA
ATOM     90  O   UNL A   1      47.241  23.549  36.565  1.00  0.00    -0.237 OA
ATOM     91  O   UNL A   1      47.579  21.646  35.049  1.00  0.00    -0.744 OA
ENDBRANCH  85  88
ENDBRANCH  58  81
ENDBRANCH  32  33
ENDBRANCH  24  27
ENDBRANCH  22  23
ENDBRANCH  21  22
ENDBRANCH  20  21
ENDBRANCH   1  20
TORSDOF 19
ENDMDL
MODEL 3
REMARK VINA RESULT:     -10.7      6.422     11.441
REMARK SMILES C[C@H](Cc1ccc(N)cc1)C(=O)NCCCCCCNC(=O)c1ccc(-c2c3nc(c(-c4cccc(S(=O)(=O)[O-])c4F)c4ccc([nH]4)c(-c4cccc(S(=O)(=O)[O-])c4F)c4nc(c(-c5cccc(S(=O)(=O)[O-])c5F)c5ccc2[nH]5)C=C4)C=C3)cc1
REMARK SMILES IDX 16 1 15 2 14 3 13 4 11 5 12 6 2 8 1 9 3 10 4 11 5 12 10 13
REMARK SMILES IDX 6 14 9 15 7 16 8 17 17 20 18 21 19 22 20 23 21 24 22 26
REMARK SMILES IDX 23 27 24 28 85 29 25 30 84 31 26 32 27 33 28 34 78 35 29 36
REMARK SMILES IDX 83 37 77 38 79 39 30 40 82 41 76 42 75 43 31 45 63 46 43 47
REMARK SMILES IDX 62 48 44 49 47 50 61 51 80 52 45 53 46 54 60 56 81 57 48 58
REMARK SMILES IDX 32 59 33 60 41 61 34 62 36 63 42 64 35 65 37 66 38 67 39 68
REMARK SMILES IDX 40 69 64 70 65 71 73 72 66 73 68 74 74 75 67 76 69 77 70 78
REMARK SMILES IDX 71 79 72 80 49 81 50 82 58 83 51 84 53 85 59 86 52 87 54 88
REMARK SMILES IDX 55 89 56 90 57 91
REMARK H PARENT 13 7 8 18 8 19 20 25 79 44 47 55
REMARK Flexibility Score: inf
ROOT
ATOM      1  C   UNL A   1      32.958  28.935  25.941  1.00  0.00     0.002 C 
ENDROOT
BRANCH   1   2
ATOM      2  C   UNL A   1      33.480  27.642  26.580  1.00  0.00     0.021 C 
BRANCH   2   3
ATOM      3  C   UNL A   1      33.037  26.383  25.834  1.00  0.00     0.116 C 
BRANCH   3   4
ATOM      4  N   UNL A   1      31.808  25.870  26.413  1.00  0.00    -0.356 N 
ATOM      5  C   UNL A   1      30.608  25.578  25.848  1.00  0.00     0.223 C 
ATOM      6  O   UNL A   1      29.675  25.288  26.602  1.00  0.00    -0.275 OA
ATOM      7  H   UNL A   1      31.852  25.705  27.382  1.00  0.00     0.163 HD
BRANCH   5   8
ATOM      8  C   UNL A   1      30.425  25.541  24.339  1.00  0.00     0.079 C 
ATOM      9  C   UNL A   1      30.733  24.127  23.837  1.00  0.00     0.018 C 
BRANCH   8  10
ATOM     10  C   UNL A   1      31.127  26.719  23.633  1.00  0.00     0.048 C 
BRANCH  10  11
ATOM     11  C   UNL A   1      30.184  27.814  23.202  1.00  0.00    -0.047 A 
ATOM     12  C   UNL A   1      30.680  28.982  22.610  1.00  0.00     0.006 A 
ATOM     13  C   UNL A   1      28.802  27.666  23.340  1.00  0.00     0.006 A 
ATOM     14  C   UNL A   1      29.808  29.932  22.074  1.00  0.00     0.026 A 
ATOM     15  C   UNL A   1      27.935  28.637  22.831  1.00  0.00     0.026 A 
ATOM     16  C   UNL A   1      28.428  29.771  22.183  1.00  0.00     0.031 A 
BRANCH  16  17
ATOM     17  N   UNL A   1      27.569  30.649  21.542  1.00  0.00    -0.399 N 
ATOM     18  H   UNL A   1      27.019  31.273  22.072  1.00  0.00     0.156 HD
ATOM     19  H   UNL A   1      27.507  30.651  20.560  1.00  0.00     0.156 HD
ENDBRANCH  16  17
ENDBRANCH  10  11
ENDBRANCH   8  10
ENDBRANCH   5   8
ENDBRANCH   3   4
ENDBRANCH   2   3
ENDBRANCH   1   2
BRANCH   1  20
ATOM     20  C   UNL A   1      31.896  29.668  26.769  1.00  0.00     0.002 C 
BRANCH  20  21
ATOM     21  C   UNL A   1      31.886  31.188  26.592  1.00  0.00     0.021 C 
BRANCH  21  22
ATOM     22  C   UNL A   1      32.982  31.915  27.366  1.00  0.00     0.116 C 
BRANCH  22  23
ATOM     23  N   UNL A   1      32.659  33.321  27.564  1.00  0.00    -0.352 N 
ATOM     24  C   UNL A   1      33.163  34.203  28.484  1.00  0.00     0.251 C 
ATOM     25  H   UNL A   1      31.986  33.691  26.949  1.00  0.00     0.163 HD
ATOM     26  O   UNL A   1      32.620  35.294  28.656  1.00  0.00    -0.269 OA
BRANCH  24  27
ATOM     27  C   UNL A   1      34.348  33.829  29.280  1.00  0.00     0.039 A 
ATOM     28  C   UNL A   1      34.178  33.041  30.420  1.00  0.00     0.014 A 
ATOM     29  C   UNL A   1      35.625  34.243  28.890  1.00  0.00     0.014 A 
ATOM     30  C   UNL A   1      35.299  32.612  31.133  1.00  0.00     0.010 A 
ATOM     31  C   UNL A   1      36.743  33.753  29.558  1.00  0.00     0.010 A 
ATOM     32  C   UNL A   1      36.592  32.930  30.684  1.00  0.00    -0.014 A 
BRANCH  32  33
ATOM     33  C   UNL A   1      37.795  32.370  31.350  1.00  0.00     0.031 A 
ATOM     34  C   UNL A   1      38.533  31.209  30.746  1.00  0.00     0.074 A 
ATOM     35  C   UNL A   1      38.162  32.850  32.554  1.00  0.00     0.049 A 
ATOM     36  N   UNL A   1      39.565  30.556  31.217  1.00  0.00    -0.248 NA
ATOM     37  C   UNL A   1      38.033  30.698  29.461  1.00  0.00     0.031 C 
ATOM     38  C   UNL A   1      37.469  33.913  33.284  1.00  0.00     0.029 A 
ATOM     39  N   UNL A   1      39.185  32.482  33.392  1.00  0.00    -0.354 N 
ATOM     40  C   UNL A   1      39.822  29.543  30.302  1.00  0.00     0.074 A 
ATOM     41  C   UNL A   1      38.812  29.643  29.270  1.00  0.00     0.031 C 
ATOM     42  C   UNL A   1      38.081  34.108  34.462  1.00  0.00     0.029 A 
ATOM     43  C   UNL A   1      39.185  33.161  34.588  1.00  0.00     0.049 A 
ATOM     44  H   UNL A   1      39.854  31.799  33.159  1.00  0.00     0.167 HD
ATOM     45  C   UNL A   1      40.825  28.631  30.303  1.00  0.00     0.034 A 
ATOM     46  C   UNL A   1      39.969  33.024  35.675  1.00  0.00     0.034 A 
ATOM     47  C   UNL A   1      41.834  28.547  31.325  1.00  0.00     0.049 A 
ATOM     48  C   UNL A   1      41.086  32.019  35.651  1.00  0.00     0.074 A 
ATOM     49  C   UNL A   1      42.939  27.716  31.377  1.00  0.00     0.029 A 
ATOM     50  N   UNL A   1      41.852  29.304  32.487  1.00  0.00    -0.354 N 
ATOM     51  N   UNL A   1      41.418  31.182  34.698  1.00  0.00    -0.248 NA
ATOM     52  C   UNL A   1      41.956  31.962  36.833  1.00  0.00     0.031 C 
ATOM     53  C   UNL A   1      43.604  27.945  32.587  1.00  0.00     0.029 A 
ATOM     54  C   UNL A   1      42.934  28.946  33.274  1.00  0.00     0.049 A 
ATOM     55  H   UNL A   1      41.191  29.996  32.720  1.00  0.00     0.167 HD
ATOM     56  C   UNL A   1      42.547  30.512  35.156  1.00  0.00     0.074 A 
ATOM     57  C   UNL A   1      42.857  31.063  36.459  1.00  0.00     0.031 C 
ATOM     58  C   UNL A   1      43.252  29.520  34.557  1.00  0.00     0.034 A 
BRANCH  45  59
ATOM     59  C   UNL A   1      40.895  27.677  29.139  1.00  0.00     0.023 A 
ATOM     60  C   UNL A   1      40.093  26.516  29.141  1.00  0.00     0.012 A 
ATOM     61  C   UNL A   1      41.726  27.937  28.032  1.00  0.00     0.148 A 
ATOM     62  C   UNL A   1      40.153  25.605  28.086  1.00  0.00     0.002 A 
ATOM     63  C   UNL A   1      41.744  27.048  26.961  1.00  0.00     0.091 A 
ATOM     64  F   UNL A   1      42.497  29.034  28.052  1.00  0.00    -0.205 F 
ATOM     65  C   UNL A   1      40.971  25.877  26.994  1.00  0.00     0.022 A 
BRANCH  63  66
ATOM     66  S   UNL A   1      42.702  27.349  25.471  1.00  0.00     0.127 S 
ATOM     67  O   UNL A   1      42.468  26.118  24.718  1.00  0.00    -0.237 OA
ATOM     68  O   UNL A   1      42.047  28.535  24.918  1.00  0.00    -0.237 OA
ATOM     69  O   UNL A   1      44.072  27.565  25.914  1.00  0.00    -0.744 OA
ENDBRANCH  63  66
ENDBRANCH  45  59
BRANCH  46  70
ATOM     70  C   UNL A   1      39.734  33.895  36.860  1.00  0.00     0.023 A 
ATOM     71  C   UNL A   1      40.031  35.268  36.788  1.00  0.00     0.012 A 
ATOM     72  C   UNL A   1      39.156  33.375  38.036  1.00  0.00     0.148 A 
ATOM     73  C   UNL A   1      39.777  36.107  37.876  1.00  0.00     0.002 A 
ATOM     74  C   UNL A   1      38.851  34.224  39.091  1.00  0.00     0.091 A 
ATOM     75  F   UNL A   1      38.889  32.062  38.083  1.00  0.00    -0.205 F 
ATOM     76  C   UNL A   1      39.176  35.588  39.020  1.00  0.00     0.022 A 
BRANCH  74  77
ATOM     77  S   UNL A   1      37.948  33.673  40.543  1.00  0.00     0.127 S 
ATOM     78  O   UNL A   1      38.921  32.790  41.183  1.00  0.00    -0.237 OA
ATOM     79  O   UNL A   1      37.705  34.935  41.242  1.00  0.00    -0.237 OA
ATOM     80  O   UNL A   1      36.745  33.024  40.039  1.00  0.00    -0.744 OA
ENDBRANCH  74  77
ENDBRANCH  46  70
BRANCH  58  81
ATOM     81  C   UNL A   1      44.443  28.968  35.297  1.00  0.00     0.023 A 
ATOM     82  C   UNL A   1      45.712  29.556  35.122  1.00  0.00     0.012 A 
ATOM     83  C   UNL A   1      44.294  27.913  36.219  1.00  0.00     0.148 A 
ATOM     84  C   UNL A   1      46.818  29.083  35.828  1.00  0.00     0.002 A 
ATOM     85  C   UNL A   1      45.388  27.480  36.957  1.00  0.00     0.091 A 
ATOM     86  F   UNL A   1      43.082  27.354  36.360  1.00  0.00    -0.205 F 
ATOM     87  C   UNL A   1      46.654  28.054  36.753  1.00  0.00     0.022 A 
BRANCH  85  88
ATOM     88  S   UNL A   1      45.259  26.226  38.237  1.00  0.00     0.127 S 
ATOM     89  O   UNL A   1      46.664  25.900  38.477  1.00  0.00    -0.237 OA
ATOM     90  O   UNL A   1      44.610  26.961  39.324  1.00  0.00    -0.237 OA
ATOM     91  O   UNL A   1      44.459  25.151  37.669  1.00  0.00    -0.744 OA
ENDBRANCH  85  88
ENDBRANCH  58  81
ENDBRANCH  32  33
ENDBRANCH  24  27
ENDBRANCH  22  23
ENDBRANCH  21  22
ENDBRANCH  20  21
ENDBRANCH   1  20
TORSDOF 19
ENDMDL
