MODEL 1
REMARK VINA RESULT:     -11.4      0.000      0.000
REMARK SMILES [NH3+][C@H](CS[C@@H]1CC(=O)N(c2ccc3ccccc3c2)C1=O)C(=O)NCCCCCCNC(=O)c1ccc(-c2c3nc(c(-c4cccc(S(=O)(=O)[O-])c4F)c4ccc([nH]4)c(-c4cccc(S(=O)(=O)[O-])c4F)c4nc(c(-c5cccc(S(=O)(=O)[O-])c5F)c5ccc2[nH]5)C=C4)C=C3)cc1
REMARK SMILES IDX 27 1 26 2 25 3 24 4 22 5 23 6 2 8 1 9 3 13 4 14 5 15 6 16
REMARK SMILES IDX 20 17 7 18 9 19 21 20 8 21 10 22 11 23 19 24 12 25 18 26
REMARK SMILES IDX 13 27 17 28 14 29 16 30 15 31 28 32 29 33 30 34 31 35 32 36
REMARK SMILES IDX 33 38 34 39 35 40 96 41 36 42 95 43 37 44 38 45 39 46 89 47
REMARK SMILES IDX 40 48 94 49 88 50 90 51 41 52 93 53 87 54 86 55 42 57 74 58
REMARK SMILES IDX 54 59 73 60 55 61 58 62 72 63 91 64 56 65 57 66 71 68 92 69
REMARK SMILES IDX 59 70 43 71 44 72 52 73 45 74 47 75 53 76 46 77 48 78 49 79
REMARK SMILES IDX 50 80 51 81 75 82 76 83 84 84 77 85 79 86 85 87 78 88 80 89
REMARK SMILES IDX 81 90 82 91 83 92 60 93 61 94 69 95 62 96 64 97 70 98 63 99
REMARK SMILES IDX 65 100 66 101 67 102 68 103
REMARK H PARENT 24 7 1 10 1 11 1 12 31 37 90 56 58 67
REMARK Flexibility Score: inf
ROOT
ATOM      1  C   UNL A   1      34.652  32.527  27.965  1.00  0.00     0.002 C 
ENDROOT
BRANCH   1   2
ATOM      2  C   UNL A   1      35.086  31.102  28.341  1.00  0.00     0.021 C 
BRANCH   2   3
ATOM      3  C   UNL A   1      34.401  29.964  27.560  1.00  0.00     0.116 C 
BRANCH   3   4
ATOM      4  N   UNL A   1      33.292  30.422  26.750  1.00  0.00    -0.351 N 
ATOM      5  C   UNL A   1      32.108  29.834  26.407  1.00  0.00     0.279 C 
ATOM      6  O   UNL A   1      31.293  30.574  25.837  1.00  0.00    -0.268 OA
ATOM      7  H   UNL A   1      33.413  31.324  26.375  1.00  0.00     0.163 HD
BRANCH   5   8
ATOM      8  C   UNL A   1      31.742  28.337  26.669  1.00  0.00     0.280 C 
BRANCH   8   9
ATOM      9  N   UNL A   1      31.488  28.089  28.094  1.00  0.00    -0.347 N 
ATOM     10  H   UNL A   1      32.313  27.664  28.517  1.00  0.00     0.345 HD
ATOM     11  H   UNL A   1      30.692  27.459  28.193  1.00  0.00     0.345 HD
ATOM     12  H   UNL A   1      31.284  28.972  28.561  1.00  0.00     0.345 HD
ENDBRANCH   8   9
BRANCH   8  13
ATOM     13  C   UNL A   1      32.558  27.300  25.851  1.00  0.00     0.145 C 
BRANCH  13  14
ATOM     14  S   UNL A   1      32.133  26.872  24.081  1.00  0.00    -0.141 SA
BRANCH  14  15
ATOM     15  C   UNL A   1      31.500  25.184  24.288  1.00  0.00     0.146 C 
ATOM     16  C   UNL A   1      30.796  24.750  25.559  1.00  0.00     0.125 C 
ATOM     17  C   UNL A   1      32.583  24.148  24.133  1.00  0.00     0.247 C 
ATOM     18  C   UNL A   1      31.090  23.261  25.591  1.00  0.00     0.235 C 
ATOM     19  N   UNL A   1      32.233  23.042  24.864  1.00  0.00    -0.250 N 
ATOM     20  O   UNL A   1      33.505  24.230  23.328  1.00  0.00    -0.273 OA
ATOM     21  O   UNL A   1      30.393  22.451  26.171  1.00  0.00    -0.274 OA
BRANCH  19  22
ATOM     22  C   UNL A   1      32.946  21.828  24.736  1.00  0.00     0.052 A 
ATOM     23  C   UNL A   1      34.202  21.617  25.307  1.00  0.00     0.027 A 
ATOM     24  C   UNL A   1      32.339  20.770  24.053  1.00  0.00     0.035 A 
ATOM     25  C   UNL A   1      34.800  20.350  25.270  1.00  0.00     0.011 A 
ATOM     26  C   UNL A   1      32.969  19.530  23.914  1.00  0.00    -0.016 A 
ATOM     27  C   UNL A   1      34.203  19.300  24.555  1.00  0.00    -0.018 A 
ATOM     28  C   UNL A   1      32.397  18.533  23.117  1.00  0.00     0.009 A 
ATOM     29  C   UNL A   1      34.816  18.044  24.417  1.00  0.00     0.009 A 
ATOM     30  C   UNL A   1      33.042  17.310  22.949  1.00  0.00     0.001 A 
ATOM     31  C   UNL A   1      34.243  17.061  23.608  1.00  0.00     0.001 A 
ENDBRANCH  19  22
ENDBRANCH  14  15
ENDBRANCH  13  14
ENDBRANCH   8  13
ENDBRANCH   5   8
ENDBRANCH   3   4
ENDBRANCH   2   3
ENDBRANCH   1   2
BRANCH   1  32
ATOM     32  C   UNL A   1      35.433  33.678  28.616  1.00  0.00     0.002 C 
BRANCH  32  33
ATOM     33  C   UNL A   1      34.697  35.005  28.834  1.00  0.00     0.021 C 
BRANCH  33  34
ATOM     34  C   UNL A   1      33.174  35.020  28.949  1.00  0.00     0.116 C 
BRANCH  34  35
ATOM     35  N   UNL A   1      32.720  35.794  30.090  1.00  0.00    -0.352 N 
ATOM     36  C   UNL A   1      32.992  35.676  31.434  1.00  0.00     0.251 C 
ATOM     37  H   UNL A   1      32.111  36.533  29.862  1.00  0.00     0.163 HD
ATOM     38  O   UNL A   1      32.254  36.278  32.217  1.00  0.00    -0.269 OA
BRANCH  36  39
ATOM     39  C   UNL A   1      34.127  34.880  31.988  1.00  0.00     0.039 A 
ATOM     40  C   UNL A   1      35.345  35.539  32.218  1.00  0.00     0.014 A 
ATOM     41  C   UNL A   1      34.081  33.493  32.149  1.00  0.00     0.014 A 
ATOM     42  C   UNL A   1      36.489  34.826  32.610  1.00  0.00     0.010 A 
ATOM     43  C   UNL A   1      35.211  32.788  32.602  1.00  0.00     0.010 A 
ATOM     44  C   UNL A   1      36.437  33.439  32.815  1.00  0.00    -0.014 A 
BRANCH  44  45
ATOM     45  C   UNL A   1      37.655  32.670  33.219  1.00  0.00     0.031 A 
ATOM     46  C   UNL A   1      38.381  32.988  34.506  1.00  0.00     0.074 A 
ATOM     47  C   UNL A   1      38.147  31.705  32.415  1.00  0.00     0.049 A 
ATOM     48  N   UNL A   1      39.467  32.447  35.001  1.00  0.00    -0.248 NA
ATOM     49  C   UNL A   1      37.825  34.067  35.337  1.00  0.00     0.031 C 
ATOM     50  C   UNL A   1      37.587  31.320  31.119  1.00  0.00     0.029 A 
ATOM     51  N   UNL A   1      39.245  30.888  32.556  1.00  0.00    -0.354 N 
ATOM     52  C   UNL A   1      39.743  33.139  36.176  1.00  0.00     0.074 A 
ATOM     53  C   UNL A   1      38.723  34.158  36.308  1.00  0.00     0.031 C 
ATOM     54  C   UNL A   1      38.340  30.345  30.585  1.00  0.00     0.029 A 
ATOM     55  C   UNL A   1      39.458  30.056  31.479  1.00  0.00     0.049 A 
ATOM     56  H   UNL A   1      39.823  30.895  33.353  1.00  0.00     0.167 HD
ATOM     57  C   UNL A   1      40.737  32.937  37.078  1.00  0.00     0.034 A 
ATOM     58  C   UNL A   1      40.446  29.172  31.227  1.00  0.00     0.034 A 
ATOM     59  C   UNL A   1      41.735  31.905  36.972  1.00  0.00     0.049 A 
ATOM     60  C   UNL A   1      41.530  28.957  32.249  1.00  0.00     0.074 A 
ATOM     61  C   UNL A   1      42.731  31.575  37.877  1.00  0.00     0.029 A 
ATOM     62  N   UNL A   1      41.877  31.043  35.896  1.00  0.00    -0.354 N 
ATOM     63  N   UNL A   1      41.688  29.525  33.420  1.00  0.00    -0.248 NA
ATOM     64  C   UNL A   1      42.557  27.953  31.930  1.00  0.00     0.031 C 
ATOM     65  C   UNL A   1      43.498  30.542  37.331  1.00  0.00     0.029 A 
ATOM     66  C   UNL A   1      42.954  30.196  36.105  1.00  0.00     0.049 A 
ATOM     67  H   UNL A   1      41.299  31.035  35.100  1.00  0.00     0.167 HD
ATOM     68  C   UNL A   1      42.802  28.921  33.992  1.00  0.00     0.074 A 
ATOM     69  C   UNL A   1      43.272  27.929  33.048  1.00  0.00     0.031 C 
ATOM     70  C   UNL A   1      43.389  29.174  35.187  1.00  0.00     0.034 A 
BRANCH  57  71
ATOM     71  C   UNL A   1      40.781  33.833  38.292  1.00  0.00     0.023 A 
ATOM     72  C   UNL A   1      41.618  34.968  38.295  1.00  0.00     0.012 A 
ATOM     73  C   UNL A   1      39.943  33.595  39.400  1.00  0.00     0.148 A 
ATOM     74  C   UNL A   1      41.650  35.828  39.392  1.00  0.00     0.002 A 
ATOM     75  C   UNL A   1      39.945  34.483  40.472  1.00  0.00     0.091 A 
ATOM     76  F   UNL A   1      39.161  32.506  39.389  1.00  0.00    -0.205 F 
ATOM     77  C   UNL A   1      40.808  35.591  40.474  1.00  0.00     0.022 A 
BRANCH  75  78
ATOM     78  S   UNL A   1      38.840  34.313  41.877  1.00  0.00     0.127 S 
ATOM     79  O   UNL A   1      39.778  33.988  42.952  1.00  0.00    -0.237 OA
ATOM     80  O   UNL A   1      38.251  35.648  41.968  1.00  0.00    -0.237 OA
ATOM     81  O   UNL A   1      37.903  33.255  41.529  1.00  0.00    -0.744 OA
ENDBRANCH  75  78
ENDBRANCH  57  71
BRANCH  58  82
ATOM     82  C   UNL A   1      40.436  28.385  29.959  1.00  0.00     0.023 A 
ATOM     83  C   UNL A   1      39.451  27.397  29.762  1.00  0.00     0.012 A 
ATOM     84  C   UNL A   1      41.389  28.614  28.948  1.00  0.00     0.148 A 
ATOM     85  C   UNL A   1      39.437  26.628  28.597  1.00  0.00     0.002 A 
ATOM     86  C   UNL A   1      41.334  27.886  27.766  1.00  0.00     0.091 A 
ATOM     87  F   UNL A   1      42.326  29.548  29.160  1.00  0.00    -0.205 F 
ATOM     88  C   UNL A   1      40.370  26.879  27.596  1.00  0.00     0.022 A 
BRANCH  86  89
ATOM     89  S   UNL A   1      42.417  28.221  26.373  1.00  0.00     0.127 S 
ATOM     90  O   UNL A   1      43.660  27.585  26.801  1.00  0.00    -0.237 OA
ATOM     91  O   UNL A   1      41.721  27.540  25.281  1.00  0.00    -0.237 OA
ATOM     92  O   UNL A   1      42.462  29.672  26.247  1.00  0.00    -0.744 OA
ENDBRANCH  86  89
ENDBRANCH  58  82
BRANCH  70  93
ATOM     93  C   UNL A   1      44.581  28.337  35.581  1.00  0.00     0.023 A 
ATOM     94  C   UNL A   1      45.886  28.778  35.285  1.00  0.00     0.012 A 
ATOM     95  C   UNL A   1      44.406  27.142  36.311  1.00  0.00     0.148 A 
ATOM     96  C   UNL A   1      46.995  28.028  35.676  1.00  0.00     0.002 A 
ATOM     97  C   UNL A   1      45.517  26.428  36.743  1.00  0.00     0.091 A 
ATOM     98  F   UNL A   1      43.158  26.729  36.570  1.00  0.00    -0.205 F 
ATOM     99  C   UNL A   1      46.812  26.861  36.415  1.00  0.00     0.022 A 
BRANCH  97 100
ATOM    100  S   UNL A   1      45.382  24.968  37.783  1.00  0.00     0.127 S 
ATOM    101  O   UNL A   1      44.614  24.064  36.928  1.00  0.00    -0.237 OA
ATOM    102  O   UNL A   1      46.784  24.590  37.967  1.00  0.00    -0.237 OA
ATOM    103  O   UNL A   1      44.707  25.400  38.999  1.00  0.00    -0.744 OA
ENDBRANCH  97 100
ENDBRANCH  70  93
ENDBRANCH  44  45
ENDBRANCH  36  39
ENDBRANCH  34  35
ENDBRANCH  33  34
ENDBRANCH  32  33
ENDBRANCH   1  32
TORSDOF 21
ENDMDL
MODEL 2
REMARK VINA RESULT:     -11.2      2.061      2.655
REMARK SMILES [NH3+][C@H](CS[C@@H]1CC(=O)N(c2ccc3ccccc3c2)C1=O)C(=O)NCCCCCCNC(=O)c1ccc(-c2c3nc(c(-c4cccc(S(=O)(=O)[O-])c4F)c4ccc([nH]4)c(-c4cccc(S(=O)(=O)[O-])c4F)c4nc(c(-c5cccc(S(=O)(=O)[O-])c5F)c5ccc2[nH]5)C=C4)C=C3)cc1
REMARK SMILES IDX 27 1 26 2 25 3 24 4 22 5 23 6 2 8 1 9 3 13 4 14 5 15 6 16
REMARK SMILES IDX 20 17 7 18 9 19 21 20 8 21 10 22 11 23 19 24 12 25 18 26
REMARK SMILES IDX 13 27 17 28 14 29 16 30 15 31 28 32 29 33 30 34 31 35 32 36
REMARK SMILES IDX 33 38 34 39 35 40 96 41 36 42 95 43 37 44 38 45 39 46 89 47
REMARK SMILES IDX 40 48 94 49 88 50 90 51 41 52 93 53 87 54 86 55 42 57 74 58
REMARK SMILES IDX 54 59 73 60 55 61 58 62 72 63 91 64 56 65 57 66 71 68 92 69
REMARK SMILES IDX 59 70 43 71 44 72 52 73 45 74 47 75 53 76 46 77 48 78 49 79
REMARK SMILES IDX 50 80 51 81 75 82 76 83 84 84 77 85 79 86 85 87 78 88 80 89
REMARK SMILES IDX 81 90 82 91 83 92 60 93 61 94 69 95 62 96 64 97 70 98 63 99
REMARK SMILES IDX 65 100 66 101 67 102 68 103
REMARK H PARENT 24 7 1 10 1 11 1 12 31 37 90 56 58 67
REMARK Flexibility Score: inf
ROOT
ATOM      1  C   UNL A   1      34.754  30.124  27.837  1.00  0.00     0.002 C 
ENDROOT
BRANCH   1   2
ATOM      2  C   UNL A   1      34.040  28.995  27.079  1.00  0.00     0.021 C 
BRANCH   2   3
ATOM      3  C   UNL A   1      33.172  29.435  25.883  1.00  0.00     0.116 C 
BRANCH   3   4
ATOM      4  N   UNL A   1      33.866  29.341  24.616  1.00  0.00    -0.351 N 
ATOM      5  C   UNL A   1      33.847  28.392  23.634  1.00  0.00     0.279 C 
ATOM      6  O   UNL A   1      34.430  28.704  22.585  1.00  0.00    -0.268 OA
ATOM      7  H   UNL A   1      34.463  30.101  24.427  1.00  0.00     0.163 HD
BRANCH   5   8
ATOM      8  C   UNL A   1      33.173  26.988  23.756  1.00  0.00     0.280 C 
BRANCH   8   9
ATOM      9  N   UNL A   1      33.451  26.156  22.579  1.00  0.00    -0.347 N 
ATOM     10  H   UNL A   1      34.431  25.871  22.588  1.00  0.00     0.345 HD
ATOM     11  H   UNL A   1      33.260  26.690  21.732  1.00  0.00     0.345 HD
ATOM     12  H   UNL A   1      32.857  25.327  22.601  1.00  0.00     0.345 HD
ENDBRANCH   8   9
BRANCH   8  13
ATOM     13  C   UNL A   1      31.744  26.988  24.366  1.00  0.00     0.145 C 
BRANCH  13  14
ATOM     14  S   UNL A   1      30.341  26.012  23.609  1.00  0.00    -0.141 SA
BRANCH  14  15
ATOM     15  C   UNL A   1      30.432  24.484  24.583  1.00  0.00     0.146 C 
ATOM     16  C   UNL A   1      30.657  24.510  26.082  1.00  0.00     0.125 C 
ATOM     17  C   UNL A   1      31.521  23.564  24.094  1.00  0.00     0.247 C 
ATOM     18  C   UNL A   1      31.342  23.176  26.322  1.00  0.00     0.235 C 
ATOM     19  N   UNL A   1      31.944  22.795  25.148  1.00  0.00    -0.250 N 
ATOM     20  O   UNL A   1      31.816  23.411  22.914  1.00  0.00    -0.273 OA
ATOM     21  O   UNL A   1      31.322  22.592  27.389  1.00  0.00    -0.274 OA
BRANCH  19  22
ATOM     22  C   UNL A   1      32.802  21.690  24.947  1.00  0.00     0.052 A 
ATOM     23  C   UNL A   1      34.181  21.748  25.152  1.00  0.00     0.027 A 
ATOM     24  C   UNL A   1      32.234  20.466  24.579  1.00  0.00     0.035 A 
ATOM     25  C   UNL A   1      34.964  20.588  25.075  1.00  0.00     0.011 A 
ATOM     26  C   UNL A   1      33.016  19.323  24.393  1.00  0.00    -0.016 A 
ATOM     27  C   UNL A   1      34.396  19.369  24.673  1.00  0.00    -0.018 A 
ATOM     28  C   UNL A   1      32.440  18.146  23.901  1.00  0.00     0.009 A 
ATOM     29  C   UNL A   1      35.165  18.208  24.495  1.00  0.00     0.009 A 
ATOM     30  C   UNL A   1      33.225  17.017  23.681  1.00  0.00     0.001 A 
ATOM     31  C   UNL A   1      34.582  17.043  23.990  1.00  0.00     0.001 A 
ENDBRANCH  19  22
ENDBRANCH  14  15
ENDBRANCH  13  14
ENDBRANCH   8  13
ENDBRANCH   5   8
ENDBRANCH   3   4
ENDBRANCH   2   3
ENDBRANCH   1   2
BRANCH   1  32
ATOM     32  C   UNL A   1      34.437  31.560  27.390  1.00  0.00     0.002 C 
BRANCH  32  33
ATOM     33  C   UNL A   1      33.167  32.214  27.946  1.00  0.00     0.021 C 
BRANCH  33  34
ATOM     34  C   UNL A   1      32.639  33.504  27.320  1.00  0.00     0.116 C 
BRANCH  34  35
ATOM     35  N   UNL A   1      32.773  34.639  28.213  1.00  0.00    -0.352 N 
ATOM     36  C   UNL A   1      33.566  34.836  29.321  1.00  0.00     0.251 C 
ATOM     37  H   UNL A   1      32.194  35.403  27.988  1.00  0.00     0.163 HD
ATOM     38  O   UNL A   1      33.279  35.776  30.065  1.00  0.00    -0.269 OA
BRANCH  36  39
ATOM     39  C   UNL A   1      34.751  33.993  29.657  1.00  0.00     0.039 A 
ATOM     40  C   UNL A   1      34.630  33.077  30.714  1.00  0.00     0.014 A 
ATOM     41  C   UNL A   1      36.007  34.170  29.072  1.00  0.00     0.014 A 
ATOM     42  C   UNL A   1      35.741  32.348  31.169  1.00  0.00     0.010 A 
ATOM     43  C   UNL A   1      37.105  33.396  29.488  1.00  0.00     0.010 A 
ATOM     44  C   UNL A   1      36.995  32.493  30.557  1.00  0.00    -0.014 A 
BRANCH  44  45
ATOM     45  C   UNL A   1      38.186  31.730  31.046  1.00  0.00     0.031 A 
ATOM     46  C   UNL A   1      38.860  32.095  32.348  1.00  0.00     0.074 A 
ATOM     47  C   UNL A   1      38.701  30.728  30.305  1.00  0.00     0.049 A 
ATOM     48  N   UNL A   1      39.917  31.565  32.913  1.00  0.00    -0.248 NA
ATOM     49  C   UNL A   1      38.280  33.213  33.109  1.00  0.00     0.031 C 
ATOM     50  C   UNL A   1      38.194  30.293  29.004  1.00  0.00     0.029 A 
ATOM     51  N   UNL A   1      39.783  29.906  30.528  1.00  0.00    -0.354 N 
ATOM     52  C   UNL A   1      40.149  32.304  34.069  1.00  0.00     0.074 A 
ATOM     53  C   UNL A   1      39.137  33.336  34.114  1.00  0.00     0.031 C 
ATOM     54  C   UNL A   1      38.957  29.289  28.544  1.00  0.00     0.029 A 
ATOM     55  C   UNL A   1      40.033  29.028  29.497  1.00  0.00     0.049 A 
ATOM     56  H   UNL A   1      40.326  29.942  31.348  1.00  0.00     0.167 HD
ATOM     57  C   UNL A   1      41.101  32.130  35.021  1.00  0.00     0.034 A 
ATOM     58  C   UNL A   1      41.021  28.125  29.325  1.00  0.00     0.034 A 
ATOM     59  C   UNL A   1      42.091  31.085  35.002  1.00  0.00     0.049 A 
ATOM     60  C   UNL A   1      42.057  27.943  30.401  1.00  0.00     0.074 A 
ATOM     61  C   UNL A   1      43.043  30.784  35.963  1.00  0.00     0.029 A 
ATOM     62  N   UNL A   1      42.270  30.177  33.970  1.00  0.00    -0.354 N 
ATOM     63  N   UNL A   1      42.171  28.558  31.554  1.00  0.00    -0.248 NA
ATOM     64  C   UNL A   1      43.086  26.916  30.170  1.00  0.00     0.031 C 
ATOM     65  C   UNL A   1      43.822  29.722  35.494  1.00  0.00     0.029 A 
ATOM     66  C   UNL A   1      43.327  29.329  34.261  1.00  0.00     0.049 A 
ATOM     67  H   UNL A   1      41.727  30.141  33.151  1.00  0.00     0.167 HD
ATOM     68  C   UNL A   1      43.252  27.968  32.199  1.00  0.00     0.074 A 
ATOM     69  C   UNL A   1      43.751  26.932  31.318  1.00  0.00     0.031 C 
ATOM     70  C   UNL A   1      43.790  28.266  33.406  1.00  0.00     0.034 A 
BRANCH  57  71
ATOM     71  C   UNL A   1      41.103  33.076  36.198  1.00  0.00     0.023 A 
ATOM     72  C   UNL A   1      41.891  34.245  36.155  1.00  0.00     0.012 A 
ATOM     73  C   UNL A   1      40.271  32.849  37.313  1.00  0.00     0.148 A 
ATOM     74  C   UNL A   1      41.883  35.149  37.216  1.00  0.00     0.002 A 
ATOM     75  C   UNL A   1      40.232  33.779  38.347  1.00  0.00     0.091 A 
ATOM     76  F   UNL A   1      39.536  31.728  37.345  1.00  0.00    -0.205 F 
ATOM     77  C   UNL A   1      41.048  34.921  38.306  1.00  0.00     0.022 A 
BRANCH  75  78
ATOM     78  S   UNL A   1      39.130  33.620  39.756  1.00  0.00     0.127 S 
ATOM     79  O   UNL A   1      39.670  32.434  40.421  1.00  0.00    -0.237 OA
ATOM     80  O   UNL A   1      39.361  34.876  40.470  1.00  0.00    -0.237 OA
ATOM     81  O   UNL A   1      37.791  33.470  39.206  1.00  0.00    -0.744 OA
ENDBRANCH  75  78
ENDBRANCH  57  71
BRANCH  58  82
ATOM     82  C   UNL A   1      41.056  27.285  28.092  1.00  0.00     0.023 A 
ATOM     83  C   UNL A   1      41.638  27.798  26.916  1.00  0.00     0.012 A 
ATOM     84  C   UNL A   1      40.525  25.980  28.082  1.00  0.00     0.148 A 
ATOM     85  C   UNL A   1      41.659  27.042  25.744  1.00  0.00     0.002 A 
ATOM     86  C   UNL A   1      40.602  25.210  26.926  1.00  0.00     0.091 A 
ATOM     87  F   UNL A   1      39.964  25.514  29.205  1.00  0.00    -0.205 F 
ATOM     88  C   UNL A   1      41.151  25.746  25.751  1.00  0.00     0.022 A 
BRANCH  86  89
ATOM     89  S   UNL A   1      40.085  23.491  26.875  1.00  0.00     0.127 S 
ATOM     90  O   UNL A   1      40.581  22.991  28.154  1.00  0.00    -0.237 OA
ATOM     91  O   UNL A   1      38.630  23.618  26.786  1.00  0.00    -0.237 OA
ATOM     92  O   UNL A   1      40.714  22.924  25.690  1.00  0.00    -0.744 OA
ENDBRANCH  86  89
ENDBRANCH  58  82
BRANCH  70  93
ATOM     93  C   UNL A   1      44.954  27.435  33.887  1.00  0.00     0.023 A 
ATOM     94  C   UNL A   1      46.275  27.869  33.662  1.00  0.00     0.012 A 
ATOM     95  C   UNL A   1      44.733  26.254  34.626  1.00  0.00     0.148 A 
ATOM     96  C   UNL A   1      47.357  27.125  34.133  1.00  0.00     0.002 A 
ATOM     97  C   UNL A   1      45.814  25.546  35.137  1.00  0.00     0.091 A 
ATOM     98  F   UNL A   1      43.470  25.846  34.817  1.00  0.00    -0.205 F 
ATOM     99  C   UNL A   1      47.128  25.972  34.880  1.00  0.00     0.022 A 
BRANCH  97 100
ATOM    100  S   UNL A   1      45.614  24.106  36.193  1.00  0.00     0.127 S 
ATOM    101  O   UNL A   1      47.002  23.771  36.507  1.00  0.00    -0.237 OA
ATOM    102  O   UNL A   1      44.848  24.650  37.316  1.00  0.00    -0.237 OA
ATOM    103  O   UNL A   1      44.900  23.118  35.396  1.00  0.00    -0.744 OA
ENDBRANCH  97 100
ENDBRANCH  70  93
ENDBRANCH  44  45
ENDBRANCH  36  39
ENDBRANCH  34  35
ENDBRANCH  33  34
ENDBRANCH  32  33
ENDBRANCH   1  32
TORSDOF 21
ENDMDL
MODEL 3
REMARK VINA RESULT:     -11.0      5.411      9.082
REMARK SMILES [NH3+][C@H](CS[C@@H]1CC(=O)N(c2ccc3ccccc3c2)C1=O)C(=O)NCCCCCCNC(=O)c1ccc(-c2c3nc(c(-c4cccc(S(=O)(=O)[O-])c4F)c4ccc([nH]4)c(-c4cccc(S(=O)(=O)[O-])c4F)c4nc(c(-c5cccc(S(=O)(=O)[O-])c5F)c5ccc2[nH]5)C=C4)C=C3)cc1
REMARK SMILES IDX 27 1 26 2 25 3 24 4 22 5 23 6 2 8 1 9 3 13 4 14 5 15 6 16
REMARK SMILES IDX 20 17 7 18 9 19 21 20 8 21 10 22 11 23 19 24 12 25 18 26
REMARK SMILES IDX 13 27 17 28 14 29 16 30 15 31 28 32 29 33 30 34 31 35 32 36
REMARK SMILES IDX 33 38 34 39 35 40 96 41 36 42 95 43 37 44 38 45 39 46 89 47
REMARK SMILES IDX 40 48 94 49 88 50 90 51 41 52 93 53 87 54 86 55 42 57 74 58
REMARK SMILES IDX 54 59 73 60 55 61 58 62 72 63 91 64 56 65 57 66 71 68 92 69
REMARK SMILES IDX 59 70 43 71 44 72 52 73 45 74 47 75 53 76 46 77 48 78 49 79
REMARK SMILES IDX 50 80 51 81 75 82 76 83 84 84 77 85 79 86 85 87 78 88 80 89
REMARK SMILES IDX 81 90 82 91 83 92 60 93 61 94 69 95 62 96 64 97 70 98 63 99
REMARK SMILES IDX 65 100 66 101 67 102 68 103
REMARK H PARENT 24 7 1 10 1 11 1 12 31 37 90 56 58 67
REMARK Flexibility Score: inf
ROOT
ATOM      1  C   UNL A   1      33.645  36.281  28.886  1.00  0.00     0.002 C 
ENDROOT
BRANCH   1   2
ATOM      2  C   UNL A   1      33.265  37.080  30.143  1.00  0.00     0.021 C 
BRANCH   2   3
ATOM      3  C   UNL A   1      33.152  36.265  31.446  1.00  0.00     0.116 C 
BRANCH   3   4
ATOM      4  N   UNL A   1      34.394  36.209  32.188  1.00  0.00    -0.351 N 
ATOM      5  C   UNL A   1      35.132  35.158  32.653  1.00  0.00     0.279 C 
ATOM      6  O   UNL A   1      36.249  35.453  33.103  1.00  0.00    -0.268 OA
ATOM      7  H   UNL A   1      34.777  37.091  32.397  1.00  0.00     0.163 HD
BRANCH   5   8
ATOM      8  C   UNL A   1      34.663  33.668  32.663  1.00  0.00     0.280 C 
BRANCH   8   9
ATOM      9  N   UNL A   1      33.577  33.454  33.628  1.00  0.00    -0.347 N 
ATOM     10  H   UNL A   1      32.755  33.096  33.142  1.00  0.00     0.345 HD
ATOM     11  H   UNL A   1      33.346  34.339  34.081  1.00  0.00     0.345 HD
ATOM     12  H   UNL A   1      33.876  32.780  34.332  1.00  0.00     0.345 HD
ENDBRANCH   8   9
BRANCH   8  13
ATOM     13  C   UNL A   1      35.797  32.612  32.550  1.00  0.00     0.145 C 
BRANCH  13  14
ATOM     14  S   UNL A   1      37.038  32.336  33.921  1.00  0.00    -0.141 SA
BRANCH  14  15
ATOM     15  C   UNL A   1      38.009  30.972  33.223  1.00  0.00     0.146 C 
ATOM     16  C   UNL A   1      37.403  29.602  32.991  1.00  0.00     0.125 C 
ATOM     17  C   UNL A   1      39.232  30.664  34.048  1.00  0.00     0.247 C 
ATOM     18  C   UNL A   1      38.615  28.695  33.106  1.00  0.00     0.235 C 
ATOM     19  N   UNL A   1      39.555  29.344  33.869  1.00  0.00    -0.250 N 
ATOM     20  O   UNL A   1      39.914  31.513  34.612  1.00  0.00    -0.273 OA
ATOM     21  O   UNL A   1      38.687  27.599  32.584  1.00  0.00    -0.274 OA
BRANCH  19  22
ATOM     22  C   UNL A   1      40.780  28.821  34.343  1.00  0.00     0.052 A 
ATOM     23  C   UNL A   1      41.239  29.016  35.647  1.00  0.00     0.027 A 
ATOM     24  C   UNL A   1      41.540  28.025  33.481  1.00  0.00     0.035 A 
ATOM     25  C   UNL A   1      42.389  28.358  36.104  1.00  0.00     0.011 A 
ATOM     26  C   UNL A   1      42.745  27.448  33.889  1.00  0.00    -0.016 A 
ATOM     27  C   UNL A   1      43.167  27.587  35.227  1.00  0.00    -0.018 A 
ATOM     28  C   UNL A   1      43.549  26.765  32.970  1.00  0.00     0.009 A 
ATOM     29  C   UNL A   1      44.373  26.989  35.625  1.00  0.00     0.009 A 
ATOM     30  C   UNL A   1      44.767  26.221  33.366  1.00  0.00     0.001 A 
ATOM     31  C   UNL A   1      45.174  26.321  34.694  1.00  0.00     0.001 A 
ENDBRANCH  19  22
ENDBRANCH  14  15
ENDBRANCH  13  14
ENDBRANCH   8  13
ENDBRANCH   5   8
ENDBRANCH   3   4
ENDBRANCH   2   3
ENDBRANCH   1   2
BRANCH   1  32
ATOM     32  C   UNL A   1      33.411  34.764  28.941  1.00  0.00     0.002 C 
BRANCH  32  33
ATOM     33  C   UNL A   1      34.636  33.861  29.126  1.00  0.00     0.021 C 
BRANCH  33  34
ATOM     34  C   UNL A   1      35.064  32.918  28.002  1.00  0.00     0.116 C 
BRANCH  34  35
ATOM     35  N   UNL A   1      34.275  31.701  27.981  1.00  0.00    -0.352 N 
ATOM     36  C   UNL A   1      34.643  30.380  27.856  1.00  0.00     0.251 C 
ATOM     37  H   UNL A   1      33.305  31.844  28.070  1.00  0.00     0.163 HD
ATOM     38  O   UNL A   1      33.759  29.568  27.579  1.00  0.00    -0.269 OA
BRANCH  36  39
ATOM     39  C   UNL A   1      36.038  29.883  28.050  1.00  0.00     0.039 A 
ATOM     40  C   UNL A   1      36.371  29.323  29.293  1.00  0.00     0.014 A 
ATOM     41  C   UNL A   1      37.057  30.079  27.115  1.00  0.00     0.014 A 
ATOM     42  C   UNL A   1      37.694  28.958  29.590  1.00  0.00     0.010 A 
ATOM     43  C   UNL A   1      38.370  29.657  27.390  1.00  0.00     0.010 A 
ATOM     44  C   UNL A   1      38.713  29.114  28.638  1.00  0.00    -0.014 A 
BRANCH  44  45
ATOM     45  C   UNL A   1      40.128  28.741  28.952  1.00  0.00     0.031 A 
ATOM     46  C   UNL A   1      40.983  29.618  29.837  1.00  0.00     0.074 A 
ATOM     47  C   UNL A   1      40.673  27.631  28.412  1.00  0.00     0.049 A 
ATOM     48  N   UNL A   1      42.236  29.467  30.192  1.00  0.00    -0.248 NA
ATOM     49  C   UNL A   1      40.356  30.832  30.380  1.00  0.00     0.031 C 
ATOM     50  C   UNL A   1      39.990  26.714  27.500  1.00  0.00     0.029 A 
ATOM     51  N   UNL A   1      41.936  27.097  28.533  1.00  0.00    -0.354 N 
ATOM     52  C   UNL A   1      42.555  30.579  30.966  1.00  0.00     0.074 A 
ATOM     53  C   UNL A   1      41.371  31.409  31.008  1.00  0.00     0.031 C 
ATOM     54  C   UNL A   1      40.836  25.734  27.144  1.00  0.00     0.029 A 
ATOM     55  C   UNL A   1      42.134  25.967  27.772  1.00  0.00     0.049 A 
ATOM     56  H   UNL A   1      42.632  27.485  29.111  1.00  0.00     0.167 HD
ATOM     57  C   UNL A   1      43.715  30.876  31.604  1.00  0.00     0.034 A 
ATOM     58  C   UNL A   1      43.235  25.210  27.583  1.00  0.00     0.034 A 
ATOM     59  C   UNL A   1      44.887  30.039  31.595  1.00  0.00     0.049 A 
ATOM     60  C   UNL A   1      44.507  25.554  28.312  1.00  0.00     0.074 A 
ATOM     61  C   UNL A   1      46.079  30.221  32.277  1.00  0.00     0.029 A 
ATOM     62  N   UNL A   1      45.025  28.870  30.862  1.00  0.00    -0.354 N 
ATOM     63  N   UNL A   1      44.741  26.532  29.152  1.00  0.00    -0.248 NA
ATOM     64  C   UNL A   1      45.661  24.668  28.093  1.00  0.00     0.031 C 
ATOM     65  C   UNL A   1      46.950  29.185  31.925  1.00  0.00     0.029 A 
ATOM     66  C   UNL A   1      46.286  28.332  31.060  1.00  0.00     0.049 A 
ATOM     67  H   UNL A   1      44.329  28.482  30.285  1.00  0.00     0.167 HD
ATOM     68  C   UNL A   1      46.049  26.357  29.591  1.00  0.00     0.074 A 
ATOM     69  C   UNL A   1      46.553  25.166  28.939  1.00  0.00     0.031 C 
ATOM     70  C   UNL A   1      46.769  27.119  30.449  1.00  0.00     0.034 A 
BRANCH  57  71
ATOM     71  C   UNL A   1      43.774  32.154  32.405  1.00  0.00     0.023 A 
ATOM     72  C   UNL A   1      43.952  33.387  31.743  1.00  0.00     0.012 A 
ATOM     73  C   UNL A   1      43.579  32.145  33.801  1.00  0.00     0.148 A 
ATOM     74  C   UNL A   1      43.975  34.583  32.459  1.00  0.00     0.002 A 
ATOM     75  C   UNL A   1      43.557  33.346  34.503  1.00  0.00     0.091 A 
ATOM     76  F   UNL A   1      43.422  30.965  34.418  1.00  0.00    -0.205 F 
ATOM     77  C   UNL A   1      43.769  34.564  33.835  1.00  0.00     0.022 A 
BRANCH  75  78
ATOM     78  S   UNL A   1      43.217  33.436  36.264  1.00  0.00     0.127 S 
ATOM     79  O   UNL A   1      44.550  33.240  36.833  1.00  0.00    -0.237 OA
ATOM     80  O   UNL A   1      42.689  34.793  36.406  1.00  0.00    -0.237 OA
ATOM     81  O   UNL A   1      42.258  32.377  36.545  1.00  0.00    -0.744 OA
ENDBRANCH  75  78
ENDBRANCH  57  71
BRANCH  58  82
ATOM     82  C   UNL A   1      43.175  24.016  26.690  1.00  0.00     0.023 A 
ATOM     83  C   UNL A   1      43.820  24.051  25.438  1.00  0.00     0.012 A 
ATOM     84  C   UNL A   1      42.491  22.848  27.077  1.00  0.00     0.148 A 
ATOM     85  C   UNL A   1      43.755  22.957  24.573  1.00  0.00     0.002 A 
ATOM     86  C   UNL A   1      42.480  21.740  26.236  1.00  0.00     0.091 A 
ATOM     87  F   UNL A   1      41.872  22.839  28.266  1.00  0.00    -0.205 F 
ATOM     88  C   UNL A   1      43.095  21.800  24.976  1.00  0.00     0.022 A 
BRANCH  86  89
ATOM     89  S   UNL A   1      41.760  20.167  26.719  1.00  0.00     0.127 S 
ATOM     90  O   UNL A   1      41.865  19.398  25.482  1.00  0.00    -0.237 OA
ATOM     91  O   UNL A   1      42.663  19.740  27.789  1.00  0.00    -0.237 OA
ATOM     92  O   UNL A   1      40.405  20.471  27.160  1.00  0.00    -0.744 OA
ENDBRANCH  86  89
ENDBRANCH  58  82
BRANCH  70  93
ATOM     93  C   UNL A   1      48.172  26.675  30.783  1.00  0.00     0.023 A 
ATOM     94  C   UNL A   1      48.407  25.853  31.902  1.00  0.00     0.012 A 
ATOM     95  C   UNL A   1      49.250  27.018  29.941  1.00  0.00     0.148 A 
ATOM     96  C   UNL A   1      49.696  25.408  32.199  1.00  0.00     0.002 A 
ATOM     97  C   UNL A   1      50.522  26.528  30.213  1.00  0.00     0.091 A 
ATOM     98  F   UNL A   1      49.012  27.815  28.889  1.00  0.00    -0.205 F 
ATOM     99  C   UNL A   1      50.750  25.735  31.349  1.00  0.00     0.022 A 
BRANCH  97 100
ATOM    100  S   UNL A   1      51.921  26.814  29.121  1.00  0.00     0.127 S 
ATOM    101  O   UNL A   1      51.878  28.266  28.957  1.00  0.00    -0.237 OA
ATOM    102  O   UNL A   1      53.044  26.324  29.923  1.00  0.00    -0.237 OA
ATOM    103  O   UNL A   1      51.656  26.041  27.915  1.00  0.00    -0.744 OA
ENDBRANCH  97 100
ENDBRANCH  70  93
ENDBRANCH  44  45
ENDBRANCH  36  39
ENDBRANCH  34  35
ENDBRANCH  33  34
ENDBRANCH  32  33
ENDBRANCH   1  32
TORSDOF 21
ENDMDL
