MODEL 1
REMARK VINA RESULT:     -12.7      0.000      0.000
REMARK SMILES Cc1cc2c(=O)c3ccccc3oc2c(C(=O)NCCCCCCNC(=O)c2ccc(-c3c4nc(c(-c5cccc(S(=O)(=O)[O-])c5F)c5ccc([nH]5)c(-c5cccc(S(=O)(=O)[O-])c5F)c5nc(c(-c6cccc(S(=O)(=O)[O-])c6F)c6ccc3[nH]6)C=C5)C=C4)cc2)c1C
REMARK SMILES IDX 23 1 22 2 21 3 20 4 19 5 18 6 16 7 17 8 15 10 1 11 2 12 3 13
REMARK SMILES IDX 91 14 4 15 92 16 5 17 14 18 6 19 7 20 13 21 8 22 12 23 9 24
REMARK SMILES IDX 11 25 10 26 24 27 25 28 26 29 27 31 28 32 29 33 90 34 30 35
REMARK SMILES IDX 89 36 31 37 32 38 33 39 83 40 34 41 88 42 82 43 84 44 35 45
REMARK SMILES IDX 87 46 81 47 80 48 36 50 68 51 48 52 67 53 49 54 52 55 66 56
REMARK SMILES IDX 85 57 50 58 51 59 65 61 86 62 53 63 37 64 38 65 46 66 39 67
REMARK SMILES IDX 41 68 47 69 40 70 42 71 43 72 44 73 45 74 69 75 70 76 78 77
REMARK SMILES IDX 71 78 73 79 79 80 72 81 74 82 75 83 76 84 77 85 54 86 55 87
REMARK SMILES IDX 63 88 56 89 58 90 64 91 57 92 59 93 60 94 61 95 62 96
REMARK H PARENT 18 9 25 30 84 49 52 60
REMARK Flexibility Score: inf
ROOT
ATOM      1  C   UNL A   1      31.305  31.346  26.185  1.00  0.00     0.021 C 
ENDROOT
BRANCH   1   2
ATOM      2  C   UNL A   1      31.241  30.028  25.412  1.00  0.00     0.002 C 
BRANCH   2   3
ATOM      3  C   UNL A   1      32.015  28.824  25.962  1.00  0.00     0.002 C 
BRANCH   3   4
ATOM      4  C   UNL A   1      33.346  28.425  25.309  1.00  0.00     0.021 C 
BRANCH   4   5
ATOM      5  C   UNL A   1      33.681  28.995  23.933  1.00  0.00     0.116 C 
BRANCH   5   6
ATOM      6  N   UNL A   1      34.060  28.037  22.915  1.00  0.00    -0.352 N 
ATOM      7  C   UNL A   1      33.414  26.913  22.433  1.00  0.00     0.255 C 
ATOM      8  O   UNL A   1      33.880  26.408  21.411  1.00  0.00    -0.269 OA
ATOM      9  H   UNL A   1      34.931  28.218  22.492  1.00  0.00     0.163 HD
BRANCH   7  10
ATOM     10  C   UNL A   1      32.231  26.257  23.102  1.00  0.00     0.086 A 
ATOM     11  C   UNL A   1      31.127  23.140  25.087  1.00  0.00     0.044 C 
ATOM     12  C   UNL A   1      31.121  24.476  24.388  1.00  0.00    -0.046 A 
ATOM     13  C   UNL A   1      29.903  25.144  24.267  1.00  0.00     0.019 A 
ATOM     14  C   UNL A   1      32.311  25.097  23.923  1.00  0.00    -0.032 A 
ATOM     15  C   UNL A   1      29.847  26.377  23.625  1.00  0.00     0.066 A 
ATOM     16  C   UNL A   1      33.615  24.540  24.436  1.00  0.00     0.045 C 
ATOM     17  C   UNL A   1      28.587  27.136  23.658  1.00  0.00     0.200 A 
ATOM     18  C   UNL A   1      30.973  26.915  22.993  1.00  0.00     0.151 A 
ATOM     19  O   UNL A   1      27.583  26.704  24.211  1.00  0.00    -0.288 OA
ATOM     20  C   UNL A   1      28.597  28.457  23.030  1.00  0.00     0.065 A 
ATOM     21  O   UNL A   1      30.886  28.088  22.266  1.00  0.00    -0.455 OA
ATOM     22  C   UNL A   1      27.476  29.293  23.107  1.00  0.00     0.016 A 
ATOM     23  C   UNL A   1      29.746  28.852  22.357  1.00  0.00     0.138 A 
ATOM     24  C   UNL A   1      27.504  30.539  22.483  1.00  0.00     0.001 A 
ATOM     25  C   UNL A   1      29.765  30.099  21.727  1.00  0.00     0.048 A 
ATOM     26  C   UNL A   1      28.646  30.938  21.788  1.00  0.00     0.004 A 
ENDBRANCH   7  10
ENDBRANCH   5   6
ENDBRANCH   4   5
ENDBRANCH   3   4
ENDBRANCH   2   3
ENDBRANCH   1   2
BRANCH   1  27
ATOM     27  C   UNL A   1      32.586  31.634  26.959  1.00  0.00     0.116 C 
BRANCH  27  28
ATOM     28  N   UNL A   1      32.771  33.037  27.284  1.00  0.00    -0.352 N 
ATOM     29  C   UNL A   1      33.795  33.659  27.967  1.00  0.00     0.251 C 
ATOM     30  H   UNL A   1      32.056  33.636  26.967  1.00  0.00     0.163 HD
ATOM     31  O   UNL A   1      33.722  34.853  28.215  1.00  0.00    -0.269 OA
BRANCH  29  32
ATOM     32  C   UNL A   1      34.957  32.867  28.438  1.00  0.00     0.039 A 
ATOM     33  C   UNL A   1      34.785  31.614  29.030  1.00  0.00     0.014 A 
ATOM     34  C   UNL A   1      36.238  33.406  28.301  1.00  0.00     0.014 A 
ATOM     35  C   UNL A   1      35.868  30.980  29.634  1.00  0.00     0.010 A 
ATOM     36  C   UNL A   1      37.337  32.732  28.843  1.00  0.00     0.010 A 
ATOM     37  C   UNL A   1      37.154  31.538  29.558  1.00  0.00    -0.014 A 
BRANCH  37  38
ATOM     38  C   UNL A   1      38.302  30.864  30.218  1.00  0.00     0.031 A 
ATOM     39  C   UNL A   1      38.695  31.214  31.628  1.00  0.00     0.074 A 
ATOM     40  C   UNL A   1      38.994  29.927  29.542  1.00  0.00     0.049 A 
ATOM     41  N   UNL A   1      39.697  30.763  32.338  1.00  0.00    -0.248 NA
ATOM     42  C   UNL A   1      37.860  32.201  32.335  1.00  0.00     0.031 C 
ATOM     43  C   UNL A   1      38.717  29.507  28.167  1.00  0.00     0.029 A 
ATOM     44  N   UNL A   1      40.072  29.165  29.914  1.00  0.00    -0.354 N 
ATOM     45  C   UNL A   1      39.645  31.441  33.550  1.00  0.00     0.074 A 
ATOM     46  C   UNL A   1      38.506  32.331  33.487  1.00  0.00     0.031 C 
ATOM     47  C   UNL A   1      39.591  28.552  27.817  1.00  0.00     0.029 A 
ATOM     48  C   UNL A   1      40.520  28.328  28.920  1.00  0.00     0.049 A 
ATOM     49  H   UNL A   1      40.485  29.213  30.806  1.00  0.00     0.167 HD
ATOM     50  C   UNL A   1      40.467  31.325  34.621  1.00  0.00     0.034 A 
ATOM     51  C   UNL A   1      41.572  27.489  28.885  1.00  0.00     0.034 A 
ATOM     52  C   UNL A   1      41.570  30.406  34.701  1.00  0.00     0.049 A 
ATOM     53  C   UNL A   1      42.452  27.360  30.092  1.00  0.00     0.074 A 
ATOM     54  C   UNL A   1      42.431  30.191  35.764  1.00  0.00     0.029 A 
ATOM     55  N   UNL A   1      41.964  29.548  33.687  1.00  0.00    -0.354 N 
ATOM     56  N   UNL A   1      42.350  27.968  31.249  1.00  0.00    -0.248 NA
ATOM     57  C   UNL A   1      43.578  26.420  30.001  1.00  0.00     0.031 C 
ATOM     58  C   UNL A   1      43.347  29.203  35.391  1.00  0.00     0.029 A 
ATOM     59  C   UNL A   1      43.049  28.795  34.100  1.00  0.00     0.049 A 
ATOM     60  H   UNL A   1      41.534  29.483  32.804  1.00  0.00     0.167 HD
ATOM     61  C   UNL A   1      43.383  27.472  32.032  1.00  0.00     0.074 A 
ATOM     62  C   UNL A   1      44.095  26.502  31.222  1.00  0.00     0.031 C 
ATOM     63  C   UNL A   1      43.717  27.800  33.303  1.00  0.00     0.034 A 
BRANCH  50  64
ATOM     64  C   UNL A   1      40.187  32.184  35.823  1.00  0.00     0.023 A 
ATOM     65  C   UNL A   1      40.944  33.355  36.026  1.00  0.00     0.012 A 
ATOM     66  C   UNL A   1      39.119  31.888  36.691  1.00  0.00     0.148 A 
ATOM     67  C   UNL A   1      40.647  34.214  37.084  1.00  0.00     0.002 A 
ATOM     68  C   UNL A   1      38.809  32.764  37.725  1.00  0.00     0.091 A 
ATOM     69  F   UNL A   1      38.424  30.759  36.486  1.00  0.00    -0.205 F 
ATOM     70  C   UNL A   1      39.575  33.925  37.925  1.00  0.00     0.022 A 
BRANCH  68  71
ATOM     71  S   UNL A   1      37.413  32.513  38.827  1.00  0.00     0.127 S 
ATOM     72  O   UNL A   1      36.285  32.786  37.939  1.00  0.00    -0.237 OA
ATOM     73  O   UNL A   1      37.566  31.106  39.203  1.00  0.00    -0.237 OA
ATOM     74  O   UNL A   1      37.589  33.458  39.921  1.00  0.00    -0.744 OA
ENDBRANCH  68  71
ENDBRANCH  50  64
BRANCH  51  75
ATOM     75  C   UNL A   1      41.798  26.676  27.661  1.00  0.00     0.023 A 
ATOM     76  C   UNL A   1      42.495  27.244  26.578  1.00  0.00     0.012 A 
ATOM     77  C   UNL A   1      41.436  25.316  27.617  1.00  0.00     0.148 A 
ATOM     78  C   UNL A   1      42.833  26.467  25.470  1.00  0.00     0.002 A 
ATOM     79  C   UNL A   1      41.816  24.537  26.532  1.00  0.00     0.091 A 
ATOM     80  F   UNL A   1      40.773  24.805  28.664  1.00  0.00    -0.205 F 
ATOM     81  C   UNL A   1      42.507  25.113  25.454  1.00  0.00     0.022 A 
BRANCH  79  82
ATOM     82  S   UNL A   1      41.556  22.761  26.475  1.00  0.00     0.127 S 
ATOM     83  O   UNL A   1      42.160  22.331  27.733  1.00  0.00    -0.237 OA
ATOM     84  O   UNL A   1      40.095  22.678  26.431  1.00  0.00    -0.237 OA
ATOM     85  O   UNL A   1      42.228  22.298  25.269  1.00  0.00    -0.744 OA
ENDBRANCH  79  82
ENDBRANCH  51  75
BRANCH  63  86
ATOM     86  C   UNL A   1      44.886  27.093  33.926  1.00  0.00     0.023 A 
ATOM     87  C   UNL A   1      46.176  27.642  33.801  1.00  0.00     0.012 A 
ATOM     88  C   UNL A   1      44.690  25.948  34.721  1.00  0.00     0.148 A 
ATOM     89  C   UNL A   1      47.260  27.052  34.450  1.00  0.00     0.002 A 
ATOM     90  C   UNL A   1      45.769  25.386  35.393  1.00  0.00     0.091 A 
ATOM     91  F   UNL A   1      43.454  25.436  34.810  1.00  0.00    -0.205 F 
ATOM     92  C   UNL A   1      47.054  25.933  35.256  1.00  0.00     0.022 A 
BRANCH  90  93
ATOM     93  S   UNL A   1      45.584  23.990  36.510  1.00  0.00     0.127 S 
ATOM     94  O   UNL A   1      45.039  22.967  35.618  1.00  0.00    -0.237 OA
ATOM     95  O   UNL A   1      46.961  23.753  36.942  1.00  0.00    -0.237 OA
ATOM     96  O   UNL A   1      44.688  24.439  37.568  1.00  0.00    -0.744 OA
ENDBRANCH  90  93
ENDBRANCH  63  86
ENDBRANCH  37  38
ENDBRANCH  29  32
ENDBRANCH  27  28
ENDBRANCH   1  27
TORSDOF 16
ENDMDL
MODEL 2
REMARK VINA RESULT:     -12.7      0.447      7.398
REMARK SMILES Cc1cc2c(=O)c3ccccc3oc2c(C(=O)NCCCCCCNC(=O)c2ccc(-c3c4nc(c(-c5cccc(S(=O)(=O)[O-])c5F)c5ccc([nH]5)c(-c5cccc(S(=O)(=O)[O-])c5F)c5nc(c(-c6cccc(S(=O)(=O)[O-])c6F)c6ccc3[nH]6)C=C5)C=C4)cc2)c1C
REMARK SMILES IDX 23 1 22 2 21 3 20 4 19 5 18 6 16 7 17 8 15 10 1 11 2 12 3 13
REMARK SMILES IDX 91 14 4 15 92 16 5 17 14 18 6 19 7 20 13 21 8 22 12 23 9 24
REMARK SMILES IDX 11 25 10 26 24 27 25 28 26 29 27 31 28 32 29 33 90 34 30 35
REMARK SMILES IDX 89 36 31 37 32 38 33 39 83 40 34 41 88 42 82 43 84 44 35 45
REMARK SMILES IDX 87 46 81 47 80 48 36 50 68 51 48 52 67 53 49 54 52 55 66 56
REMARK SMILES IDX 85 57 50 58 51 59 65 61 86 62 53 63 37 64 38 65 46 66 39 67
REMARK SMILES IDX 41 68 47 69 40 70 42 71 43 72 44 73 45 74 69 75 70 76 78 77
REMARK SMILES IDX 71 78 73 79 79 80 72 81 74 82 75 83 76 84 77 85 54 86 55 87
REMARK SMILES IDX 63 88 56 89 58 90 64 91 57 92 59 93 60 94 61 95 62 96
REMARK H PARENT 18 9 25 30 84 49 52 60
REMARK Flexibility Score: inf
ROOT
ATOM      1  C   UNL A   1      31.410  30.387  25.994  1.00  0.00     0.021 C 
ENDROOT
BRANCH   1   2
ATOM      2  C   UNL A   1      31.474  28.953  25.466  1.00  0.00     0.002 C 
BRANCH   2   3
ATOM      3  C   UNL A   1      32.661  28.076  25.884  1.00  0.00     0.002 C 
BRANCH   3   4
ATOM      4  C   UNL A   1      33.912  28.035  24.996  1.00  0.00     0.021 C 
BRANCH   4   5
ATOM      5  C   UNL A   1      33.833  28.641  23.598  1.00  0.00     0.116 C 
BRANCH   5   6
ATOM      6  N   UNL A   1      34.020  27.727  22.490  1.00  0.00    -0.352 N 
ATOM      7  C   UNL A   1      33.241  26.680  22.029  1.00  0.00     0.255 C 
ATOM      8  O   UNL A   1      33.546  26.212  20.931  1.00  0.00    -0.269 OA
ATOM      9  H   UNL A   1      34.845  27.878  21.973  1.00  0.00     0.163 HD
BRANCH   7  10
ATOM     10  C   UNL A   1      32.101  26.061  22.800  1.00  0.00     0.086 A 
ATOM     11  C   UNL A   1      31.075  22.972  24.868  1.00  0.00     0.044 C 
ATOM     12  C   UNL A   1      31.052  24.311  24.176  1.00  0.00    -0.046 A 
ATOM     13  C   UNL A   1      29.852  25.021  24.167  1.00  0.00     0.019 A 
ATOM     14  C   UNL A   1      32.215  24.895  23.607  1.00  0.00    -0.032 A 
ATOM     15  C   UNL A   1      29.780  26.259  23.536  1.00  0.00     0.066 A 
ATOM     16  C   UNL A   1      33.541  24.290  23.998  1.00  0.00     0.045 C 
ATOM     17  C   UNL A   1      28.555  27.060  23.686  1.00  0.00     0.200 A 
ATOM     18  C   UNL A   1      30.862  26.762  22.807  1.00  0.00     0.151 A 
ATOM     19  O   UNL A   1      27.591  26.660  24.325  1.00  0.00    -0.288 OA
ATOM     20  C   UNL A   1      28.554  28.385  23.063  1.00  0.00     0.065 A 
ATOM     21  O   UNL A   1      30.750  27.942  22.094  1.00  0.00    -0.455 OA
ATOM     22  C   UNL A   1      27.474  29.257  23.243  1.00  0.00     0.016 A 
ATOM     23  C   UNL A   1      29.651  28.744  22.290  1.00  0.00     0.138 A 
ATOM     24  C   UNL A   1      27.489  30.505  22.623  1.00  0.00     0.001 A 
ATOM     25  C   UNL A   1      29.656  29.993  21.664  1.00  0.00     0.048 A 
ATOM     26  C   UNL A   1      28.576  30.869  21.829  1.00  0.00     0.004 A 
ENDBRANCH   7  10
ENDBRANCH   5   6
ENDBRANCH   4   5
ENDBRANCH   3   4
ENDBRANCH   2   3
ENDBRANCH   1   2
BRANCH   1  27
ATOM     27  C   UNL A   1      32.516  30.825  26.947  1.00  0.00     0.116 C 
BRANCH  27  28
ATOM     28  N   UNL A   1      32.624  32.265  27.096  1.00  0.00    -0.352 N 
ATOM     29  C   UNL A   1      33.634  33.024  27.650  1.00  0.00     0.251 C 
ATOM     30  H   UNL A   1      31.859  32.779  26.749  1.00  0.00     0.163 HD
ATOM     31  O   UNL A   1      33.496  34.232  27.761  1.00  0.00    -0.269 OA
BRANCH  29  32
ATOM     32  C   UNL A   1      34.864  32.363  28.150  1.00  0.00     0.039 A 
ATOM     33  C   UNL A   1      34.840  31.047  28.614  1.00  0.00     0.014 A 
ATOM     34  C   UNL A   1      36.057  33.091  28.171  1.00  0.00     0.014 A 
ATOM     35  C   UNL A   1      35.960  30.518  29.253  1.00  0.00     0.010 A 
ATOM     36  C   UNL A   1      37.203  32.531  28.745  1.00  0.00     0.010 A 
ATOM     37  C   UNL A   1      37.150  31.259  29.337  1.00  0.00    -0.014 A 
BRANCH  37  38
ATOM     38  C   UNL A   1      38.334  30.694  30.032  1.00  0.00     0.031 A 
ATOM     39  C   UNL A   1      39.228  29.697  29.346  1.00  0.00     0.074 A 
ATOM     40  C   UNL A   1      38.608  31.084  31.292  1.00  0.00     0.049 A 
ATOM     41  N   UNL A   1      40.271  29.065  29.820  1.00  0.00    -0.248 NA
ATOM     42  C   UNL A   1      38.912  29.359  27.947  1.00  0.00     0.031 C 
ATOM     43  C   UNL A   1      37.812  32.036  32.068  1.00  0.00     0.029 A 
ATOM     44  N   UNL A   1      39.624  30.726  32.142  1.00  0.00    -0.354 N 
ATOM     45  C   UNL A   1      40.705  28.223  28.803  1.00  0.00     0.074 A 
ATOM     46  C   UNL A   1      39.819  28.428  27.679  1.00  0.00     0.031 C 
ATOM     47  C   UNL A   1      38.377  32.200  33.273  1.00  0.00     0.029 A 
ATOM     48  C   UNL A   1      39.543  31.329  33.374  1.00  0.00     0.049 A 
ATOM     49  H   UNL A   1      40.339  30.098  31.893  1.00  0.00     0.167 HD
ATOM     50  C   UNL A   1      41.754  27.365  28.804  1.00  0.00     0.034 A 
ATOM     51  C   UNL A   1      40.306  31.184  34.475  1.00  0.00     0.034 A 
ATOM     52  C   UNL A   1      42.664  27.197  29.905  1.00  0.00     0.049 A 
ATOM     53  C   UNL A   1      41.475  30.247  34.443  1.00  0.00     0.074 A 
ATOM     54  C   UNL A   1      43.778  26.380  29.978  1.00  0.00     0.029 A 
ATOM     55  N   UNL A   1      42.570  27.857  31.120  1.00  0.00    -0.354 N 
ATOM     56  N   UNL A   1      41.902  29.504  33.451  1.00  0.00    -0.248 NA
ATOM     57  C   UNL A   1      42.279  30.139  35.668  1.00  0.00     0.031 C 
ATOM     58  C   UNL A   1      44.359  26.545  31.240  1.00  0.00     0.029 A 
ATOM     59  C   UNL A   1      43.612  27.473  31.947  1.00  0.00     0.049 A 
ATOM     60  H   UNL A   1      41.868  28.504  31.359  1.00  0.00     0.167 HD
ATOM     61  C   UNL A   1      43.036  28.855  33.922  1.00  0.00     0.074 A 
ATOM     62  C   UNL A   1      43.237  29.301  35.287  1.00  0.00     0.031 C 
ATOM     63  C   UNL A   1      43.829  27.961  33.284  1.00  0.00     0.034 A 
BRANCH  50  64
ATOM     64  C   UNL A   1      42.010  26.561  27.560  1.00  0.00     0.023 A 
ATOM     65  C   UNL A   1      42.625  27.177  26.453  1.00  0.00     0.012 A 
ATOM     66  C   UNL A   1      41.733  25.180  27.522  1.00  0.00     0.148 A 
ATOM     67  C   UNL A   1      42.953  26.432  25.320  1.00  0.00     0.002 A 
ATOM     68  C   UNL A   1      42.090  24.438  26.402  1.00  0.00     0.091 A 
ATOM     69  F   UNL A   1      41.131  24.620  28.581  1.00  0.00    -0.205 F 
ATOM     70  C   UNL A   1      42.696  25.064  25.299  1.00  0.00     0.022 A 
BRANCH  68  71
ATOM     71  S   UNL A   1      41.856  22.660  26.298  1.00  0.00     0.127 S 
ATOM     72  O   UNL A   1      42.520  22.350  25.034  1.00  0.00    -0.237 OA
ATOM     73  O   UNL A   1      42.562  22.186  27.490  1.00  0.00    -0.237 OA
ATOM     74  O   UNL A   1      40.417  22.442  26.316  1.00  0.00    -0.744 OA
ENDBRANCH  68  71
ENDBRANCH  50  64
BRANCH  51  75
ATOM     75  C   UNL A   1      39.991  32.002  35.675  1.00  0.00     0.023 A 
ATOM     76  C   UNL A   1      40.623  33.248  35.843  1.00  0.00     0.012 A 
ATOM     77  C   UNL A   1      38.983  31.608  36.576  1.00  0.00     0.148 A 
ATOM     78  C   UNL A   1      40.253  34.093  36.890  1.00  0.00     0.002 A 
ATOM     79  C   UNL A   1      38.588  32.473  37.588  1.00  0.00     0.091 A 
ATOM     80  F   UNL A   1      38.400  30.416  36.389  1.00  0.00    -0.205 F 
ATOM     81  C   UNL A   1      39.228  33.712  37.752  1.00  0.00     0.022 A 
BRANCH  79  82
ATOM     82  S   UNL A   1      37.194  32.130  38.668  1.00  0.00     0.127 S 
ATOM     83  O   UNL A   1      37.074  30.679  38.546  1.00  0.00    -0.237 OA
ATOM     84  O   UNL A   1      37.698  32.602  39.959  1.00  0.00    -0.237 OA
ATOM     85  O   UNL A   1      36.077  32.896  38.133  1.00  0.00    -0.744 OA
ENDBRANCH  79  82
ENDBRANCH  51  75
BRANCH  63  86
ATOM     86  C   UNL A   1      45.013  27.416  34.029  1.00  0.00     0.023 A 
ATOM     87  C   UNL A   1      46.229  28.124  34.014  1.00  0.00     0.012 A 
ATOM     88  C   UNL A   1      44.887  26.263  34.828  1.00  0.00     0.148 A 
ATOM     89  C   UNL A   1      47.311  27.684  34.776  1.00  0.00     0.002 A 
ATOM     90  C   UNL A   1      45.959  25.850  35.610  1.00  0.00     0.091 A 
ATOM     91  F   UNL A   1      43.723  25.598  34.811  1.00  0.00    -0.205 F 
ATOM     92  C   UNL A   1      47.172  26.556  35.583  1.00  0.00     0.022 A 
BRANCH  90  93
ATOM     93  S   UNL A   1      45.846  24.453  36.735  1.00  0.00     0.127 S 
ATOM     94  O   UNL A   1      47.190  24.425  37.309  1.00  0.00    -0.237 OA
ATOM     95  O   UNL A   1      44.795  24.880  37.658  1.00  0.00    -0.237 OA
ATOM     96  O   UNL A   1      45.495  23.303  35.911  1.00  0.00    -0.744 OA
ENDBRANCH  90  93
ENDBRANCH  63  86
ENDBRANCH  37  38
ENDBRANCH  29  32
ENDBRANCH  27  28
ENDBRANCH   1  27
TORSDOF 16
ENDMDL
MODEL 3
REMARK VINA RESULT:     -12.6      1.782      7.715
REMARK SMILES Cc1cc2c(=O)c3ccccc3oc2c(C(=O)NCCCCCCNC(=O)c2ccc(-c3c4nc(c(-c5cccc(S(=O)(=O)[O-])c5F)c5ccc([nH]5)c(-c5cccc(S(=O)(=O)[O-])c5F)c5nc(c(-c6cccc(S(=O)(=O)[O-])c6F)c6ccc3[nH]6)C=C5)C=C4)cc2)c1C
REMARK SMILES IDX 23 1 22 2 21 3 20 4 19 5 18 6 16 7 17 8 15 10 1 11 2 12 3 13
REMARK SMILES IDX 91 14 4 15 92 16 5 17 14 18 6 19 7 20 13 21 8 22 12 23 9 24
REMARK SMILES IDX 11 25 10 26 24 27 25 28 26 29 27 31 28 32 29 33 90 34 30 35
REMARK SMILES IDX 89 36 31 37 32 38 33 39 83 40 34 41 88 42 82 43 84 44 35 45
REMARK SMILES IDX 87 46 81 47 80 48 36 50 68 51 48 52 67 53 49 54 52 55 66 56
REMARK SMILES IDX 85 57 50 58 51 59 65 61 86 62 53 63 37 64 38 65 46 66 39 67
REMARK SMILES IDX 41 68 47 69 40 70 42 71 43 72 44 73 45 74 69 75 70 76 78 77
REMARK SMILES IDX 71 78 73 79 79 80 72 81 74 82 75 83 76 84 77 85 54 86 55 87
REMARK SMILES IDX 63 88 56 89 58 90 64 91 57 92 59 93 60 94 61 95 62 96
REMARK H PARENT 18 9 25 30 84 49 52 60
REMARK Flexibility Score: inf
ROOT
ATOM      1  C   UNL A   1      31.704  31.541  26.892  1.00  0.00     0.021 C 
ENDROOT
BRANCH   1   2
ATOM      2  C   UNL A   1      31.965  30.306  26.027  1.00  0.00     0.002 C 
BRANCH   2   3
ATOM      3  C   UNL A   1      33.101  29.360  26.432  1.00  0.00     0.002 C 
BRANCH   3   4
ATOM      4  C   UNL A   1      33.764  28.482  25.361  1.00  0.00     0.021 C 
BRANCH   4   5
ATOM      5  C   UNL A   1      33.692  28.932  23.905  1.00  0.00     0.116 C 
BRANCH   5   6
ATOM      6  N   UNL A   1      34.087  27.956  22.910  1.00  0.00    -0.352 N 
ATOM      7  C   UNL A   1      33.455  26.814  22.451  1.00  0.00     0.255 C 
ATOM      8  O   UNL A   1      33.932  26.292  21.442  1.00  0.00    -0.269 OA
ATOM      9  H   UNL A   1      34.957  28.137  22.486  1.00  0.00     0.163 HD
BRANCH   7  10
ATOM     10  C   UNL A   1      32.277  26.159  23.130  1.00  0.00     0.086 A 
ATOM     11  C   UNL A   1      31.191  23.054  25.142  1.00  0.00     0.044 C 
ATOM     12  C   UNL A   1      31.179  24.385  24.433  1.00  0.00    -0.046 A 
ATOM     13  C   UNL A   1      29.958  25.048  24.313  1.00  0.00     0.019 A 
ATOM     14  C   UNL A   1      32.364  25.006  23.958  1.00  0.00    -0.032 A 
ATOM     15  C   UNL A   1      29.895  26.277  23.663  1.00  0.00     0.066 A 
ATOM     16  C   UNL A   1      33.672  24.456  24.469  1.00  0.00     0.045 C 
ATOM     17  C   UNL A   1      28.634  27.033  23.697  1.00  0.00     0.200 A 
ATOM     18  C   UNL A   1      31.017  26.813  23.023  1.00  0.00     0.151 A 
ATOM     19  O   UNL A   1      27.633  26.602  24.257  1.00  0.00    -0.288 OA
ATOM     20  C   UNL A   1      28.637  28.350  23.060  1.00  0.00     0.065 A 
ATOM     21  O   UNL A   1      30.923  27.981  22.287  1.00  0.00    -0.455 OA
ATOM     22  C   UNL A   1      27.514  29.183  23.136  1.00  0.00     0.016 A 
ATOM     23  C   UNL A   1      29.782  28.743  22.379  1.00  0.00     0.138 A 
ATOM     24  C   UNL A   1      27.536  30.424  22.504  1.00  0.00     0.001 A 
ATOM     25  C   UNL A   1      29.795  29.985  21.740  1.00  0.00     0.048 A 
ATOM     26  C   UNL A   1      28.673  30.822  21.801  1.00  0.00     0.004 A 
ENDBRANCH   7  10
ENDBRANCH   5   6
ENDBRANCH   4   5
ENDBRANCH   3   4
ENDBRANCH   2   3
ENDBRANCH   1   2
BRANCH   1  27
ATOM     27  C   UNL A   1      32.913  32.389  27.270  1.00  0.00     0.116 C 
BRANCH  27  28
ATOM     28  N   UNL A   1      32.581  33.759  27.620  1.00  0.00    -0.352 N 
ATOM     29  C   UNL A   1      33.154  34.597  28.553  1.00  0.00     0.251 C 
ATOM     30  H   UNL A   1      31.832  34.148  27.113  1.00  0.00     0.163 HD
ATOM     31  O   UNL A   1      32.668  35.698  28.760  1.00  0.00    -0.269 OA
BRANCH  29  32
ATOM     32  C   UNL A   1      34.329  34.140  29.334  1.00  0.00     0.039 A 
ATOM     33  C   UNL A   1      35.629  34.445  28.927  1.00  0.00     0.014 A 
ATOM     34  C   UNL A   1      34.116  33.373  30.482  1.00  0.00     0.014 A 
ATOM     35  C   UNL A   1      36.712  33.845  29.566  1.00  0.00     0.010 A 
ATOM     36  C   UNL A   1      35.208  32.833  31.168  1.00  0.00     0.010 A 
ATOM     37  C   UNL A   1      36.513  33.022  30.686  1.00  0.00    -0.014 A 
BRANCH  37  38
ATOM     38  C   UNL A   1      37.671  32.374  31.352  1.00  0.00     0.031 A 
ATOM     39  C   UNL A   1      38.390  31.222  30.702  1.00  0.00     0.074 A 
ATOM     40  C   UNL A   1      38.081  32.827  32.552  1.00  0.00     0.049 A 
ATOM     41  N   UNL A   1      39.384  30.508  31.163  1.00  0.00    -0.248 NA
ATOM     42  C   UNL A   1      37.934  30.814  29.362  1.00  0.00     0.031 C 
ATOM     43  C   UNL A   1      37.461  33.930  33.290  1.00  0.00     0.029 A 
ATOM     44  N   UNL A   1      39.107  32.417  33.365  1.00  0.00    -0.354 N 
ATOM     45  C   UNL A   1      39.641  29.540  30.200  1.00  0.00     0.074 A 
ATOM     46  C   UNL A   1      38.704  29.761  29.120  1.00  0.00     0.031 C 
ATOM     47  C   UNL A   1      38.128  34.119  34.437  1.00  0.00     0.029 A 
ATOM     48  C   UNL A   1      39.189  33.122  34.542  1.00  0.00     0.049 A 
ATOM     49  H   UNL A   1      39.725  31.689  33.128  1.00  0.00     0.167 HD
ATOM     50  C   UNL A   1      40.579  28.563  30.211  1.00  0.00     0.034 A 
ATOM     51  C   UNL A   1      40.008  32.975  35.600  1.00  0.00     0.034 A 
ATOM     52  C   UNL A   1      41.542  28.374  31.262  1.00  0.00     0.049 A 
ATOM     53  C   UNL A   1      41.054  31.902  35.578  1.00  0.00     0.074 A 
ATOM     54  C   UNL A   1      42.556  27.435  31.338  1.00  0.00     0.029 A 
ATOM     55  N   UNL A   1      41.616  29.136  32.417  1.00  0.00    -0.354 N 
ATOM     56  N   UNL A   1      41.318  31.034  34.631  1.00  0.00    -0.248 NA
ATOM     57  C   UNL A   1      41.928  31.795  36.754  1.00  0.00     0.031 C 
ATOM     58  C   UNL A   1      43.242  27.628  32.540  1.00  0.00     0.029 A 
ATOM     59  C   UNL A   1      42.663  28.695  33.208  1.00  0.00     0.049 A 
ATOM     60  H   UNL A   1      41.013  29.881  32.642  1.00  0.00     0.167 HD
ATOM     61  C   UNL A   1      42.399  30.292  35.085  1.00  0.00     0.074 A 
ATOM     62  C   UNL A   1      42.751  30.818  36.389  1.00  0.00     0.031 C 
ATOM     63  C   UNL A   1      43.033  29.259  34.480  1.00  0.00     0.034 A 
BRANCH  50  64
ATOM     64  C   UNL A   1      40.648  27.635  29.030  1.00  0.00     0.023 A 
ATOM     65  C   UNL A   1      39.701  26.599  28.909  1.00  0.00     0.012 A 
ATOM     66  C   UNL A   1      41.581  27.848  27.997  1.00  0.00     0.148 A 
ATOM     67  C   UNL A   1      39.689  25.780  27.779  1.00  0.00     0.002 A 
ATOM     68  C   UNL A   1      41.545  27.047  26.861  1.00  0.00     0.091 A 
ATOM     69  F   UNL A   1      42.483  28.829  28.143  1.00  0.00    -0.205 F 
ATOM     70  C   UNL A   1      40.602  26.011  26.753  1.00  0.00     0.022 A 
BRANCH  68  71
ATOM     71  S   UNL A   1      42.637  27.299  25.457  1.00  0.00     0.127 S 
ATOM     72  O   UNL A   1      43.940  27.397  26.114  1.00  0.00    -0.237 OA
ATOM     73  O   UNL A   1      42.435  26.072  24.685  1.00  0.00    -0.237 OA
ATOM     74  O   UNL A   1      42.176  28.514  24.802  1.00  0.00    -0.744 OA
ENDBRANCH  68  71
ENDBRANCH  50  64
BRANCH  51  75
ATOM     75  C   UNL A   1      39.880  33.920  36.741  1.00  0.00     0.023 A 
ATOM     76  C   UNL A   1      40.184  35.279  36.544  1.00  0.00     0.012 A 
ATOM     77  C   UNL A   1      39.342  33.499  37.972  1.00  0.00     0.148 A 
ATOM     78  C   UNL A   1      39.950  36.209  37.558  1.00  0.00     0.002 A 
ATOM     79  C   UNL A   1      39.070  34.436  38.960  1.00  0.00     0.091 A 
ATOM     80  F   UNL A   1      39.063  32.198  38.129  1.00  0.00    -0.205 F 
ATOM     81  C   UNL A   1      39.381  35.790  38.758  1.00  0.00     0.022 A 
BRANCH  79  82
ATOM     82  S   UNL A   1      38.222  34.017  40.487  1.00  0.00     0.127 S 
ATOM     83  O   UNL A   1      37.013  33.366  39.988  1.00  0.00    -0.237 OA
ATOM     84  O   UNL A   1      39.188  33.121  41.125  1.00  0.00    -0.237 OA
ATOM     85  O   UNL A   1      38.010  35.278  41.185  1.00  0.00    -0.744 OA
ENDBRANCH  79  82
ENDBRANCH  51  75
BRANCH  63  86
ATOM     86  C   UNL A   1      44.197  28.634  35.195  1.00  0.00     0.023 A 
ATOM     87  C   UNL A   1      45.497  29.121  34.961  1.00  0.00     0.012 A 
ATOM     88  C   UNL A   1      43.989  27.643  36.172  1.00  0.00     0.148 A 
ATOM     89  C   UNL A   1      46.578  28.618  35.684  1.00  0.00     0.002 A 
ATOM     90  C   UNL A   1      45.066  27.171  36.913  1.00  0.00     0.091 A 
ATOM     91  F   UNL A   1      42.742  27.186  36.363  1.00  0.00    -0.205 F 
ATOM     92  C   UNL A   1      46.361  27.654  36.667  1.00  0.00     0.022 A 
BRANCH  90  93
ATOM     93  S   UNL A   1      44.869  25.986  38.248  1.00  0.00     0.127 S 
ATOM     94  O   UNL A   1      44.401  24.802  37.528  1.00  0.00    -0.237 OA
ATOM     95  O   UNL A   1      46.229  25.882  38.776  1.00  0.00    -0.237 OA
ATOM     96  O   UNL A   1      43.908  26.577  39.170  1.00  0.00    -0.744 OA
ENDBRANCH  90  93
ENDBRANCH  63  86
ENDBRANCH  37  38
ENDBRANCH  29  32
ENDBRANCH  27  28
ENDBRANCH   1  27
TORSDOF 16
ENDMDL
