MODEL 1
REMARK VINA RESULT:      -7.8      0.000      0.000
REMARK SMILES CC1CC[NH+]([C@H](c2ccc(F)cc2)c2ccc([C@@H](C)C(=O)NCCCCCCNC(=O)c3ccc(-c4c5nc(c(-c6cccc(S(=O)(=O)[O-])c6F)c6ccc([nH]6)c(-c6cccc(S(=O)(=O)[O-])c6F)c6nc(c(-c7cccc(S(=O)(=O)[O-])c7F)c7ccc4[nH]7)C=C6)C=C5)cc3)cc2-c2ccc(C(F)(F)F)cc2)CC1
REMARK SMILES IDX 25 1 24 2 23 3 22 4 20 5 21 6 18 8 19 9 17 10 14 11 15 12
REMARK SMILES IDX 96 13 16 14 95 15 6 16 5 17 1 18 2 19 3 20 108 21 4 22
REMARK SMILES IDX 107 23 7 25 8 26 13 27 9 28 12 29 10 30 11 31 97 32 98 33
REMARK SMILES IDX 106 34 99 35 105 36 100 37 101 38 102 39 103 40 104 41 26 42
REMARK SMILES IDX 27 43 28 44 29 45 30 46 31 48 32 49 33 50 94 51 34 52 93 53
REMARK SMILES IDX 35 54 36 55 37 56 87 57 38 58 92 59 86 60 88 61 39 62 91 63
REMARK SMILES IDX 85 64 84 65 40 67 72 68 52 69 71 70 53 71 56 72 70 73 89 74
REMARK SMILES IDX 54 75 55 76 69 78 90 79 57 80 41 81 42 82 50 83 43 84 45 85
REMARK SMILES IDX 51 86 44 87 46 88 47 89 48 90 49 91 73 92 74 93 82 94 75 95
REMARK SMILES IDX 77 96 83 97 76 98 78 99 79 100 80 101 81 102 58 103 59 104
REMARK SMILES IDX 67 105 60 106 62 107 68 108 61 109 63 110 64 111 65 112
REMARK SMILES IDX 66 113
REMARK H PARENT 22 7 5 24 29 47 88 66 56 77
REMARK Flexibility Score: inf
ROOT
ATOM      1  C   UNL A   1      50.108  26.557  34.060  1.00  0.00     0.002 C 
ENDROOT
BRANCH   1   2
ATOM      2  C   UNL A   1      50.982  27.242  33.007  1.00  0.00     0.021 C 
BRANCH   2   3
ATOM      3  C   UNL A   1      50.318  28.451  32.333  1.00  0.00     0.116 C 
BRANCH   3   4
ATOM      4  N   UNL A   1      50.506  28.435  30.895  1.00  0.00    -0.356 N 
ATOM      5  C   UNL A   1      50.083  27.586  29.917  1.00  0.00     0.227 C 
ATOM      6  O   UNL A   1      50.487  27.837  28.773  1.00  0.00    -0.274 OA
ATOM      7  H   UNL A   1      51.047  29.186  30.558  1.00  0.00     0.163 HD
BRANCH   5   8
ATOM      8  C   UNL A   1      49.152  26.379  30.148  1.00  0.00     0.105 C 
ATOM      9  C   UNL A   1      49.873  25.034  30.178  1.00  0.00     0.023 C 
BRANCH   8  10
ATOM     10  C   UNL A   1      47.893  26.425  29.302  1.00  0.00    -0.035 A 
ATOM     11  C   UNL A   1      45.760  26.417  27.385  1.00  0.00     0.022 A 
ATOM     12  C   UNL A   1      46.145  25.274  28.100  1.00  0.00     0.011 A 
ATOM     13  C   UNL A   1      46.379  27.640  27.770  1.00  0.00    -0.009 A 
ATOM     14  C   UNL A   1      47.110  25.304  29.099  1.00  0.00     0.005 A 
ATOM     15  C   UNL A   1      47.488  27.601  28.658  1.00  0.00     0.013 A 
BRANCH  11  16
ATOM     16  C   UNL A   1      44.656  26.335  26.290  1.00  0.00     0.247 C 
BRANCH  16  17
ATOM     17  N   UNL A   1      43.243  26.650  26.685  1.00  0.00    -0.325 N 
ATOM     18  C   UNL A   1      39.954  29.051  28.308  1.00  0.00     0.008 C 
ATOM     19  C   UNL A   1      41.292  28.512  27.829  1.00  0.00    -0.003 C 
ATOM     20  C   UNL A   1      41.276  28.247  26.326  1.00  0.00     0.065 C 
ATOM     21  C   UNL A   1      41.615  27.202  28.528  1.00  0.00     0.065 C 
ATOM     22  C   UNL A   1      42.585  27.631  25.814  1.00  0.00     0.263 C 
ATOM     23  C   UNL A   1      43.003  26.726  28.125  1.00  0.00     0.263 C 
ATOM     24  H   UNL A   1      42.704  25.810  26.475  1.00  0.00     0.348 HD
ENDBRANCH  16  17
BRANCH  16  25
ATOM     25  C   UNL A   1      44.696  25.023  25.476  1.00  0.00     0.014 A 
ATOM     26  C   UNL A   1      43.548  24.229  25.282  1.00  0.00     0.013 A 
ATOM     27  C   UNL A   1      45.908  24.597  24.901  1.00  0.00     0.013 A 
ATOM     28  C   UNL A   1      43.607  23.059  24.523  1.00  0.00     0.040 A 
ATOM     29  C   UNL A   1      45.974  23.406  24.176  1.00  0.00     0.040 A 
ATOM     30  C   UNL A   1      44.822  22.654  23.986  1.00  0.00     0.123 A 
ATOM     31  F   UNL A   1      44.883  21.519  23.276  1.00  0.00    -0.207 F 
ENDBRANCH  16  25
ENDBRANCH  11  16
BRANCH  13  32
ATOM     32  C   UNL A   1      45.890  28.969  27.354  1.00  0.00    -0.018 A 
ATOM     33  C   UNL A   1      44.676  29.489  27.825  1.00  0.00     0.009 A 
ATOM     34  C   UNL A   1      46.619  29.731  26.424  1.00  0.00     0.009 A 
ATOM     35  C   UNL A   1      44.222  30.745  27.408  1.00  0.00     0.014 A 
ATOM     36  C   UNL A   1      46.177  30.993  26.016  1.00  0.00     0.014 A 
ATOM     37  C   UNL A   1      44.976  31.516  26.511  1.00  0.00     0.056 A 
BRANCH  37  38
ATOM     38  C   UNL A   1      44.483  32.873  26.078  1.00  0.00     0.416 C 
ATOM     39  F   UNL A   1      44.022  32.874  24.795  1.00  0.00    -0.166 F 
ATOM     40  F   UNL A   1      43.451  33.330  26.842  1.00  0.00    -0.166 F 
ATOM     41  F   UNL A   1      45.438  33.845  26.129  1.00  0.00    -0.166 F 
ENDBRANCH  37  38
ENDBRANCH  13  32
ENDBRANCH   8  10
ENDBRANCH   5   8
ENDBRANCH   3   4
ENDBRANCH   2   3
ENDBRANCH   1   2
BRANCH   1  42
ATOM     42  C   UNL A   1      48.712  26.153  33.570  1.00  0.00     0.002 C 
BRANCH  42  43
ATOM     43  C   UNL A   1      48.293  24.717  33.902  1.00  0.00     0.021 C 
BRANCH  43  44
ATOM     44  C   UNL A   1      47.339  24.600  35.088  1.00  0.00     0.116 C 
BRANCH  44  45
ATOM     45  N   UNL A   1      46.180  23.777  34.757  1.00  0.00    -0.352 N 
ATOM     46  C   UNL A   1      45.010  24.141  34.131  1.00  0.00     0.251 C 
ATOM     47  H   UNL A   1      46.245  22.829  35.017  1.00  0.00     0.163 HD
ATOM     48  O   UNL A   1      44.030  23.408  34.162  1.00  0.00    -0.269 OA
BRANCH  46  49
ATOM     49  C   UNL A   1      44.961  25.428  33.407  1.00  0.00     0.039 A 
ATOM     50  C   UNL A   1      44.913  25.458  32.013  1.00  0.00     0.014 A 
ATOM     51  C   UNL A   1      44.947  26.613  34.137  1.00  0.00     0.014 A 
ATOM     52  C   UNL A   1      44.763  26.685  31.357  1.00  0.00     0.010 A 
ATOM     53  C   UNL A   1      44.716  27.820  33.490  1.00  0.00     0.010 A 
ATOM     54  C   UNL A   1      44.617  27.873  32.093  1.00  0.00    -0.014 A 
BRANCH  54  55
ATOM     55  C   UNL A   1      44.336  29.188  31.457  1.00  0.00     0.031 A 
ATOM     56  C   UNL A   1      45.477  30.062  31.001  1.00  0.00     0.074 A 
ATOM     57  C   UNL A   1      43.074  29.660  31.420  1.00  0.00     0.049 A 
ATOM     58  N   UNL A   1      45.454  31.304  30.592  1.00  0.00    -0.248 NA
ATOM     59  C   UNL A   1      46.828  29.474  31.048  1.00  0.00     0.031 C 
ATOM     60  C   UNL A   1      41.888  28.946  31.896  1.00  0.00     0.029 A 
ATOM     61  N   UNL A   1      42.581  30.870  30.994  1.00  0.00    -0.354 N 
ATOM     62  C   UNL A   1      46.780  31.657  30.374  1.00  0.00     0.074 A 
ATOM     63  C   UNL A   1      47.588  30.512  30.731  1.00  0.00     0.031 C 
ATOM     64  C   UNL A   1      40.808  29.727  31.733  1.00  0.00     0.029 A 
ATOM     65  C   UNL A   1      41.226  31.012  31.184  1.00  0.00     0.049 A 
ATOM     66  H   UNL A   1      43.146  31.570  30.592  1.00  0.00     0.167 HD
ATOM     67  C   UNL A   1      47.280  32.819  29.891  1.00  0.00     0.034 A 
ATOM     68  C   UNL A   1      40.412  32.064  30.959  1.00  0.00     0.034 A 
ATOM     69  C   UNL A   1      46.472  33.938  29.485  1.00  0.00     0.049 A 
ATOM     70  C   UNL A   1      40.991  33.331  30.390  1.00  0.00     0.074 A 
ATOM     71  C   UNL A   1      46.883  35.127  28.910  1.00  0.00     0.029 A 
ATOM     72  N   UNL A   1      45.093  34.008  29.607  1.00  0.00    -0.354 N 
ATOM     73  N   UNL A   1      42.234  33.602  30.074  1.00  0.00    -0.248 NA
ATOM     74  C   UNL A   1      40.050  34.427  30.114  1.00  0.00     0.031 C 
ATOM     75  C   UNL A   1      45.755  35.927  28.706  1.00  0.00     0.029 A 
ATOM     76  C   UNL A   1      44.637  35.221  29.120  1.00  0.00     0.049 A 
ATOM     77  H   UNL A   1      44.523  33.300  29.983  1.00  0.00     0.167 HD
ATOM     78  C   UNL A   1      42.220  34.881  29.531  1.00  0.00     0.074 A 
ATOM     79  C   UNL A   1      40.841  35.323  29.538  1.00  0.00     0.031 C 
ATOM     80  C   UNL A   1      43.257  35.630  29.082  1.00  0.00     0.034 A 
BRANCH  67  81
ATOM     81  C   UNL A   1      48.771  32.927  29.702  1.00  0.00     0.023 A 
ATOM     82  C   UNL A   1      49.578  33.355  30.776  1.00  0.00     0.012 A 
ATOM     83  C   UNL A   1      49.383  32.504  28.505  1.00  0.00     0.148 A 
ATOM     84  C   UNL A   1      50.966  33.379  30.657  1.00  0.00     0.002 A 
ATOM     85  C   UNL A   1      50.769  32.484  28.411  1.00  0.00     0.091 A 
ATOM     86  F   UNL A   1      48.598  32.117  27.489  1.00  0.00    -0.205 F 
ATOM     87  C   UNL A   1      51.561  32.931  29.482  1.00  0.00     0.022 A 
BRANCH  85  88
ATOM     88  S   UNL A   1      51.640  31.837  26.979  1.00  0.00     0.127 S 
ATOM     89  O   UNL A   1      50.823  32.353  25.880  1.00  0.00    -0.237 OA
ATOM     90  O   UNL A   1      52.953  32.467  27.110  1.00  0.00    -0.237 OA
ATOM     91  O   UNL A   1      51.637  30.389  27.124  1.00  0.00    -0.744 OA
ENDBRANCH  85  88
ENDBRANCH  67  81
BRANCH  68  92
ATOM     92  C   UNL A   1      38.947  31.939  31.212  1.00  0.00     0.023 A 
ATOM     93  C   UNL A   1      38.479  31.922  32.541  1.00  0.00     0.012 A 
ATOM     94  C   UNL A   1      38.018  31.870  30.157  1.00  0.00     0.148 A 
ATOM     95  C   UNL A   1      37.116  31.807  32.815  1.00  0.00     0.002 A 
ATOM     96  C   UNL A   1      36.656  31.817  30.436  1.00  0.00     0.091 A 
ATOM     97  F   UNL A   1      38.483  31.877  28.900  1.00  0.00    -0.205 F 
ATOM     98  C   UNL A   1      36.204  31.766  31.763  1.00  0.00     0.022 A 
BRANCH  96  99
ATOM     99  S   UNL A   1      35.404  31.905  29.151  1.00  0.00     0.127 S 
ATOM    100  O   UNL A   1      35.997  32.863  28.221  1.00  0.00    -0.237 OA
ATOM    101  O   UNL A   1      35.366  30.522  28.674  1.00  0.00    -0.237 OA
ATOM    102  O   UNL A   1      34.185  32.344  29.816  1.00  0.00    -0.744 OA
ENDBRANCH  96  99
ENDBRANCH  68  92
BRANCH  80 103
ATOM    103  C   UNL A   1      42.953  36.997  28.523  1.00  0.00     0.023 A 
ATOM    104  C   UNL A   1      42.425  37.123  27.223  1.00  0.00     0.012 A 
ATOM    105  C   UNL A   1      43.109  38.150  29.320  1.00  0.00     0.148 A 
ATOM    106  C   UNL A   1      42.091  38.377  26.711  1.00  0.00     0.002 A 
ATOM    107  C   UNL A   1      42.720  39.388  28.824  1.00  0.00     0.091 A 
ATOM    108  F   UNL A   1      43.627  38.012  30.549  1.00  0.00    -0.205 F 
ATOM    109  C   UNL A   1      42.226  39.506  27.515  1.00  0.00     0.022 A 
BRANCH 107 110
ATOM    110  S   UNL A   1      42.756  40.880  29.825  1.00  0.00     0.127 S 
ATOM    111  O   UNL A   1      43.616  41.752  29.027  1.00  0.00    -0.237 OA
ATOM    112  O   UNL A   1      41.346  41.271  29.848  1.00  0.00    -0.237 OA
ATOM    113  O   UNL A   1      43.294  40.483  31.118  1.00  0.00    -0.744 OA
ENDBRANCH 107 110
ENDBRANCH  80 103
ENDBRANCH  54  55
ENDBRANCH  46  49
ENDBRANCH  44  45
ENDBRANCH  43  44
ENDBRANCH  42  43
ENDBRANCH   1  42
TORSDOF 22
ENDMDL
MODEL 2
REMARK VINA RESULT:      -7.3      4.752     10.870
REMARK SMILES CC1CC[NH+]([C@H](c2ccc(F)cc2)c2ccc([C@@H](C)C(=O)NCCCCCCNC(=O)c3ccc(-c4c5nc(c(-c6cccc(S(=O)(=O)[O-])c6F)c6ccc([nH]6)c(-c6cccc(S(=O)(=O)[O-])c6F)c6nc(c(-c7cccc(S(=O)(=O)[O-])c7F)c7ccc4[nH]7)C=C6)C=C5)cc3)cc2-c2ccc(C(F)(F)F)cc2)CC1
REMARK SMILES IDX 25 1 24 2 23 3 22 4 20 5 21 6 18 8 19 9 17 10 14 11 15 12
REMARK SMILES IDX 96 13 16 14 95 15 6 16 5 17 1 18 2 19 3 20 108 21 4 22
REMARK SMILES IDX 107 23 7 25 8 26 13 27 9 28 12 29 10 30 11 31 97 32 98 33
REMARK SMILES IDX 106 34 99 35 105 36 100 37 101 38 102 39 103 40 104 41 26 42
REMARK SMILES IDX 27 43 28 44 29 45 30 46 31 48 32 49 33 50 94 51 34 52 93 53
REMARK SMILES IDX 35 54 36 55 37 56 87 57 38 58 92 59 86 60 88 61 39 62 91 63
REMARK SMILES IDX 85 64 84 65 40 67 72 68 52 69 71 70 53 71 56 72 70 73 89 74
REMARK SMILES IDX 54 75 55 76 69 78 90 79 57 80 41 81 42 82 50 83 43 84 45 85
REMARK SMILES IDX 51 86 44 87 46 88 47 89 48 90 49 91 73 92 74 93 82 94 75 95
REMARK SMILES IDX 77 96 83 97 76 98 78 99 79 100 80 101 81 102 58 103 59 104
REMARK SMILES IDX 67 105 60 106 62 107 68 108 61 109 63 110 64 111 65 112
REMARK SMILES IDX 66 113
REMARK H PARENT 22 7 5 24 29 47 88 66 56 77
REMARK Flexibility Score: inf
ROOT
ATOM      1  C   UNL A   1      45.723  37.601  35.900  1.00  0.00     0.002 C 
ENDROOT
BRANCH   1   2
ATOM      2  C   UNL A   1      44.819  37.531  37.133  1.00  0.00     0.021 C 
BRANCH   2   3
ATOM      3  C   UNL A   1      43.891  36.309  37.161  1.00  0.00     0.116 C 
BRANCH   3   4
ATOM      4  N   UNL A   1      42.600  36.602  36.567  1.00  0.00    -0.356 N 
ATOM      5  C   UNL A   1      42.055  36.314  35.352  1.00  0.00     0.227 C 
ATOM      6  O   UNL A   1      40.927  36.781  35.144  1.00  0.00    -0.274 OA
ATOM      7  H   UNL A   1      41.999  37.109  37.159  1.00  0.00     0.163 HD
BRANCH   5   8
ATOM      8  C   UNL A   1      42.738  35.459  34.267  1.00  0.00     0.105 C 
ATOM      9  C   UNL A   1      43.497  36.272  33.221  1.00  0.00     0.023 C 
BRANCH   8  10
ATOM     10  C   UNL A   1      41.842  34.364  33.717  1.00  0.00    -0.035 A 
ATOM     11  C   UNL A   1      39.865  32.438  32.939  1.00  0.00     0.022 A 
ATOM     12  C   UNL A   1      40.000  33.686  32.313  1.00  0.00     0.011 A 
ATOM     13  C   UNL A   1      40.868  32.098  33.890  1.00  0.00    -0.009 A 
ATOM     14  C   UNL A   1      41.022  34.574  32.624  1.00  0.00     0.005 A 
ATOM     15  C   UNL A   1      41.781  33.100  34.316  1.00  0.00     0.013 A 
BRANCH  11  16
ATOM     16  C   UNL A   1      38.715  31.468  32.537  1.00  0.00     0.247 C 
BRANCH  16  17
ATOM     17  N   UNL A   1      38.926  30.574  31.351  1.00  0.00    -0.325 N 
ATOM     18  C   UNL A   1      40.578  27.198  29.095  1.00  0.00     0.008 C 
ATOM     19  C   UNL A   1      40.208  28.231  30.146  1.00  0.00    -0.003 C 
ATOM     20  C   UNL A   1      38.718  28.179  30.473  1.00  0.00     0.065 C 
ATOM     21  C   UNL A   1      40.526  29.630  29.647  1.00  0.00     0.065 C 
ATOM     22  C   UNL A   1      38.288  29.257  31.476  1.00  0.00     0.263 C 
ATOM     23  C   UNL A   1      40.254  30.648  30.746  1.00  0.00     0.263 C 
ATOM     24  H   UNL A   1      38.380  30.984  30.595  1.00  0.00     0.348 HD
ENDBRANCH  16  17
BRANCH  16  25
ATOM     25  C   UNL A   1      37.337  32.158  32.439  1.00  0.00     0.014 A 
ATOM     26  C   UNL A   1      36.771  32.522  31.201  1.00  0.00     0.013 A 
ATOM     27  C   UNL A   1      36.611  32.434  33.612  1.00  0.00     0.013 A 
ATOM     28  C   UNL A   1      35.513  33.125  31.139  1.00  0.00     0.040 A 
ATOM     29  C   UNL A   1      35.372  33.073  33.552  1.00  0.00     0.040 A 
ATOM     30  C   UNL A   1      34.831  33.404  32.315  1.00  0.00     0.123 A 
ATOM     31  F   UNL A   1      33.633  34.002  32.257  1.00  0.00    -0.207 F 
ENDBRANCH  16  25
ENDBRANCH  11  16
BRANCH  13  32
ATOM     32  C   UNL A   1      41.066  30.733  34.416  1.00  0.00    -0.018 A 
ATOM     33  C   UNL A   1      40.580  30.351  35.675  1.00  0.00     0.009 A 
ATOM     34  C   UNL A   1      41.798  29.788  33.676  1.00  0.00     0.009 A 
ATOM     35  C   UNL A   1      40.788  29.056  36.162  1.00  0.00     0.014 A 
ATOM     36  C   UNL A   1      41.997  28.490  34.153  1.00  0.00     0.014 A 
ATOM     37  C   UNL A   1      41.486  28.108  35.400  1.00  0.00     0.056 A 
BRANCH  37  38
ATOM     38  C   UNL A   1      41.695  26.713  35.930  1.00  0.00     0.416 C 
ATOM     39  F   UNL A   1      41.122  26.530  37.153  1.00  0.00    -0.166 F 
ATOM     40  F   UNL A   1      41.159  25.754  35.123  1.00  0.00    -0.166 F 
ATOM     41  F   UNL A   1      43.007  26.375  36.082  1.00  0.00    -0.166 F 
ENDBRANCH  37  38
ENDBRANCH  13  32
ENDBRANCH   8  10
ENDBRANCH   5   8
ENDBRANCH   3   4
ENDBRANCH   2   3
ENDBRANCH   1   2
BRANCH   1  42
ATOM     42  C   UNL A   1      47.188  37.946  36.199  1.00  0.00     0.002 C 
BRANCH  42  43
ATOM     43  C   UNL A   1      47.901  36.990  37.160  1.00  0.00     0.021 C 
BRANCH  43  44
ATOM     44  C   UNL A   1      47.443  35.538  37.056  1.00  0.00     0.116 C 
BRANCH  44  45
ATOM     45  N   UNL A   1      47.117  34.989  38.369  1.00  0.00    -0.352 N 
ATOM     46  C   UNL A   1      46.383  33.867  38.678  1.00  0.00     0.251 C 
ATOM     47  H   UNL A   1      47.471  35.490  39.138  1.00  0.00     0.163 HD
ATOM     48  O   UNL A   1      45.973  33.683  39.817  1.00  0.00    -0.269 OA
BRANCH  46  49
ATOM     49  C   UNL A   1      46.111  32.879  37.615  1.00  0.00     0.039 A 
ATOM     50  C   UNL A   1      44.807  32.654  37.170  1.00  0.00     0.014 A 
ATOM     51  C   UNL A   1      47.177  32.186  37.047  1.00  0.00     0.014 A 
ATOM     52  C   UNL A   1      44.589  31.789  36.091  1.00  0.00     0.010 A 
ATOM     53  C   UNL A   1      46.968  31.394  35.926  1.00  0.00     0.010 A 
ATOM     54  C   UNL A   1      45.674  31.188  35.430  1.00  0.00    -0.014 A 
BRANCH  54  55
ATOM     55  C   UNL A   1      45.512  30.356  34.207  1.00  0.00     0.031 A 
ATOM     56  C   UNL A   1      45.178  31.011  32.891  1.00  0.00     0.074 A 
ATOM     57  C   UNL A   1      45.520  29.012  34.304  1.00  0.00     0.049 A 
ATOM     58  N   UNL A   1      44.824  30.459  31.760  1.00  0.00    -0.248 NA
ATOM     59  C   UNL A   1      45.209  32.484  32.851  1.00  0.00     0.031 C 
ATOM     60  C   UNL A   1      45.757  28.252  35.533  1.00  0.00     0.029 A 
ATOM     61  N   UNL A   1      45.286  28.043  33.358  1.00  0.00    -0.354 N 
ATOM     62  C   UNL A   1      44.552  31.509  30.892  1.00  0.00     0.074 A 
ATOM     63  C   UNL A   1      44.745  32.734  31.636  1.00  0.00     0.031 C 
ATOM     64  C   UNL A   1      45.661  26.939  35.265  1.00  0.00     0.029 A 
ATOM     65  C   UNL A   1      45.312  26.762  33.860  1.00  0.00     0.049 A 
ATOM     66  H   UNL A   1      45.116  28.247  32.409  1.00  0.00     0.167 HD
ATOM     67  C   UNL A   1      44.203  31.462  29.584  1.00  0.00     0.034 A 
ATOM     68  C   UNL A   1      45.065  25.579  33.263  1.00  0.00     0.034 A 
ATOM     69  C   UNL A   1      44.064  30.244  28.831  1.00  0.00     0.049 A 
ATOM     70  C   UNL A   1      44.712  25.554  31.800  1.00  0.00     0.074 A 
ATOM     71  C   UNL A   1      43.791  30.098  27.483  1.00  0.00     0.029 A 
ATOM     72  N   UNL A   1      44.189  28.967  29.354  1.00  0.00    -0.354 N 
ATOM     73  N   UNL A   1      44.580  26.557  30.966  1.00  0.00    -0.248 NA
ATOM     74  C   UNL A   1      44.505  24.234  31.187  1.00  0.00     0.031 C 
ATOM     75  C   UNL A   1      43.727  28.732  27.195  1.00  0.00     0.029 A 
ATOM     76  C   UNL A   1      43.997  28.027  28.357  1.00  0.00     0.049 A 
ATOM     77  H   UNL A   1      44.386  28.760  30.296  1.00  0.00     0.167 HD
ATOM     78  C   UNL A   1      44.313  25.988  29.725  1.00  0.00     0.074 A 
ATOM     79  C   UNL A   1      44.324  24.553  29.913  1.00  0.00     0.031 C 
ATOM     80  C   UNL A   1      44.063  26.600  28.542  1.00  0.00     0.034 A 
BRANCH  67  81
ATOM     81  C   UNL A   1      44.013  32.764  28.852  1.00  0.00     0.023 A 
ATOM     82  C   UNL A   1      42.832  33.508  29.054  1.00  0.00     0.012 A 
ATOM     83  C   UNL A   1      45.040  33.304  28.052  1.00  0.00     0.148 A 
ATOM     84  C   UNL A   1      42.668  34.757  28.459  1.00  0.00     0.002 A 
ATOM     85  C   UNL A   1      44.889  34.571  27.502  1.00  0.00     0.091 A 
ATOM     86  F   UNL A   1      46.147  32.573  27.856  1.00  0.00    -0.205 F 
ATOM     87  C   UNL A   1      43.701  35.294  27.696  1.00  0.00     0.022 A 
BRANCH  85  88
ATOM     88  S   UNL A   1      46.194  35.395  26.582  1.00  0.00     0.127 S 
ATOM     89  O   UNL A   1      46.259  34.579  25.369  1.00  0.00    -0.237 OA
ATOM     90  O   UNL A   1      45.633  36.731  26.388  1.00  0.00    -0.237 OA
ATOM     91  O   UNL A   1      47.379  35.343  27.426  1.00  0.00    -0.744 OA
ENDBRANCH  85  88
ENDBRANCH  67  81
BRANCH  68  92
ATOM     92  C   UNL A   1      45.208  24.311  34.035  1.00  0.00     0.023 A 
ATOM     93  C   UNL A   1      44.050  23.621  34.444  1.00  0.00     0.012 A 
ATOM     94  C   UNL A   1      46.472  23.769  34.340  1.00  0.00     0.148 A 
ATOM     95  C   UNL A   1      44.146  22.432  35.168  1.00  0.00     0.002 A 
ATOM     96  C   UNL A   1      46.560  22.552  35.008  1.00  0.00     0.091 A 
ATOM     97  F   UNL A   1      47.562  24.445  33.952  1.00  0.00    -0.205 F 
ATOM     98  C   UNL A   1      45.400  21.892  35.440  1.00  0.00     0.022 A 
BRANCH  96  99
ATOM     99  S   UNL A   1      48.125  21.711  35.277  1.00  0.00     0.127 S 
ATOM    100  O   UNL A   1      47.705  20.312  35.336  1.00  0.00    -0.237 OA
ATOM    101  O   UNL A   1      48.874  22.081  34.076  1.00  0.00    -0.237 OA
ATOM    102  O   UNL A   1      48.662  22.261  36.514  1.00  0.00    -0.744 OA
ENDBRANCH  96  99
ENDBRANCH  68  92
BRANCH  80 103
ATOM    103  C   UNL A   1      43.814  25.731  27.335  1.00  0.00     0.023 A 
ATOM    104  C   UNL A   1      42.530  25.679  26.758  1.00  0.00     0.012 A 
ATOM    105  C   UNL A   1      44.875  25.033  26.722  1.00  0.00     0.148 A 
ATOM    106  C   UNL A   1      42.297  24.918  25.612  1.00  0.00     0.002 A 
ATOM    107  C   UNL A   1      44.649  24.325  25.549  1.00  0.00     0.091 A 
ATOM    108  F   UNL A   1      46.087  25.082  27.294  1.00  0.00    -0.205 F 
ATOM    109  C   UNL A   1      43.358  24.253  25.001  1.00  0.00     0.022 A 
BRANCH 107 110
ATOM    110  S   UNL A   1      45.973  23.528  24.633  1.00  0.00     0.127 S 
ATOM    111  O   UNL A   1      45.248  22.952  23.502  1.00  0.00    -0.237 OA
ATOM    112  O   UNL A   1      46.837  24.658  24.291  1.00  0.00    -0.237 OA
ATOM    113  O   UNL A   1      46.571  22.566  25.548  1.00  0.00    -0.744 OA
ENDBRANCH 107 110
ENDBRANCH  80 103
ENDBRANCH  54  55
ENDBRANCH  46  49
ENDBRANCH  44  45
ENDBRANCH  43  44
ENDBRANCH  42  43
ENDBRANCH   1  42
TORSDOF 22
ENDMDL
MODEL 3
REMARK VINA RESULT:      -7.2      4.016     12.113
REMARK SMILES CC1CC[NH+]([C@H](c2ccc(F)cc2)c2ccc([C@@H](C)C(=O)NCCCCCCNC(=O)c3ccc(-c4c5nc(c(-c6cccc(S(=O)(=O)[O-])c6F)c6ccc([nH]6)c(-c6cccc(S(=O)(=O)[O-])c6F)c6nc(c(-c7cccc(S(=O)(=O)[O-])c7F)c7ccc4[nH]7)C=C6)C=C5)cc3)cc2-c2ccc(C(F)(F)F)cc2)CC1
REMARK SMILES IDX 25 1 24 2 23 3 22 4 20 5 21 6 18 8 19 9 17 10 14 11 15 12
REMARK SMILES IDX 96 13 16 14 95 15 6 16 5 17 1 18 2 19 3 20 108 21 4 22
REMARK SMILES IDX 107 23 7 25 8 26 13 27 9 28 12 29 10 30 11 31 97 32 98 33
REMARK SMILES IDX 106 34 99 35 105 36 100 37 101 38 102 39 103 40 104 41 26 42
REMARK SMILES IDX 27 43 28 44 29 45 30 46 31 48 32 49 33 50 94 51 34 52 93 53
REMARK SMILES IDX 35 54 36 55 37 56 87 57 38 58 92 59 86 60 88 61 39 62 91 63
REMARK SMILES IDX 85 64 84 65 40 67 72 68 52 69 71 70 53 71 56 72 70 73 89 74
REMARK SMILES IDX 54 75 55 76 69 78 90 79 57 80 41 81 42 82 50 83 43 84 45 85
REMARK SMILES IDX 51 86 44 87 46 88 47 89 48 90 49 91 73 92 74 93 82 94 75 95
REMARK SMILES IDX 77 96 83 97 76 98 78 99 79 100 80 101 81 102 58 103 59 104
REMARK SMILES IDX 67 105 60 106 62 107 68 108 61 109 63 110 64 111 65 112
REMARK SMILES IDX 66 113
REMARK H PARENT 22 7 5 24 29 47 88 66 56 77
REMARK Flexibility Score: inf
ROOT
ATOM      1  C   UNL A   1      43.632  38.560  26.985  1.00  0.00     0.002 C 
ENDROOT
BRANCH   1   2
ATOM      2  C   UNL A   1      42.449  37.593  26.887  1.00  0.00     0.021 C 
BRANCH   2   3
ATOM      3  C   UNL A   1      42.806  36.134  27.206  1.00  0.00     0.116 C 
BRANCH   3   4
ATOM      4  N   UNL A   1      42.709  35.288  26.031  1.00  0.00    -0.356 N 
ATOM      5  C   UNL A   1      43.589  34.444  25.425  1.00  0.00     0.227 C 
ATOM      6  O   UNL A   1      43.193  33.914  24.378  1.00  0.00    -0.274 OA
ATOM      7  H   UNL A   1      41.833  35.334  25.583  1.00  0.00     0.163 HD
BRANCH   5   8
ATOM      8  C   UNL A   1      44.997  34.115  25.960  1.00  0.00     0.105 C 
ATOM      9  C   UNL A   1      46.133  34.621  25.073  1.00  0.00     0.023 C 
BRANCH   8  10
ATOM     10  C   UNL A   1      45.134  32.683  26.441  1.00  0.00    -0.035 A 
ATOM     11  C   UNL A   1      45.386  29.872  26.951  1.00  0.00     0.022 A 
ATOM     12  C   UNL A   1      46.492  30.716  26.773  1.00  0.00     0.011 A 
ATOM     13  C   UNL A   1      44.114  30.507  27.024  1.00  0.00    -0.009 A 
ATOM     14  C   UNL A   1      46.370  32.092  26.627  1.00  0.00     0.005 A 
ATOM     15  C   UNL A   1      44.010  31.883  26.684  1.00  0.00     0.013 A 
BRANCH  11  16
ATOM     16  C   UNL A   1      45.578  28.338  27.134  1.00  0.00     0.247 C 
BRANCH  16  17
ATOM     17  N   UNL A   1      44.425  27.436  26.806  1.00  0.00    -0.325 N 
ATOM     18  C   UNL A   1      42.405  23.666  25.843  1.00  0.00     0.008 C 
ATOM     19  C   UNL A   1      43.402  24.762  26.186  1.00  0.00    -0.003 C 
ATOM     20  C   UNL A   1      43.100  25.377  27.550  1.00  0.00     0.065 C 
ATOM     21  C   UNL A   1      43.341  25.873  25.152  1.00  0.00     0.065 C 
ATOM     22  C   UNL A   1      44.038  26.539  27.902  1.00  0.00     0.263 C 
ATOM     23  C   UNL A   1      44.415  26.912  25.442  1.00  0.00     0.263 C 
ATOM     24  H   UNL A   1      43.607  28.042  26.753  1.00  0.00     0.348 HD
ENDBRANCH  16  17
BRANCH  16  25
ATOM     25  C   UNL A   1      46.173  27.954  28.507  1.00  0.00     0.014 A 
ATOM     26  C   UNL A   1      47.311  27.132  28.624  1.00  0.00     0.013 A 
ATOM     27  C   UNL A   1      45.574  28.436  29.686  1.00  0.00     0.013 A 
ATOM     28  C   UNL A   1      47.842  26.818  29.876  1.00  0.00     0.040 A 
ATOM     29  C   UNL A   1      46.082  28.090  30.938  1.00  0.00     0.040 A 
ATOM     30  C   UNL A   1      47.216  27.292  31.021  1.00  0.00     0.123 A 
ATOM     31  F   UNL A   1      47.713  26.973  32.224  1.00  0.00    -0.207 F 
ENDBRANCH  16  25
ENDBRANCH  11  16
BRANCH  13  32
ATOM     32  C   UNL A   1      42.891  29.834  27.505  1.00  0.00    -0.018 A 
ATOM     33  C   UNL A   1      41.938  29.314  26.617  1.00  0.00     0.009 A 
ATOM     34  C   UNL A   1      42.629  29.742  28.884  1.00  0.00     0.009 A 
ATOM     35  C   UNL A   1      40.779  28.691  27.092  1.00  0.00     0.014 A 
ATOM     36  C   UNL A   1      41.480  29.108  29.362  1.00  0.00     0.014 A 
ATOM     37  C   UNL A   1      40.545  28.569  28.469  1.00  0.00     0.056 A 
BRANCH  37  38
ATOM     38  C   UNL A   1      39.298  27.886  28.969  1.00  0.00     0.416 C 
ATOM     39  F   UNL A   1      39.525  26.593  29.338  1.00  0.00    -0.166 F 
ATOM     40  F   UNL A   1      38.764  28.495  30.065  1.00  0.00    -0.166 F 
ATOM     41  F   UNL A   1      38.294  27.837  28.049  1.00  0.00    -0.166 F 
ENDBRANCH  37  38
ENDBRANCH  13  32
ENDBRANCH   8  10
ENDBRANCH   5   8
ENDBRANCH   3   4
ENDBRANCH   2   3
ENDBRANCH   1   2
BRANCH   1  42
ATOM     42  C   UNL A   1      43.480  39.650  28.053  1.00  0.00     0.002 C 
BRANCH  42  43
ATOM     43  C   UNL A   1      43.865  41.063  27.603  1.00  0.00     0.021 C 
BRANCH  43  44
ATOM     44  C   UNL A   1      43.946  41.239  26.089  1.00  0.00     0.116 C 
BRANCH  44  45
ATOM     45  N   UNL A   1      44.934  42.250  25.724  1.00  0.00    -0.352 N 
ATOM     46  C   UNL A   1      46.307  42.180  25.787  1.00  0.00     0.251 C 
ATOM     47  H   UNL A   1      44.567  43.099  25.387  1.00  0.00     0.163 HD
ATOM     48  O   UNL A   1      46.988  43.193  25.700  1.00  0.00    -0.269 OA
BRANCH  46  49
ATOM     49  C   UNL A   1      46.945  40.858  25.945  1.00  0.00     0.039 A 
ATOM     50  C   UNL A   1      47.783  40.598  27.030  1.00  0.00     0.014 A 
ATOM     51  C   UNL A   1      46.683  39.865  25.004  1.00  0.00     0.014 A 
ATOM     52  C   UNL A   1      48.291  39.307  27.212  1.00  0.00     0.010 A 
ATOM     53  C   UNL A   1      47.121  38.567  25.231  1.00  0.00     0.010 A 
ATOM     54  C   UNL A   1      47.926  38.268  26.338  1.00  0.00    -0.014 A 
BRANCH  54  55
ATOM     55  C   UNL A   1      48.338  36.854  26.549  1.00  0.00     0.031 A 
ATOM     56  C   UNL A   1      47.742  36.058  27.682  1.00  0.00     0.074 A 
ATOM     57  C   UNL A   1      49.346  36.334  25.820  1.00  0.00     0.049 A 
ATOM     58  N   UNL A   1      48.094  34.885  28.141  1.00  0.00    -0.248 NA
ATOM     59  C   UNL A   1      46.629  36.680  28.422  1.00  0.00     0.031 C 
ATOM     60  C   UNL A   1      50.059  37.024  24.744  1.00  0.00     0.029 A 
ATOM     61  N   UNL A   1      49.973  35.114  25.901  1.00  0.00    -0.354 N 
ATOM     62  C   UNL A   1      47.279  34.648  29.241  1.00  0.00     0.074 A 
ATOM     63  C   UNL A   1      46.439  35.813  29.406  1.00  0.00     0.031 C 
ATOM     64  C   UNL A   1      51.018  36.218  24.262  1.00  0.00     0.029 A 
ATOM     65  C   UNL A   1      51.022  34.972  25.023  1.00  0.00     0.049 A 
ATOM     66  H   UNL A   1      49.696  34.406  26.529  1.00  0.00     0.167 HD
ATOM     67  C   UNL A   1      47.212  33.546  30.026  1.00  0.00     0.034 A 
ATOM     68  C   UNL A   1      51.902  33.964  24.858  1.00  0.00     0.034 A 
ATOM     69  C   UNL A   1      48.009  32.366  29.829  1.00  0.00     0.049 A 
ATOM     70  C   UNL A   1      51.782  32.737  25.723  1.00  0.00     0.074 A 
ATOM     71  C   UNL A   1      47.957  31.171  30.523  1.00  0.00     0.029 A 
ATOM     72  N   UNL A   1      48.999  32.227  28.868  1.00  0.00    -0.354 N 
ATOM     73  N   UNL A   1      50.922  32.482  26.679  1.00  0.00    -0.248 NA
ATOM     74  C   UNL A   1      52.733  31.646  25.465  1.00  0.00     0.031 C 
ATOM     75  C   UNL A   1      48.932  30.317  29.999  1.00  0.00     0.029 A 
ATOM     76  C   UNL A   1      49.566  30.967  28.953  1.00  0.00     0.049 A 
ATOM     77  H   UNL A   1      49.259  32.922  28.221  1.00  0.00     0.167 HD
ATOM     78  C   UNL A   1      51.204  31.191  27.110  1.00  0.00     0.074 A 
ATOM     79  C   UNL A   1      52.299  30.708  26.296  1.00  0.00     0.031 C 
ATOM     80  C   UNL A   1      50.620  30.476  28.103  1.00  0.00     0.034 A 
BRANCH  67  81
ATOM     81  C   UNL A   1      46.193  33.525  31.136  1.00  0.00     0.023 A 
ATOM     82  C   UNL A   1      46.548  34.008  32.413  1.00  0.00     0.012 A 
ATOM     83  C   UNL A   1      44.862  33.134  30.892  1.00  0.00     0.148 A 
ATOM     84  C   UNL A   1      45.602  34.083  33.433  1.00  0.00     0.002 A 
ATOM     85  C   UNL A   1      43.913  33.257  31.899  1.00  0.00     0.091 A 
ATOM     86  F   UNL A   1      44.548  32.661  29.677  1.00  0.00    -0.205 F 
ATOM     87  C   UNL A   1      44.283  33.722  33.173  1.00  0.00     0.022 A 
BRANCH  85  88
ATOM     88  S   UNL A   1      42.169  32.910  31.644  1.00  0.00     0.127 S 
ATOM     89  O   UNL A   1      42.021  31.627  32.332  1.00  0.00    -0.237 OA
ATOM     90  O   UNL A   1      41.531  34.040  32.317  1.00  0.00    -0.237 OA
ATOM     91  O   UNL A   1      41.973  32.864  30.202  1.00  0.00    -0.744 OA
ENDBRANCH  85  88
ENDBRANCH  67  81
BRANCH  68  92
ATOM     92  C   UNL A   1      52.934  34.044  23.784  1.00  0.00     0.023 A 
ATOM     93  C   UNL A   1      52.677  33.439  22.538  1.00  0.00     0.012 A 
ATOM     94  C   UNL A   1      54.146  34.735  23.973  1.00  0.00     0.148 A 
ATOM     95  C   UNL A   1      53.620  33.494  21.511  1.00  0.00     0.002 A 
ATOM     96  C   UNL A   1      55.055  34.838  22.926  1.00  0.00     0.091 A 
ATOM     97  F   UNL A   1      54.377  35.295  25.169  1.00  0.00    -0.205 F 
ATOM     98  C   UNL A   1      54.803  34.203  21.701  1.00  0.00     0.022 A 
BRANCH  96  99
ATOM     99  S   UNL A   1      56.537  35.848  23.030  1.00  0.00     0.127 S 
ATOM    100  O   UNL A   1      55.979  37.173  23.291  1.00  0.00    -0.237 OA
ATOM    101  O   UNL A   1      57.236  35.238  24.161  1.00  0.00    -0.237 OA
ATOM    102  O   UNL A   1      57.214  35.691  21.750  1.00  0.00    -0.744 OA
ENDBRANCH  96  99
ENDBRANCH  68  92
BRANCH  80 103
ATOM    103  C   UNL A   1      51.119  29.075  28.353  1.00  0.00     0.023 A 
ATOM    104  C   UNL A   1      51.951  28.813  29.459  1.00  0.00     0.012 A 
ATOM    105  C   UNL A   1      50.691  28.005  27.541  1.00  0.00     0.148 A 
ATOM    106  C   UNL A   1      52.379  27.514  29.732  1.00  0.00     0.002 A 
ATOM    107  C   UNL A   1      51.075  26.707  27.852  1.00  0.00     0.091 A 
ATOM    108  F   UNL A   1      49.912  28.276  26.484  1.00  0.00    -0.205 F 
ATOM    109  C   UNL A   1      51.931  26.460  28.938  1.00  0.00     0.022 A 
BRANCH 107 110
ATOM    110  S   UNL A   1      50.460  25.279  26.952  1.00  0.00     0.127 S 
ATOM    111  O   UNL A   1      51.652  24.854  26.220  1.00  0.00    -0.237 OA
ATOM    112  O   UNL A   1      50.058  24.380  28.034  1.00  0.00    -0.237 OA
ATOM    113  O   UNL A   1      49.361  25.764  26.130  1.00  0.00    -0.744 OA
ENDBRANCH 107 110
ENDBRANCH  80 103
ENDBRANCH  54  55
ENDBRANCH  46  49
ENDBRANCH  44  45
ENDBRANCH  43  44
ENDBRANCH  42  43
ENDBRANCH   1  42
TORSDOF 22
ENDMDL
