MODEL 1
REMARK VINA RESULT:     -11.0      0.000      0.000
REMARK SMILES CC(C)N(CCCC(=O)NCCCCCCNC(=O)c1ccc(-c2c3nc(c(-c4cccc(S(=O)(=O)[O-])c4F)c4ccc([nH]4)c(-c4cccc(S(=O)(=O)[O-])c4F)c4nc(c(-c5cccc(S(=O)(=O)[O-])c5F)c5ccc2[nH]5)C=C4)C=C3)cc1)C(=O)N[C@@H]1CCCC1(C)C
REMARK SMILES IDX 12 1 11 2 10 3 8 4 9 5 7 7 6 8 5 9 4 10 2 11 1 12 3 13 83 14
REMARK SMILES IDX 84 15 85 16 86 18 87 19 90 20 88 21 89 22 91 23 92 24 13 25
REMARK SMILES IDX 14 26 15 27 16 28 17 29 18 30 19 32 20 33 21 34 82 35 22 36
REMARK SMILES IDX 81 37 23 38 24 39 25 40 75 41 26 42 80 43 74 44 76 45 27 46
REMARK SMILES IDX 79 47 73 48 72 49 28 51 60 52 40 53 59 54 41 55 44 56 58 57
REMARK SMILES IDX 77 58 42 59 43 60 57 62 78 63 45 64 29 65 30 66 38 67 31 68
REMARK SMILES IDX 33 69 39 70 32 71 34 72 35 73 36 74 37 75 61 76 62 77 70 78
REMARK SMILES IDX 63 79 65 80 71 81 64 82 66 83 67 84 68 85 69 86 46 87 47 88
REMARK SMILES IDX 55 89 48 90 50 91 56 92 49 93 51 94 52 95 53 96 54 97
REMARK H PARENT 10 6 85 17 17 31 76 50 44 61
REMARK Flexibility Score: inf
ROOT
ATOM      1  C   UNL A   1      34.400  22.023  25.560  1.00  0.00     0.021 C 
ENDROOT
BRANCH   1   2
ATOM      2  C   UNL A   1      32.949  22.050  25.066  1.00  0.00     0.116 C 
BRANCH   2   3
ATOM      3  N   UNL A   1      32.121  22.806  25.991  1.00  0.00    -0.356 N 
ATOM      4  C   UNL A   1      31.912  24.114  26.268  1.00  0.00     0.220 C 
ATOM      5  O   UNL A   1      31.180  24.340  27.240  1.00  0.00    -0.275 OA
ATOM      6  H   UNL A   1      31.575  22.218  26.562  1.00  0.00     0.163 HD
BRANCH   4   7
ATOM      7  C   UNL A   1      32.355  25.281  25.405  1.00  0.00     0.102 C 
BRANCH   7   8
ATOM      8  C   UNL A   1      33.636  26.063  25.620  1.00  0.00     0.031 C 
BRANCH   8   9
ATOM      9  C   UNL A   1      33.609  27.561  25.869  1.00  0.00     0.122 C 
BRANCH   9  10
ATOM     10  N   UNL A   1      32.586  28.483  25.302  1.00  0.00    -0.322 N 
BRANCH  10  11
ATOM     11  C   UNL A   1      31.765  29.122  26.398  1.00  0.00     0.080 C 
ATOM     12  C   UNL A   1      31.532  28.178  27.584  1.00  0.00     0.031 C 
ATOM     13  C   UNL A   1      32.256  30.510  26.828  1.00  0.00     0.031 C 
ENDBRANCH  10  11
BRANCH  10  14
ATOM     14  C   UNL A   1      32.292  28.947  24.051  1.00  0.00     0.317 C 
ATOM     15  O   UNL A   1      33.171  29.038  23.179  1.00  0.00    -0.249 OA
ATOM     16  N   UNL A   1      31.134  29.336  23.527  1.00  0.00    -0.335 N 
ATOM     17  H   UNL A   1      31.324  29.806  22.684  1.00  0.00     0.165 HD
BRANCH  16  18
ATOM     18  C   UNL A   1      29.705  29.333  23.724  1.00  0.00     0.089 C 
ATOM     19  C   UNL A   1      28.978  28.176  23.021  1.00  0.00     0.025 C 
ATOM     20  C   UNL A   1      28.960  30.572  23.136  1.00  0.00    -0.015 C 
ATOM     21  C   UNL A   1      27.504  28.602  23.036  1.00  0.00     0.003 C 
ATOM     22  C   UNL A   1      27.494  30.117  23.293  1.00  0.00     0.008 C 
ATOM     23  C   UNL A   1      29.235  31.891  23.870  1.00  0.00     0.013 C 
ATOM     24  C   UNL A   1      29.257  30.817  21.637  1.00  0.00     0.013 C 
ENDBRANCH  16  18
ENDBRANCH  10  14
ENDBRANCH   9  10
ENDBRANCH   8   9
ENDBRANCH   7   8
ENDBRANCH   4   7
ENDBRANCH   2   3
ENDBRANCH   1   2
BRANCH   1  25
ATOM     25  C   UNL A   1      35.162  20.806  25.034  1.00  0.00     0.002 C 
BRANCH  25  26
ATOM     26  C   UNL A   1      36.616  21.107  24.655  1.00  0.00     0.002 C 
BRANCH  26  27
ATOM     27  C   UNL A   1      37.638  20.016  25.004  1.00  0.00     0.021 C 
BRANCH  27  28
ATOM     28  C   UNL A   1      38.872  20.482  25.774  1.00  0.00     0.116 C 
BRANCH  28  29
ATOM     29  N   UNL A   1      39.881  19.445  25.909  1.00  0.00    -0.352 N 
ATOM     30  C   UNL A   1      41.218  19.581  26.201  1.00  0.00     0.251 C 
ATOM     31  H   UNL A   1      39.565  18.522  25.773  1.00  0.00     0.163 HD
ATOM     32  O   UNL A   1      41.953  18.607  26.204  1.00  0.00    -0.269 OA
BRANCH  30  33
ATOM     33  C   UNL A   1      41.758  20.930  26.476  1.00  0.00     0.039 A 
ATOM     34  C   UNL A   1      42.049  21.764  25.394  1.00  0.00     0.014 A 
ATOM     35  C   UNL A   1      41.959  21.369  27.787  1.00  0.00     0.014 A 
ATOM     36  C   UNL A   1      42.496  23.064  25.629  1.00  0.00     0.010 A 
ATOM     37  C   UNL A   1      42.355  22.684  28.019  1.00  0.00     0.010 A 
ATOM     38  C   UNL A   1      42.633  23.540  26.942  1.00  0.00    -0.014 A 
BRANCH  38  39
ATOM     39  C   UNL A   1      43.068  24.932  27.208  1.00  0.00     0.031 A 
ATOM     40  C   UNL A   1      42.128  25.902  27.865  1.00  0.00     0.074 A 
ATOM     41  C   UNL A   1      44.280  25.340  26.788  1.00  0.00     0.049 A 
ATOM     42  N   UNL A   1      42.320  27.160  28.166  1.00  0.00    -0.248 NA
ATOM     43  C   UNL A   1      40.784  25.402  28.205  1.00  0.00     0.031 C 
ATOM     44  C   UNL A   1      45.248  24.510  26.066  1.00  0.00     0.029 A 
ATOM     45  N   UNL A   1      44.897  26.561  26.886  1.00  0.00    -0.354 N 
ATOM     46  C   UNL A   1      41.116  27.612  28.690  1.00  0.00     0.074 A 
ATOM     47  C   UNL A   1      40.190  26.503  28.641  1.00  0.00     0.031 C 
ATOM     48  C   UNL A   1      46.342  25.242  25.800  1.00  0.00     0.029 A 
ATOM     49  C   UNL A   1      46.148  26.595  26.316  1.00  0.00     0.049 A 
ATOM     50  H   UNL A   1      44.484  27.339  27.325  1.00  0.00     0.167 HD
ATOM     51  C   UNL A   1      40.818  28.833  29.197  1.00  0.00     0.034 A 
ATOM     52  C   UNL A   1      47.040  27.601  26.230  1.00  0.00     0.034 A 
ATOM     53  C   UNL A   1      41.764  29.909  29.304  1.00  0.00     0.049 A 
ATOM     54  C   UNL A   1      46.707  28.927  26.856  1.00  0.00     0.074 A 
ATOM     55  C   UNL A   1      41.601  31.142  29.910  1.00  0.00     0.029 A 
ATOM     56  N   UNL A   1      43.051  29.883  28.788  1.00  0.00    -0.354 N 
ATOM     57  N   UNL A   1      45.629  29.282  27.512  1.00  0.00    -0.248 NA
ATOM     58  C   UNL A   1      47.727  29.982  26.761  1.00  0.00     0.031 C 
ATOM     59  C   UNL A   1      42.789  31.866  29.750  1.00  0.00     0.029 A 
ATOM     60  C   UNL A   1      43.691  31.081  29.052  1.00  0.00     0.049 A 
ATOM     61  H   UNL A   1      43.449  29.124  28.305  1.00  0.00     0.167 HD
ATOM     62  C   UNL A   1      45.853  30.584  27.940  1.00  0.00     0.074 A 
ATOM     63  C   UNL A   1      47.178  30.952  27.481  1.00  0.00     0.031 C 
ATOM     64  C   UNL A   1      45.032  31.409  28.636  1.00  0.00     0.034 A 
BRANCH  51  65
ATOM     65  C   UNL A   1      39.427  29.040  29.734  1.00  0.00     0.023 A 
ATOM     66  C   UNL A   1      39.111  28.589  31.031  1.00  0.00     0.012 A 
ATOM     67  C   UNL A   1      38.445  29.706  28.975  1.00  0.00     0.148 A 
ATOM     68  C   UNL A   1      37.830  28.764  31.553  1.00  0.00     0.002 A 
ATOM     69  C   UNL A   1      37.181  29.911  29.517  1.00  0.00     0.091 A 
ATOM     70  F   UNL A   1      38.753  30.103  27.732  1.00  0.00    -0.205 F 
ATOM     71  C   UNL A   1      36.868  29.432  30.800  1.00  0.00     0.022 A 
BRANCH  69  72
ATOM     72  S   UNL A   1      35.904  30.824  28.641  1.00  0.00     0.127 S 
ATOM     73  O   UNL A   1      34.934  31.070  29.705  1.00  0.00    -0.237 OA
ATOM     74  O   UNL A   1      36.625  32.015  28.188  1.00  0.00    -0.237 OA
ATOM     75  O   UNL A   1      35.462  29.945  27.568  1.00  0.00    -0.744 OA
ENDBRANCH  69  72
ENDBRANCH  51  65
BRANCH  52  76
ATOM     76  C   UNL A   1      48.377  27.352  25.620  1.00  0.00     0.023 A 
ATOM     77  C   UNL A   1      49.422  26.884  26.439  1.00  0.00     0.012 A 
ATOM     78  C   UNL A   1      48.607  27.525  24.242  1.00  0.00     0.148 A 
ATOM     79  C   UNL A   1      50.680  26.610  25.902  1.00  0.00     0.002 A 
ATOM     80  C   UNL A   1      49.851  27.206  23.705  1.00  0.00     0.091 A 
ATOM     81  F   UNL A   1      47.604  27.985  23.482  1.00  0.00    -0.205 F 
ATOM     82  C   UNL A   1      50.891  26.761  24.535  1.00  0.00     0.022 A 
BRANCH  80  83
ATOM     83  S   UNL A   1      50.176  27.251  21.939  1.00  0.00     0.127 S 
ATOM     84  O   UNL A   1      49.000  26.573  21.401  1.00  0.00    -0.237 OA
ATOM     85  O   UNL A   1      50.232  28.689  21.677  1.00  0.00    -0.237 OA
ATOM     86  O   UNL A   1      51.445  26.560  21.757  1.00  0.00    -0.744 OA
ENDBRANCH  80  83
ENDBRANCH  52  76
BRANCH  64  87
ATOM     87  C   UNL A   1      45.541  32.785  28.966  1.00  0.00     0.023 A 
ATOM     88  C   UNL A   1      46.300  32.982  30.137  1.00  0.00     0.012 A 
ATOM     89  C   UNL A   1      45.344  33.862  28.079  1.00  0.00     0.148 A 
ATOM     90  C   UNL A   1      46.835  34.235  30.432  1.00  0.00     0.002 A 
ATOM     91  C   UNL A   1      45.915  35.097  28.358  1.00  0.00     0.091 A 
ATOM     92  F   UNL A   1      44.600  33.659  26.982  1.00  0.00    -0.205 F 
ATOM     93  C   UNL A   1      46.654  35.288  29.538  1.00  0.00     0.022 A 
BRANCH  91  94
ATOM     94  S   UNL A   1      45.809  36.477  27.214  1.00  0.00     0.127 S 
ATOM     95  O   UNL A   1      44.368  36.717  27.166  1.00  0.00    -0.237 OA
ATOM     96  O   UNL A   1      46.578  37.518  27.900  1.00  0.00    -0.237 OA
ATOM     97  O   UNL A   1      46.411  36.009  25.972  1.00  0.00    -0.744 OA
ENDBRANCH  91  94
ENDBRANCH  64  87
ENDBRANCH  38  39
ENDBRANCH  30  33
ENDBRANCH  28  29
ENDBRANCH  27  28
ENDBRANCH  26  27
ENDBRANCH  25  26
ENDBRANCH   1  25
TORSDOF 22
ENDMDL
MODEL 2
REMARK VINA RESULT:     -10.6      6.484     10.519
REMARK SMILES CC(C)N(CCCC(=O)NCCCCCCNC(=O)c1ccc(-c2c3nc(c(-c4cccc(S(=O)(=O)[O-])c4F)c4ccc([nH]4)c(-c4cccc(S(=O)(=O)[O-])c4F)c4nc(c(-c5cccc(S(=O)(=O)[O-])c5F)c5ccc2[nH]5)C=C4)C=C3)cc1)C(=O)N[C@@H]1CCCC1(C)C
REMARK SMILES IDX 12 1 11 2 10 3 8 4 9 5 7 7 6 8 5 9 4 10 2 11 1 12 3 13 83 14
REMARK SMILES IDX 84 15 85 16 86 18 87 19 90 20 88 21 89 22 91 23 92 24 13 25
REMARK SMILES IDX 14 26 15 27 16 28 17 29 18 30 19 32 20 33 21 34 82 35 22 36
REMARK SMILES IDX 81 37 23 38 24 39 25 40 75 41 26 42 80 43 74 44 76 45 27 46
REMARK SMILES IDX 79 47 73 48 72 49 28 51 60 52 40 53 59 54 41 55 44 56 58 57
REMARK SMILES IDX 77 58 42 59 43 60 57 62 78 63 45 64 29 65 30 66 38 67 31 68
REMARK SMILES IDX 33 69 39 70 32 71 34 72 35 73 36 74 37 75 61 76 62 77 70 78
REMARK SMILES IDX 63 79 65 80 71 81 64 82 66 83 67 84 68 85 69 86 46 87 47 88
REMARK SMILES IDX 55 89 48 90 50 91 56 92 49 93 51 94 52 95 53 96 54 97
REMARK H PARENT 10 6 85 17 17 31 76 50 44 61
REMARK Flexibility Score: inf
ROOT
ATOM      1  C   UNL A   1      34.670  32.014  28.971  1.00  0.00     0.021 C 
ENDROOT
BRANCH   1   2
ATOM      2  C   UNL A   1      34.458  30.948  27.891  1.00  0.00     0.116 C 
BRANCH   2   3
ATOM      3  N   UNL A   1      33.225  31.210  27.167  1.00  0.00    -0.356 N 
ATOM      4  C   UNL A   1      32.172  30.477  26.737  1.00  0.00     0.220 C 
ATOM      5  O   UNL A   1      31.353  31.086  26.036  1.00  0.00    -0.275 OA
ATOM      6  H   UNL A   1      33.133  32.160  26.928  1.00  0.00     0.163 HD
BRANCH   4   7
ATOM      7  C   UNL A   1      31.844  29.061  27.173  1.00  0.00     0.102 C 
BRANCH   7   8
ATOM      8  C   UNL A   1      32.627  27.834  26.747  1.00  0.00     0.031 C 
BRANCH   8   9
ATOM      9  C   UNL A   1      32.236  27.045  25.509  1.00  0.00     0.122 C 
BRANCH   9  10
ATOM     10  N   UNL A   1      32.413  27.536  24.115  1.00  0.00    -0.322 N 
BRANCH  10  11
ATOM     11  C   UNL A   1      32.878  26.425  23.204  1.00  0.00     0.080 C 
ATOM     12  C   UNL A   1      33.852  25.465  23.897  1.00  0.00     0.031 C 
ATOM     13  C   UNL A   1      31.747  25.696  22.467  1.00  0.00     0.031 C 
ENDBRANCH  10  11
BRANCH  10  14
ATOM     14  C   UNL A   1      32.163  28.712  23.467  1.00  0.00     0.317 C 
ATOM     15  O   UNL A   1      33.043  29.270  22.792  1.00  0.00    -0.249 OA
ATOM     16  N   UNL A   1      31.049  29.434  23.391  1.00  0.00    -0.335 N 
ATOM     17  H   UNL A   1      31.284  30.318  23.027  1.00  0.00     0.165 HD
BRANCH  16  18
ATOM     18  C   UNL A   1      29.629  29.417  23.640  1.00  0.00     0.089 C 
ATOM     19  C   UNL A   1      28.907  28.187  23.069  1.00  0.00     0.025 C 
ATOM     20  C   UNL A   1      28.833  30.583  22.974  1.00  0.00    -0.015 C 
ATOM     21  C   UNL A   1      27.425  28.581  23.102  1.00  0.00     0.003 C 
ATOM     22  C   UNL A   1      27.385  30.112  23.225  1.00  0.00     0.008 C 
ATOM     23  C   UNL A   1      29.100  31.968  23.579  1.00  0.00     0.013 C 
ATOM     24  C   UNL A   1      29.071  30.700  21.449  1.00  0.00     0.013 C 
ENDBRANCH  16  18
ENDBRANCH  10  14
ENDBRANCH   9  10
ENDBRANCH   8   9
ENDBRANCH   7   8
ENDBRANCH   4   7
ENDBRANCH   2   3
ENDBRANCH   1   2
BRANCH   1  25
ATOM     25  C   UNL A   1      35.544  33.167  28.476  1.00  0.00     0.002 C 
BRANCH  25  26
ATOM     26  C   UNL A   1      34.745  34.392  28.018  1.00  0.00     0.002 C 
BRANCH  26  27
ATOM     27  C   UNL A   1      33.472  34.699  28.819  1.00  0.00     0.021 C 
BRANCH  27  28
ATOM     28  C   UNL A   1      33.462  36.028  29.570  1.00  0.00     0.116 C 
BRANCH  28  29
ATOM     29  N   UNL A   1      32.608  36.009  30.745  1.00  0.00    -0.352 N 
ATOM     30  C   UNL A   1      32.815  35.374  31.947  1.00  0.00     0.251 C 
ATOM     31  H   UNL A   1      31.768  36.519  30.672  1.00  0.00     0.163 HD
ATOM     32  O   UNL A   1      31.957  35.394  32.814  1.00  0.00    -0.269 OA
BRANCH  30  33
ATOM     33  C   UNL A   1      34.078  34.634  32.159  1.00  0.00     0.039 A 
ATOM     34  C   UNL A   1      35.280  35.343  32.113  1.00  0.00     0.014 A 
ATOM     35  C   UNL A   1      34.072  33.260  32.416  1.00  0.00     0.014 A 
ATOM     36  C   UNL A   1      36.480  34.681  32.376  1.00  0.00     0.010 A 
ATOM     37  C   UNL A   1      35.264  32.614  32.730  1.00  0.00     0.010 A 
ATOM     38  C   UNL A   1      36.478  33.317  32.706  1.00  0.00    -0.014 A 
BRANCH  38  39
ATOM     39  C   UNL A   1      37.740  32.608  33.028  1.00  0.00     0.031 A 
ATOM     40  C   UNL A   1      38.419  32.841  34.347  1.00  0.00     0.074 A 
ATOM     41  C   UNL A   1      38.311  31.816  32.100  1.00  0.00     0.049 A 
ATOM     42  N   UNL A   1      39.532  32.328  34.803  1.00  0.00    -0.248 NA
ATOM     43  C   UNL A   1      37.780  33.799  35.266  1.00  0.00     0.031 C 
ATOM     44  C   UNL A   1      37.787  31.577  30.754  1.00  0.00     0.029 A 
ATOM     45  N   UNL A   1      39.470  31.083  32.141  1.00  0.00    -0.354 N 
ATOM     46  C   UNL A   1      39.747  32.926  36.037  1.00  0.00     0.074 A 
ATOM     47  C   UNL A   1      38.666  33.863  36.248  1.00  0.00     0.031 C 
ATOM     48  C   UNL A   1      38.613  30.743  30.103  1.00  0.00     0.029 A 
ATOM     49  C   UNL A   1      39.733  30.402  30.976  1.00  0.00     0.049 A 
ATOM     50  H   UNL A   1      40.057  31.047  32.931  1.00  0.00     0.167 HD
ATOM     51  C   UNL A   1      40.739  32.693  36.930  1.00  0.00     0.034 A 
ATOM     52  C   UNL A   1      40.756  29.586  30.654  1.00  0.00     0.034 A 
ATOM     53  C   UNL A   1      41.773  31.713  36.742  1.00  0.00     0.049 A 
ATOM     54  C   UNL A   1      41.810  29.297  31.687  1.00  0.00     0.074 A 
ATOM     55  C   UNL A   1      42.752  31.312  37.633  1.00  0.00     0.029 A 
ATOM     56  N   UNL A   1      41.963  30.980  35.581  1.00  0.00    -0.354 N 
ATOM     57  N   UNL A   1      41.898  29.733  32.921  1.00  0.00    -0.248 NA
ATOM     58  C   UNL A   1      42.888  28.376  31.297  1.00  0.00     0.031 C 
ATOM     59  C   UNL A   1      43.543  30.342  37.004  1.00  0.00     0.029 A 
ATOM     60  C   UNL A   1      43.051  30.136  35.726  1.00  0.00     0.049 A 
ATOM     61  H   UNL A   1      41.408  31.050  34.772  1.00  0.00     0.167 HD
ATOM     62  C   UNL A   1      43.016  29.114  33.466  1.00  0.00     0.074 A 
ATOM     63  C   UNL A   1      43.566  28.259  32.432  1.00  0.00     0.031 C 
ATOM     64  C   UNL A   1      43.550  29.250  34.705  1.00  0.00     0.034 A 
BRANCH  51  65
ATOM     65  C   UNL A   1      40.710  33.471  38.219  1.00  0.00     0.023 A 
ATOM     66  C   UNL A   1      39.894  33.025  39.278  1.00  0.00     0.012 A 
ATOM     67  C   UNL A   1      41.508  34.618  38.396  1.00  0.00     0.148 A 
ATOM     68  C   UNL A   1      39.844  33.727  40.482  1.00  0.00     0.002 A 
ATOM     69  C   UNL A   1      41.481  35.291  39.613  1.00  0.00     0.091 A 
ATOM     70  F   UNL A   1      42.255  35.046  37.369  1.00  0.00    -0.205 F 
ATOM     71  C   UNL A   1      40.643  34.854  40.652  1.00  0.00     0.022 A 
BRANCH  69  72
ATOM     72  S   UNL A   1      42.532  36.712  39.940  1.00  0.00     0.127 S 
ATOM     73  O   UNL A   1      41.900  37.742  39.119  1.00  0.00    -0.237 OA
ATOM     74  O   UNL A   1      42.369  36.897  41.382  1.00  0.00    -0.237 OA
ATOM     75  O   UNL A   1      43.871  36.310  39.534  1.00  0.00    -0.744 OA
ENDBRANCH  69  72
ENDBRANCH  51  65
BRANCH  52  76
ATOM     76  C   UNL A   1      40.766  28.900  29.332  1.00  0.00     0.023 A 
ATOM     77  C   UNL A   1      41.272  29.590  28.212  1.00  0.00     0.012 A 
ATOM     78  C   UNL A   1      40.333  27.570  29.181  1.00  0.00     0.148 A 
ATOM     79  C   UNL A   1      41.327  28.975  26.962  1.00  0.00     0.002 A 
ATOM     80  C   UNL A   1      40.434  26.946  27.942  1.00  0.00     0.091 A 
ATOM     81  F   UNL A   1      39.842  26.936  30.256  1.00  0.00    -0.205 F 
ATOM     82  C   UNL A   1      40.919  27.651  26.829  1.00  0.00     0.022 A 
BRANCH  80  83
ATOM     83  S   UNL A   1      40.048  25.208  27.704  1.00  0.00     0.127 S 
ATOM     84  O   UNL A   1      38.703  25.121  28.266  1.00  0.00    -0.237 OA
ATOM     85  O   UNL A   1      40.117  25.079  26.248  1.00  0.00    -0.237 OA
ATOM     86  O   UNL A   1      41.084  24.476  28.420  1.00  0.00    -0.744 OA
ENDBRANCH  80  83
ENDBRANCH  52  76
BRANCH  64  87
ATOM     87  C   UNL A   1      44.781  28.447  35.027  1.00  0.00     0.023 A 
ATOM     88  C   UNL A   1      46.053  29.029  34.858  1.00  0.00     0.012 A 
ATOM     89  C   UNL A   1      44.678  27.153  35.574  1.00  0.00     0.148 A 
ATOM     90  C   UNL A   1      47.205  28.326  35.208  1.00  0.00     0.002 A 
ATOM     91  C   UNL A   1      45.828  26.475  35.960  1.00  0.00     0.091 A 
ATOM     92  F   UNL A   1      43.459  26.609  35.706  1.00  0.00    -0.205 F 
ATOM     93  C   UNL A   1      47.093  27.056  35.769  1.00  0.00     0.022 A 
BRANCH  91  94
ATOM     94  S   UNL A   1      45.764  24.877  36.777  1.00  0.00     0.127 S 
ATOM     95  O   UNL A   1      44.839  25.140  37.879  1.00  0.00    -0.237 OA
ATOM     96  O   UNL A   1      45.230  24.006  35.728  1.00  0.00    -0.237 OA
ATOM     97  O   UNL A   1      47.136  24.576  37.165  1.00  0.00    -0.744 OA
ENDBRANCH  91  94
ENDBRANCH  64  87
ENDBRANCH  38  39
ENDBRANCH  30  33
ENDBRANCH  28  29
ENDBRANCH  27  28
ENDBRANCH  26  27
ENDBRANCH  25  26
ENDBRANCH   1  25
TORSDOF 22
ENDMDL
MODEL 3
REMARK VINA RESULT:     -10.5      1.487      7.571
REMARK SMILES CC(C)N(CCCC(=O)NCCCCCCNC(=O)c1ccc(-c2c3nc(c(-c4cccc(S(=O)(=O)[O-])c4F)c4ccc([nH]4)c(-c4cccc(S(=O)(=O)[O-])c4F)c4nc(c(-c5cccc(S(=O)(=O)[O-])c5F)c5ccc2[nH]5)C=C4)C=C3)cc1)C(=O)N[C@@H]1CCCC1(C)C
REMARK SMILES IDX 12 1 11 2 10 3 8 4 9 5 7 7 6 8 5 9 4 10 2 11 1 12 3 13 83 14
REMARK SMILES IDX 84 15 85 16 86 18 87 19 90 20 88 21 89 22 91 23 92 24 13 25
REMARK SMILES IDX 14 26 15 27 16 28 17 29 18 30 19 32 20 33 21 34 82 35 22 36
REMARK SMILES IDX 81 37 23 38 24 39 25 40 75 41 26 42 80 43 74 44 76 45 27 46
REMARK SMILES IDX 79 47 73 48 72 49 28 51 60 52 40 53 59 54 41 55 44 56 58 57
REMARK SMILES IDX 77 58 42 59 43 60 57 62 78 63 45 64 29 65 30 66 38 67 31 68
REMARK SMILES IDX 33 69 39 70 32 71 34 72 35 73 36 74 37 75 61 76 62 77 70 78
REMARK SMILES IDX 63 79 65 80 71 81 64 82 66 83 67 84 68 85 69 86 46 87 47 88
REMARK SMILES IDX 55 89 48 90 50 91 56 92 49 93 51 94 52 95 53 96 54 97
REMARK H PARENT 10 6 85 17 17 31 76 50 44 61
REMARK Flexibility Score: inf
ROOT
ATOM      1  C   UNL A   1      34.506  22.710  26.408  1.00  0.00     0.021 C 
ENDROOT
BRANCH   1   2
ATOM      2  C   UNL A   1      33.614  22.424  27.621  1.00  0.00     0.116 C 
BRANCH   2   3
ATOM      3  N   UNL A   1      32.218  22.398  27.219  1.00  0.00    -0.356 N 
ATOM      4  C   UNL A   1      31.327  23.289  26.726  1.00  0.00     0.220 C 
ATOM      5  O   UNL A   1      30.166  22.875  26.619  1.00  0.00    -0.275 OA
ATOM      6  H   UNL A   1      31.818  21.506  27.335  1.00  0.00     0.163 HD
BRANCH   4   7
ATOM      7  C   UNL A   1      31.667  24.655  26.159  1.00  0.00     0.102 C 
BRANCH   7   8
ATOM      8  C   UNL A   1      30.666  25.572  25.483  1.00  0.00     0.031 C 
BRANCH   8   9
ATOM      9  C   UNL A   1      31.031  27.000  25.117  1.00  0.00     0.122 C 
BRANCH   9  10
ATOM     10  N   UNL A   1      31.544  27.414  23.782  1.00  0.00    -0.322 N 
BRANCH  10  11
ATOM     11  C   UNL A   1      33.054  27.407  23.755  1.00  0.00     0.080 C 
ATOM     12  C   UNL A   1      33.627  26.061  23.297  1.00  0.00     0.031 C 
ATOM     13  C   UNL A   1      33.679  28.601  23.022  1.00  0.00     0.031 C 
ENDBRANCH  10  11
BRANCH  10  14
ATOM     14  C   UNL A   1      30.972  27.700  22.574  1.00  0.00     0.317 C 
ATOM     15  O   UNL A   1      30.888  26.837  21.686  1.00  0.00    -0.249 OA
ATOM     16  N   UNL A   1      30.415  28.822  22.129  1.00  0.00    -0.335 N 
ATOM     17  H   UNL A   1      30.304  28.740  21.155  1.00  0.00     0.165 HD
BRANCH  16  18
ATOM     18  C   UNL A   1      29.913  30.114  22.529  1.00  0.00     0.089 C 
ATOM     19  C   UNL A   1      30.055  30.403  24.032  1.00  0.00     0.025 C 
ATOM     20  C   UNL A   1      28.380  30.316  22.315  1.00  0.00    -0.015 C 
ATOM     21  C   UNL A   1      29.125  31.601  24.265  1.00  0.00     0.003 C 
ATOM     22  C   UNL A   1      28.167  31.647  23.064  1.00  0.00     0.008 C 
ATOM     23  C   UNL A   1      27.946  30.406  20.846  1.00  0.00     0.013 C 
ATOM     24  C   UNL A   1      27.515  29.217  22.978  1.00  0.00     0.013 C 
ENDBRANCH  16  18
ENDBRANCH  10  14
ENDBRANCH   9  10
ENDBRANCH   8   9
ENDBRANCH   7   8
ENDBRANCH   4   7
ENDBRANCH   2   3
ENDBRANCH   1   2
BRANCH   1  25
ATOM     25  C   UNL A   1      35.184  21.444  25.884  1.00  0.00     0.002 C 
BRANCH  25  26
ATOM     26  C   UNL A   1      36.141  21.698  24.713  1.00  0.00     0.002 C 
BRANCH  26  27
ATOM     27  C   UNL A   1      37.421  20.852  24.701  1.00  0.00     0.021 C 
BRANCH  27  28
ATOM     28  C   UNL A   1      38.467  21.211  25.754  1.00  0.00     0.116 C 
BRANCH  28  29
ATOM     29  N   UNL A   1      39.486  20.188  25.913  1.00  0.00    -0.352 N 
ATOM     30  C   UNL A   1      40.789  20.331  26.331  1.00  0.00     0.251 C 
ATOM     31  H   UNL A   1      39.208  19.269  25.692  1.00  0.00     0.163 HD
ATOM     32  O   UNL A   1      41.546  19.375  26.338  1.00  0.00    -0.269 OA
BRANCH  30  33
ATOM     33  C   UNL A   1      41.268  21.670  26.737  1.00  0.00     0.039 A 
ATOM     34  C   UNL A   1      41.669  22.564  25.742  1.00  0.00     0.014 A 
ATOM     35  C   UNL A   1      41.305  22.042  28.084  1.00  0.00     0.014 A 
ATOM     36  C   UNL A   1      42.061  23.856  26.095  1.00  0.00     0.010 A 
ATOM     37  C   UNL A   1      41.646  23.346  28.429  1.00  0.00     0.010 A 
ATOM     38  C   UNL A   1      42.033  24.262  27.438  1.00  0.00    -0.014 A 
BRANCH  38  39
ATOM     39  C   UNL A   1      42.408  25.644  27.825  1.00  0.00     0.031 A 
ATOM     40  C   UNL A   1      43.840  26.089  27.732  1.00  0.00     0.074 A 
ATOM     41  C   UNL A   1      41.472  26.468  28.332  1.00  0.00     0.049 A 
ATOM     42  N   UNL A   1      44.363  27.247  28.036  1.00  0.00    -0.248 NA
ATOM     43  C   UNL A   1      44.818  25.093  27.260  1.00  0.00     0.031 C 
ATOM     44  C   UNL A   1      40.065  26.120  28.546  1.00  0.00     0.029 A 
ATOM     45  N   UNL A   1      41.567  27.761  28.780  1.00  0.00    -0.354 N 
ATOM     46  C   UNL A   1      45.730  27.110  27.833  1.00  0.00     0.074 A 
ATOM     47  C   UNL A   1      45.960  25.748  27.407  1.00  0.00     0.031 C 
ATOM     48  C   UNL A   1      39.427  27.178  29.071  1.00  0.00     0.029 A 
ATOM     49  C   UNL A   1      40.378  28.272  29.246  1.00  0.00     0.049 A 
ATOM     50  H   UNL A   1      42.406  28.275  28.768  1.00  0.00     0.167 HD
ATOM     51  C   UNL A   1      46.703  28.044  27.960  1.00  0.00     0.034 A 
ATOM     52  C   UNL A   1      40.088  29.489  29.747  1.00  0.00     0.034 A 
ATOM     53  C   UNL A   1      46.458  29.414  28.320  1.00  0.00     0.049 A 
ATOM     54  C   UNL A   1      41.175  30.526  29.818  1.00  0.00     0.074 A 
ATOM     55  C   UNL A   1      47.353  30.467  28.358  1.00  0.00     0.029 A 
ATOM     56  N   UNL A   1      45.227  29.919  28.708  1.00  0.00    -0.354 N 
ATOM     57  N   UNL A   1      42.430  30.433  29.447  1.00  0.00    -0.248 NA
ATOM     58  C   UNL A   1      40.800  31.847  30.343  1.00  0.00     0.031 C 
ATOM     59  C   UNL A   1      46.663  31.610  28.780  1.00  0.00     0.029 A 
ATOM     60  C   UNL A   1      45.339  31.267  28.998  1.00  0.00     0.049 A 
ATOM     61  H   UNL A   1      44.396  29.395  28.769  1.00  0.00     0.167 HD
ATOM     62  C   UNL A   1      42.985  31.689  29.659  1.00  0.00     0.074 A 
ATOM     63  C   UNL A   1      41.925  32.532  30.177  1.00  0.00     0.031 C 
ATOM     64  C   UNL A   1      44.260  32.105  29.458  1.00  0.00     0.034 A 
BRANCH  51  65
ATOM     65  C   UNL A   1      48.113  27.625  27.642  1.00  0.00     0.023 A 
ATOM     66  C   UNL A   1      48.939  27.135  28.673  1.00  0.00     0.012 A 
ATOM     67  C   UNL A   1      48.612  27.683  26.326  1.00  0.00     0.148 A 
ATOM     68  C   UNL A   1      50.251  26.743  28.409  1.00  0.00     0.002 A 
ATOM     69  C   UNL A   1      49.909  27.253  26.063  1.00  0.00     0.091 A 
ATOM     70  F   UNL A   1      47.824  28.179  25.361  1.00  0.00    -0.205 F 
ATOM     71  C   UNL A   1      50.733  26.794  27.104  1.00  0.00     0.022 A 
BRANCH  69  72
ATOM     72  S   UNL A   1      50.584  27.221  24.398  1.00  0.00     0.127 S 
ATOM     73  O   UNL A   1      51.810  26.449  24.591  1.00  0.00    -0.237 OA
ATOM     74  O   UNL A   1      49.538  26.523  23.649  1.00  0.00    -0.237 OA
ATOM     75  O   UNL A   1      50.763  28.615  24.022  1.00  0.00    -0.744 OA
ENDBRANCH  69  72
ENDBRANCH  51  65
BRANCH  52  76
ATOM     76  C   UNL A   1      38.683  29.821  30.114  1.00  0.00     0.023 A 
ATOM     77  C   UNL A   1      38.238  29.544  31.421  1.00  0.00     0.012 A 
ATOM     78  C   UNL A   1      37.807  30.448  29.207  1.00  0.00     0.148 A 
ATOM     79  C   UNL A   1      36.939  29.866  31.815  1.00  0.00     0.002 A 
ATOM     80  C   UNL A   1      36.528  30.809  29.620  1.00  0.00     0.091 A 
ATOM     81  F   UNL A   1      38.246  30.690  27.964  1.00  0.00    -0.205 F 
ATOM     82  C   UNL A   1      36.089  30.507  30.919  1.00  0.00     0.022 A 
BRANCH  80  83
ATOM     83  S   UNL A   1      35.409  31.748  28.575  1.00  0.00     0.127 S 
ATOM     84  O   UNL A   1      34.972  30.734  27.619  1.00  0.00    -0.237 OA
ATOM     85  O   UNL A   1      34.387  32.174  29.532  1.00  0.00    -0.237 OA
ATOM     86  O   UNL A   1      36.206  32.836  28.027  1.00  0.00    -0.744 OA
ENDBRANCH  80  83
ENDBRANCH  52  76
BRANCH  64  87
ATOM     87  C   UNL A   1      44.584  33.539  29.777  1.00  0.00     0.023 A 
ATOM     88  C   UNL A   1      45.119  33.864  31.039  1.00  0.00     0.012 A 
ATOM     89  C   UNL A   1      44.440  34.547  28.804  1.00  0.00     0.148 A 
ATOM     90  C   UNL A   1      45.485  35.177  31.336  1.00  0.00     0.002 A 
ATOM     91  C   UNL A   1      44.846  35.844  29.092  1.00  0.00     0.091 A 
ATOM     92  F   UNL A   1      43.908  34.220  27.618  1.00  0.00    -0.205 F 
ATOM     93  C   UNL A   1      45.360  36.163  30.360  1.00  0.00     0.022 A 
BRANCH  91  94
ATOM     94  S   UNL A   1      44.807  37.151  27.860  1.00  0.00     0.127 S 
ATOM     95  O   UNL A   1      45.642  38.177  28.485  1.00  0.00    -0.237 OA
ATOM     96  O   UNL A   1      45.409  36.504  26.693  1.00  0.00    -0.237 OA
ATOM     97  O   UNL A   1      43.402  37.497  27.695  1.00  0.00    -0.744 OA
ENDBRANCH  91  94
ENDBRANCH  64  87
ENDBRANCH  38  39
ENDBRANCH  30  33
ENDBRANCH  28  29
ENDBRANCH  27  28
ENDBRANCH  26  27
ENDBRANCH  25  26
ENDBRANCH   1  25
TORSDOF 22
ENDMDL
