MODEL 1
REMARK VINA RESULT:     -12.2      0.000      0.000
REMARK SMILES O=C(NCCCCCCNC(=O)[C@H]1[NH2+]CC[C@H]1c1cccc(Oc2ccccc2)c1)c1ccc(-c2c3nc(c(-c4cccc(S(=O)(=O)[O-])c4F)c4ccc([nH]4)c(-c4cccc(S(=O)(=O)[O-])c4F)c4nc(c(-c5cccc(S(=O)(=O)[O-])c5F)c5ccc2[nH]5)C=C4)C=C3)cc1
REMARK SMILES IDX 6 1 5 2 4 3 3 4 1 5 2 6 31 8 32 9 93 10 33 11 92 12 34 13
REMARK SMILES IDX 35 14 36 15 86 16 37 17 91 18 85 19 87 20 38 21 90 22 84 23
REMARK SMILES IDX 83 24 39 26 71 27 51 28 70 29 52 30 55 31 69 32 88 33 53 34
REMARK SMILES IDX 54 35 68 37 89 38 56 39 40 40 41 41 49 42 42 43 44 44 50 45
REMARK SMILES IDX 43 46 45 47 46 48 47 49 48 50 72 51 73 52 81 53 74 54 76 55
REMARK SMILES IDX 82 56 75 57 77 58 78 59 79 60 80 61 57 62 58 63 66 64 59 65
REMARK SMILES IDX 61 66 67 67 60 68 62 69 63 70 64 71 65 72 7 73 8 74 9 75
REMARK SMILES IDX 10 76 11 77 12 79 13 80 14 81 17 82 15 83 16 86 18 87 19 88
REMARK SMILES IDX 30 89 20 90 22 91 21 92 23 93 24 94 25 95 29 96 26 97 28 98
REMARK SMILES IDX 27 99
REMARK H PARENT 3 7 87 25 55 36 10 78 14 84 14 85
REMARK Flexibility Score: inf
ROOT
ATOM      1  C   UNL A   1      31.956  26.717  26.464  1.00  0.00     0.002 C 
ENDROOT
BRANCH   1   2
ATOM      2  C   UNL A   1      31.695  28.212  26.657  1.00  0.00     0.021 C 
BRANCH   2   3
ATOM      3  C   UNL A   1      32.782  29.127  26.103  1.00  0.00     0.116 C 
BRANCH   3   4
ATOM      4  N   UNL A   1      32.486  30.535  26.311  1.00  0.00    -0.352 N 
ATOM      5  O   UNL A   1      32.696  32.569  27.260  1.00  0.00    -0.269 OA
ATOM      6  C   UNL A   1      33.173  31.462  27.062  1.00  0.00     0.251 C 
ATOM      7  H   UNL A   1      31.683  30.872  25.850  1.00  0.00     0.163 HD
BRANCH   6   8
ATOM      8  C   UNL A   1      34.480  31.086  27.653  1.00  0.00     0.039 A 
ATOM      9  C   UNL A   1      34.732  29.767  28.032  1.00  0.00     0.014 A 
ATOM     10  C   UNL A   1      35.449  32.073  27.853  1.00  0.00     0.014 A 
ATOM     11  C   UNL A   1      35.884  29.465  28.751  1.00  0.00     0.010 A 
ATOM     12  C   UNL A   1      36.644  31.748  28.501  1.00  0.00     0.010 A 
ATOM     13  C   UNL A   1      36.853  30.451  28.996  1.00  0.00    -0.014 A 
BRANCH  13  14
ATOM     14  C   UNL A   1      38.087  30.087  29.740  1.00  0.00     0.031 A 
ATOM     15  C   UNL A   1      38.334  30.583  31.141  1.00  0.00     0.074 A 
ATOM     16  C   UNL A   1      38.986  29.276  29.147  1.00  0.00     0.049 A 
ATOM     17  N   UNL A   1      39.322  30.297  31.951  1.00  0.00    -0.248 NA
ATOM     18  C   UNL A   1      37.355  31.525  31.706  1.00  0.00     0.031 C 
ATOM     19  C   UNL A   1      38.884  28.772  27.775  1.00  0.00     0.029 A 
ATOM     20  N   UNL A   1      40.151  28.725  29.616  1.00  0.00    -0.354 N 
ATOM     21  C   UNL A   1      39.113  31.056  33.097  1.00  0.00     0.074 A 
ATOM     22  C   UNL A   1      37.903  31.820  32.878  1.00  0.00     0.031 C 
ATOM     23  C   UNL A   1      39.919  27.957  27.528  1.00  0.00     0.029 A 
ATOM     24  C   UNL A   1      40.780  27.911  28.704  1.00  0.00     0.049 A 
ATOM     25  H   UNL A   1      40.503  28.897  30.520  1.00  0.00     0.167 HD
ATOM     26  C   UNL A   1      39.849  31.098  34.233  1.00  0.00     0.034 A 
ATOM     27  C   UNL A   1      41.922  27.205  28.800  1.00  0.00     0.034 A 
ATOM     28  C   UNL A   1      41.022  30.298  34.467  1.00  0.00     0.049 A 
ATOM     29  C   UNL A   1      42.685  27.226  30.094  1.00  0.00     0.074 A 
ATOM     30  C   UNL A   1      41.794  30.216  35.615  1.00  0.00     0.029 A 
ATOM     31  N   UNL A   1      41.597  29.442  33.540  1.00  0.00    -0.354 N 
ATOM     32  N   UNL A   1      42.390  27.841  31.214  1.00  0.00    -0.248 NA
ATOM     33  C   UNL A   1      43.919  26.433  30.149  1.00  0.00     0.031 C 
ATOM     34  C   UNL A   1      42.841  29.318  35.376  1.00  0.00     0.029 A 
ATOM     35  C   UNL A   1      42.713  28.830  34.086  1.00  0.00     0.049 A 
ATOM     36  H   UNL A   1      41.259  29.291  32.627  1.00  0.00     0.167 HD
ATOM     37  C   UNL A   1      43.386  27.486  32.116  1.00  0.00     0.074 A 
ATOM     38  C   UNL A   1      44.277  26.581  31.418  1.00  0.00     0.031 C 
ATOM     39  C   UNL A   1      43.558  27.887  33.399  1.00  0.00     0.034 A 
BRANCH  26  40
ATOM     40  C   UNL A   1      39.387  32.011  35.340  1.00  0.00     0.023 A 
ATOM     41  C   UNL A   1      38.460  31.537  36.290  1.00  0.00     0.012 A 
ATOM     42  C   UNL A   1      39.921  33.307  35.483  1.00  0.00     0.148 A 
ATOM     43  C   UNL A   1      38.051  32.347  37.350  1.00  0.00     0.002 A 
ATOM     44  C   UNL A   1      39.537  34.094  36.564  1.00  0.00     0.091 A 
ATOM     45  F   UNL A   1      40.785  33.751  34.559  1.00  0.00    -0.205 F 
ATOM     46  C   UNL A   1      38.597  33.619  37.493  1.00  0.00     0.022 A 
BRANCH  44  47
ATOM     47  S   UNL A   1      40.244  35.717  36.873  1.00  0.00     0.127 S 
ATOM     48  O   UNL A   1      39.612  36.518  35.826  1.00  0.00    -0.237 OA
ATOM     49  O   UNL A   1      39.775  36.008  38.229  1.00  0.00    -0.237 OA
ATOM     50  O   UNL A   1      41.685  35.552  36.757  1.00  0.00    -0.744 OA
ENDBRANCH  44  47
ENDBRANCH  26  40
BRANCH  27  51
ATOM     51  C   UNL A   1      42.363  26.357  27.658  1.00  0.00     0.023 A 
ATOM     52  C   UNL A   1      43.277  26.881  26.723  1.00  0.00     0.012 A 
ATOM     53  C   UNL A   1      41.929  25.025  27.522  1.00  0.00     0.148 A 
ATOM     54  C   UNL A   1      43.733  26.099  25.661  1.00  0.00     0.002 A 
ATOM     55  C   UNL A   1      42.432  24.233  26.497  1.00  0.00     0.091 A 
ATOM     56  F   UNL A   1      41.045  24.551  28.411  1.00  0.00    -0.205 F 
ATOM     57  C   UNL A   1      43.321  24.773  25.555  1.00  0.00     0.022 A 
BRANCH  55  58
ATOM     58  S   UNL A   1      42.063  22.480  26.378  1.00  0.00     0.127 S 
ATOM     59  O   UNL A   1      40.607  22.485  26.279  1.00  0.00    -0.237 OA
ATOM     60  O   UNL A   1      42.764  22.102  25.150  1.00  0.00    -0.237 OA
ATOM     61  O   UNL A   1      42.620  21.886  27.587  1.00  0.00    -0.744 OA
ENDBRANCH  55  58
ENDBRANCH  27  51
BRANCH  39  62
ATOM     62  C   UNL A   1      44.739  27.329  34.147  1.00  0.00     0.023 A 
ATOM     63  C   UNL A   1      45.976  28.001  34.098  1.00  0.00     0.012 A 
ATOM     64  C   UNL A   1      44.609  26.174  34.941  1.00  0.00     0.148 A 
ATOM     65  C   UNL A   1      47.075  27.514  34.804  1.00  0.00     0.002 A 
ATOM     66  C   UNL A   1      45.697  25.720  35.678  1.00  0.00     0.091 A 
ATOM     67  F   UNL A   1      43.432  25.533  34.956  1.00  0.00    -0.205 F 
ATOM     68  C   UNL A   1      46.933  26.381  35.602  1.00  0.00     0.022 A 
BRANCH  66  69
ATOM     69  S   UNL A   1      45.566  24.322  36.798  1.00  0.00     0.127 S 
ATOM     70  O   UNL A   1      45.209  23.238  35.885  1.00  0.00    -0.237 OA
ATOM     71  O   UNL A   1      46.918  24.231  37.351  1.00  0.00    -0.237 OA
ATOM     72  O   UNL A   1      44.546  24.692  37.770  1.00  0.00    -0.744 OA
ENDBRANCH  66  69
ENDBRANCH  39  62
ENDBRANCH  13  14
ENDBRANCH   6   8
ENDBRANCH   3   4
ENDBRANCH   2   3
ENDBRANCH   1   2
BRANCH   1  73
ATOM     73  C   UNL A   1      30.702  25.851  26.295  1.00  0.00     0.002 C 
BRANCH  73  74
ATOM     74  C   UNL A   1      30.963  24.377  25.951  1.00  0.00     0.021 C 
BRANCH  74  75
ATOM     75  C   UNL A   1      31.751  23.626  27.022  1.00  0.00     0.116 C 
BRANCH  75  76
ATOM     76  N   UNL A   1      32.071  22.287  26.565  1.00  0.00    -0.351 N 
ATOM     77  C   UNL A   1      33.255  21.667  26.321  1.00  0.00     0.278 C 
ATOM     78  H   UNL A   1      31.282  21.721  26.401  1.00  0.00     0.163 HD
ATOM     79  O   UNL A   1      33.197  20.477  25.985  1.00  0.00    -0.268 OA
BRANCH  77  80
ATOM     80  C   UNL A   1      34.619  22.342  26.505  1.00  0.00     0.280 C 
ATOM     81  N   UNL A   1      35.787  21.435  26.354  1.00  0.00    -0.335 N 
ATOM     82  C   UNL A   1      34.924  23.664  25.763  1.00  0.00     0.093 C 
ATOM     83  C   UNL A   1      36.804  22.174  25.605  1.00  0.00     0.262 C 
ATOM     84  H   UNL A   1      35.516  20.596  25.841  1.00  0.00     0.346 HD
ATOM     85  H   UNL A   1      36.143  21.143  27.264  1.00  0.00     0.346 HD
ATOM     86  C   UNL A   1      36.457  23.641  25.807  1.00  0.00     0.076 C 
BRANCH  82  87
ATOM     87  C   UNL A   1      34.279  23.891  24.401  1.00  0.00    -0.034 A 
ATOM     88  C   UNL A   1      33.958  22.863  23.503  1.00  0.00     0.004 A 
ATOM     89  C   UNL A   1      34.046  25.218  23.981  1.00  0.00     0.051 A 
ATOM     90  C   UNL A   1      33.412  23.148  22.247  1.00  0.00     0.004 A 
ATOM     91  C   UNL A   1      33.472  25.512  22.738  1.00  0.00     0.127 A 
ATOM     92  C   UNL A   1      33.166  24.467  21.870  1.00  0.00     0.047 A 
BRANCH  91  93
ATOM     93  O   UNL A   1      33.179  26.773  22.261  1.00  0.00    -0.457 OA
BRANCH  93  94
ATOM     94  C   UNL A   1      31.992  27.354  22.631  1.00  0.00     0.127 A 
ATOM     95  C   UNL A   1      30.883  26.535  22.844  1.00  0.00     0.047 A 
ATOM     96  C   UNL A   1      31.871  28.742  22.705  1.00  0.00     0.047 A 
ATOM     97  C   UNL A   1      29.659  27.108  23.193  1.00  0.00     0.004 A 
ATOM     98  C   UNL A   1      30.654  29.311  23.076  1.00  0.00     0.004 A 
ATOM     99  C   UNL A   1      29.550  28.494  23.322  1.00  0.00     0.000 A 
ENDBRANCH  93  94
ENDBRANCH  91  93
ENDBRANCH  82  87
ENDBRANCH  77  80
ENDBRANCH  75  76
ENDBRANCH  74  75
ENDBRANCH  73  74
ENDBRANCH   1  73
TORSDOF 19
ENDMDL
MODEL 2
REMARK VINA RESULT:     -12.0      4.884      9.951
REMARK SMILES O=C(NCCCCCCNC(=O)[C@H]1[NH2+]CC[C@H]1c1cccc(Oc2ccccc2)c1)c1ccc(-c2c3nc(c(-c4cccc(S(=O)(=O)[O-])c4F)c4ccc([nH]4)c(-c4cccc(S(=O)(=O)[O-])c4F)c4nc(c(-c5cccc(S(=O)(=O)[O-])c5F)c5ccc2[nH]5)C=C4)C=C3)cc1
REMARK SMILES IDX 6 1 5 2 4 3 3 4 1 5 2 6 31 8 32 9 93 10 33 11 92 12 34 13
REMARK SMILES IDX 35 14 36 15 86 16 37 17 91 18 85 19 87 20 38 21 90 22 84 23
REMARK SMILES IDX 83 24 39 26 71 27 51 28 70 29 52 30 55 31 69 32 88 33 53 34
REMARK SMILES IDX 54 35 68 37 89 38 56 39 40 40 41 41 49 42 42 43 44 44 50 45
REMARK SMILES IDX 43 46 45 47 46 48 47 49 48 50 72 51 73 52 81 53 74 54 76 55
REMARK SMILES IDX 82 56 75 57 77 58 78 59 79 60 80 61 57 62 58 63 66 64 59 65
REMARK SMILES IDX 61 66 67 67 60 68 62 69 63 70 64 71 65 72 7 73 8 74 9 75
REMARK SMILES IDX 10 76 11 77 12 79 13 80 14 81 17 82 15 83 16 86 18 87 19 88
REMARK SMILES IDX 30 89 20 90 22 91 21 92 23 93 24 94 25 95 29 96 26 97 28 98
REMARK SMILES IDX 27 99
REMARK H PARENT 3 7 87 25 55 36 10 78 14 84 14 85
REMARK Flexibility Score: inf
ROOT
ATOM      1  C   UNL A   1      35.289  23.655  23.815  1.00  0.00     0.002 C 
ENDROOT
BRANCH   1   2
ATOM      2  C   UNL A   1      36.378  22.602  24.032  1.00  0.00     0.021 C 
BRANCH   2   3
ATOM      3  C   UNL A   1      36.860  22.468  25.473  1.00  0.00     0.116 C 
BRANCH   3   4
ATOM      4  N   UNL A   1      37.827  21.397  25.641  1.00  0.00    -0.352 N 
ATOM      5  O   UNL A   1      39.856  20.491  26.027  1.00  0.00    -0.269 OA
ATOM      6  C   UNL A   1      39.124  21.466  26.100  1.00  0.00     0.251 C 
ATOM      7  H   UNL A   1      37.512  20.497  25.393  1.00  0.00     0.163 HD
BRANCH   6   8
ATOM      8  C   UNL A   1      39.627  22.747  26.650  1.00  0.00     0.039 A 
ATOM      9  C   UNL A   1      39.173  23.965  26.140  1.00  0.00     0.014 A 
ATOM     10  C   UNL A   1      40.583  22.725  27.669  1.00  0.00     0.014 A 
ATOM     11  C   UNL A   1      39.786  25.149  26.534  1.00  0.00     0.010 A 
ATOM     12  C   UNL A   1      41.138  23.925  28.124  1.00  0.00     0.010 A 
ATOM     13  C   UNL A   1      40.777  25.144  27.530  1.00  0.00    -0.014 A 
BRANCH  13  14
ATOM     14  C   UNL A   1      41.389  26.432  27.950  1.00  0.00     0.031 A 
ATOM     15  C   UNL A   1      42.806  26.785  27.578  1.00  0.00     0.074 A 
ATOM     16  C   UNL A   1      40.644  27.304  28.657  1.00  0.00     0.049 A 
ATOM     17  N   UNL A   1      43.461  27.896  27.804  1.00  0.00    -0.248 NA
ATOM     18  C   UNL A   1      43.594  25.763  26.871  1.00  0.00     0.031 C 
ATOM     19  C   UNL A   1      39.276  27.054  29.122  1.00  0.00     0.029 A 
ATOM     20  N   UNL A   1      40.918  28.571  29.103  1.00  0.00    -0.354 N 
ATOM     21  C   UNL A   1      44.745  27.692  27.313  1.00  0.00     0.074 A 
ATOM     22  C   UNL A   1      44.781  26.348  26.779  1.00  0.00     0.031 C 
ATOM     23  C   UNL A   1      38.819  28.146  29.750  1.00  0.00     0.029 A 
ATOM     24  C   UNL A   1      39.870  29.157  29.772  1.00  0.00     0.049 A 
ATOM     25  H   UNL A   1      41.783  29.018  28.958  1.00  0.00     0.167 HD
ATOM     26  C   UNL A   1      45.792  28.552  27.292  1.00  0.00     0.034 A 
ATOM     27  C   UNL A   1      39.762  30.374  30.340  1.00  0.00     0.034 A 
ATOM     28  C   UNL A   1      45.737  29.906  27.777  1.00  0.00     0.049 A 
ATOM     29  C   UNL A   1      40.921  31.325  30.249  1.00  0.00     0.074 A 
ATOM     30  C   UNL A   1      46.724  30.878  27.732  1.00  0.00     0.029 A 
ATOM     31  N   UNL A   1      44.639  30.483  28.397  1.00  0.00    -0.354 N 
ATOM     32  N   UNL A   1      42.077  31.160  29.654  1.00  0.00    -0.248 NA
ATOM     33  C   UNL A   1      40.749  32.641  30.878  1.00  0.00     0.031 C 
ATOM     34  C   UNL A   1      46.224  32.038  28.335  1.00  0.00     0.029 A 
ATOM     35  C   UNL A   1      44.923  31.794  28.742  1.00  0.00     0.049 A 
ATOM     36  H   UNL A   1      43.783  30.026  28.566  1.00  0.00     0.167 HD
ATOM     37  C   UNL A   1      42.760  32.360  29.811  1.00  0.00     0.074 A 
ATOM     38  C   UNL A   1      41.876  33.251  30.535  1.00  0.00     0.031 C 
ATOM     39  C   UNL A   1      44.013  32.688  29.410  1.00  0.00     0.034 A 
BRANCH  26  40
ATOM     40  C   UNL A   1      47.086  28.074  26.684  1.00  0.00     0.023 A 
ATOM     41  C   UNL A   1      48.126  27.629  27.525  1.00  0.00     0.012 A 
ATOM     42  C   UNL A   1      47.246  27.995  25.287  1.00  0.00     0.148 A 
ATOM     43  C   UNL A   1      49.316  27.139  26.986  1.00  0.00     0.002 A 
ATOM     44  C   UNL A   1      48.421  27.470  24.756  1.00  0.00     0.091 A 
ATOM     45  F   UNL A   1      46.256  28.443  24.501  1.00  0.00    -0.205 F 
ATOM     46  C   UNL A   1      49.459  27.050  25.604  1.00  0.00     0.022 A 
BRANCH  44  47
ATOM     47  S   UNL A   1      48.664  27.245  22.990  1.00  0.00     0.127 S 
ATOM     48  O   UNL A   1      47.792  28.281  22.438  1.00  0.00    -0.237 OA
ATOM     49  O   UNL A   1      50.096  27.509  22.837  1.00  0.00    -0.237 OA
ATOM     50  O   UNL A   1      48.271  25.872  22.707  1.00  0.00    -0.744 OA
ENDBRANCH  44  47
ENDBRANCH  26  40
BRANCH  27  51
ATOM     51  C   UNL A   1      38.478  30.780  30.974  1.00  0.00     0.023 A 
ATOM     52  C   UNL A   1      38.301  30.589  32.359  1.00  0.00     0.012 A 
ATOM     53  C   UNL A   1      37.456  31.400  30.231  1.00  0.00     0.148 A 
ATOM     54  C   UNL A   1      37.121  30.989  32.986  1.00  0.00     0.002 A 
ATOM     55  C   UNL A   1      36.308  31.850  30.872  1.00  0.00     0.091 A 
ATOM     56  F   UNL A   1      37.635  31.556  28.911  1.00  0.00    -0.205 F 
ATOM     57  C   UNL A   1      36.131  31.631  32.246  1.00  0.00     0.022 A 
BRANCH  55  58
ATOM     58  S   UNL A   1      35.055  32.811  30.018  1.00  0.00     0.127 S 
ATOM     59  O   UNL A   1      34.142  33.149  31.105  1.00  0.00    -0.237 OA
ATOM     60  O   UNL A   1      35.835  33.934  29.495  1.00  0.00    -0.237 OA
ATOM     61  O   UNL A   1      34.524  31.927  28.988  1.00  0.00    -0.744 OA
ENDBRANCH  55  58
ENDBRANCH  27  51
BRANCH  39  62
ATOM     62  C   UNL A   1      44.496  34.080  29.718  1.00  0.00     0.023 A 
ATOM     63  C   UNL A   1      45.190  34.328  30.918  1.00  0.00     0.012 A 
ATOM     64  C   UNL A   1      44.313  35.127  28.795  1.00  0.00     0.148 A 
ATOM     65  C   UNL A   1      45.667  35.604  31.209  1.00  0.00     0.002 A 
ATOM     66  C   UNL A   1      44.831  36.387  29.072  1.00  0.00     0.091 A 
ATOM     67  F   UNL A   1      43.628  34.879  27.669  1.00  0.00    -0.205 F 
ATOM     68  C   UNL A   1      45.498  36.630  30.282  1.00  0.00     0.022 A 
BRANCH  66  69
ATOM     69  S   UNL A   1      44.732  37.734  27.888  1.00  0.00     0.127 S 
ATOM     70  O   UNL A   1      45.812  37.400  26.962  1.00  0.00    -0.237 OA
ATOM     71  O   UNL A   1      43.386  37.573  27.336  1.00  0.00    -0.237 OA
ATOM     72  O   UNL A   1      44.919  38.953  28.663  1.00  0.00    -0.744 OA
ENDBRANCH  66  69
ENDBRANCH  39  62
ENDBRANCH  13  14
ENDBRANCH   6   8
ENDBRANCH   3   4
ENDBRANCH   2   3
ENDBRANCH   1   2
BRANCH   1  73
ATOM     73  C   UNL A   1      34.251  23.310  22.741  1.00  0.00     0.002 C 
BRANCH  73  74
ATOM     74  C   UNL A   1      33.159  24.367  22.521  1.00  0.00     0.021 C 
BRANCH  74  75
ATOM     75  C   UNL A   1      33.694  25.714  22.040  1.00  0.00     0.116 C 
BRANCH  75  76
ATOM     76  N   UNL A   1      32.632  26.702  22.032  1.00  0.00    -0.351 N 
ATOM     77  C   UNL A   1      32.408  27.804  22.794  1.00  0.00     0.278 C 
ATOM     78  H   UNL A   1      31.945  26.546  21.344  1.00  0.00     0.163 HD
ATOM     79  O   UNL A   1      31.421  28.490  22.498  1.00  0.00    -0.268 OA
BRANCH  77  80
ATOM     80  C   UNL A   1      33.338  28.256  23.925  1.00  0.00     0.280 C 
ATOM     81  N   UNL A   1      33.073  29.625  24.440  1.00  0.00    -0.335 N 
ATOM     82  C   UNL A   1      33.588  27.318  25.129  1.00  0.00     0.093 C 
ATOM     83  C   UNL A   1      33.211  29.565  25.895  1.00  0.00     0.262 C 
ATOM     84  H   UNL A   1      32.129  29.917  24.189  1.00  0.00     0.346 HD
ATOM     85  H   UNL A   1      33.725  30.298  24.038  1.00  0.00     0.346 HD
ATOM     86  C   UNL A   1      34.074  28.342  26.162  1.00  0.00     0.076 C 
BRANCH  82  87
ATOM     87  C   UNL A   1      32.462  26.386  25.562  1.00  0.00    -0.034 A 
ATOM     88  C   UNL A   1      31.103  26.731  25.534  1.00  0.00     0.004 A 
ATOM     89  C   UNL A   1      32.802  25.122  26.088  1.00  0.00     0.051 A 
ATOM     90  C   UNL A   1      30.125  25.843  25.993  1.00  0.00     0.004 A 
ATOM     91  C   UNL A   1      31.828  24.214  26.522  1.00  0.00     0.127 A 
ATOM     92  C   UNL A   1      30.487  24.588  26.481  1.00  0.00     0.047 A 
BRANCH  91  93
ATOM     93  O   UNL A   1      32.066  22.948  27.017  1.00  0.00    -0.457 OA
BRANCH  93  94
ATOM     94  C   UNL A   1      32.445  21.963  26.140  1.00  0.00     0.127 A 
ATOM     95  C   UNL A   1      33.591  21.219  26.421  1.00  0.00     0.047 A 
ATOM     96  C   UNL A   1      31.750  21.768  24.945  1.00  0.00     0.047 A 
ATOM     97  C   UNL A   1      34.009  20.232  25.528  1.00  0.00     0.004 A 
ATOM     98  C   UNL A   1      32.156  20.765  24.066  1.00  0.00     0.004 A 
ATOM     99  C   UNL A   1      33.283  19.997  24.359  1.00  0.00     0.000 A 
ENDBRANCH  93  94
ENDBRANCH  91  93
ENDBRANCH  82  87
ENDBRANCH  77  80
ENDBRANCH  75  76
ENDBRANCH  74  75
ENDBRANCH  73  74
ENDBRANCH   1  73
TORSDOF 19
ENDMDL
MODEL 3
REMARK VINA RESULT:     -11.9      1.583      3.383
REMARK SMILES O=C(NCCCCCCNC(=O)[C@H]1[NH2+]CC[C@H]1c1cccc(Oc2ccccc2)c1)c1ccc(-c2c3nc(c(-c4cccc(S(=O)(=O)[O-])c4F)c4ccc([nH]4)c(-c4cccc(S(=O)(=O)[O-])c4F)c4nc(c(-c5cccc(S(=O)(=O)[O-])c5F)c5ccc2[nH]5)C=C4)C=C3)cc1
REMARK SMILES IDX 6 1 5 2 4 3 3 4 1 5 2 6 31 8 32 9 93 10 33 11 92 12 34 13
REMARK SMILES IDX 35 14 36 15 86 16 37 17 91 18 85 19 87 20 38 21 90 22 84 23
REMARK SMILES IDX 83 24 39 26 71 27 51 28 70 29 52 30 55 31 69 32 88 33 53 34
REMARK SMILES IDX 54 35 68 37 89 38 56 39 40 40 41 41 49 42 42 43 44 44 50 45
REMARK SMILES IDX 43 46 45 47 46 48 47 49 48 50 72 51 73 52 81 53 74 54 76 55
REMARK SMILES IDX 82 56 75 57 77 58 78 59 79 60 80 61 57 62 58 63 66 64 59 65
REMARK SMILES IDX 61 66 67 67 60 68 62 69 63 70 64 71 65 72 7 73 8 74 9 75
REMARK SMILES IDX 10 76 11 77 12 79 13 80 14 81 17 82 15 83 16 86 18 87 19 88
REMARK SMILES IDX 30 89 20 90 22 91 21 92 23 93 24 94 25 95 29 96 26 97 28 98
REMARK SMILES IDX 27 99
REMARK H PARENT 3 7 87 25 55 36 10 78 14 84 14 85
REMARK Flexibility Score: inf
ROOT
ATOM      1  C   UNL A   1      31.886  28.013  26.635  1.00  0.00     0.002 C 
ENDROOT
BRANCH   1   2
ATOM      2  C   UNL A   1      31.488  29.488  26.703  1.00  0.00     0.021 C 
BRANCH   2   3
ATOM      3  C   UNL A   1      32.508  30.454  26.107  1.00  0.00     0.116 C 
BRANCH   3   4
ATOM      4  N   UNL A   1      32.267  31.833  26.498  1.00  0.00    -0.352 N 
ATOM      5  O   UNL A   1      32.548  33.712  27.711  1.00  0.00    -0.269 OA
ATOM      6  C   UNL A   1      32.981  32.622  27.371  1.00  0.00     0.251 C 
ATOM      7  H   UNL A   1      31.484  32.261  26.080  1.00  0.00     0.163 HD
BRANCH   6   8
ATOM      8  C   UNL A   1      34.264  32.116  27.917  1.00  0.00     0.039 A 
ATOM      9  C   UNL A   1      34.366  30.804  28.384  1.00  0.00     0.014 A 
ATOM     10  C   UNL A   1      35.364  32.974  27.985  1.00  0.00     0.014 A 
ATOM     11  C   UNL A   1      35.513  30.401  29.060  1.00  0.00     0.010 A 
ATOM     12  C   UNL A   1      36.546  32.538  28.590  1.00  0.00     0.010 A 
ATOM     13  C   UNL A   1      36.617  31.263  29.173  1.00  0.00    -0.014 A 
BRANCH  13  14
ATOM     14  C   UNL A   1      37.838  30.788  29.874  1.00  0.00     0.031 A 
ATOM     15  C   UNL A   1      38.147  31.213  31.286  1.00  0.00     0.074 A 
ATOM     16  C   UNL A   1      38.667  29.942  29.231  1.00  0.00     0.049 A 
ATOM     17  N   UNL A   1      39.130  30.832  32.062  1.00  0.00    -0.248 NA
ATOM     18  C   UNL A   1      37.246  32.197  31.908  1.00  0.00     0.031 C 
ATOM     19  C   UNL A   1      38.503  29.499  27.844  1.00  0.00     0.029 A 
ATOM     20  N   UNL A   1      39.802  29.298  29.652  1.00  0.00    -0.354 N 
ATOM     21  C   UNL A   1      38.997  31.559  33.239  1.00  0.00     0.074 A 
ATOM     22  C   UNL A   1      37.837  32.410  33.077  1.00  0.00     0.031 C 
ATOM     23  C   UNL A   1      39.475  28.627  27.543  1.00  0.00     0.029 A 
ATOM     24  C   UNL A   1      40.356  28.479  28.696  1.00  0.00     0.049 A 
ATOM     25  H   UNL A   1      40.184  29.411  30.553  1.00  0.00     0.167 HD
ATOM     26  C   UNL A   1      39.758  31.509  34.359  1.00  0.00     0.034 A 
ATOM     27  C   UNL A   1      41.450  27.695  28.740  1.00  0.00     0.034 A 
ATOM     28  C   UNL A   1      40.879  30.623  34.536  1.00  0.00     0.049 A 
ATOM     29  C   UNL A   1      42.239  27.616  30.016  1.00  0.00     0.074 A 
ATOM     30  C   UNL A   1      41.667  30.447  35.662  1.00  0.00     0.029 A 
ATOM     31  N   UNL A   1      41.375  29.767  33.565  1.00  0.00    -0.354 N 
ATOM     32  N   UNL A   1      42.010  28.206  31.164  1.00  0.00    -0.248 NA
ATOM     33  C   UNL A   1      43.418  26.741  30.013  1.00  0.00     0.031 C 
ATOM     34  C   UNL A   1      42.646  29.491  35.365  1.00  0.00     0.029 A 
ATOM     35  C   UNL A   1      42.459  29.062  34.062  1.00  0.00     0.049 A 
ATOM     36  H   UNL A   1      41.009  29.674  32.655  1.00  0.00     0.167 HD
ATOM     37  C   UNL A   1      42.997  27.751  32.029  1.00  0.00     0.074 A 
ATOM     38  C   UNL A   1      43.811  26.817  31.278  1.00  0.00     0.031 C 
ATOM     39  C   UNL A   1      43.223  28.092  33.322  1.00  0.00     0.034 A 
BRANCH  26  40
ATOM     40  C   UNL A   1      39.381  32.407  35.508  1.00  0.00     0.023 A 
ATOM     41  C   UNL A   1      38.576  31.903  36.550  1.00  0.00     0.012 A 
ATOM     42  C   UNL A   1      39.881  33.722  35.597  1.00  0.00     0.148 A 
ATOM     43  C   UNL A   1      38.252  32.701  37.647  1.00  0.00     0.002 A 
ATOM     44  C   UNL A   1      39.584  34.498  36.713  1.00  0.00     0.091 A 
ATOM     45  F   UNL A   1      40.627  34.194  34.587  1.00  0.00    -0.205 F 
ATOM     46  C   UNL A   1      38.763  33.992  37.734  1.00  0.00     0.022 A 
BRANCH  44  47
ATOM     47  S   UNL A   1      40.261  36.146  36.948  1.00  0.00     0.127 S 
ATOM     48  O   UNL A   1      41.685  35.859  37.113  1.00  0.00    -0.237 OA
ATOM     49  O   UNL A   1      39.915  36.807  35.688  1.00  0.00    -0.237 OA
ATOM     50  O   UNL A   1      39.587  36.689  38.118  1.00  0.00    -0.744 OA
ENDBRANCH  44  47
ENDBRANCH  26  40
BRANCH  27  51
ATOM     51  C   UNL A   1      41.808  26.864  27.558  1.00  0.00     0.023 A 
ATOM     52  C   UNL A   1      42.483  27.460  26.475  1.00  0.00     0.012 A 
ATOM     53  C   UNL A   1      41.536  25.483  27.522  1.00  0.00     0.148 A 
ATOM     54  C   UNL A   1      42.861  26.699  25.368  1.00  0.00     0.002 A 
ATOM     55  C   UNL A   1      41.967  24.720  26.443  1.00  0.00     0.091 A 
ATOM     56  F   UNL A   1      40.877  24.938  28.554  1.00  0.00    -0.205 F 
ATOM     57  C   UNL A   1      42.615  25.329  25.358  1.00  0.00     0.022 A 
BRANCH  55  58
ATOM     58  S   UNL A   1      41.818  22.931  26.422  1.00  0.00     0.127 S 
ATOM     59  O   UNL A   1      42.535  22.555  27.636  1.00  0.00    -0.237 OA
ATOM     60  O   UNL A   1      40.367  22.744  26.479  1.00  0.00    -0.237 OA
ATOM     61  O   UNL A   1      42.422  22.508  25.165  1.00  0.00    -0.744 OA
ENDBRANCH  55  58
ENDBRANCH  27  51
BRANCH  39  62
ATOM     62  C   UNL A   1      44.379  27.428  34.021  1.00  0.00     0.023 A 
ATOM     63  C   UNL A   1      45.661  28.008  33.953  1.00  0.00     0.012 A 
ATOM     64  C   UNL A   1      44.185  26.264  34.789  1.00  0.00     0.148 A 
ATOM     65  C   UNL A   1      46.739  27.422  34.614  1.00  0.00     0.002 A 
ATOM     66  C   UNL A   1      45.256  25.711  35.482  1.00  0.00     0.091 A 
ATOM     67  F   UNL A   1      42.964  25.712  34.822  1.00  0.00    -0.205 F 
ATOM     68  C   UNL A   1      46.534  26.281  35.387  1.00  0.00     0.022 A 
BRANCH  66  69
ATOM     69  S   UNL A   1      45.051  24.296  36.571  1.00  0.00     0.127 S 
ATOM     70  O   UNL A   1      46.415  24.090  37.054  1.00  0.00    -0.237 OA
ATOM     71  O   UNL A   1      44.118  24.804  37.578  1.00  0.00    -0.237 OA
ATOM     72  O   UNL A   1      44.509  23.233  35.735  1.00  0.00    -0.744 OA
ENDBRANCH  66  69
ENDBRANCH  39  62
ENDBRANCH  13  14
ENDBRANCH   6   8
ENDBRANCH   3   4
ENDBRANCH   2   3
ENDBRANCH   1   2
BRANCH   1  73
ATOM     73  C   UNL A   1      33.391  27.737  26.734  1.00  0.00     0.002 C 
BRANCH  73  74
ATOM     74  C   UNL A   1      33.944  26.737  25.708  1.00  0.00     0.021 C 
BRANCH  74  75
ATOM     75  C   UNL A   1      33.010  25.562  25.429  1.00  0.00     0.116 C 
BRANCH  75  76
ATOM     76  N   UNL A   1      33.209  24.517  26.415  1.00  0.00    -0.351 N 
ATOM     77  C   UNL A   1      34.221  23.633  26.613  1.00  0.00     0.278 C 
ATOM     78  H   UNL A   1      32.472  24.432  27.063  1.00  0.00     0.163 HD
ATOM     79  O   UNL A   1      34.120  22.887  27.596  1.00  0.00    -0.268 OA
BRANCH  77  80
ATOM     80  C   UNL A   1      35.476  23.571  25.736  1.00  0.00     0.280 C 
ATOM     81  N   UNL A   1      36.548  22.675  26.245  1.00  0.00    -0.335 N 
ATOM     82  C   UNL A   1      35.334  23.351  24.212  1.00  0.00     0.093 C 
ATOM     83  C   UNL A   1      37.096  21.969  25.087  1.00  0.00     0.262 C 
ATOM     84  H   UNL A   1      36.159  22.007  26.911  1.00  0.00     0.346 HD
ATOM     85  H   UNL A   1      37.272  23.208  26.725  1.00  0.00     0.346 HD
ATOM     86  C   UNL A   1      36.743  22.837  23.889  1.00  0.00     0.076 C 
BRANCH  82  87
ATOM     87  C   UNL A   1      34.165  22.511  23.712  1.00  0.00    -0.034 A 
ATOM     88  C   UNL A   1      33.452  22.781  22.535  1.00  0.00     0.004 A 
ATOM     89  C   UNL A   1      33.723  21.433  24.508  1.00  0.00     0.051 A 
ATOM     90  C   UNL A   1      32.356  21.996  22.161  1.00  0.00     0.004 A 
ATOM     91  C   UNL A   1      32.646  20.623  24.127  1.00  0.00     0.127 A 
ATOM     92  C   UNL A   1      31.959  20.919  22.952  1.00  0.00     0.047 A 
BRANCH  91  93
ATOM     93  O   UNL A   1      32.169  19.532  24.824  1.00  0.00    -0.457 OA
BRANCH  93  94
ATOM     94  C   UNL A   1      32.929  18.389  24.852  1.00  0.00     0.127 A 
ATOM     95  C   UNL A   1      32.475  17.300  25.598  1.00  0.00     0.047 A 
ATOM     96  C   UNL A   1      34.172  18.346  24.220  1.00  0.00     0.047 A 
ATOM     97  C   UNL A   1      33.246  16.139  25.661  1.00  0.00     0.004 A 
ATOM     98  C   UNL A   1      34.929  17.177  24.266  1.00  0.00     0.004 A 
ATOM     99  C   UNL A   1      34.465  16.074  24.984  1.00  0.00     0.000 A 
ENDBRANCH  93  94
ENDBRANCH  91  93
ENDBRANCH  82  87
ENDBRANCH  77  80
ENDBRANCH  75  76
ENDBRANCH  74  75
ENDBRANCH  73  74
ENDBRANCH   1  73
TORSDOF 19
ENDMDL
