MODEL 1
REMARK VINA RESULT:     -10.7      0.000      0.000
REMARK SMILES CCC[C@@]1(C(=O)N[C@@](C)(C(=O)NCCCCCCNC(=O)c2ccc(-c3c4nc(c(-c5cccc(S(=O)(=O)[O-])c5F)c5ccc([nH]5)c(-c5cccc(S(=O)(=O)[O-])c5F)c5nc(c(-c6cccc(S(=O)(=O)[O-])c6F)c6ccc3[nH]6)C=C5)C=C4)cc2)C(F)(F)F)CC[NH2+]C1
REMARK SMILES IDX 15 1 14 2 13 3 12 4 10 5 11 6 8 8 9 9 7 10 5 11 6 12 4 14
REMARK SMILES IDX 89 15 92 16 90 17 91 18 3 21 2 22 1 23 85 24 86 25 87 26
REMARK SMILES IDX 88 27 16 28 17 29 18 30 19 31 20 32 21 34 22 35 23 36 84 37
REMARK SMILES IDX 24 38 83 39 25 40 26 41 27 42 77 43 28 44 82 45 76 46 78 47
REMARK SMILES IDX 29 48 81 49 75 50 74 51 30 53 62 54 42 55 61 56 43 57 46 58
REMARK SMILES IDX 60 59 79 60 44 61 45 62 59 64 80 65 47 66 31 67 32 68 40 69
REMARK SMILES IDX 33 70 35 71 41 72 34 73 36 74 37 75 38 76 39 77 63 78 64 79
REMARK SMILES IDX 72 80 65 81 67 82 73 83 66 84 68 85 69 86 70 87 71 88 48 89
REMARK SMILES IDX 49 90 57 91 50 92 52 93 58 94 51 95 53 96 54 97 55 98 56 99
REMARK H PARENT 12 7 7 13 91 19 91 20 19 33 78 52 46 63
REMARK Flexibility Score: inf
ROOT
ATOM      1  C   UNL A   1      35.938  22.295  25.941  1.00  0.00     0.002 C 
ENDROOT
BRANCH   1   2
ATOM      2  C   UNL A   1      34.783  21.644  26.711  1.00  0.00     0.021 C 
BRANCH   2   3
ATOM      3  C   UNL A   1      33.976  22.636  27.546  1.00  0.00     0.116 C 
BRANCH   3   4
ATOM      4  N   UNL A   1      32.558  22.358  27.383  1.00  0.00    -0.354 N 
ATOM      5  C   UNL A   1      31.564  23.168  26.914  1.00  0.00     0.254 C 
ATOM      6  O   UNL A   1      30.478  23.082  27.492  1.00  0.00    -0.272 OA
ATOM      7  H   UNL A   1      32.274  21.455  27.648  1.00  0.00     0.163 HD
BRANCH   5   8
ATOM      8  C   UNL A   1      31.812  24.167  25.750  1.00  0.00     0.212 C 
ATOM      9  C   UNL A   1      33.127  24.933  26.107  1.00  0.00     0.056 C 
BRANCH   8  10
ATOM     10  N   UNL A   1      30.750  25.099  25.782  1.00  0.00    -0.334 N 
ATOM     11  C   UNL A   1      31.225  26.308  25.476  1.00  0.00     0.233 C 
ATOM     12  O   UNL A   1      30.602  27.322  25.721  1.00  0.00    -0.274 OA
ATOM     13  H   UNL A   1      29.810  24.891  25.995  1.00  0.00     0.164 HD
BRANCH  11  14
ATOM     14  C   UNL A   1      32.469  26.103  24.609  1.00  0.00     0.103 C 
ATOM     15  C   UNL A   1      31.542  26.166  22.750  1.00  0.00     0.084 C 
ATOM     16  C   UNL A   1      33.798  24.495  24.627  1.00  0.00     0.277 C 
ATOM     17  C   UNL A   1      32.717  24.927  21.559  1.00  0.00     0.261 C 
ATOM     18  N   UNL A   1      34.166  24.164  22.687  1.00  0.00    -0.345 N 
ATOM     19  H   UNL A   1      35.053  24.599  22.434  1.00  0.00     0.346 HD
ATOM     20  H   UNL A   1      34.210  23.157  22.528  1.00  0.00     0.346 HD
BRANCH  14  21
ATOM     21  C   UNL A   1      33.282  27.443  24.985  1.00  0.00     0.023 C 
BRANCH  21  22
ATOM     22  C   UNL A   1      34.185  28.179  23.990  1.00  0.00    -0.002 C 
ATOM     23  C   UNL A   1      33.424  29.068  23.029  1.00  0.00     0.004 C 
ENDBRANCH  21  22
ENDBRANCH  14  21
ENDBRANCH  11  14
ENDBRANCH   8  10
BRANCH   8  24
ATOM     24  C   UNL A   1      31.873  23.031  24.405  1.00  0.00     0.420 C 
ATOM     25  F   UNL A   1      32.957  21.608  24.035  1.00  0.00    -0.168 F 
ATOM     26  F   UNL A   1      32.270  21.240  24.641  1.00  0.00    -0.168 F 
ATOM     27  F   UNL A   1      30.744  23.253  23.649  1.00  0.00    -0.168 F 
ENDBRANCH   8  24
ENDBRANCH   5   8
ENDBRANCH   3   4
ENDBRANCH   2   3
ENDBRANCH   1   2
BRANCH   1  28
ATOM     28  C   UNL A   1      36.352  21.553  24.666  1.00  0.00     0.002 C 
BRANCH  28  29
ATOM     29  C   UNL A   1      37.431  20.489  24.869  1.00  0.00     0.021 C 
BRANCH  29  30
ATOM     30  C   UNL A   1      38.671  20.986  25.601  1.00  0.00     0.116 C 
BRANCH  30  31
ATOM     31  N   UNL A   1      39.627  19.918  25.834  1.00  0.00    -0.352 N 
ATOM     32  C   UNL A   1      40.949  20.023  26.183  1.00  0.00     0.251 C 
ATOM     33  H   UNL A   1      39.282  19.001  25.728  1.00  0.00     0.163 HD
ATOM     34  O   UNL A   1      41.680  19.038  26.159  1.00  0.00    -0.269 OA
BRANCH  32  35
ATOM     35  C   UNL A   1      41.481  21.346  26.564  1.00  0.00     0.039 A 
ATOM     36  C   UNL A   1      41.956  22.198  25.566  1.00  0.00     0.014 A 
ATOM     37  C   UNL A   1      41.461  21.754  27.901  1.00  0.00     0.014 A 
ATOM     38  C   UNL A   1      42.364  23.489  25.905  1.00  0.00     0.010 A 
ATOM     39  C   UNL A   1      41.805  23.062  28.225  1.00  0.00     0.010 A 
ATOM     40  C   UNL A   1      42.263  23.939  27.232  1.00  0.00    -0.014 A 
BRANCH  40  41
ATOM     41  C   UNL A   1      42.611  25.335  27.597  1.00  0.00     0.031 A 
ATOM     42  C   UNL A   1      44.043  25.790  27.570  1.00  0.00     0.074 A 
ATOM     43  C   UNL A   1      41.646  26.159  28.051  1.00  0.00     0.049 A 
ATOM     44  N   UNL A   1      44.543  26.951  27.905  1.00  0.00    -0.248 NA
ATOM     45  C   UNL A   1      45.049  24.805  27.137  1.00  0.00     0.031 C 
ATOM     46  C   UNL A   1      40.235  25.800  28.215  1.00  0.00     0.029 A 
ATOM     47  N   UNL A   1      41.711  27.458  28.491  1.00  0.00    -0.354 N 
ATOM     48  C   UNL A   1      45.920  26.826  27.763  1.00  0.00     0.074 A 
ATOM     49  C   UNL A   1      46.180  25.469  27.334  1.00  0.00     0.031 C 
ATOM     50  C   UNL A   1      39.571  26.849  28.727  1.00  0.00     0.029 A 
ATOM     51  C   UNL A   1      40.508  27.946  28.947  1.00  0.00     0.049 A 
ATOM     52  H   UNL A   1      42.539  27.988  28.482  1.00  0.00     0.167 HD
ATOM     53  C   UNL A   1      46.877  27.765  27.942  1.00  0.00     0.034 A 
ATOM     54  C   UNL A   1      40.198  29.139  29.490  1.00  0.00     0.034 A 
ATOM     55  C   UNL A   1      46.607  29.128  28.310  1.00  0.00     0.049 A 
ATOM     56  C   UNL A   1      41.272  30.185  29.617  1.00  0.00     0.074 A 
ATOM     57  C   UNL A   1      47.494  30.186  28.395  1.00  0.00     0.029 A 
ATOM     58  N   UNL A   1      45.361  29.621  28.664  1.00  0.00    -0.354 N 
ATOM     59  N   UNL A   1      42.538  30.109  29.288  1.00  0.00    -0.248 NA
ATOM     60  C   UNL A   1      40.869  31.493  30.155  1.00  0.00     0.031 C 
ATOM     61  C   UNL A   1      46.786  31.315  28.820  1.00  0.00     0.029 A 
ATOM     62  C   UNL A   1      45.456  30.963  28.984  1.00  0.00     0.049 A 
ATOM     63  H   UNL A   1      44.530  29.092  28.684  1.00  0.00     0.167 HD
ATOM     64  C   UNL A   1      43.078  31.363  29.555  1.00  0.00     0.074 A 
ATOM     65  C   UNL A   1      41.993  32.187  30.044  1.00  0.00     0.031 C 
ATOM     66  C   UNL A   1      44.359  31.786  29.424  1.00  0.00     0.034 A 
BRANCH  53  67
ATOM     67  C   UNL A   1      48.306  27.372  27.681  1.00  0.00     0.023 A 
ATOM     68  C   UNL A   1      49.008  26.631  28.654  1.00  0.00     0.012 A 
ATOM     69  C   UNL A   1      48.926  27.664  26.451  1.00  0.00     0.148 A 
ATOM     70  C   UNL A   1      50.316  26.211  28.416  1.00  0.00     0.002 A 
ATOM     71  C   UNL A   1      50.215  27.207  26.206  1.00  0.00     0.091 A 
ATOM     72  F   UNL A   1      48.248  28.390  25.550  1.00  0.00    -0.205 F 
ATOM     73  C   UNL A   1      50.914  26.488  27.190  1.00  0.00     0.022 A 
BRANCH  71  74
ATOM     74  S   UNL A   1      51.047  27.448  24.633  1.00  0.00     0.127 S 
ATOM     75  O   UNL A   1      51.177  28.904  24.587  1.00  0.00    -0.237 OA
ATOM     76  O   UNL A   1      52.306  26.730  24.836  1.00  0.00    -0.237 OA
ATOM     77  O   UNL A   1      50.172  26.867  23.624  1.00  0.00    -0.744 OA
ENDBRANCH  71  74
ENDBRANCH  53  67
BRANCH  54  78
ATOM     78  C   UNL A   1      38.792  29.427  29.894  1.00  0.00     0.023 A 
ATOM     79  C   UNL A   1      38.352  29.056  31.179  1.00  0.00     0.012 A 
ATOM     80  C   UNL A   1      37.904  30.095  29.030  1.00  0.00     0.148 A 
ATOM     81  C   UNL A   1      37.043  29.319  31.585  1.00  0.00     0.002 A 
ATOM     82  C   UNL A   1      36.619  30.406  29.462  1.00  0.00     0.091 A 
ATOM     83  F   UNL A   1      38.335  30.427  27.805  1.00  0.00    -0.205 F 
ATOM     84  C   UNL A   1      36.180  30.003  30.733  1.00  0.00     0.022 A 
BRANCH  82  85
ATOM     85  S   UNL A   1      35.500  31.410  28.478  1.00  0.00     0.127 S 
ATOM     86  O   UNL A   1      36.378  32.484  28.024  1.00  0.00    -0.237 OA
ATOM     87  O   UNL A   1      35.081  30.471  27.435  1.00  0.00    -0.237 OA
ATOM     88  O   UNL A   1      34.430  31.799  29.388  1.00  0.00    -0.744 OA
ENDBRANCH  82  85
ENDBRANCH  54  78
BRANCH  66  89
ATOM     89  C   UNL A   1      44.666  33.210  29.805  1.00  0.00     0.023 A 
ATOM     90  C   UNL A   1      45.112  33.498  31.109  1.00  0.00     0.012 A 
ATOM     91  C   UNL A   1      44.590  34.245  28.853  1.00  0.00     0.148 A 
ATOM     92  C   UNL A   1      45.453  34.800  31.469  1.00  0.00     0.002 A 
ATOM     93  C   UNL A   1      44.975  35.533  29.206  1.00  0.00     0.091 A 
ATOM     94  F   UNL A   1      44.144  33.954  27.622  1.00  0.00    -0.205 F 
ATOM     95  C   UNL A   1      45.397  35.814  30.516  1.00  0.00     0.022 A 
BRANCH  93  96
ATOM     96  S   UNL A   1      45.023  36.881  28.020  1.00  0.00     0.127 S 
ATOM     97  O   UNL A   1      45.462  37.997  28.854  1.00  0.00    -0.237 OA
ATOM     98  O   UNL A   1      46.018  36.413  27.054  1.00  0.00    -0.237 OA
ATOM     99  O   UNL A   1      43.673  36.991  27.485  1.00  0.00    -0.744 OA
ENDBRANCH  93  96
ENDBRANCH  66  89
ENDBRANCH  40  41
ENDBRANCH  32  35
ENDBRANCH  30  31
ENDBRANCH  29  30
ENDBRANCH  28  29
ENDBRANCH   1  28
TORSDOF 21
ENDMDL
MODEL 2
REMARK VINA RESULT:     -10.6      1.757      7.611
REMARK SMILES CCC[C@@]1(C(=O)N[C@@](C)(C(=O)NCCCCCCNC(=O)c2ccc(-c3c4nc(c(-c5cccc(S(=O)(=O)[O-])c5F)c5ccc([nH]5)c(-c5cccc(S(=O)(=O)[O-])c5F)c5nc(c(-c6cccc(S(=O)(=O)[O-])c6F)c6ccc3[nH]6)C=C5)C=C4)cc2)C(F)(F)F)CC[NH2+]C1
REMARK SMILES IDX 15 1 14 2 13 3 12 4 10 5 11 6 8 8 9 9 7 10 5 11 6 12 4 14
REMARK SMILES IDX 89 15 92 16 90 17 91 18 3 21 2 22 1 23 85 24 86 25 87 26
REMARK SMILES IDX 88 27 16 28 17 29 18 30 19 31 20 32 21 34 22 35 23 36 84 37
REMARK SMILES IDX 24 38 83 39 25 40 26 41 27 42 77 43 28 44 82 45 76 46 78 47
REMARK SMILES IDX 29 48 81 49 75 50 74 51 30 53 62 54 42 55 61 56 43 57 46 58
REMARK SMILES IDX 60 59 79 60 44 61 45 62 59 64 80 65 47 66 31 67 32 68 40 69
REMARK SMILES IDX 33 70 35 71 41 72 34 73 36 74 37 75 38 76 39 77 63 78 64 79
REMARK SMILES IDX 72 80 65 81 67 82 73 83 66 84 68 85 69 86 70 87 71 88 48 89
REMARK SMILES IDX 49 90 57 91 50 92 52 93 58 94 51 95 53 96 54 97 55 98 56 99
REMARK H PARENT 12 7 7 13 91 19 91 20 19 33 78 52 46 63
REMARK Flexibility Score: inf
ROOT
ATOM      1  C   UNL A   1      36.908  21.758  25.438  1.00  0.00     0.002 C 
ENDROOT
BRANCH   1   2
ATOM      2  C   UNL A   1      35.563  21.441  26.103  1.00  0.00     0.021 C 
BRANCH   2   3
ATOM      3  C   UNL A   1      34.802  22.686  26.553  1.00  0.00     0.116 C 
BRANCH   3   4
ATOM      4  N   UNL A   1      33.419  22.329  26.825  1.00  0.00    -0.354 N 
ATOM      5  C   UNL A   1      32.315  23.129  26.901  1.00  0.00     0.254 C 
ATOM      6  O   UNL A   1      31.500  22.844  27.781  1.00  0.00    -0.272 OA
ATOM      7  H   UNL A   1      33.254  21.371  26.977  1.00  0.00     0.163 HD
BRANCH   5   8
ATOM      8  C   UNL A   1      32.131  24.349  25.957  1.00  0.00     0.212 C 
ATOM      9  C   UNL A   1      33.467  25.158  26.025  1.00  0.00     0.056 C 
BRANCH   8  10
ATOM     10  N   UNL A   1      31.114  25.151  26.524  1.00  0.00    -0.334 N 
ATOM     11  C   UNL A   1      31.419  26.436  26.334  1.00  0.00     0.233 C 
ATOM     12  O   UNL A   1      30.886  27.322  26.970  1.00  0.00    -0.274 OA
ATOM     13  H   UNL A   1      30.310  24.816  26.984  1.00  0.00     0.164 HD
BRANCH  11  14
ATOM     14  C   UNL A   1      32.301  26.515  25.086  1.00  0.00     0.103 C 
ATOM     15  C   UNL A   1      30.789  26.677  23.670  1.00  0.00     0.084 C 
ATOM     16  C   UNL A   1      33.693  25.120  24.405  1.00  0.00     0.277 C 
ATOM     17  C   UNL A   1      31.588  25.772  21.974  1.00  0.00     0.261 C 
ATOM     18  N   UNL A   1      33.398  25.085  22.424  1.00  0.00    -0.345 N 
ATOM     19  H   UNL A   1      34.101  25.669  21.969  1.00  0.00     0.346 HD
ATOM     20  H   UNL A   1      33.475  24.122  22.097  1.00  0.00     0.346 HD
BRANCH  14  21
ATOM     21  C   UNL A   1      33.071  27.900  25.389  1.00  0.00     0.023 C 
BRANCH  21  22
ATOM     22  C   UNL A   1      34.075  28.526  24.416  1.00  0.00    -0.002 C 
ATOM     23  C   UNL A   1      33.456  28.951  23.101  1.00  0.00     0.004 C 
ENDBRANCH  21  22
ENDBRANCH  14  21
ENDBRANCH  11  14
ENDBRANCH   8  10
BRANCH   8  24
ATOM     24  C   UNL A   1      31.772  23.499  24.456  1.00  0.00     0.420 C 
ATOM     25  F   UNL A   1      32.765  22.397  23.389  1.00  0.00    -0.168 F 
ATOM     26  F   UNL A   1      32.421  21.805  24.100  1.00  0.00    -0.168 F 
ATOM     27  F   UNL A   1      30.419  23.630  24.242  1.00  0.00    -0.168 F 
ENDBRANCH   8  24
ENDBRANCH   5   8
ENDBRANCH   3   4
ENDBRANCH   2   3
ENDBRANCH   1   2
BRANCH   1  28
ATOM     28  C   UNL A   1      37.371  20.721  24.410  1.00  0.00     0.002 C 
BRANCH  28  29
ATOM     29  C   UNL A   1      38.222  19.587  24.985  1.00  0.00     0.021 C 
BRANCH  29  30
ATOM     30  C   UNL A   1      39.280  20.043  25.981  1.00  0.00     0.116 C 
BRANCH  30  31
ATOM     31  N   UNL A   1      40.449  19.181  25.962  1.00  0.00    -0.352 N 
ATOM     32  C   UNL A   1      41.770  19.540  26.051  1.00  0.00     0.251 C 
ATOM     33  H   UNL A   1      40.271  18.217  25.873  1.00  0.00     0.163 HD
ATOM     34  O   UNL A   1      42.655  18.720  25.830  1.00  0.00    -0.269 OA
BRANCH  32  35
ATOM     35  C   UNL A   1      42.106  20.935  26.395  1.00  0.00     0.039 A 
ATOM     36  C   UNL A   1      42.360  21.262  27.728  1.00  0.00     0.014 A 
ATOM     37  C   UNL A   1      42.216  21.902  25.390  1.00  0.00     0.014 A 
ATOM     38  C   UNL A   1      42.779  22.554  28.049  1.00  0.00     0.010 A 
ATOM     39  C   UNL A   1      42.697  23.168  25.704  1.00  0.00     0.010 A 
ATOM     40  C   UNL A   1      42.980  23.506  27.036  1.00  0.00    -0.014 A 
BRANCH  40  41
ATOM     41  C   UNL A   1      43.506  24.858  27.346  1.00  0.00     0.031 A 
ATOM     42  C   UNL A   1      42.587  25.929  27.863  1.00  0.00     0.074 A 
ATOM     43  C   UNL A   1      44.792  25.147  27.065  1.00  0.00     0.049 A 
ATOM     44  N   UNL A   1      42.853  27.179  28.139  1.00  0.00    -0.248 NA
ATOM     45  C   UNL A   1      41.177  25.556  28.071  1.00  0.00     0.031 C 
ATOM     46  C   UNL A   1      45.757  24.219  26.470  1.00  0.00     0.029 A 
ATOM     47  N   UNL A   1      45.501  26.314  27.209  1.00  0.00    -0.354 N 
ATOM     48  C   UNL A   1      41.644  27.751  28.514  1.00  0.00     0.074 A 
ATOM     49  C   UNL A   1      40.636  26.719  28.406  1.00  0.00     0.031 C 
ATOM     50  C   UNL A   1      46.927  24.855  26.292  1.00  0.00     0.029 A 
ATOM     51  C   UNL A   1      46.792  26.237  26.739  1.00  0.00     0.049 A 
ATOM     52  H   UNL A   1      45.121  27.128  27.610  1.00  0.00     0.167 HD
ATOM     53  C   UNL A   1      41.401  29.012  28.938  1.00  0.00     0.034 A 
ATOM     54  C   UNL A   1      47.754  27.177  26.669  1.00  0.00     0.034 A 
ATOM     55  C   UNL A   1      42.417  30.016  29.100  1.00  0.00     0.049 A 
ATOM     56  C   UNL A   1      47.473  28.552  27.208  1.00  0.00     0.074 A 
ATOM     57  C   UNL A   1      42.293  31.283  29.642  1.00  0.00     0.029 A 
ATOM     58  N   UNL A   1      43.740  29.873  28.714  1.00  0.00    -0.354 N 
ATOM     59  N   UNL A   1      46.370  29.017  27.744  1.00  0.00    -0.248 NA
ATOM     60  C   UNL A   1      48.577  29.524  27.168  1.00  0.00     0.031 C 
ATOM     61  C   UNL A   1      43.540  31.913  29.564  1.00  0.00     0.029 A 
ATOM     62  C   UNL A   1      44.442  31.033  28.989  1.00  0.00     0.049 A 
ATOM     63  H   UNL A   1      44.124  29.064  28.304  1.00  0.00     0.167 HD
ATOM     64  C   UNL A   1      46.654  30.324  28.127  1.00  0.00     0.074 A 
ATOM     65  C   UNL A   1      48.041  30.566  27.788  1.00  0.00     0.031 C 
ATOM     66  C   UNL A   1      45.835  31.245  28.691  1.00  0.00     0.034 A 
BRANCH  53  67
ATOM     67  C   UNL A   1      39.989  29.366  29.322  1.00  0.00     0.023 A 
ATOM     68  C   UNL A   1      39.043  29.631  28.311  1.00  0.00     0.012 A 
ATOM     69  C   UNL A   1      39.580  29.359  30.669  1.00  0.00     0.148 A 
ATOM     70  C   UNL A   1      37.716  29.911  28.636  1.00  0.00     0.002 A 
ATOM     71  C   UNL A   1      38.247  29.599  30.983  1.00  0.00     0.091 A 
ATOM     72  F   UNL A   1      40.500  29.128  31.616  1.00  0.00    -0.205 F 
ATOM     73  C   UNL A   1      37.317  29.884  29.970  1.00  0.00     0.022 A 
BRANCH  71  74
ATOM     74  S   UNL A   1      37.617  29.515  32.663  1.00  0.00     0.127 S 
ATOM     75  O   UNL A   1      38.613  30.299  33.392  1.00  0.00    -0.237 OA
ATOM     76  O   UNL A   1      36.309  30.159  32.534  1.00  0.00    -0.237 OA
ATOM     77  O   UNL A   1      37.566  28.099  33.002  1.00  0.00    -0.744 OA
ENDBRANCH  71  74
ENDBRANCH  53  67
BRANCH  54  78
ATOM     78  C   UNL A   1      49.095  26.825  26.120  1.00  0.00     0.023 A 
ATOM     79  C   UNL A   1      49.975  26.043  26.893  1.00  0.00     0.012 A 
ATOM     80  C   UNL A   1      49.488  27.228  24.829  1.00  0.00     0.148 A 
ATOM     81  C   UNL A   1      51.233  25.693  26.401  1.00  0.00     0.002 A 
ATOM     82  C   UNL A   1      50.719  26.827  24.323  1.00  0.00     0.091 A 
ATOM     83  F   UNL A   1      48.644  27.985  24.114  1.00  0.00    -0.205 F 
ATOM     84  C   UNL A   1      51.602  26.075  25.114  1.00  0.00     0.022 A 
BRANCH  82  85
ATOM     85  S   UNL A   1      51.203  27.155  22.624  1.00  0.00     0.127 S 
ATOM     86  O   UNL A   1      50.036  26.690  21.882  1.00  0.00    -0.237 OA
ATOM     87  O   UNL A   1      51.391  28.608  22.634  1.00  0.00    -0.237 OA
ATOM     88  O   UNL A   1      52.434  26.401  22.421  1.00  0.00    -0.744 OA
ENDBRANCH  82  85
ENDBRANCH  54  78
BRANCH  66  89
ATOM     89  C   UNL A   1      46.412  32.602  28.990  1.00  0.00     0.023 A 
ATOM     90  C   UNL A   1      46.961  32.858  30.262  1.00  0.00     0.012 A 
ATOM     91  C   UNL A   1      46.484  33.593  27.992  1.00  0.00     0.148 A 
ATOM     92  C   UNL A   1      47.549  34.090  30.544  1.00  0.00     0.002 A 
ATOM     93  C   UNL A   1      47.112  34.801  28.266  1.00  0.00     0.091 A 
ATOM     94  F   UNL A   1      45.939  33.337  26.793  1.00  0.00    -0.205 F 
ATOM     95  C   UNL A   1      47.636  35.056  29.544  1.00  0.00     0.022 A 
BRANCH  93  96
ATOM     96  S   UNL A   1      47.352  36.066  27.014  1.00  0.00     0.127 S 
ATOM     97  O   UNL A   1      47.329  37.288  27.815  1.00  0.00    -0.237 OA
ATOM     98  O   UNL A   1      48.665  35.720  26.467  1.00  0.00    -0.237 OA
ATOM     99  O   UNL A   1      46.251  35.912  26.073  1.00  0.00    -0.744 OA
ENDBRANCH  93  96
ENDBRANCH  66  89
ENDBRANCH  40  41
ENDBRANCH  32  35
ENDBRANCH  30  31
ENDBRANCH  29  30
ENDBRANCH  28  29
ENDBRANCH   1  28
TORSDOF 21
ENDMDL
MODEL 3
REMARK VINA RESULT:     -10.6      2.413      3.490
REMARK SMILES CCC[C@@]1(C(=O)N[C@@](C)(C(=O)NCCCCCCNC(=O)c2ccc(-c3c4nc(c(-c5cccc(S(=O)(=O)[O-])c5F)c5ccc([nH]5)c(-c5cccc(S(=O)(=O)[O-])c5F)c5nc(c(-c6cccc(S(=O)(=O)[O-])c6F)c6ccc3[nH]6)C=C5)C=C4)cc2)C(F)(F)F)CC[NH2+]C1
REMARK SMILES IDX 15 1 14 2 13 3 12 4 10 5 11 6 8 8 9 9 7 10 5 11 6 12 4 14
REMARK SMILES IDX 89 15 92 16 90 17 91 18 3 21 2 22 1 23 85 24 86 25 87 26
REMARK SMILES IDX 88 27 16 28 17 29 18 30 19 31 20 32 21 34 22 35 23 36 84 37
REMARK SMILES IDX 24 38 83 39 25 40 26 41 27 42 77 43 28 44 82 45 76 46 78 47
REMARK SMILES IDX 29 48 81 49 75 50 74 51 30 53 62 54 42 55 61 56 43 57 46 58
REMARK SMILES IDX 60 59 79 60 44 61 45 62 59 64 80 65 47 66 31 67 32 68 40 69
REMARK SMILES IDX 33 70 35 71 41 72 34 73 36 74 37 75 38 76 39 77 63 78 64 79
REMARK SMILES IDX 72 80 65 81 67 82 73 83 66 84 68 85 69 86 70 87 71 88 48 89
REMARK SMILES IDX 49 90 57 91 50 92 52 93 58 94 51 95 53 96 54 97 55 98 56 99
REMARK H PARENT 12 7 7 13 91 19 91 20 19 33 78 52 46 63
REMARK Flexibility Score: inf
ROOT
ATOM      1  C   UNL A   1      34.252  20.636  24.671  1.00  0.00     0.002 C 
ENDROOT
BRANCH   1   2
ATOM      2  C   UNL A   1      32.742  20.824  24.861  1.00  0.00     0.021 C 
BRANCH   2   3
ATOM      3  C   UNL A   1      32.089  21.645  23.751  1.00  0.00     0.116 C 
BRANCH   3   4
ATOM      4  N   UNL A   1      33.125  22.267  22.943  1.00  0.00    -0.354 N 
ATOM      5  C   UNL A   1      33.233  23.559  22.514  1.00  0.00     0.254 C 
ATOM      6  O   UNL A   1      33.664  23.716  21.369  1.00  0.00    -0.272 OA
ATOM      7  H   UNL A   1      33.856  21.670  22.664  1.00  0.00     0.163 HD
BRANCH   5   8
ATOM      8  C   UNL A   1      32.793  24.750  23.410  1.00  0.00     0.212 C 
ATOM      9  C   UNL A   1      34.050  25.669  23.561  1.00  0.00     0.056 C 
BRANCH   8  10
ATOM     10  N   UNL A   1      32.499  24.212  24.684  1.00  0.00    -0.334 N 
ATOM     11  C   UNL A   1      32.922  25.062  25.621  1.00  0.00     0.233 C 
ATOM     12  O   UNL A   1      33.067  24.721  26.778  1.00  0.00    -0.274 OA
ATOM     13  H   UNL A   1      32.052  23.350  24.853  1.00  0.00     0.164 HD
BRANCH  11  14
ATOM     14  C   UNL A   1      32.920  26.462  25.002  1.00  0.00     0.103 C 
ATOM     15  C   UNL A   1      30.919  26.919  25.320  1.00  0.00     0.084 C 
ATOM     16  C   UNL A   1      33.417  27.004  23.051  1.00  0.00     0.277 C 
ATOM     17  C   UNL A   1      30.433  28.183  23.740  1.00  0.00     0.261 C 
ATOM     18  N   UNL A   1      32.031  28.370  22.572  1.00  0.00    -0.345 N 
ATOM     19  H   UNL A   1      32.425  29.304  22.689  1.00  0.00     0.346 HD
ATOM     20  H   UNL A   1      31.749  28.225  21.602  1.00  0.00     0.346 HD
BRANCH  14  21
ATOM     21  C   UNL A   1      33.934  27.204  26.013  1.00  0.00     0.023 C 
BRANCH  21  22
ATOM     22  C   UNL A   1      33.481  28.265  27.020  1.00  0.00    -0.002 C 
ATOM     23  C   UNL A   1      33.375  29.654  26.425  1.00  0.00     0.004 C 
ENDBRANCH  21  22
ENDBRANCH  14  21
ENDBRANCH  11  14
ENDBRANCH   8  10
BRANCH   8  24
ATOM     24  C   UNL A   1      31.454  25.358  22.441  1.00  0.00     0.420 C 
ATOM     25  F   UNL A   1      31.384  26.392  20.936  1.00  0.00    -0.168 F 
ATOM     26  F   UNL A   1      31.541  25.478  20.598  1.00  0.00    -0.168 F 
ATOM     27  F   UNL A   1      30.317  24.735  22.902  1.00  0.00    -0.168 F 
ENDBRANCH   8  24
ENDBRANCH   5   8
ENDBRANCH   3   4
ENDBRANCH   2   3
ENDBRANCH   1   2
BRANCH   1  28
ATOM     28  C   UNL A   1      35.121  21.437  25.645  1.00  0.00     0.002 C 
BRANCH  28  29
ATOM     29  C   UNL A   1      35.766  22.688  25.045  1.00  0.00     0.021 C 
BRANCH  29  30
ATOM     30  C   UNL A   1      36.834  23.325  25.924  1.00  0.00     0.116 C 
BRANCH  30  31
ATOM     31  N   UNL A   1      37.988  22.457  26.089  1.00  0.00    -0.352 N 
ATOM     32  C   UNL A   1      39.262  22.801  26.461  1.00  0.00     0.251 C 
ATOM     33  H   UNL A   1      37.835  21.501  25.911  1.00  0.00     0.163 HD
ATOM     34  O   UNL A   1      40.177  21.989  26.374  1.00  0.00    -0.269 OA
BRANCH  32  35
ATOM     35  C   UNL A   1      39.517  24.172  26.944  1.00  0.00     0.039 A 
ATOM     36  C   UNL A   1      39.277  24.473  28.286  1.00  0.00     0.014 A 
ATOM     37  C   UNL A   1      40.037  25.139  26.078  1.00  0.00     0.014 A 
ATOM     38  C   UNL A   1      39.612  25.736  28.775  1.00  0.00     0.010 A 
ATOM     39  C   UNL A   1      40.430  26.373  26.583  1.00  0.00     0.010 A 
ATOM     40  C   UNL A   1      40.219  26.684  27.934  1.00  0.00    -0.014 A 
BRANCH  40  41
ATOM     41  C   UNL A   1      40.660  28.001  28.456  1.00  0.00     0.031 A 
ATOM     42  C   UNL A   1      42.124  28.293  28.635  1.00  0.00     0.074 A 
ATOM     43  C   UNL A   1      39.736  28.894  28.862  1.00  0.00     0.049 A 
ATOM     44  N   UNL A   1      42.695  29.362  29.124  1.00  0.00    -0.248 NA
ATOM     45  C   UNL A   1      43.069  27.234  28.239  1.00  0.00     0.031 C 
ATOM     46  C   UNL A   1      38.287  28.686  28.829  1.00  0.00     0.029 A 
ATOM     47  N   UNL A   1      39.880  30.142  29.416  1.00  0.00    -0.354 N 
ATOM     48  C   UNL A   1      44.058  29.093  29.133  1.00  0.00     0.074 A 
ATOM     49  C   UNL A   1      44.229  27.750  28.624  1.00  0.00     0.031 C 
ATOM     50  C   UNL A   1      37.676  29.764  29.348  1.00  0.00     0.029 A 
ATOM     51  C   UNL A   1      38.686  30.729  29.769  1.00  0.00     0.049 A 
ATOM     52  H   UNL A   1      40.753  30.575  29.549  1.00  0.00     0.167 HD
ATOM     53  C   UNL A   1      45.077  29.903  29.503  1.00  0.00     0.034 A 
ATOM     54  C   UNL A   1      38.435  31.907  30.371  1.00  0.00     0.034 A 
ATOM     55  C   UNL A   1      44.906  31.258  29.951  1.00  0.00     0.049 A 
ATOM     56  C   UNL A   1      39.587  32.813  30.712  1.00  0.00     0.074 A 
ATOM     57  C   UNL A   1      45.880  32.200  30.229  1.00  0.00     0.029 A 
ATOM     58  N   UNL A   1      43.683  31.861  30.198  1.00  0.00    -0.354 N 
ATOM     59  N   UNL A   1      40.870  32.618  30.528  1.00  0.00    -0.248 NA
ATOM     60  C   UNL A   1      39.257  34.116  31.309  1.00  0.00     0.031 C 
ATOM     61  C   UNL A   1      45.244  33.368  30.663  1.00  0.00     0.029 A 
ATOM     62  C   UNL A   1      43.875  33.158  30.640  1.00  0.00     0.049 A 
ATOM     63  H   UNL A   1      42.806  31.430  30.076  1.00  0.00     0.167 HD
ATOM     64  C   UNL A   1      41.498  33.781  30.961  1.00  0.00     0.074 A 
ATOM     65  C   UNL A   1      40.452  34.685  31.390  1.00  0.00     0.031 C 
ATOM     66  C   UNL A   1      42.823  34.065  31.017  1.00  0.00     0.034 A 
BRANCH  53  67
ATOM     67  C   UNL A   1      46.479  29.371  29.378  1.00  0.00     0.023 A 
ATOM     68  C   UNL A   1      47.043  28.648  30.449  1.00  0.00     0.012 A 
ATOM     69  C   UNL A   1      47.207  29.515  28.181  1.00  0.00     0.148 A 
ATOM     70  C   UNL A   1      48.321  28.101  30.340  1.00  0.00     0.002 A 
ATOM     71  C   UNL A   1      48.463  28.932  28.066  1.00  0.00     0.091 A 
ATOM     72  F   UNL A   1      46.661  30.226  27.183  1.00  0.00    -0.205 F 
ATOM     73  C   UNL A   1      49.025  28.233  29.147  1.00  0.00     0.022 A 
BRANCH  71  74
ATOM     74  S   UNL A   1      49.419  28.982  26.546  1.00  0.00     0.127 S 
ATOM     75  O   UNL A   1      48.456  28.468  25.573  1.00  0.00    -0.237 OA
ATOM     76  O   UNL A   1      49.714  30.410  26.415  1.00  0.00    -0.237 OA
ATOM     77  O   UNL A   1      50.584  28.140  26.778  1.00  0.00    -0.744 OA
ENDBRANCH  71  74
ENDBRANCH  53  67
BRANCH  54  78
ATOM     78  C   UNL A   1      37.027  32.322  30.632  1.00  0.00     0.023 A 
ATOM     79  C   UNL A   1      36.490  32.175  31.925  1.00  0.00     0.012 A 
ATOM     80  C   UNL A   1      36.232  32.891  29.618  1.00  0.00     0.148 A 
ATOM     81  C   UNL A   1      35.177  32.562  32.198  1.00  0.00     0.002 A 
ATOM     82  C   UNL A   1      34.945  33.328  29.911  1.00  0.00     0.091 A 
ATOM     83  F   UNL A   1      36.754  33.009  28.389  1.00  0.00    -0.205 F 
ATOM     84  C   UNL A   1      34.408  33.147  31.196  1.00  0.00     0.022 A 
BRANCH  82  85
ATOM     85  S   UNL A   1      33.946  34.221  28.714  1.00  0.00     0.127 S 
ATOM     86  O   UNL A   1      32.824  34.669  29.532  1.00  0.00    -0.237 OA
ATOM     87  O   UNL A   1      34.859  35.283  28.284  1.00  0.00    -0.237 OA
ATOM     88  O   UNL A   1      33.633  33.252  27.672  1.00  0.00    -0.744 OA
ENDBRANCH  82  85
ENDBRANCH  54  78
BRANCH  66  89
ATOM     89  C   UNL A   1      43.225  35.414  31.552  1.00  0.00     0.023 A 
ATOM     90  C   UNL A   1      43.403  35.586  32.938  1.00  0.00     0.012 A 
ATOM     91  C   UNL A   1      43.504  36.484  30.679  1.00  0.00     0.148 A 
ATOM     92  C   UNL A   1      43.827  36.810  33.451  1.00  0.00     0.002 A 
ATOM     93  C   UNL A   1      43.970  37.687  31.193  1.00  0.00     0.091 A 
ATOM     94  F   UNL A   1      43.310  36.305  29.364  1.00  0.00    -0.205 F 
ATOM     95  C   UNL A   1      44.122  37.856  32.579  1.00  0.00     0.022 A 
BRANCH  93  96
ATOM     96  S   UNL A   1      44.463  39.056  30.140  1.00  0.00     0.127 S 
ATOM     97  O   UNL A   1      43.386  40.016  30.375  1.00  0.00    -0.237 OA
ATOM     98  O   UNL A   1      45.756  39.438  30.708  1.00  0.00    -0.237 OA
ATOM     99  O   UNL A   1      44.536  38.515  28.789  1.00  0.00    -0.744 OA
ENDBRANCH  93  96
ENDBRANCH  66  89
ENDBRANCH  40  41
ENDBRANCH  32  35
ENDBRANCH  30  31
ENDBRANCH  29  30
ENDBRANCH  28  29
ENDBRANCH   1  28
TORSDOF 21
ENDMDL
