MODEL 1
REMARK VINA RESULT:     -10.9      0.000      0.000
REMARK SMILES CCSc1nc(CC(=O)N[C@@H](C(=O)NCCCCCCNC(=O)c2ccc(-c3c4nc(c(-c5cccc(S(=O)(=O)[O-])c5F)c5ccc([nH]5)c(-c5cccc(S(=O)(=O)[O-])c5F)c5nc(c(-c6cccc(S(=O)(=O)[O-])c6F)c6ccc3[nH]6)C=C5)C=C4)cc2)C2=C(C)N=N[C@@H]2C)cs1
REMARK SMILES IDX 16 1 15 2 14 3 12 4 13 5 11 7 10 8 8 9 9 10 7 12 6 13 4 14
REMARK SMILES IDX 5 15 95 16 94 17 3 18 2 19 1 20 87 21 88 22 92 23 89 24
REMARK SMILES IDX 90 25 91 26 93 27 17 28 18 29 19 30 20 31 21 32 22 33 23 35
REMARK SMILES IDX 24 36 25 37 86 38 26 39 85 40 27 41 28 42 29 43 79 44 30 45
REMARK SMILES IDX 84 46 78 47 80 48 31 49 83 50 77 51 76 52 32 54 64 55 44 56
REMARK SMILES IDX 63 57 45 58 48 59 62 60 81 61 46 62 47 63 61 65 82 66 49 67
REMARK SMILES IDX 33 68 34 69 42 70 35 71 37 72 43 73 36 74 38 75 39 76 40 77
REMARK SMILES IDX 41 78 65 79 66 80 74 81 67 82 69 83 75 84 68 85 70 86 71 87
REMARK SMILES IDX 72 88 73 89 50 90 51 91 59 92 52 93 54 94 60 95 53 96 55 97
REMARK SMILES IDX 56 98 57 99 58 100
REMARK H PARENT 14 6 10 11 21 34 80 53 48 64
REMARK Flexibility Score: inf
ROOT
ATOM      1  C   UNL A   1      32.709  28.621  26.415  1.00  0.00     0.021 C 
ENDROOT
BRANCH   1   2
ATOM      2  C   UNL A   1      32.250  27.171  26.414  1.00  0.00     0.116 C 
BRANCH   2   3
ATOM      3  N   UNL A   1      33.257  26.226  25.990  1.00  0.00    -0.354 N 
ATOM      4  C   UNL A   1      33.541  25.786  24.725  1.00  0.00     0.247 C 
ATOM      5  O   UNL A   1      34.731  25.505  24.531  1.00  0.00    -0.272 OA
ATOM      6  H   UNL A   1      33.816  25.849  26.707  1.00  0.00     0.163 HD
BRANCH   4   7
ATOM      7  C   UNL A   1      32.468  25.687  23.561  1.00  0.00     0.202 C 
BRANCH   7   8
ATOM      8  N   UNL A   1      32.965  25.067  22.336  1.00  0.00    -0.340 N 
ATOM      9  C   UNL A   1      32.933  23.762  21.934  1.00  0.00     0.226 C 
ATOM     10  O   UNL A   1      33.579  23.473  20.922  1.00  0.00    -0.275 OA
ATOM     11  H   UNL A   1      33.391  25.686  21.701  1.00  0.00     0.164 HD
BRANCH   9  12
ATOM     12  C   UNL A   1      32.135  22.702  22.675  1.00  0.00     0.157 C 
BRANCH  12  13
ATOM     13  C   UNL A   1      32.893  21.946  23.720  1.00  0.00     0.062 A 
ATOM     14  C   UNL A   1      34.652  21.678  25.052  1.00  0.00     0.150 A 
ATOM     15  N   UNL A   1      34.202  22.328  24.001  1.00  0.00    -0.234 NA
ATOM     16  S   UNL A   1      33.581  20.521  25.718  1.00  0.00    -0.116 S 
ATOM     17  C   UNL A   1      32.413  20.930  24.528  1.00  0.00     0.092 A 
BRANCH  14  18
ATOM     18  S   UNL A   1      36.198  22.088  25.758  1.00  0.00    -0.096 SA
BRANCH  18  19
ATOM     19  C   UNL A   1      37.364  21.192  24.697  1.00  0.00     0.074 C 
ATOM     20  C   UNL A   1      37.319  19.690  24.923  1.00  0.00     0.016 C 
ENDBRANCH  18  19
ENDBRANCH  14  18
ENDBRANCH  12  13
ENDBRANCH   9  12
ENDBRANCH   7   8
BRANCH   7  21
ATOM     21  C   UNL A   1      31.924  27.038  23.159  1.00  0.00     0.011 C 
ATOM     22  C   UNL A   1      32.565  28.187  22.899  1.00  0.00     0.064 C 
ATOM     23  C   UNL A   1      30.485  27.346  22.867  1.00  0.00     0.156 C 
ATOM     24  C   UNL A   1      34.015  28.509  22.979  1.00  0.00     0.069 C 
ATOM     25  N   UNL A   1      31.720  29.189  22.490  1.00  0.00    -0.160 NA
ATOM     26  N   UNL A   1      30.535  28.772  22.439  1.00  0.00    -0.181 NA
ATOM     27  C   UNL A   1      29.546  27.257  24.063  1.00  0.00     0.040 C 
ENDBRANCH   7  21
ENDBRANCH   4   7
ENDBRANCH   2   3
ENDBRANCH   1   2
BRANCH   1  28
ATOM     28  C   UNL A   1      31.643  29.624  26.854  1.00  0.00     0.002 C 
BRANCH  28  29
ATOM     29  C   UNL A   1      31.412  30.800  25.897  1.00  0.00     0.002 C 
BRANCH  29  30
ATOM     30  C   UNL A   1      31.336  32.184  26.549  1.00  0.00     0.021 C 
BRANCH  30  31
ATOM     31  C   UNL A   1      32.644  32.692  27.144  1.00  0.00     0.116 C 
BRANCH  31  32
ATOM     32  N   UNL A   1      32.519  34.040  27.675  1.00  0.00    -0.352 N 
ATOM     33  C   UNL A   1      33.181  34.637  28.718  1.00  0.00     0.251 C 
ATOM     34  H   UNL A   1      31.860  34.609  27.216  1.00  0.00     0.163 HD
ATOM     35  O   UNL A   1      32.798  35.725  29.137  1.00  0.00    -0.269 OA
BRANCH  33  36
ATOM     36  C   UNL A   1      34.341  33.966  29.344  1.00  0.00     0.039 A 
ATOM     37  C   UNL A   1      35.628  34.417  29.033  1.00  0.00     0.014 A 
ATOM     38  C   UNL A   1      34.168  32.888  30.216  1.00  0.00     0.014 A 
ATOM     39  C   UNL A   1      36.735  33.816  29.635  1.00  0.00     0.010 A 
ATOM     40  C   UNL A   1      35.268  32.343  30.874  1.00  0.00     0.010 A 
ATOM     41  C   UNL A   1      36.564  32.794  30.582  1.00  0.00    -0.014 A 
BRANCH  41  42
ATOM     42  C   UNL A   1      37.727  32.190  31.281  1.00  0.00     0.031 A 
ATOM     43  C   UNL A   1      38.482  31.047  30.653  1.00  0.00     0.074 A 
ATOM     44  C   UNL A   1      38.056  32.616  32.517  1.00  0.00     0.049 A 
ATOM     45  N   UNL A   1      39.487  30.362  31.133  1.00  0.00    -0.248 NA
ATOM     46  C   UNL A   1      38.032  30.598  29.325  1.00  0.00     0.031 C 
ATOM     47  C   UNL A   1      37.353  33.661  33.265  1.00  0.00     0.029 A 
ATOM     48  N   UNL A   1      39.046  32.204  33.373  1.00  0.00    -0.354 N 
ATOM     49  C   UNL A   1      39.766  29.382  30.189  1.00  0.00     0.074 A 
ATOM     50  C   UNL A   1      38.803  29.538  29.121  1.00  0.00     0.031 C 
ATOM     51  C   UNL A   1      37.935  33.810  34.465  1.00  0.00     0.029 A 
ATOM     52  C   UNL A   1      39.029  32.851  34.587  1.00  0.00     0.049 A 
ATOM     53  H   UNL A   1      39.707  31.512  33.142  1.00  0.00     0.167 HD
ATOM     54  C   UNL A   1      40.749  28.451  30.195  1.00  0.00     0.034 A 
ATOM     55  C   UNL A   1      39.798  32.685  35.681  1.00  0.00     0.034 A 
ATOM     56  C   UNL A   1      41.731  28.324  31.239  1.00  0.00     0.049 A 
ATOM     57  C   UNL A   1      40.909  31.670  35.646  1.00  0.00     0.074 A 
ATOM     58  C   UNL A   1      42.823  27.476  31.293  1.00  0.00     0.029 A 
ATOM     59  N   UNL A   1      41.733  29.056  32.416  1.00  0.00    -0.354 N 
ATOM     60  N   UNL A   1      41.257  30.862  34.674  1.00  0.00    -0.248 NA
ATOM     61  C   UNL A   1      41.756  31.569  36.842  1.00  0.00     0.031 C 
ATOM     62  C   UNL A   1      43.467  27.673  32.518  1.00  0.00     0.029 A 
ATOM     63  C   UNL A   1      42.799  28.670  33.210  1.00  0.00     0.049 A 
ATOM     64  H   UNL A   1      41.075  29.747  32.652  1.00  0.00     0.167 HD
ATOM     65  C   UNL A   1      42.383  30.185  35.126  1.00  0.00     0.074 A 
ATOM     66  C   UNL A   1      42.672  30.693  36.451  1.00  0.00     0.031 C 
ATOM     67  C   UNL A   1      43.106  29.220  34.506  1.00  0.00     0.034 A 
BRANCH  54  68
ATOM     68  C   UNL A   1      40.846  27.518  29.015  1.00  0.00     0.023 A 
ATOM     69  C   UNL A   1      39.971  26.417  28.921  1.00  0.00     0.012 A 
ATOM     70  C   UNL A   1      41.753  27.771  27.968  1.00  0.00     0.148 A 
ATOM     71  C   UNL A   1      40.020  25.561  27.820  1.00  0.00     0.002 A 
ATOM     72  C   UNL A   1      41.763  26.941  26.852  1.00  0.00     0.091 A 
ATOM     73  F   UNL A   1      42.591  28.811  28.083  1.00  0.00    -0.205 F 
ATOM     74  C   UNL A   1      40.907  25.830  26.782  1.00  0.00     0.022 A 
BRANCH  72  75
ATOM     75  S   UNL A   1      42.809  27.248  25.424  1.00  0.00     0.127 S 
ATOM     76  O   UNL A   1      44.109  27.478  26.055  1.00  0.00    -0.237 OA
ATOM     77  O   UNL A   1      42.702  25.989  24.688  1.00  0.00    -0.237 OA
ATOM     78  O   UNL A   1      42.235  28.401  24.744  1.00  0.00    -0.744 OA
ENDBRANCH  72  75
ENDBRANCH  54  68
BRANCH  55  79
ATOM     79  C   UNL A   1      39.578  33.534  36.886  1.00  0.00     0.023 A 
ATOM     80  C   UNL A   1      40.077  34.851  36.909  1.00  0.00     0.012 A 
ATOM     81  C   UNL A   1      38.861  33.052  37.997  1.00  0.00     0.148 A 
ATOM     82  C   UNL A   1      39.900  35.659  38.032  1.00  0.00     0.002 A 
ATOM     83  C   UNL A   1      38.639  33.881  39.090  1.00  0.00     0.091 A 
ATOM     84  F   UNL A   1      38.403  31.793  37.960  1.00  0.00    -0.205 F 
ATOM     85  C   UNL A   1      39.173  35.179  39.118  1.00  0.00     0.022 A 
BRANCH  83  86
ATOM     86  S   UNL A   1      37.601  33.393  40.472  1.00  0.00     0.127 S 
ATOM     87  O   UNL A   1      38.435  32.394  41.134  1.00  0.00    -0.237 OA
ATOM     88  O   UNL A   1      37.454  34.655  41.199  1.00  0.00    -0.237 OA
ATOM     89  O   UNL A   1      36.366  32.896  39.879  1.00  0.00    -0.744 OA
ENDBRANCH  83  86
ENDBRANCH  55  79
BRANCH  67  90
ATOM     90  C   UNL A   1      44.311  28.673  35.227  1.00  0.00     0.023 A 
ATOM     91  C   UNL A   1      45.589  29.205  34.969  1.00  0.00     0.012 A 
ATOM     92  C   UNL A   1      44.162  27.681  36.217  1.00  0.00     0.148 A 
ATOM     93  C   UNL A   1      46.705  28.733  35.659  1.00  0.00     0.002 A 
ATOM     94  C   UNL A   1      45.269  27.253  36.937  1.00  0.00     0.091 A 
ATOM     95  F   UNL A   1      42.938  27.176  36.435  1.00  0.00    -0.205 F 
ATOM     96  C   UNL A   1      46.544  27.768  36.650  1.00  0.00     0.022 A 
BRANCH  94  97
ATOM     97  S   UNL A   1      45.143  26.089  38.299  1.00  0.00     0.127 S 
ATOM     98  O   UNL A   1      46.530  26.012  38.754  1.00  0.00    -0.237 OA
ATOM     99  O   UNL A   1      44.237  26.781  39.215  1.00  0.00    -0.237 OA
ATOM    100  O   UNL A   1      44.604  24.861  37.729  1.00  0.00    -0.744 OA
ENDBRANCH  94  97
ENDBRANCH  67  90
ENDBRANCH  41  42
ENDBRANCH  33  36
ENDBRANCH  31  32
ENDBRANCH  30  31
ENDBRANCH  29  30
ENDBRANCH  28  29
ENDBRANCH   1  28
TORSDOF 22
ENDMDL
MODEL 2
REMARK VINA RESULT:     -10.7      1.774      3.388
REMARK SMILES CCSc1nc(CC(=O)N[C@@H](C(=O)NCCCCCCNC(=O)c2ccc(-c3c4nc(c(-c5cccc(S(=O)(=O)[O-])c5F)c5ccc([nH]5)c(-c5cccc(S(=O)(=O)[O-])c5F)c5nc(c(-c6cccc(S(=O)(=O)[O-])c6F)c6ccc3[nH]6)C=C5)C=C4)cc2)C2=C(C)N=N[C@@H]2C)cs1
REMARK SMILES IDX 16 1 15 2 14 3 12 4 13 5 11 7 10 8 8 9 9 10 7 12 6 13 4 14
REMARK SMILES IDX 5 15 95 16 94 17 3 18 2 19 1 20 87 21 88 22 92 23 89 24
REMARK SMILES IDX 90 25 91 26 93 27 17 28 18 29 19 30 20 31 21 32 22 33 23 35
REMARK SMILES IDX 24 36 25 37 86 38 26 39 85 40 27 41 28 42 29 43 79 44 30 45
REMARK SMILES IDX 84 46 78 47 80 48 31 49 83 50 77 51 76 52 32 54 64 55 44 56
REMARK SMILES IDX 63 57 45 58 48 59 62 60 81 61 46 62 47 63 61 65 82 66 49 67
REMARK SMILES IDX 33 68 34 69 42 70 35 71 37 72 43 73 36 74 38 75 39 76 40 77
REMARK SMILES IDX 41 78 65 79 66 80 74 81 67 82 69 83 75 84 68 85 70 86 71 87
REMARK SMILES IDX 72 88 73 89 50 90 51 91 59 92 52 93 54 94 60 95 53 96 55 97
REMARK SMILES IDX 56 98 57 99 58 100
REMARK H PARENT 14 6 10 11 21 34 80 53 48 64
REMARK Flexibility Score: inf
ROOT
ATOM      1  C   UNL A   1      33.814  29.132  26.963  1.00  0.00     0.021 C 
ENDROOT
BRANCH   1   2
ATOM      2  C   UNL A   1      33.684  27.695  26.481  1.00  0.00     0.116 C 
BRANCH   2   3
ATOM      3  N   UNL A   1      32.348  27.154  26.572  1.00  0.00    -0.354 N 
ATOM      4  C   UNL A   1      31.917  25.883  26.301  1.00  0.00     0.247 C 
ATOM      5  O   UNL A   1      30.960  25.504  26.990  1.00  0.00    -0.272 OA
ATOM      6  H   UNL A   1      31.652  27.784  26.870  1.00  0.00     0.163 HD
BRANCH   4   7
ATOM      7  C   UNL A   1      32.602  24.924  25.241  1.00  0.00     0.202 C 
BRANCH   7   8
ATOM      8  N   UNL A   1      31.664  24.117  24.465  1.00  0.00    -0.340 N 
ATOM      9  C   UNL A   1      31.438  24.081  23.118  1.00  0.00     0.226 C 
ATOM     10  O   UNL A   1      30.464  23.428  22.733  1.00  0.00    -0.275 OA
ATOM     11  H   UNL A   1      31.107  23.504  24.996  1.00  0.00     0.164 HD
BRANCH   9  12
ATOM     12  C   UNL A   1      32.340  24.792  22.123  1.00  0.00     0.157 C 
BRANCH  12  13
ATOM     13  C   UNL A   1      32.399  26.279  22.264  1.00  0.00     0.062 A 
ATOM     14  C   UNL A   1      31.510  28.225  22.868  1.00  0.00     0.150 A 
ATOM     15  N   UNL A   1      31.240  26.961  22.623  1.00  0.00    -0.234 NA
ATOM     16  S   UNL A   1      33.135  28.694  22.609  1.00  0.00    -0.116 S 
ATOM     17  C   UNL A   1      33.520  27.084  22.155  1.00  0.00     0.092 A 
BRANCH  14  18
ATOM     18  S   UNL A   1      30.287  29.286  23.528  1.00  0.00    -0.096 SA
BRANCH  18  19
ATOM     19  C   UNL A   1      29.613  30.078  22.043  1.00  0.00     0.074 C 
ATOM     20  C   UNL A   1      28.117  29.858  21.895  1.00  0.00     0.016 C 
ENDBRANCH  18  19
ENDBRANCH  14  18
ENDBRANCH  12  13
ENDBRANCH   9  12
ENDBRANCH   7   8
BRANCH   7  21
ATOM     21  C   UNL A   1      33.567  23.951  25.878  1.00  0.00     0.011 C 
ATOM     22  C   UNL A   1      34.767  23.522  25.457  1.00  0.00     0.064 C 
ATOM     23  C   UNL A   1      33.400  23.313  27.224  1.00  0.00     0.156 C 
ATOM     24  C   UNL A   1      35.502  23.827  24.201  1.00  0.00     0.069 C 
ATOM     25  N   UNL A   1      35.380  22.685  26.357  1.00  0.00    -0.160 NA
ATOM     26  N   UNL A   1      34.664  22.539  27.380  1.00  0.00    -0.181 NA
ATOM     27  C   UNL A   1      32.242  22.331  27.338  1.00  0.00     0.040 C 
ENDBRANCH   7  21
ENDBRANCH   4   7
ENDBRANCH   2   3
ENDBRANCH   1   2
BRANCH   1  28
ATOM     28  C   UNL A   1      32.984  30.144  26.174  1.00  0.00     0.002 C 
BRANCH  28  29
ATOM     29  C   UNL A   1      31.729  30.663  26.887  1.00  0.00     0.002 C 
BRANCH  29  30
ATOM     30  C   UNL A   1      31.538  32.183  26.874  1.00  0.00     0.021 C 
BRANCH  30  31
ATOM     31  C   UNL A   1      32.819  32.998  27.004  1.00  0.00     0.116 C 
BRANCH  31  32
ATOM     32  N   UNL A   1      32.590  34.281  27.649  1.00  0.00    -0.352 N 
ATOM     33  C   UNL A   1      33.150  34.804  28.788  1.00  0.00     0.251 C 
ATOM     34  H   UNL A   1      31.935  34.863  27.200  1.00  0.00     0.163 HD
ATOM     35  O   UNL A   1      32.685  35.827  29.279  1.00  0.00    -0.269 OA
BRANCH  33  36
ATOM     36  C   UNL A   1      34.300  34.127  29.429  1.00  0.00     0.039 A 
ATOM     37  C   UNL A   1      35.594  34.490  29.044  1.00  0.00     0.014 A 
ATOM     38  C   UNL A   1      34.107  33.129  30.387  1.00  0.00     0.014 A 
ATOM     39  C   UNL A   1      36.693  33.884  29.657  1.00  0.00     0.010 A 
ATOM     40  C   UNL A   1      35.202  32.583  31.051  1.00  0.00     0.010 A 
ATOM     41  C   UNL A   1      36.507  32.948  30.686  1.00  0.00    -0.014 A 
BRANCH  41  42
ATOM     42  C   UNL A   1      37.665  32.343  31.394  1.00  0.00     0.031 A 
ATOM     43  C   UNL A   1      38.431  31.207  30.768  1.00  0.00     0.074 A 
ATOM     44  C   UNL A   1      37.977  32.762  32.636  1.00  0.00     0.049 A 
ATOM     45  N   UNL A   1      39.433  30.523  31.255  1.00  0.00    -0.248 NA
ATOM     46  C   UNL A   1      37.998  30.764  29.432  1.00  0.00     0.031 C 
ATOM     47  C   UNL A   1      37.262  33.800  33.383  1.00  0.00     0.029 A 
ATOM     48  N   UNL A   1      38.960  32.349  33.501  1.00  0.00    -0.354 N 
ATOM     49  C   UNL A   1      39.726  29.549  30.308  1.00  0.00     0.074 A 
ATOM     50  C   UNL A   1      38.774  29.709  29.230  1.00  0.00     0.031 C 
ATOM     51  C   UNL A   1      37.830  33.944  34.591  1.00  0.00     0.029 A 
ATOM     52  C   UNL A   1      38.926  32.989  34.719  1.00  0.00     0.049 A 
ATOM     53  H   UNL A   1      39.625  31.661  33.274  1.00  0.00     0.167 HD
ATOM     54  C   UNL A   1      40.712  28.622  30.320  1.00  0.00     0.034 A 
ATOM     55  C   UNL A   1      39.683  32.817  35.820  1.00  0.00     0.034 A 
ATOM     56  C   UNL A   1      41.683  28.493  31.374  1.00  0.00     0.049 A 
ATOM     57  C   UNL A   1      40.798  31.807  35.792  1.00  0.00     0.074 A 
ATOM     58  C   UNL A   1      42.777  27.648  31.435  1.00  0.00     0.029 A 
ATOM     59  N   UNL A   1      41.669  29.217  32.555  1.00  0.00    -0.354 N 
ATOM     60  N   UNL A   1      41.160  31.007  34.819  1.00  0.00    -0.248 NA
ATOM     61  C   UNL A   1      41.632  31.702  36.997  1.00  0.00     0.031 C 
ATOM     62  C   UNL A   1      43.407  27.840  32.669  1.00  0.00     0.029 A 
ATOM     63  C   UNL A   1      42.727  28.830  33.359  1.00  0.00     0.049 A 
ATOM     64  H   UNL A   1      41.005  29.904  32.788  1.00  0.00     0.167 HD
ATOM     65  C   UNL A   1      42.284  30.331  35.280  1.00  0.00     0.074 A 
ATOM     66  C   UNL A   1      42.556  30.831  36.611  1.00  0.00     0.031 C 
ATOM     67  C   UNL A   1      43.018  29.373  34.662  1.00  0.00     0.034 A 
BRANCH  54  68
ATOM     68  C   UNL A   1      40.826  27.697  29.135  1.00  0.00     0.023 A 
ATOM     69  C   UNL A   1      40.017  26.545  29.068  1.00  0.00     0.012 A 
ATOM     70  C   UNL A   1      41.681  28.005  28.058  1.00  0.00     0.148 A 
ATOM     71  C   UNL A   1      40.081  25.694  27.964  1.00  0.00     0.002 A 
ATOM     72  C   UNL A   1      41.704  27.178  26.941  1.00  0.00     0.091 A 
ATOM     73  F   UNL A   1      42.457  29.094  28.148  1.00  0.00    -0.205 F 
ATOM     74  C   UNL A   1      40.915  26.017  26.898  1.00  0.00     0.022 A 
BRANCH  72  75
ATOM     75  S   UNL A   1      42.681  27.548  25.479  1.00  0.00     0.127 S 
ATOM     76  O   UNL A   1      42.422  26.374  24.647  1.00  0.00    -0.237 OA
ATOM     77  O   UNL A   1      42.061  28.784  25.001  1.00  0.00    -0.237 OA
ATOM     78  O   UNL A   1      44.055  27.695  25.939  1.00  0.00    -0.744 OA
ENDBRANCH  72  75
ENDBRANCH  54  68
BRANCH  55  79
ATOM     79  C   UNL A   1      39.446  33.659  37.028  1.00  0.00     0.023 A 
ATOM     80  C   UNL A   1      39.865  35.004  37.032  1.00  0.00     0.012 A 
ATOM     81  C   UNL A   1      38.792  33.140  38.162  1.00  0.00     0.148 A 
ATOM     82  C   UNL A   1      39.671  35.806  38.157  1.00  0.00     0.002 A 
ATOM     83  C   UNL A   1      38.551  33.960  39.257  1.00  0.00     0.091 A 
ATOM     84  F   UNL A   1      38.411  31.856  38.143  1.00  0.00    -0.205 F 
ATOM     85  C   UNL A   1      39.006  35.288  39.265  1.00  0.00     0.022 A 
BRANCH  83  86
ATOM     86  S   UNL A   1      37.584  33.417  40.670  1.00  0.00     0.127 S 
ATOM     87  O   UNL A   1      37.435  34.657  41.425  1.00  0.00    -0.237 OA
ATOM     88  O   UNL A   1      36.360  32.933  40.030  1.00  0.00    -0.237 OA
ATOM     89  O   UNL A   1      38.376  32.376  41.311  1.00  0.00    -0.744 OA
ENDBRANCH  83  86
ENDBRANCH  55  79
BRANCH  67  90
ATOM     90  C   UNL A   1      44.216  28.826  35.394  1.00  0.00     0.023 A 
ATOM     91  C   UNL A   1      45.484  29.409  35.205  1.00  0.00     0.012 A 
ATOM     92  C   UNL A   1      44.068  27.779  36.325  1.00  0.00     0.148 A 
ATOM     93  C   UNL A   1      46.592  28.936  35.906  1.00  0.00     0.002 A 
ATOM     94  C   UNL A   1      45.165  27.348  37.059  1.00  0.00     0.091 A 
ATOM     95  F   UNL A   1      42.855  27.226  36.477  1.00  0.00    -0.205 F 
ATOM     96  C   UNL A   1      46.431  27.916  36.841  1.00  0.00     0.022 A 
BRANCH  94  97
ATOM     97  S   UNL A   1      45.034  26.111  38.354  1.00  0.00     0.127 S 
ATOM     98  O   UNL A   1      46.428  25.961  38.765  1.00  0.00    -0.237 OA
ATOM     99  O   UNL A   1      44.177  26.778  39.334  1.00  0.00    -0.237 OA
ATOM    100  O   UNL A   1      44.438  24.937  37.730  1.00  0.00    -0.744 OA
ENDBRANCH  94  97
ENDBRANCH  67  90
ENDBRANCH  41  42
ENDBRANCH  33  36
ENDBRANCH  31  32
ENDBRANCH  30  31
ENDBRANCH  29  30
ENDBRANCH  28  29
ENDBRANCH   1  28
TORSDOF 22
ENDMDL
MODEL 3
REMARK VINA RESULT:     -10.3      2.315      8.347
REMARK SMILES CCSc1nc(CC(=O)N[C@@H](C(=O)NCCCCCCNC(=O)c2ccc(-c3c4nc(c(-c5cccc(S(=O)(=O)[O-])c5F)c5ccc([nH]5)c(-c5cccc(S(=O)(=O)[O-])c5F)c5nc(c(-c6cccc(S(=O)(=O)[O-])c6F)c6ccc3[nH]6)C=C5)C=C4)cc2)C2=C(C)N=N[C@@H]2C)cs1
REMARK SMILES IDX 16 1 15 2 14 3 12 4 13 5 11 7 10 8 8 9 9 10 7 12 6 13 4 14
REMARK SMILES IDX 5 15 95 16 94 17 3 18 2 19 1 20 87 21 88 22 92 23 89 24
REMARK SMILES IDX 90 25 91 26 93 27 17 28 18 29 19 30 20 31 21 32 22 33 23 35
REMARK SMILES IDX 24 36 25 37 86 38 26 39 85 40 27 41 28 42 29 43 79 44 30 45
REMARK SMILES IDX 84 46 78 47 80 48 31 49 83 50 77 51 76 52 32 54 64 55 44 56
REMARK SMILES IDX 63 57 45 58 48 59 62 60 81 61 46 62 47 63 61 65 82 66 49 67
REMARK SMILES IDX 33 68 34 69 42 70 35 71 37 72 43 73 36 74 38 75 39 76 40 77
REMARK SMILES IDX 41 78 65 79 66 80 74 81 67 82 69 83 75 84 68 85 70 86 71 87
REMARK SMILES IDX 72 88 73 89 50 90 51 91 59 92 52 93 54 94 60 95 53 96 55 97
REMARK SMILES IDX 56 98 57 99 58 100
REMARK H PARENT 14 6 10 11 21 34 80 53 48 64
REMARK Flexibility Score: inf
ROOT
ATOM      1  C   UNL A   1      32.374  26.583  26.612  1.00  0.00     0.021 C 
ENDROOT
BRANCH   1   2
ATOM      2  C   UNL A   1      33.201  25.411  26.106  1.00  0.00     0.116 C 
BRANCH   2   3
ATOM      3  N   UNL A   1      32.683  24.113  26.472  1.00  0.00    -0.354 N 
ATOM      4  C   UNL A   1      33.079  22.877  26.035  1.00  0.00     0.247 C 
ATOM      5  O   UNL A   1      32.954  21.970  26.869  1.00  0.00    -0.272 OA
ATOM      6  H   UNL A   1      31.946  24.117  27.124  1.00  0.00     0.163 HD
BRANCH   4   7
ATOM      7  C   UNL A   1      33.707  22.604  24.605  1.00  0.00     0.202 C 
BRANCH   7   8
ATOM      8  N   UNL A   1      32.826  21.883  23.690  1.00  0.00    -0.340 N 
ATOM      9  C   UNL A   1      32.431  22.194  22.420  1.00  0.00     0.226 C 
ATOM     10  O   UNL A   1      31.541  21.496  21.925  1.00  0.00    -0.275 OA
ATOM     11  H   UNL A   1      32.461  21.040  24.043  1.00  0.00     0.164 HD
BRANCH   9  12
ATOM     12  C   UNL A   1      33.052  23.335  21.631  1.00  0.00     0.157 C 
BRANCH  12  13
ATOM     13  C   UNL A   1      32.584  24.704  22.011  1.00  0.00     0.062 A 
ATOM     14  C   UNL A   1      31.162  26.072  23.034  1.00  0.00     0.150 A 
ATOM     15  N   UNL A   1      31.337  24.837  22.616  1.00  0.00    -0.234 NA
ATOM     16  S   UNL A   1      32.428  27.162  22.663  1.00  0.00    -0.116 S 
ATOM     17  C   UNL A   1      33.292  25.888  21.904  1.00  0.00     0.092 A 
BRANCH  14  18
ATOM     18  S   UNL A   1      29.771  26.496  24.004  1.00  0.00    -0.096 SA
BRANCH  18  19
ATOM     19  C   UNL A   1      29.123  27.954  23.144  1.00  0.00     0.074 C 
ATOM     20  C   UNL A   1      29.885  29.221  23.492  1.00  0.00     0.016 C 
ENDBRANCH  18  19
ENDBRANCH  14  18
ENDBRANCH  12  13
ENDBRANCH   9  12
ENDBRANCH   7   8
BRANCH   7  21
ATOM     21  C   UNL A   1      34.986  21.803  24.678  1.00  0.00     0.011 C 
ATOM     22  C   UNL A   1      36.223  22.106  24.253  1.00  0.00     0.064 C 
ATOM     23  C   UNL A   1      35.147  20.477  25.360  1.00  0.00     0.156 C 
ATOM     24  C   UNL A   1      36.713  23.307  23.525  1.00  0.00     0.069 C 
ATOM     25  N   UNL A   1      37.147  21.141  24.568  1.00  0.00    -0.160 NA
ATOM     26  N   UNL A   1      36.604  20.203  25.204  1.00  0.00    -0.181 NA
ATOM     27  C   UNL A   1      34.390  19.321  24.720  1.00  0.00     0.040 C 
ENDBRANCH   7  21
ENDBRANCH   4   7
ENDBRANCH   2   3
ENDBRANCH   1   2
BRANCH   1  28
ATOM     28  C   UNL A   1      33.190  27.811  27.011  1.00  0.00     0.002 C 
BRANCH  28  29
ATOM     29  C   UNL A   1      33.799  28.604  25.848  1.00  0.00     0.002 C 
BRANCH  29  30
ATOM     30  C   UNL A   1      33.157  29.965  25.563  1.00  0.00     0.021 C 
BRANCH  30  31
ATOM     31  C   UNL A   1      32.263  30.505  26.673  1.00  0.00     0.116 C 
BRANCH  31  32
ATOM     32  N   UNL A   1      32.363  31.950  26.804  1.00  0.00    -0.352 N 
ATOM     33  C   UNL A   1      33.259  32.705  27.518  1.00  0.00     0.251 C 
ATOM     34  H   UNL A   1      31.687  32.462  26.306  1.00  0.00     0.163 HD
ATOM     35  O   UNL A   1      33.063  33.908  27.659  1.00  0.00    -0.269 OA
BRANCH  33  36
ATOM     36  C   UNL A   1      34.449  32.070  28.127  1.00  0.00     0.039 A 
ATOM     37  C   UNL A   1      35.660  32.767  28.124  1.00  0.00     0.014 A 
ATOM     38  C   UNL A   1      34.379  30.789  28.680  1.00  0.00     0.014 A 
ATOM     39  C   UNL A   1      36.788  32.198  28.719  1.00  0.00     0.010 A 
ATOM     40  C   UNL A   1      35.483  30.257  29.342  1.00  0.00     0.010 A 
ATOM     41  C   UNL A   1      36.702  30.951  29.359  1.00  0.00    -0.014 A 
BRANCH  41  42
ATOM     42  C   UNL A   1      37.875  30.361  30.054  1.00  0.00     0.031 A 
ATOM     43  C   UNL A   1      38.198  30.757  31.470  1.00  0.00     0.074 A 
ATOM     44  C   UNL A   1      38.695  29.528  29.383  1.00  0.00     0.049 A 
ATOM     45  N   UNL A   1      39.205  30.388  32.219  1.00  0.00    -0.248 NA
ATOM     46  C   UNL A   1      37.289  31.714  32.122  1.00  0.00     0.031 C 
ATOM     47  C   UNL A   1      38.534  29.129  27.982  1.00  0.00     0.029 A 
ATOM     48  N   UNL A   1      39.844  28.889  29.779  1.00  0.00    -0.354 N 
ATOM     49  C   UNL A   1      39.073  31.090  33.410  1.00  0.00     0.074 A 
ATOM     50  C   UNL A   1      37.906  31.935  33.274  1.00  0.00     0.031 C 
ATOM     51  C   UNL A   1      39.543  28.313  27.638  1.00  0.00     0.029 A 
ATOM     52  C   UNL A   1      40.440  28.156  28.778  1.00  0.00     0.049 A 
ATOM     53  H   UNL A   1      40.207  28.949  30.691  1.00  0.00     0.167 HD
ATOM     54  C   UNL A   1      39.837  31.023  34.526  1.00  0.00     0.034 A 
ATOM     55  C   UNL A   1      41.586  27.448  28.775  1.00  0.00     0.034 A 
ATOM     56  C   UNL A   1      40.971  30.151  34.673  1.00  0.00     0.049 A 
ATOM     57  C   UNL A   1      42.394  27.357  30.040  1.00  0.00     0.074 A 
ATOM     58  C   UNL A   1      41.753  29.939  35.795  1.00  0.00     0.029 A 
ATOM     59  N   UNL A   1      41.496  29.358  33.665  1.00  0.00    -0.354 N 
ATOM     60  N   UNL A   1      42.160  27.903  31.209  1.00  0.00    -0.248 NA
ATOM     61  C   UNL A   1      43.603  26.523  30.000  1.00  0.00     0.031 C 
ATOM     62  C   UNL A   1      42.769  29.041  35.456  1.00  0.00     0.029 A 
ATOM     63  C   UNL A   1      42.599  28.665  34.133  1.00  0.00     0.049 A 
ATOM     64  H   UNL A   1      41.137  29.296  32.751  1.00  0.00     0.167 HD
ATOM     65  C   UNL A   1      43.169  27.451  32.051  1.00  0.00     0.074 A 
ATOM     66  C   UNL A   1      44.005  26.568  31.264  1.00  0.00     0.031 C 
ATOM     67  C   UNL A   1      43.392  27.749  33.354  1.00  0.00     0.034 A 
BRANCH  54  68
ATOM     68  C   UNL A   1      39.446  31.881  35.702  1.00  0.00     0.023 A 
ATOM     69  C   UNL A   1      39.901  33.213  35.775  1.00  0.00     0.012 A 
ATOM     70  C   UNL A   1      38.575  31.393  36.695  1.00  0.00     0.148 A 
ATOM     71  C   UNL A   1      39.524  34.037  36.836  1.00  0.00     0.002 A 
ATOM     72  C   UNL A   1      38.165  32.234  37.724  1.00  0.00     0.091 A 
ATOM     73  F   UNL A   1      38.168  30.118  36.619  1.00  0.00    -0.205 F 
ATOM     74  C   UNL A   1      38.648  33.550  37.803  1.00  0.00     0.022 A 
BRANCH  72  75
ATOM     75  S   UNL A   1      36.975  31.731  38.972  1.00  0.00     0.127 S 
ATOM     76  O   UNL A   1      36.628  30.383  38.522  1.00  0.00    -0.237 OA
ATOM     77  O   UNL A   1      37.774  31.780  40.196  1.00  0.00    -0.237 OA
ATOM     78  O   UNL A   1      35.893  32.704  38.912  1.00  0.00    -0.744 OA
ENDBRANCH  72  75
ENDBRANCH  54  68
BRANCH  55  79
ATOM     79  C   UNL A   1      42.012  26.724  27.543  1.00  0.00     0.023 A 
ATOM     80  C   UNL A   1      42.658  27.430  26.509  1.00  0.00     0.012 A 
ATOM     81  C   UNL A   1      41.800  25.339  27.400  1.00  0.00     0.148 A 
ATOM     82  C   UNL A   1      43.050  26.778  25.340  1.00  0.00     0.002 A 
ATOM     83  C   UNL A   1      42.244  24.685  26.257  1.00  0.00     0.091 A 
ATOM     84  F   UNL A   1      41.175  24.687  28.390  1.00  0.00    -0.205 F 
ATOM     85  C   UNL A   1      42.852  25.406  25.217  1.00  0.00     0.022 A 
BRANCH  83  86
ATOM     86  S   UNL A   1      42.152  22.901  26.074  1.00  0.00     0.127 S 
ATOM     87  O   UNL A   1      40.711  22.680  26.013  1.00  0.00    -0.237 OA
ATOM     88  O   UNL A   1      42.863  22.691  24.811  1.00  0.00    -0.237 OA
ATOM     89  O   UNL A   1      42.830  22.351  27.241  1.00  0.00    -0.744 OA
ENDBRANCH  83  86
ENDBRANCH  55  79
BRANCH  67  90
ATOM     90  C   UNL A   1      44.561  27.085  34.035  1.00  0.00     0.023 A 
ATOM     91  C   UNL A   1      45.813  27.728  34.072  1.00  0.00     0.012 A 
ATOM     92  C   UNL A   1      44.395  25.855  34.702  1.00  0.00     0.148 A 
ATOM     93  C   UNL A   1      46.892  27.141  34.733  1.00  0.00     0.002 A 
ATOM     94  C   UNL A   1      45.458  25.301  35.403  1.00  0.00     0.091 A 
ATOM     95  F   UNL A   1      43.199  25.251  34.640  1.00  0.00    -0.205 F 
ATOM     96  C   UNL A   1      46.711  25.936  35.408  1.00  0.00     0.022 A 
BRANCH  94  97
ATOM     97  S   UNL A   1      45.293  23.806  36.384  1.00  0.00     0.127 S 
ATOM     98  O   UNL A   1      46.690  23.434  36.597  1.00  0.00    -0.237 OA
ATOM     99  O   UNL A   1      44.602  24.293  37.577  1.00  0.00    -0.237 OA
ATOM    100  O   UNL A   1      44.517  22.877  35.572  1.00  0.00    -0.744 OA
ENDBRANCH  94  97
ENDBRANCH  67  90
ENDBRANCH  41  42
ENDBRANCH  33  36
ENDBRANCH  31  32
ENDBRANCH  30  31
ENDBRANCH  29  30
ENDBRANCH  28  29
ENDBRANCH   1  28
TORSDOF 22
ENDMDL
