MODEL 1
REMARK VINA RESULT:     -12.3      0.000      0.000
REMARK SMILES O=C(NCCCCCCNC(=O)[C@H]1CS[C@H](c2nc3ccccc3s2)[NH2+]1)c1ccc(-c2c3nc(c(-c4cccc(S(=O)(=O)[O-])c4F)c4ccc([nH]4)c(-c4cccc(S(=O)(=O)[O-])c4F)c4nc(c(-c5cccc(S(=O)(=O)[O-])c5F)c5ccc2[nH]5)C=C4)C=C3)cc1
REMARK SMILES IDX 5 1 4 2 3 3 1 4 2 5 27 7 28 8 89 9 29 10 88 11 30 12 31 13
REMARK SMILES IDX 32 14 82 15 33 16 87 17 81 18 83 19 34 20 86 21 80 22 79 23
REMARK SMILES IDX 35 25 67 26 47 27 66 28 48 29 51 30 65 31 84 32 49 33 50 34
REMARK SMILES IDX 64 36 85 37 52 38 36 39 37 40 45 41 38 42 40 43 46 44 39 45
REMARK SMILES IDX 41 46 42 47 43 48 44 49 68 50 69 51 77 52 70 53 72 54 78 55
REMARK SMILES IDX 71 56 73 57 74 58 75 59 76 60 53 61 54 62 62 63 55 64 57 65
REMARK SMILES IDX 63 66 56 67 58 68 59 69 60 70 61 71 6 72 7 73 8 74 9 75
REMARK SMILES IDX 10 76 11 77 12 79 13 80 14 81 26 82 15 83 16 84 17 87 18 88
REMARK SMILES IDX 25 89 19 90 24 91 20 92 23 93 21 94 22 95
REMARK H PARENT 3 6 83 24 51 35 10 78 26 85 26 86
REMARK Flexibility Score: inf
ROOT
ATOM      1  C   UNL A   1      35.657  22.074  24.838  1.00  0.00     0.021 C 
ENDROOT
BRANCH   1   2
ATOM      2  C   UNL A   1      36.906  22.538  25.576  1.00  0.00     0.116 C 
BRANCH   2   3
ATOM      3  N   UNL A   1      37.814  21.442  25.863  1.00  0.00    -0.352 N 
ATOM      4  O   UNL A   1      39.796  20.465  26.292  1.00  0.00    -0.269 OA
ATOM      5  C   UNL A   1      39.123  21.492  26.275  1.00  0.00     0.251 C 
ATOM      6  H   UNL A   1      37.439  20.539  25.748  1.00  0.00     0.163 HD
BRANCH   5   7
ATOM      7  C   UNL A   1      39.716  22.787  26.673  1.00  0.00     0.039 A 
ATOM      8  C   UNL A   1      40.617  22.861  27.739  1.00  0.00     0.014 A 
ATOM      9  C   UNL A   1      39.372  23.942  25.964  1.00  0.00     0.014 A 
ATOM     10  C   UNL A   1      41.074  24.100  28.174  1.00  0.00     0.010 A 
ATOM     11  C   UNL A   1      39.897  25.177  26.352  1.00  0.00     0.010 A 
ATOM     12  C   UNL A   1      40.733  25.270  27.476  1.00  0.00    -0.014 A 
BRANCH  12  13
ATOM     13  C   UNL A   1      41.336  26.564  27.887  1.00  0.00     0.031 A 
ATOM     14  C   UNL A   1      42.760  26.908  27.552  1.00  0.00     0.074 A 
ATOM     15  C   UNL A   1      40.571  27.436  28.574  1.00  0.00     0.049 A 
ATOM     16  N   UNL A   1      43.424  28.003  27.818  1.00  0.00    -0.248 NA
ATOM     17  C   UNL A   1      43.546  25.893  26.831  1.00  0.00     0.031 C 
ATOM     18  C   UNL A   1      39.190  27.189  28.997  1.00  0.00     0.029 A 
ATOM     19  N   UNL A   1      40.839  28.696  29.040  1.00  0.00    -0.354 N 
ATOM     20  C   UNL A   1      44.709  27.804  27.328  1.00  0.00     0.074 A 
ATOM     21  C   UNL A   1      44.738  26.474  26.758  1.00  0.00     0.031 C 
ATOM     22  C   UNL A   1      38.724  28.270  29.638  1.00  0.00     0.029 A 
ATOM     23  C   UNL A   1      39.785  29.267  29.714  1.00  0.00     0.049 A 
ATOM     24  H   UNL A   1      41.703  29.150  28.905  1.00  0.00     0.167 HD
ATOM     25  C   UNL A   1      45.760  28.659  27.336  1.00  0.00     0.034 A 
ATOM     26  C   UNL A   1      39.684  30.456  30.338  1.00  0.00     0.034 A 
ATOM     27  C   UNL A   1      45.715  29.990  27.881  1.00  0.00     0.049 A 
ATOM     28  C   UNL A   1      40.860  31.389  30.310  1.00  0.00     0.074 A 
ATOM     29  C   UNL A   1      46.714  30.949  27.897  1.00  0.00     0.029 A 
ATOM     30  N   UNL A   1      44.614  30.554  28.509  1.00  0.00    -0.354 N 
ATOM     31  N   UNL A   1      42.026  31.227  29.732  1.00  0.00    -0.248 NA
ATOM     32  C   UNL A   1      40.698  32.680  30.992  1.00  0.00     0.031 C 
ATOM     33  C   UNL A   1      46.220  32.087  28.545  1.00  0.00     0.029 A 
ATOM     34  C   UNL A   1      44.908  31.844  28.918  1.00  0.00     0.049 A 
ATOM     35  H   UNL A   1      43.750  30.102  28.643  1.00  0.00     0.167 HD
ATOM     36  C   UNL A   1      42.729  32.403  29.961  1.00  0.00     0.074 A 
ATOM     37  C   UNL A   1      41.845  33.280  30.703  1.00  0.00     0.031 C 
ATOM     38  C   UNL A   1      43.999  32.721  29.611  1.00  0.00     0.034 A 
BRANCH  25  39
ATOM     39  C   UNL A   1      47.043  28.202  26.688  1.00  0.00     0.023 A 
ATOM     40  C   UNL A   1      48.098  27.741  27.500  1.00  0.00     0.012 A 
ATOM     41  C   UNL A   1      47.179  28.157  25.287  1.00  0.00     0.148 A 
ATOM     42  C   UNL A   1      49.279  27.264  26.929  1.00  0.00     0.002 A 
ATOM     43  C   UNL A   1      48.346  27.646  24.724  1.00  0.00     0.091 A 
ATOM     44  F   UNL A   1      46.174  28.619  24.530  1.00  0.00    -0.205 F 
ATOM     45  C   UNL A   1      49.398  27.208  25.544  1.00  0.00     0.022 A 
BRANCH  43  46
ATOM     46  S   UNL A   1      48.567  27.464  22.950  1.00  0.00     0.127 S 
ATOM     47  O   UNL A   1      49.908  28.016  22.764  1.00  0.00    -0.237 OA
ATOM     48  O   UNL A   1      48.476  26.014  22.774  1.00  0.00    -0.237 OA
ATOM     49  O   UNL A   1      47.487  28.219  22.332  1.00  0.00    -0.744 OA
ENDBRANCH  43  46
ENDBRANCH  25  39
BRANCH  26  50
ATOM     50  C   UNL A   1      38.404  30.841  30.993  1.00  0.00     0.023 A 
ATOM     51  C   UNL A   1      38.229  30.603  32.369  1.00  0.00     0.012 A 
ATOM     52  C   UNL A   1      37.379  31.486  30.272  1.00  0.00     0.148 A 
ATOM     53  C   UNL A   1      37.048  30.977  33.011  1.00  0.00     0.002 A 
ATOM     54  C   UNL A   1      36.230  31.909  30.929  1.00  0.00     0.091 A 
ATOM     55  F   UNL A   1      37.554  31.687  28.957  1.00  0.00    -0.205 F 
ATOM     56  C   UNL A   1      36.055  31.642  32.296  1.00  0.00     0.022 A 
BRANCH  54  57
ATOM     57  S   UNL A   1      34.979  32.902  30.107  1.00  0.00     0.127 S 
ATOM     58  O   UNL A   1      34.082  33.227  31.211  1.00  0.00    -0.237 OA
ATOM     59  O   UNL A   1      35.764  34.028  29.598  1.00  0.00    -0.237 OA
ATOM     60  O   UNL A   1      34.431  32.042  29.067  1.00  0.00    -0.744 OA
ENDBRANCH  54  57
ENDBRANCH  26  50
BRANCH  38  61
ATOM     61  C   UNL A   1      44.503  34.082  30.007  1.00  0.00     0.023 A 
ATOM     62  C   UNL A   1      45.094  34.263  31.274  1.00  0.00     0.012 A 
ATOM     63  C   UNL A   1      44.441  35.166  29.111  1.00  0.00     0.148 A 
ATOM     64  C   UNL A   1      45.586  35.510  31.654  1.00  0.00     0.002 A 
ATOM     65  C   UNL A   1      44.973  36.395  29.479  1.00  0.00     0.091 A 
ATOM     66  F   UNL A   1      43.854  34.979  27.919  1.00  0.00    -0.205 F 
ATOM     67  C   UNL A   1      45.536  36.572  30.755  1.00  0.00     0.022 A 
BRANCH  65  68
ATOM     68  S   UNL A   1      45.030  37.792  28.352  1.00  0.00     0.127 S 
ATOM     69  O   UNL A   1      43.748  38.442  28.616  1.00  0.00    -0.237 OA
ATOM     70  O   UNL A   1      46.198  38.533  28.830  1.00  0.00    -0.237 OA
ATOM     71  O   UNL A   1      45.184  37.222  27.021  1.00  0.00    -0.744 OA
ENDBRANCH  65  68
ENDBRANCH  38  61
ENDBRANCH  12  13
ENDBRANCH   5   7
ENDBRANCH   2   3
ENDBRANCH   1   2
BRANCH   1  72
ATOM     72  C   UNL A   1      34.923  20.899  25.486  1.00  0.00     0.002 C 
BRANCH  72  73
ATOM     73  C   UNL A   1      33.909  20.175  24.595  1.00  0.00     0.002 C 
BRANCH  73  74
ATOM     74  C   UNL A   1      32.440  20.337  24.997  1.00  0.00     0.021 C 
BRANCH  74  75
ATOM     75  C   UNL A   1      31.974  21.782  25.125  1.00  0.00     0.116 C 
BRANCH  75  76
ATOM     76  N   UNL A   1      31.090  21.978  26.258  1.00  0.00    -0.351 N 
ATOM     77  C   UNL A   1      30.417  23.073  26.711  1.00  0.00     0.279 C 
ATOM     78  H   UNL A   1      30.950  21.169  26.802  1.00  0.00     0.163 HD
ATOM     79  O   UNL A   1      29.775  22.946  27.759  1.00  0.00    -0.268 OA
BRANCH  77  80
ATOM     80  C   UNL A   1      30.476  24.434  25.994  1.00  0.00     0.284 C 
ATOM     81  C   UNL A   1      31.746  25.197  26.353  1.00  0.00     0.151 C 
ATOM     82  N   UNL A   1      30.232  24.302  24.535  1.00  0.00    -0.319 N 
ATOM     83  S   UNL A   1      32.612  25.477  24.805  1.00  0.00    -0.085 SA
ATOM     84  C   UNL A   1      31.122  25.209  23.796  1.00  0.00     0.303 C 
ATOM     85  H   UNL A   1      29.261  24.539  24.331  1.00  0.00     0.348 HD
ATOM     86  H   UNL A   1      30.418  23.340  24.249  1.00  0.00     0.348 HD
BRANCH  84  87
ATOM     87  C   UNL A   1      30.510  26.538  23.387  1.00  0.00     0.163 A 
ATOM     88  N   UNL A   1      29.247  26.847  23.612  1.00  0.00    -0.234 NA
ATOM     89  S   UNL A   1      31.427  27.779  22.620  1.00  0.00    -0.112 S 
ATOM     90  C   UNL A   1      28.952  28.093  23.099  1.00  0.00     0.082 A 
ATOM     91  C   UNL A   1      30.025  28.765  22.514  1.00  0.00     0.055 A 
ATOM     92  C   UNL A   1      27.688  28.711  23.118  1.00  0.00     0.030 A 
ATOM     93  C   UNL A   1      29.880  30.041  21.949  1.00  0.00     0.021 A 
ATOM     94  C   UNL A   1      27.528  29.977  22.549  1.00  0.00     0.002 A 
ATOM     95  C   UNL A   1      28.613  30.633  21.974  1.00  0.00     0.002 A 
ENDBRANCH  84  87
ENDBRANCH  77  80
ENDBRANCH  75  76
ENDBRANCH  74  75
ENDBRANCH  73  74
ENDBRANCH  72  73
ENDBRANCH   1  72
TORSDOF 17
ENDMDL
MODEL 2
REMARK VINA RESULT:     -12.2      5.306     10.849
REMARK SMILES O=C(NCCCCCCNC(=O)[C@H]1CS[C@H](c2nc3ccccc3s2)[NH2+]1)c1ccc(-c2c3nc(c(-c4cccc(S(=O)(=O)[O-])c4F)c4ccc([nH]4)c(-c4cccc(S(=O)(=O)[O-])c4F)c4nc(c(-c5cccc(S(=O)(=O)[O-])c5F)c5ccc2[nH]5)C=C4)C=C3)cc1
REMARK SMILES IDX 5 1 4 2 3 3 1 4 2 5 27 7 28 8 89 9 29 10 88 11 30 12 31 13
REMARK SMILES IDX 32 14 82 15 33 16 87 17 81 18 83 19 34 20 86 21 80 22 79 23
REMARK SMILES IDX 35 25 67 26 47 27 66 28 48 29 51 30 65 31 84 32 49 33 50 34
REMARK SMILES IDX 64 36 85 37 52 38 36 39 37 40 45 41 38 42 40 43 46 44 39 45
REMARK SMILES IDX 41 46 42 47 43 48 44 49 68 50 69 51 77 52 70 53 72 54 78 55
REMARK SMILES IDX 71 56 73 57 74 58 75 59 76 60 53 61 54 62 62 63 55 64 57 65
REMARK SMILES IDX 63 66 56 67 58 68 59 69 60 70 61 71 6 72 7 73 8 74 9 75
REMARK SMILES IDX 10 76 11 77 12 79 13 80 14 81 26 82 15 83 16 84 17 87 18 88
REMARK SMILES IDX 25 89 19 90 24 91 20 92 23 93 21 94 22 95
REMARK H PARENT 3 6 83 24 51 35 10 78 26 85 26 86
REMARK Flexibility Score: inf
ROOT
ATOM      1  C   UNL A   1      31.309  31.847  26.437  1.00  0.00     0.021 C 
ENDROOT
BRANCH   1   2
ATOM      2  C   UNL A   1      32.538  32.269  27.232  1.00  0.00     0.116 C 
BRANCH   2   3
ATOM      3  N   UNL A   1      32.543  33.692  27.520  1.00  0.00    -0.352 N 
ATOM      4  O   UNL A   1      33.088  35.566  28.642  1.00  0.00    -0.269 OA
ATOM      5  C   UNL A   1      33.346  34.393  28.387  1.00  0.00     0.251 C 
ATOM      6  H   UNL A   1      31.881  34.228  27.026  1.00  0.00     0.163 HD
BRANCH   5   7
ATOM      7  C   UNL A   1      34.501  33.721  29.021  1.00  0.00     0.039 A 
ATOM      8  C   UNL A   1      35.808  34.121  28.728  1.00  0.00     0.014 A 
ATOM      9  C   UNL A   1      34.272  32.683  29.928  1.00  0.00     0.014 A 
ATOM     10  C   UNL A   1      36.882  33.404  29.242  1.00  0.00     0.010 A 
ATOM     11  C   UNL A   1      35.355  32.016  30.508  1.00  0.00     0.010 A 
ATOM     12  C   UNL A   1      36.669  32.354  30.150  1.00  0.00    -0.014 A 
BRANCH  12  13
ATOM     13  C   UNL A   1      37.838  31.688  30.779  1.00  0.00     0.031 A 
ATOM     14  C   UNL A   1      38.259  32.006  32.187  1.00  0.00     0.074 A 
ATOM     15  C   UNL A   1      38.523  30.780  30.055  1.00  0.00     0.049 A 
ATOM     16  N   UNL A   1      39.240  31.494  32.885  1.00  0.00    -0.248 NA
ATOM     17  C   UNL A   1      37.487  33.034  32.904  1.00  0.00     0.031 C 
ATOM     18  C   UNL A   1      38.234  30.427  28.662  1.00  0.00     0.029 A 
ATOM     19  N   UNL A   1      39.596  29.993  30.380  1.00  0.00    -0.354 N 
ATOM     20  C   UNL A   1      39.226  32.153  34.108  1.00  0.00     0.074 A 
ATOM     21  C   UNL A   1      38.145  33.114  34.055  1.00  0.00     0.031 C 
ATOM     22  C   UNL A   1      39.092  29.478  28.261  1.00  0.00     0.029 A 
ATOM     23  C   UNL A   1      40.020  29.191  29.347  1.00  0.00     0.049 A 
ATOM     24  H   UNL A   1      40.023  30.002  31.268  1.00  0.00     0.167 HD
ATOM     25  C   UNL A   1      40.028  31.960  35.183  1.00  0.00     0.034 A 
ATOM     26  C   UNL A   1      41.050  28.326  29.275  1.00  0.00     0.034 A 
ATOM     27  C   UNL A   1      41.084  30.983  35.238  1.00  0.00     0.049 A 
ATOM     28  C   UNL A   1      41.906  28.118  30.490  1.00  0.00     0.074 A 
ATOM     29  C   UNL A   1      41.923  30.680  36.297  1.00  0.00     0.029 A 
ATOM     30  N   UNL A   1      41.450  30.150  34.191  1.00  0.00    -0.354 N 
ATOM     31  N   UNL A   1      41.797  28.663  31.678  1.00  0.00    -0.248 NA
ATOM     32  C   UNL A   1      43.009  27.156  30.367  1.00  0.00     0.031 C 
ATOM     33  C   UNL A   1      42.803  29.672  35.886  1.00  0.00     0.029 A 
ATOM     34  C   UNL A   1      42.502  29.336  34.576  1.00  0.00     0.049 A 
ATOM     35  H   UNL A   1      41.023  30.139  33.304  1.00  0.00     0.167 HD
ATOM     36  C   UNL A   1      42.801  28.094  32.450  1.00  0.00     0.074 A 
ATOM     37  C   UNL A   1      43.488  27.139  31.604  1.00  0.00     0.031 C 
ATOM     38  C   UNL A   1      43.141  28.355  33.736  1.00  0.00     0.034 A 
BRANCH  25  39
ATOM     39  C   UNL A   1      39.764  32.787  36.416  1.00  0.00     0.023 A 
ATOM     40  C   UNL A   1      40.406  34.033  36.560  1.00  0.00     0.012 A 
ATOM     41  C   UNL A   1      38.833  32.373  37.389  1.00  0.00     0.148 A 
ATOM     42  C   UNL A   1      40.145  34.845  37.664  1.00  0.00     0.002 A 
ATOM     43  C   UNL A   1      38.550  33.205  38.469  1.00  0.00     0.091 A 
ATOM     44  F   UNL A   1      38.247  31.177  37.247  1.00  0.00    -0.205 F 
ATOM     45  C   UNL A   1      39.211  34.436  38.612  1.00  0.00     0.022 A 
BRANCH  43  46
ATOM     46  S   UNL A   1      37.309  32.801  39.705  1.00  0.00     0.127 S 
ATOM     47  O   UNL A   1      36.099  32.720  38.889  1.00  0.00    -0.237 OA
ATOM     48  O   UNL A   1      37.787  31.516  40.215  1.00  0.00    -0.237 OA
ATOM     49  O   UNL A   1      37.341  33.888  40.673  1.00  0.00    -0.744 OA
ENDBRANCH  43  46
ENDBRANCH  25  39
BRANCH  26  50
ATOM     50  C   UNL A   1      41.286  27.561  28.019  1.00  0.00     0.023 A 
ATOM     51  C   UNL A   1      41.860  28.209  26.909  1.00  0.00     0.012 A 
ATOM     52  C   UNL A   1      40.991  26.186  27.935  1.00  0.00     0.148 A 
ATOM     53  C   UNL A   1      42.114  27.508  25.730  1.00  0.00     0.002 A 
ATOM     54  C   UNL A   1      41.302  25.480  26.779  1.00  0.00     0.091 A 
ATOM     55  F   UNL A   1      40.426  25.589  28.994  1.00  0.00    -0.205 F 
ATOM     56  C   UNL A   1      41.848  26.143  25.669  1.00  0.00     0.022 A 
BRANCH  54  57
ATOM     57  S   UNL A   1      41.127  23.695  26.682  1.00  0.00     0.127 S 
ATOM     58  O   UNL A   1      39.697  23.548  26.428  1.00  0.00    -0.237 OA
ATOM     59  O   UNL A   1      41.992  23.361  25.549  1.00  0.00    -0.237 OA
ATOM     60  O   UNL A   1      41.606  23.194  27.963  1.00  0.00    -0.744 OA
ENDBRANCH  54  57
ENDBRANCH  26  50
BRANCH  38  61
ATOM     61  C   UNL A   1      44.295  27.581  34.315  1.00  0.00     0.023 A 
ATOM     62  C   UNL A   1      45.598  28.106  34.225  1.00  0.00     0.012 A 
ATOM     63  C   UNL A   1      44.083  26.364  34.990  1.00  0.00     0.148 A 
ATOM     64  C   UNL A   1      46.679  27.416  34.771  1.00  0.00     0.002 A 
ATOM     65  C   UNL A   1      45.158  25.704  35.571  1.00  0.00     0.091 A 
ATOM     66  F   UNL A   1      42.837  25.869  35.044  1.00  0.00    -0.205 F 
ATOM     67  C   UNL A   1      46.458  26.223  35.453  1.00  0.00     0.022 A 
BRANCH  65  68
ATOM     68  S   UNL A   1      44.953  24.207  36.542  1.00  0.00     0.127 S 
ATOM     69  O   UNL A   1      46.340  23.820  36.792  1.00  0.00    -0.237 OA
ATOM     70  O   UNL A   1      44.234  24.693  37.720  1.00  0.00    -0.237 OA
ATOM     71  O   UNL A   1      44.186  23.293  35.706  1.00  0.00    -0.744 OA
ENDBRANCH  65  68
ENDBRANCH  38  61
ENDBRANCH  12  13
ENDBRANCH   5   7
ENDBRANCH   2   3
ENDBRANCH   1   2
BRANCH   1  72
ATOM     72  C   UNL A   1      31.485  30.576  25.604  1.00  0.00     0.002 C 
BRANCH  72  73
ATOM     73  C   UNL A   1      31.813  29.304  26.394  1.00  0.00     0.002 C 
BRANCH  73  74
ATOM     74  C   UNL A   1      32.094  28.056  25.552  1.00  0.00     0.021 C 
BRANCH  74  75
ATOM     75  C   UNL A   1      32.155  26.756  26.346  1.00  0.00     0.116 C 
BRANCH  75  76
ATOM     76  N   UNL A   1      30.836  26.240  26.661  1.00  0.00    -0.351 N 
ATOM     77  C   UNL A   1      30.227  25.056  26.370  1.00  0.00     0.279 C 
ATOM     78  H   UNL A   1      30.277  26.861  27.181  1.00  0.00     0.163 HD
ATOM     79  O   UNL A   1      29.053  24.924  26.729  1.00  0.00    -0.268 OA
BRANCH  77  80
ATOM     80  C   UNL A   1      30.934  23.934  25.588  1.00  0.00     0.284 C 
ATOM     81  C   UNL A   1      31.021  24.263  24.102  1.00  0.00     0.151 C 
ATOM     82  N   UNL A   1      32.228  23.556  26.210  1.00  0.00    -0.319 N 
ATOM     83  S   UNL A   1      32.771  24.271  23.697  1.00  0.00    -0.085 SA
ATOM     84  C   UNL A   1      33.227  23.295  25.163  1.00  0.00     0.303 C 
ATOM     85  H   UNL A   1      32.100  22.716  26.774  1.00  0.00     0.348 HD
ATOM     86  H   UNL A   1      32.552  24.321  26.802  1.00  0.00     0.348 HD
BRANCH  84  87
ATOM     87  C   UNL A   1      33.421  21.835  24.791  1.00  0.00     0.163 A 
ATOM     88  N   UNL A   1      32.588  21.178  24.006  1.00  0.00    -0.234 NA
ATOM     89  S   UNL A   1      34.771  20.915  25.337  1.00  0.00    -0.112 S 
ATOM     90  C   UNL A   1      32.982  19.862  23.873  1.00  0.00     0.082 A 
ATOM     91  C   UNL A   1      34.163  19.525  24.532  1.00  0.00     0.055 A 
ATOM     92  C   UNL A   1      32.296  18.869  23.149  1.00  0.00     0.030 A 
ATOM     93  C   UNL A   1      34.689  18.225  24.489  1.00  0.00     0.021 A 
ATOM     94  C   UNL A   1      32.804  17.568  23.108  1.00  0.00     0.002 A 
ATOM     95  C   UNL A   1      33.987  17.253  23.769  1.00  0.00     0.002 A 
ENDBRANCH  84  87
ENDBRANCH  77  80
ENDBRANCH  75  76
ENDBRANCH  74  75
ENDBRANCH  73  74
ENDBRANCH  72  73
ENDBRANCH   1  72
TORSDOF 17
ENDMDL
MODEL 3
REMARK VINA RESULT:     -12.1      2.253      7.704
REMARK SMILES O=C(NCCCCCCNC(=O)[C@H]1CS[C@H](c2nc3ccccc3s2)[NH2+]1)c1ccc(-c2c3nc(c(-c4cccc(S(=O)(=O)[O-])c4F)c4ccc([nH]4)c(-c4cccc(S(=O)(=O)[O-])c4F)c4nc(c(-c5cccc(S(=O)(=O)[O-])c5F)c5ccc2[nH]5)C=C4)C=C3)cc1
REMARK SMILES IDX 5 1 4 2 3 3 1 4 2 5 27 7 28 8 89 9 29 10 88 11 30 12 31 13
REMARK SMILES IDX 32 14 82 15 33 16 87 17 81 18 83 19 34 20 86 21 80 22 79 23
REMARK SMILES IDX 35 25 67 26 47 27 66 28 48 29 51 30 65 31 84 32 49 33 50 34
REMARK SMILES IDX 64 36 85 37 52 38 36 39 37 40 45 41 38 42 40 43 46 44 39 45
REMARK SMILES IDX 41 46 42 47 43 48 44 49 68 50 69 51 77 52 70 53 72 54 78 55
REMARK SMILES IDX 71 56 73 57 74 58 75 59 76 60 53 61 54 62 62 63 55 64 57 65
REMARK SMILES IDX 63 66 56 67 58 68 59 69 60 70 61 71 6 72 7 73 8 74 9 75
REMARK SMILES IDX 10 76 11 77 12 79 13 80 14 81 26 82 15 83 16 84 17 87 18 88
REMARK SMILES IDX 25 89 19 90 24 91 20 92 23 93 21 94 22 95
REMARK H PARENT 3 6 83 24 51 35 10 78 26 85 26 86
REMARK Flexibility Score: inf
ROOT
ATOM      1  C   UNL A   1      35.268  23.291  26.293  1.00  0.00     0.021 C 
ENDROOT
BRANCH   1   2
ATOM      2  C   UNL A   1      36.624  23.666  25.709  1.00  0.00     0.116 C 
BRANCH   2   3
ATOM      3  N   UNL A   1      37.632  22.654  25.968  1.00  0.00    -0.352 N 
ATOM      4  O   UNL A   1      39.693  21.862  26.410  1.00  0.00    -0.269 OA
ATOM      5  C   UNL A   1      38.917  22.814  26.427  1.00  0.00     0.251 C 
ATOM      6  H   UNL A   1      37.357  21.726  25.789  1.00  0.00     0.163 HD
BRANCH   5   7
ATOM      7  C   UNL A   1      39.360  24.138  26.916  1.00  0.00     0.039 A 
ATOM      8  C   UNL A   1      39.925  25.069  26.040  1.00  0.00     0.014 A 
ATOM      9  C   UNL A   1      39.198  24.454  28.268  1.00  0.00     0.014 A 
ATOM     10  C   UNL A   1      40.442  26.260  26.536  1.00  0.00     0.010 A 
ATOM     11  C   UNL A   1      39.645  25.688  28.750  1.00  0.00     0.010 A 
ATOM     12  C   UNL A   1      40.293  26.591  27.893  1.00  0.00    -0.014 A 
BRANCH  12  13
ATOM     13  C   UNL A   1      40.743  27.923  28.370  1.00  0.00     0.031 A 
ATOM     14  C   UNL A   1      39.765  28.947  28.875  1.00  0.00     0.074 A 
ATOM     15  C   UNL A   1      42.062  28.202  28.341  1.00  0.00     0.049 A 
ATOM     16  N   UNL A   1      40.001  30.144  29.348  1.00  0.00    -0.248 NA
ATOM     17  C   UNL A   1      38.338  28.587  28.843  1.00  0.00     0.031 C 
ATOM     18  C   UNL A   1      43.098  27.302  27.826  1.00  0.00     0.029 A 
ATOM     19  N   UNL A   1      42.757  29.310  28.748  1.00  0.00    -0.354 N 
ATOM     20  C   UNL A   1      38.759  30.694  29.641  1.00  0.00     0.074 A 
ATOM     21  C   UNL A   1      37.767  29.704  29.281  1.00  0.00     0.031 C 
ATOM     22  C   UNL A   1      44.297  27.884  27.969  1.00  0.00     0.029 A 
ATOM     23  C   UNL A   1      44.113  29.212  28.539  1.00  0.00     0.049 A 
ATOM     24  H   UNL A   1      42.328  30.100  29.150  1.00  0.00     0.167 HD
ATOM     25  C   UNL A   1      38.475  31.905  30.179  1.00  0.00     0.034 A 
ATOM     26  C   UNL A   1      45.101  30.098  28.769  1.00  0.00     0.034 A 
ATOM     27  C   UNL A   1      39.470  32.874  30.559  1.00  0.00     0.049 A 
ATOM     28  C   UNL A   1      44.756  31.422  29.386  1.00  0.00     0.074 A 
ATOM     29  C   UNL A   1      39.285  34.111  31.153  1.00  0.00     0.029 A 
ATOM     30  N   UNL A   1      40.837  32.718  30.382  1.00  0.00    -0.354 N 
ATOM     31  N   UNL A   1      43.585  31.872  29.770  1.00  0.00    -0.248 NA
ATOM     32  C   UNL A   1      45.868  32.350  29.630  1.00  0.00     0.031 C 
ATOM     33  C   UNL A   1      40.539  34.708  31.324  1.00  0.00     0.029 A 
ATOM     34  C   UNL A   1      41.507  33.836  30.852  1.00  0.00     0.049 A 
ATOM     35  H   UNL A   1      41.267  31.929  29.982  1.00  0.00     0.167 HD
ATOM     36  C   UNL A   1      43.823  33.125  30.321  1.00  0.00     0.074 A 
ATOM     37  C   UNL A   1      45.252  33.348  30.249  1.00  0.00     0.031 C 
ATOM     38  C   UNL A   1      42.935  34.020  30.819  1.00  0.00     0.034 A 
BRANCH  25  39
ATOM     39  C   UNL A   1      37.028  32.237  30.441  1.00  0.00     0.023 A 
ATOM     40  C   UNL A   1      36.474  31.953  31.705  1.00  0.00     0.012 A 
ATOM     41  C   UNL A   1      36.241  32.893  29.474  1.00  0.00     0.148 A 
ATOM     42  C   UNL A   1      35.152  32.294  31.996  1.00  0.00     0.002 A 
ATOM     43  C   UNL A   1      34.935  33.262  29.784  1.00  0.00     0.091 A 
ATOM     44  F   UNL A   1      36.777  33.137  28.270  1.00  0.00    -0.205 F 
ATOM     45  C   UNL A   1      34.388  32.956  31.040  1.00  0.00     0.022 A 
BRANCH  43  46
ATOM     46  S   UNL A   1      33.893  34.184  28.646  1.00  0.00     0.127 S 
ATOM     47  O   UNL A   1      33.515  33.146  27.688  1.00  0.00    -0.237 OA
ATOM     48  O   UNL A   1      32.806  34.633  29.516  1.00  0.00    -0.237 OA
ATOM     49  O   UNL A   1      34.727  35.253  28.116  1.00  0.00    -0.744 OA
ENDBRANCH  43  46
ENDBRANCH  25  39
BRANCH  26  50
ATOM     50  C   UNL A   1      46.510  29.731  28.458  1.00  0.00     0.023 A 
ATOM     51  C   UNL A   1      47.070  30.110  27.224  1.00  0.00     0.012 A 
ATOM     52  C   UNL A   1      47.313  29.053  29.397  1.00  0.00     0.148 A 
ATOM     53  C   UNL A   1      48.396  29.800  26.919  1.00  0.00     0.002 A 
ATOM     54  C   UNL A   1      48.649  28.799  29.111  1.00  0.00     0.091 A 
ATOM     55  F   UNL A   1      46.758  28.681  30.559  1.00  0.00    -0.205 F 
ATOM     56  C   UNL A   1      49.189  29.157  27.866  1.00  0.00     0.022 A 
BRANCH  54  57
ATOM     57  S   UNL A   1      49.767  28.112  30.338  1.00  0.00     0.127 S 
ATOM     58  O   UNL A   1      49.170  26.804  30.588  1.00  0.00    -0.237 OA
ATOM     59  O   UNL A   1      51.039  28.081  29.614  1.00  0.00    -0.237 OA
ATOM     60  O   UNL A   1      49.739  29.053  31.450  1.00  0.00    -0.744 OA
ENDBRANCH  54  57
ENDBRANCH  26  50
BRANCH  38  61
ATOM     61  C   UNL A   1      43.488  35.317  31.347  1.00  0.00     0.023 A 
ATOM     62  C   UNL A   1      43.943  35.388  32.678  1.00  0.00     0.012 A 
ATOM     63  C   UNL A   1      43.605  36.445  30.513  1.00  0.00     0.148 A 
ATOM     64  C   UNL A   1      44.477  36.573  33.182  1.00  0.00     0.002 A 
ATOM     65  C   UNL A   1      44.178  37.610  31.009  1.00  0.00     0.091 A 
ATOM     66  F   UNL A   1      43.144  36.364  29.256  1.00  0.00    -0.205 F 
ATOM     67  C   UNL A   1      44.604  37.679  32.346  1.00  0.00     0.022 A 
BRANCH  65  68
ATOM     68  S   UNL A   1      44.462  39.053  29.978  1.00  0.00     0.127 S 
ATOM     69  O   UNL A   1      43.097  39.443  29.628  1.00  0.00    -0.237 OA
ATOM     70  O   UNL A   1      45.140  39.967  30.897  1.00  0.00    -0.237 OA
ATOM     71  O   UNL A   1      45.288  38.593  28.870  1.00  0.00    -0.744 OA
ENDBRANCH  65  68
ENDBRANCH  38  61
ENDBRANCH  12  13
ENDBRANCH   5   7
ENDBRANCH   2   3
ENDBRANCH   1   2
BRANCH   1  72
ATOM     72  C   UNL A   1      35.150  21.843  26.773  1.00  0.00     0.002 C 
BRANCH  72  73
ATOM     73  C   UNL A   1      33.782  21.185  26.569  1.00  0.00     0.002 C 
BRANCH  73  74
ATOM     74  C   UNL A   1      33.305  21.086  25.117  1.00  0.00     0.021 C 
BRANCH  74  75
ATOM     75  C   UNL A   1      31.939  21.710  24.855  1.00  0.00     0.116 C 
BRANCH  75  76
ATOM     76  N   UNL A   1      31.192  21.935  26.077  1.00  0.00    -0.351 N 
ATOM     77  C   UNL A   1      30.614  23.053  26.600  1.00  0.00     0.279 C 
ATOM     78  H   UNL A   1      31.081  21.130  26.634  1.00  0.00     0.163 HD
ATOM     79  O   UNL A   1      30.085  22.947  27.711  1.00  0.00    -0.268 OA
BRANCH  77  80
ATOM     80  C   UNL A   1      30.645  24.413  25.879  1.00  0.00     0.284 C 
ATOM     81  C   UNL A   1      31.964  25.138  26.119  1.00  0.00     0.151 C 
ATOM     82  N   UNL A   1      30.264  24.290  24.449  1.00  0.00    -0.319 N 
ATOM     83  S   UNL A   1      32.692  25.397  24.498  1.00  0.00    -0.085 SA
ATOM     84  C   UNL A   1      31.108  25.173  23.630  1.00  0.00     0.303 C 
ATOM     85  H   UNL A   1      29.286  24.555  24.335  1.00  0.00     0.348 HD
ATOM     86  H   UNL A   1      30.396  23.324  24.148  1.00  0.00     0.348 HD
BRANCH  84  87
ATOM     87  C   UNL A   1      30.500  26.519  23.278  1.00  0.00     0.163 A 
ATOM     88  N   UNL A   1      29.247  26.835  23.549  1.00  0.00    -0.234 NA
ATOM     89  S   UNL A   1      31.407  27.772  22.520  1.00  0.00    -0.112 S 
ATOM     90  C   UNL A   1      28.951  28.098  23.081  1.00  0.00     0.082 A 
ATOM     91  C   UNL A   1      30.013  28.775  22.485  1.00  0.00     0.055 A 
ATOM     92  C   UNL A   1      27.695  28.729  23.156  1.00  0.00     0.030 A 
ATOM     93  C   UNL A   1      29.866  30.069  21.961  1.00  0.00     0.021 A 
ATOM     94  C   UNL A   1      27.533  30.012  22.628  1.00  0.00     0.002 A 
ATOM     95  C   UNL A   1      28.607  30.673  22.040  1.00  0.00     0.002 A 
ENDBRANCH  84  87
ENDBRANCH  77  80
ENDBRANCH  75  76
ENDBRANCH  74  75
ENDBRANCH  73  74
ENDBRANCH  72  73
ENDBRANCH   1  72
TORSDOF 17
ENDMDL
