MODEL 1
REMARK VINA RESULT:     -11.9      0.000      0.000
REMARK SMILES CS(=O)(=O)c1ccc(/C=C(/C(=O)NCCCCCCNC(=O)c2ccc(-c3c4nc(c(-c5cccc(S(=O)(=O)[O-])c5F)c5ccc([nH]5)c(-c5cccc(S(=O)(=O)[O-])c5F)c5nc(c(-c6cccc(S(=O)(=O)[O-])c6F)c6ccc3[nH]6)C=C5)C=C4)cc2)c2ccccc2)cc1
REMARK SMILES IDX 17 1 16 2 15 3 14 4 13 5 11 6 12 7 10 9 9 10 8 11 5 12 6 13
REMARK SMILES IDX 93 14 7 15 92 16 2 17 1 18 3 19 4 20 86 21 87 22 91 23 88 24
REMARK SMILES IDX 90 25 89 26 18 27 19 28 20 29 21 30 22 32 23 33 24 34 85 35
REMARK SMILES IDX 25 36 84 37 26 38 27 39 28 40 78 41 29 42 83 43 77 44 79 45
REMARK SMILES IDX 30 46 82 47 76 48 75 49 31 51 63 52 43 53 62 54 44 55 47 56
REMARK SMILES IDX 61 57 80 58 45 59 46 60 60 62 81 63 48 64 32 65 33 66 41 67
REMARK SMILES IDX 34 68 36 69 42 70 35 71 37 72 38 73 39 74 40 75 64 76 65 77
REMARK SMILES IDX 73 78 66 79 68 80 74 81 67 82 69 83 70 84 71 85 72 86 49 87
REMARK SMILES IDX 50 88 58 89 51 90 53 91 59 92 52 93 54 94 55 95 56 96 57 97
REMARK H PARENT 13 8 20 31 79 50 47 61
REMARK Flexibility Score: inf
ROOT
ATOM      1  C   UNL A   1      32.047  28.319  27.301  1.00  0.00     0.002 C 
ENDROOT
BRANCH   1   2
ATOM      2  C   UNL A   1      31.026  27.336  26.719  1.00  0.00     0.002 C 
BRANCH   2   3
ATOM      3  C   UNL A   1      31.576  25.939  26.386  1.00  0.00     0.021 C 
BRANCH   3   4
ATOM      4  C   UNL A   1      30.666  25.122  25.462  1.00  0.00     0.116 C 
BRANCH   4   5
ATOM      5  N   UNL A   1      31.075  25.308  24.082  1.00  0.00    -0.352 N 
ATOM      6  C   UNL A   1      31.918  24.654  23.243  1.00  0.00     0.251 C 
ATOM      7  O   UNL A   1      32.081  25.172  22.134  1.00  0.00    -0.269 OA
ATOM      8  H   UNL A   1      30.643  26.084  23.659  1.00  0.00     0.163 HD
BRANCH   6   9
ATOM      9  C   UNL A   1      32.565  23.324  23.563  1.00  0.00     0.047 C 
ATOM     10  C   UNL A   1      31.856  22.180  23.701  1.00  0.00     0.022 C 
BRANCH  10  11
ATOM     11  C   UNL A   1      32.348  20.799  23.902  1.00  0.00    -0.025 A 
ATOM     12  C   UNL A   1      33.339  18.180  24.114  1.00  0.00     0.067 A 
ATOM     13  C   UNL A   1      33.311  19.006  25.239  1.00  0.00     0.021 A 
ATOM     14  C   UNL A   1      32.829  18.625  22.896  1.00  0.00     0.021 A 
ATOM     15  C   UNL A   1      32.803  20.305  25.131  1.00  0.00     0.009 A 
ATOM     16  C   UNL A   1      32.339  19.932  22.795  1.00  0.00     0.009 A 
BRANCH  12  17
ATOM     17  S   UNL A   1      33.996  16.536  24.265  1.00  0.00     0.175 S 
ATOM     18  C   UNL A   1      32.756  15.676  25.197  1.00  0.00     0.163 C 
ATOM     19  O   UNL A   1      35.191  16.600  25.077  1.00  0.00    -0.224 OA
ATOM     20  O   UNL A   1      34.027  15.963  22.929  1.00  0.00    -0.224 OA
ENDBRANCH  12  17
ENDBRANCH  10  11
BRANCH   9  21
ATOM     21  C   UNL A   1      34.015  23.360  23.885  1.00  0.00    -0.013 A 
ATOM     22  C   UNL A   1      34.405  23.671  25.198  1.00  0.00     0.009 A 
ATOM     23  C   UNL A   1      35.000  23.040  22.943  1.00  0.00     0.009 A 
ATOM     24  C   UNL A   1      35.748  23.643  25.571  1.00  0.00     0.001 A 
ATOM     25  C   UNL A   1      36.346  23.004  23.321  1.00  0.00     0.001 A 
ATOM     26  C   UNL A   1      36.717  23.300  24.633  1.00  0.00     0.000 A 
ENDBRANCH   9  21
ENDBRANCH   6   9
ENDBRANCH   4   5
ENDBRANCH   3   4
ENDBRANCH   2   3
ENDBRANCH   1   2
BRANCH   1  27
ATOM     27  C   UNL A   1      33.505  28.046  26.919  1.00  0.00     0.021 C 
BRANCH  27  28
ATOM     28  C   UNL A   1      34.145  29.114  26.036  1.00  0.00     0.116 C 
BRANCH  28  29
ATOM     29  N   UNL A   1      33.976  30.449  26.589  1.00  0.00    -0.352 N 
ATOM     30  C   UNL A   1      34.668  31.061  27.605  1.00  0.00     0.251 C 
ATOM     31  H   UNL A   1      33.265  30.991  26.176  1.00  0.00     0.163 HD
ATOM     32  O   UNL A   1      34.255  32.120  28.072  1.00  0.00    -0.269 OA
BRANCH  30  33
ATOM     33  C   UNL A   1      35.899  30.444  28.146  1.00  0.00     0.039 A 
ATOM     34  C   UNL A   1      37.090  30.568  27.425  1.00  0.00     0.014 A 
ATOM     35  C   UNL A   1      35.876  29.716  29.340  1.00  0.00     0.014 A 
ATOM     36  C   UNL A   1      38.266  29.997  27.919  1.00  0.00     0.010 A 
ATOM     37  C   UNL A   1      37.061  29.198  29.861  1.00  0.00     0.010 A 
ATOM     38  C   UNL A   1      38.264  29.321  29.150  1.00  0.00    -0.014 A 
BRANCH  38  39
ATOM     39  C   UNL A   1      39.510  28.730  29.702  1.00  0.00     0.031 A 
ATOM     40  C   UNL A   1      40.153  29.320  30.926  1.00  0.00     0.074 A 
ATOM     41  C   UNL A   1      40.102  27.706  29.056  1.00  0.00     0.049 A 
ATOM     42  N   UNL A   1      41.250  28.954  31.539  1.00  0.00    -0.248 NA
ATOM     43  C   UNL A   1      39.495  30.492  31.528  1.00  0.00     0.031 C 
ATOM     44  C   UNL A   1      39.626  27.102  27.811  1.00  0.00     0.029 A 
ATOM     45  N   UNL A   1      41.248  27.009  29.346  1.00  0.00    -0.354 N 
ATOM     46  C   UNL A   1      41.431  29.864  32.572  1.00  0.00     0.074 A 
ATOM     47  C   UNL A   1      40.350  30.822  32.486  1.00  0.00     0.031 C 
ATOM     48  C   UNL A   1      40.471  26.124  27.445  1.00  0.00     0.029 A 
ATOM     49  C   UNL A   1      41.555  26.039  28.421  1.00  0.00     0.049 A 
ATOM     50  H   UNL A   1      41.800  27.186  30.142  1.00  0.00     0.167 HD
ATOM     51  C   UNL A   1      42.390  29.884  33.530  1.00  0.00     0.034 A 
ATOM     52  C   UNL A   1      42.587  25.174  28.367  1.00  0.00     0.034 A 
ATOM     53  C   UNL A   1      43.430  28.898  33.650  1.00  0.00     0.049 A 
ATOM     54  C   UNL A   1      43.597  25.172  29.482  1.00  0.00     0.074 A 
ATOM     55  C   UNL A   1      44.388  28.774  34.640  1.00  0.00     0.029 A 
ATOM     56  N   UNL A   1      43.647  27.865  32.752  1.00  0.00    -0.354 N 
ATOM     57  N   UNL A   1      43.649  25.931  30.550  1.00  0.00    -0.248 NA
ATOM     58  C   UNL A   1      44.665  24.164  29.409  1.00  0.00     0.031 C 
ATOM     59  C   UNL A   1      45.189  27.667  34.336  1.00  0.00     0.029 A 
ATOM     60  C   UNL A   1      44.724  27.099  33.161  1.00  0.00     0.049 A 
ATOM     61  H   UNL A   1      43.112  27.700  31.942  1.00  0.00     0.167 HD
ATOM     62  C   UNL A   1      44.735  25.475  31.289  1.00  0.00     0.074 A 
ATOM     63  C   UNL A   1      45.296  24.355  30.560  1.00  0.00     0.031 C 
ATOM     64  C   UNL A   1      45.236  25.953  32.456  1.00  0.00     0.034 A 
BRANCH  51  65
ATOM     65  C   UNL A   1      42.313  30.969  34.570  1.00  0.00     0.023 A 
ATOM     66  C   UNL A   1      41.664  30.704  35.795  1.00  0.00     0.012 A 
ATOM     67  C   UNL A   1      42.918  32.225  34.367  1.00  0.00     0.148 A 
ATOM     68  C   UNL A   1      41.591  31.680  36.787  1.00  0.00     0.002 A 
ATOM     69  C   UNL A   1      42.872  33.181  35.378  1.00  0.00     0.091 A 
ATOM     70  F   UNL A   1      43.508  32.469  33.189  1.00  0.00    -0.205 F 
ATOM     71  C   UNL A   1      42.203  32.914  36.583  1.00  0.00     0.022 A 
BRANCH  69  72
ATOM     72  S   UNL A   1      43.693  34.773  35.235  1.00  0.00     0.127 S 
ATOM     73  O   UNL A   1      42.965  35.381  34.122  1.00  0.00    -0.237 OA
ATOM     74  O   UNL A   1      43.425  35.379  36.541  1.00  0.00    -0.237 OA
ATOM     75  O   UNL A   1      45.096  34.477  34.984  1.00  0.00    -0.744 OA
ENDBRANCH  69  72
ENDBRANCH  51  65
BRANCH  52  76
ATOM     76  C   UNL A   1      42.659  24.177  27.263  1.00  0.00     0.023 A 
ATOM     77  C   UNL A   1      43.423  24.475  26.118  1.00  0.00     0.012 A 
ATOM     78  C   UNL A   1      42.015  22.929  27.353  1.00  0.00     0.148 A 
ATOM     79  C   UNL A   1      43.522  23.559  25.070  1.00  0.00     0.002 A 
ATOM     80  C   UNL A   1      42.161  22.000  26.328  1.00  0.00     0.091 A 
ATOM     81  F   UNL A   1      41.279  22.668  28.443  1.00  0.00    -0.205 F 
ATOM     82  C   UNL A   1      42.901  22.319  25.180  1.00  0.00     0.022 A 
BRANCH  80  83
ATOM     83  S   UNL A   1      41.507  20.330  26.452  1.00  0.00     0.127 S 
ATOM     84  O   UNL A   1      40.072  20.558  26.301  1.00  0.00    -0.237 OA
ATOM     85  O   UNL A   1      42.148  19.663  25.317  1.00  0.00    -0.237 OA
ATOM     86  O   UNL A   1      41.943  19.840  27.753  1.00  0.00    -0.744 OA
ENDBRANCH  80  83
ENDBRANCH  52  76
BRANCH  64  87
ATOM     87  C   UNL A   1      46.443  25.260  33.029  1.00  0.00     0.023 A 
ATOM     88  C   UNL A   1      47.729  25.764  32.751  1.00  0.00     0.012 A 
ATOM     89  C   UNL A   1      46.305  24.158  33.894  1.00  0.00     0.148 A 
ATOM     90  C   UNL A   1      48.860  25.164  33.302  1.00  0.00     0.002 A 
ATOM     91  C   UNL A   1      47.435  23.590  34.474  1.00  0.00     0.091 A 
ATOM     92  F   UNL A   1      45.075  23.676  34.130  1.00  0.00    -0.205 F 
ATOM     93  C   UNL A   1      48.713  24.085  34.170  1.00  0.00     0.022 A 
BRANCH  91  94
ATOM     94  S   UNL A   1      47.321  22.257  35.673  1.00  0.00     0.127 S 
ATOM     95  O   UNL A   1      46.791  21.166  34.858  1.00  0.00    -0.237 OA
ATOM     96  O   UNL A   1      48.713  22.086  36.090  1.00  0.00    -0.237 OA
ATOM     97  O   UNL A   1      46.438  22.749  36.724  1.00  0.00    -0.744 OA
ENDBRANCH  91  94
ENDBRANCH  64  87
ENDBRANCH  38  39
ENDBRANCH  30  33
ENDBRANCH  28  29
ENDBRANCH  27  28
ENDBRANCH   1  27
TORSDOF 19
ENDMDL
MODEL 2
REMARK VINA RESULT:     -11.8      2.014      2.410
REMARK SMILES CS(=O)(=O)c1ccc(/C=C(/C(=O)NCCCCCCNC(=O)c2ccc(-c3c4nc(c(-c5cccc(S(=O)(=O)[O-])c5F)c5ccc([nH]5)c(-c5cccc(S(=O)(=O)[O-])c5F)c5nc(c(-c6cccc(S(=O)(=O)[O-])c6F)c6ccc3[nH]6)C=C5)C=C4)cc2)c2ccccc2)cc1
REMARK SMILES IDX 17 1 16 2 15 3 14 4 13 5 11 6 12 7 10 9 9 10 8 11 5 12 6 13
REMARK SMILES IDX 93 14 7 15 92 16 2 17 1 18 3 19 4 20 86 21 87 22 91 23 88 24
REMARK SMILES IDX 90 25 89 26 18 27 19 28 20 29 21 30 22 32 23 33 24 34 85 35
REMARK SMILES IDX 25 36 84 37 26 38 27 39 28 40 78 41 29 42 83 43 77 44 79 45
REMARK SMILES IDX 30 46 82 47 76 48 75 49 31 51 63 52 43 53 62 54 44 55 47 56
REMARK SMILES IDX 61 57 80 58 45 59 46 60 60 62 81 63 48 64 32 65 33 66 41 67
REMARK SMILES IDX 34 68 36 69 42 70 35 71 37 72 38 73 39 74 40 75 64 76 65 77
REMARK SMILES IDX 73 78 66 79 68 80 74 81 67 82 69 83 70 84 71 85 72 86 49 87
REMARK SMILES IDX 50 88 58 89 51 90 53 91 59 92 52 93 54 94 55 95 56 96 57 97
REMARK H PARENT 13 8 20 31 79 50 47 61
REMARK Flexibility Score: inf
ROOT
ATOM      1  C   UNL A   1      33.637  28.185  24.706  1.00  0.00     0.002 C 
ENDROOT
BRANCH   1   2
ATOM      2  C   UNL A   1      33.626  27.096  23.628  1.00  0.00     0.002 C 
BRANCH   2   3
ATOM      3  C   UNL A   1      32.314  26.972  22.834  1.00  0.00     0.021 C 
BRANCH   3   4
ATOM      4  C   UNL A   1      31.489  25.733  23.197  1.00  0.00     0.116 C 
BRANCH   4   5
ATOM      5  N   UNL A   1      31.358  25.635  24.639  1.00  0.00    -0.352 N 
ATOM      6  C   UNL A   1      31.600  24.661  25.553  1.00  0.00     0.251 C 
ATOM      7  O   UNL A   1      31.276  24.922  26.715  1.00  0.00    -0.269 OA
ATOM      8  H   UNL A   1      31.016  26.463  25.047  1.00  0.00     0.163 HD
BRANCH   6   9
ATOM      9  C   UNL A   1      32.306  23.361  25.234  1.00  0.00     0.047 C 
ATOM     10  C   UNL A   1      31.702  22.155  25.337  1.00  0.00     0.022 C 
BRANCH  10  11
ATOM     11  C   UNL A   1      32.218  20.821  24.961  1.00  0.00    -0.025 A 
ATOM     12  C   UNL A   1      33.153  18.230  24.408  1.00  0.00     0.067 A 
ATOM     13  C   UNL A   1      32.645  19.022  23.376  1.00  0.00     0.021 A 
ATOM     14  C   UNL A   1      33.250  18.735  25.704  1.00  0.00     0.021 A 
ATOM     15  C   UNL A   1      32.195  20.317  23.654  1.00  0.00     0.009 A 
ATOM     16  C   UNL A   1      32.780  20.025  25.975  1.00  0.00     0.009 A 
BRANCH  12  17
ATOM     17  S   UNL A   1      33.712  16.585  24.042  1.00  0.00     0.175 S 
ATOM     18  C   UNL A   1      35.185  16.419  25.015  1.00  0.00     0.163 C 
ATOM     19  O   UNL A   1      34.098  16.538  22.649  1.00  0.00    -0.224 OA
ATOM     20  O   UNL A   1      32.719  15.665  24.575  1.00  0.00    -0.224 OA
ENDBRANCH  12  17
ENDBRANCH  10  11
BRANCH   9  21
ATOM     21  C   UNL A   1      33.762  23.457  24.958  1.00  0.00    -0.013 A 
ATOM     22  C   UNL A   1      34.640  23.664  26.036  1.00  0.00     0.009 A 
ATOM     23  C   UNL A   1      34.294  23.291  23.674  1.00  0.00     0.009 A 
ATOM     24  C   UNL A   1      36.020  23.684  25.841  1.00  0.00     0.001 A 
ATOM     25  C   UNL A   1      35.679  23.303  23.482  1.00  0.00     0.001 A 
ATOM     26  C   UNL A   1      36.539  23.495  24.564  1.00  0.00     0.000 A 
ENDBRANCH   9  21
ENDBRANCH   6   9
ENDBRANCH   4   5
ENDBRANCH   3   4
ENDBRANCH   2   3
ENDBRANCH   1   2
BRANCH   1  27
ATOM     27  C   UNL A   1      34.090  27.723  26.094  1.00  0.00     0.021 C 
BRANCH  27  28
ATOM     28  C   UNL A   1      33.349  28.376  27.258  1.00  0.00     0.116 C 
BRANCH  28  29
ATOM     29  N   UNL A   1      33.397  29.828  27.187  1.00  0.00    -0.352 N 
ATOM     30  C   UNL A   1      34.357  30.689  27.660  1.00  0.00     0.251 C 
ATOM     31  H   UNL A   1      32.633  30.255  26.736  1.00  0.00     0.163 HD
ATOM     32  O   UNL A   1      34.133  31.896  27.687  1.00  0.00    -0.269 OA
BRANCH  30  33
ATOM     33  C   UNL A   1      35.652  30.165  28.149  1.00  0.00     0.039 A 
ATOM     34  C   UNL A   1      36.745  30.149  27.278  1.00  0.00     0.014 A 
ATOM     35  C   UNL A   1      35.783  29.660  29.447  1.00  0.00     0.014 A 
ATOM     36  C   UNL A   1      37.979  29.663  27.720  1.00  0.00     0.010 A 
ATOM     37  C   UNL A   1      37.028  29.232  29.903  1.00  0.00     0.010 A 
ATOM     38  C   UNL A   1      38.134  29.215  29.041  1.00  0.00    -0.014 A 
BRANCH  38  39
ATOM     39  C   UNL A   1      39.445  28.720  29.534  1.00  0.00     0.031 A 
ATOM     40  C   UNL A   1      40.150  29.425  30.660  1.00  0.00     0.074 A 
ATOM     41  C   UNL A   1      40.035  27.677  28.918  1.00  0.00     0.049 A 
ATOM     42  N   UNL A   1      41.306  29.151  31.208  1.00  0.00    -0.248 NA
ATOM     43  C   UNL A   1      39.484  30.609  31.227  1.00  0.00     0.031 C 
ATOM     44  C   UNL A   1      39.496  26.963  27.759  1.00  0.00     0.029 A 
ATOM     45  N   UNL A   1      41.232  27.051  29.165  1.00  0.00    -0.354 N 
ATOM     46  C   UNL A   1      41.521  30.142  32.158  1.00  0.00     0.074 A 
ATOM     47  C   UNL A   1      40.392  31.044  32.089  1.00  0.00     0.031 C 
ATOM     48  C   UNL A   1      40.356  25.997  27.398  1.00  0.00     0.029 A 
ATOM     49  C   UNL A   1      41.513  26.029  28.289  1.00  0.00     0.049 A 
ATOM     50  H   UNL A   1      41.833  27.310  29.901  1.00  0.00     0.167 HD
ATOM     51  C   UNL A   1      42.547  30.273  33.034  1.00  0.00     0.034 A 
ATOM     52  C   UNL A   1      42.578  25.207  28.215  1.00  0.00     0.034 A 
ATOM     53  C   UNL A   1      43.638  29.342  33.141  1.00  0.00     0.049 A 
ATOM     54  C   UNL A   1      43.668  25.329  29.245  1.00  0.00     0.074 A 
ATOM     55  C   UNL A   1      44.673  29.332  34.058  1.00  0.00     0.029 A 
ATOM     56  N   UNL A   1      43.836  28.256  32.303  1.00  0.00    -0.354 N 
ATOM     57  N   UNL A   1      43.764  26.167  30.249  1.00  0.00    -0.248 NA
ATOM     58  C   UNL A   1      44.774  24.364  29.159  1.00  0.00     0.031 C 
ATOM     59  C   UNL A   1      45.501  28.240  33.772  1.00  0.00     0.029 A 
ATOM     60  C   UNL A   1      44.976  27.568  32.680  1.00  0.00     0.049 A 
ATOM     61  H   UNL A   1      43.250  28.010  31.551  1.00  0.00     0.167 HD
ATOM     62  C   UNL A   1      44.923  25.812  30.932  1.00  0.00     0.074 A 
ATOM     63  C   UNL A   1      45.480  24.667  30.241  1.00  0.00     0.031 C 
ATOM     64  C   UNL A   1      45.487  26.396  32.018  1.00  0.00     0.034 A 
BRANCH  51  65
ATOM     65  C   UNL A   1      42.497  31.428  33.998  1.00  0.00     0.023 A 
ATOM     66  C   UNL A   1      43.246  32.590  33.719  1.00  0.00     0.012 A 
ATOM     67  C   UNL A   1      41.679  31.392  35.144  1.00  0.00     0.148 A 
ATOM     68  C   UNL A   1      43.208  33.685  34.580  1.00  0.00     0.002 A 
ATOM     69  C   UNL A   1      41.618  32.503  35.979  1.00  0.00     0.091 A 
ATOM     70  F   UNL A   1      40.994  30.271  35.408  1.00  0.00    -0.205 F 
ATOM     71  C   UNL A   1      42.388  33.646  35.704  1.00  0.00     0.022 A 
BRANCH  69  72
ATOM     72  S   UNL A   1      40.535  32.574  37.412  1.00  0.00     0.127 S 
ATOM     73  O   UNL A   1      40.133  33.980  37.408  1.00  0.00    -0.237 OA
ATOM     74  O   UNL A   1      39.473  31.636  37.046  1.00  0.00    -0.237 OA
ATOM     75  O   UNL A   1      41.347  32.154  38.545  1.00  0.00    -0.744 OA
ENDBRANCH  69  72
ENDBRANCH  51  65
BRANCH  52  76
ATOM     76  C   UNL A   1      42.614  24.134  27.182  1.00  0.00     0.023 A 
ATOM     77  C   UNL A   1      43.320  24.360  25.984  1.00  0.00     0.012 A 
ATOM     78  C   UNL A   1      41.994  22.888  27.390  1.00  0.00     0.148 A 
ATOM     79  C   UNL A   1      43.384  23.373  25.000  1.00  0.00     0.002 A 
ATOM     80  C   UNL A   1      42.107  21.891  26.427  1.00  0.00     0.091 A 
ATOM     81  F   UNL A   1      41.313  22.697  28.529  1.00  0.00    -0.205 F 
ATOM     82  C   UNL A   1      42.788  22.137  25.225  1.00  0.00     0.022 A 
BRANCH  80  83
ATOM     83  S   UNL A   1      41.484  20.227  26.699  1.00  0.00     0.127 S 
ATOM     84  O   UNL A   1      40.056  20.466  26.884  1.00  0.00    -0.237 OA
ATOM     85  O   UNL A   1      41.840  19.557  25.446  1.00  0.00    -0.237 OA
ATOM     86  O   UNL A   1      42.205  19.730  27.863  1.00  0.00    -0.744 OA
ENDBRANCH  80  83
ENDBRANCH  52  76
BRANCH  64  87
ATOM     87  C   UNL A   1      46.766  25.799  32.543  1.00  0.00     0.023 A 
ATOM     88  C   UNL A   1      46.720  24.912  33.637  1.00  0.00     0.012 A 
ATOM     89  C   UNL A   1      47.999  26.058  31.915  1.00  0.00     0.148 A 
ATOM     90  C   UNL A   1      47.885  24.317  34.117  1.00  0.00     0.002 A 
ATOM     91  C   UNL A   1      49.152  25.427  32.372  1.00  0.00     0.091 A 
ATOM     92  F   UNL A   1      48.030  26.923  30.889  1.00  0.00    -0.205 F 
ATOM     93  C   UNL A   1      49.097  24.564  33.479  1.00  0.00     0.022 A 
BRANCH  91  94
ATOM     94  S   UNL A   1      50.735  25.625  31.547  1.00  0.00     0.127 S 
ATOM     95  O   UNL A   1      51.616  24.819  32.391  1.00  0.00    -0.237 OA
ATOM     96  O   UNL A   1      50.475  25.058  30.222  1.00  0.00    -0.237 OA
ATOM     97  O   UNL A   1      50.999  27.058  31.542  1.00  0.00    -0.744 OA
ENDBRANCH  91  94
ENDBRANCH  64  87
ENDBRANCH  38  39
ENDBRANCH  30  33
ENDBRANCH  28  29
ENDBRANCH  27  28
ENDBRANCH   1  27
TORSDOF 19
ENDMDL
MODEL 3
REMARK VINA RESULT:     -11.6      2.258      2.670
REMARK SMILES CS(=O)(=O)c1ccc(/C=C(/C(=O)NCCCCCCNC(=O)c2ccc(-c3c4nc(c(-c5cccc(S(=O)(=O)[O-])c5F)c5ccc([nH]5)c(-c5cccc(S(=O)(=O)[O-])c5F)c5nc(c(-c6cccc(S(=O)(=O)[O-])c6F)c6ccc3[nH]6)C=C5)C=C4)cc2)c2ccccc2)cc1
REMARK SMILES IDX 17 1 16 2 15 3 14 4 13 5 11 6 12 7 10 9 9 10 8 11 5 12 6 13
REMARK SMILES IDX 93 14 7 15 92 16 2 17 1 18 3 19 4 20 86 21 87 22 91 23 88 24
REMARK SMILES IDX 90 25 89 26 18 27 19 28 20 29 21 30 22 32 23 33 24 34 85 35
REMARK SMILES IDX 25 36 84 37 26 38 27 39 28 40 78 41 29 42 83 43 77 44 79 45
REMARK SMILES IDX 30 46 82 47 76 48 75 49 31 51 63 52 43 53 62 54 44 55 47 56
REMARK SMILES IDX 61 57 80 58 45 59 46 60 60 62 81 63 48 64 32 65 33 66 41 67
REMARK SMILES IDX 34 68 36 69 42 70 35 71 37 72 38 73 39 74 40 75 64 76 65 77
REMARK SMILES IDX 73 78 66 79 68 80 74 81 67 82 69 83 70 84 71 85 72 86 49 87
REMARK SMILES IDX 50 88 58 89 51 90 53 91 59 92 52 93 54 94 55 95 56 96 57 97
REMARK H PARENT 13 8 20 31 79 50 47 61
REMARK Flexibility Score: inf
ROOT
ATOM      1  C   UNL A   1      32.102  28.027  27.504  1.00  0.00     0.002 C 
ENDROOT
BRANCH   1   2
ATOM      2  C   UNL A   1      32.040  26.854  26.518  1.00  0.00     0.002 C 
BRANCH   2   3
ATOM      3  C   UNL A   1      30.654  26.579  25.913  1.00  0.00     0.021 C 
BRANCH   3   4
ATOM      4  C   UNL A   1      30.598  25.316  25.047  1.00  0.00     0.116 C 
BRANCH   4   5
ATOM      5  N   UNL A   1      31.260  25.563  23.778  1.00  0.00    -0.352 N 
ATOM      6  C   UNL A   1      32.221  24.922  23.066  1.00  0.00     0.251 C 
ATOM      7  O   UNL A   1      32.602  25.495  22.041  1.00  0.00    -0.269 OA
ATOM      8  H   UNL A   1      30.939  26.380  23.334  1.00  0.00     0.163 HD
BRANCH   6   9
ATOM      9  C   UNL A   1      32.754  23.549  23.412  1.00  0.00     0.047 C 
ATOM     10  C   UNL A   1      31.968  22.450  23.464  1.00  0.00     0.022 C 
BRANCH  10  11
ATOM     11  C   UNL A   1      32.355  21.037  23.677  1.00  0.00    -0.025 A 
ATOM     12  C   UNL A   1      33.131  18.348  23.908  1.00  0.00     0.067 A 
ATOM     13  C   UNL A   1      33.272  19.209  24.998  1.00  0.00     0.021 A 
ATOM     14  C   UNL A   1      32.558  18.798  22.720  1.00  0.00     0.021 A 
ATOM     15  C   UNL A   1      32.870  20.544  24.882  1.00  0.00     0.009 A 
ATOM     16  C   UNL A   1      32.175  20.140  22.609  1.00  0.00     0.009 A 
BRANCH  12  17
ATOM     17  S   UNL A   1      33.656  16.658  24.068  1.00  0.00     0.175 S 
ATOM     18  C   UNL A   1      35.136  16.772  25.037  1.00  0.00     0.163 C 
ATOM     19  O   UNL A   1      34.025  16.174  22.756  1.00  0.00    -0.224 OA
ATOM     20  O   UNL A   1      32.652  15.971  24.865  1.00  0.00    -0.224 OA
ENDBRANCH  12  17
ENDBRANCH  10  11
BRANCH   9  21
ATOM     21  C   UNL A   1      34.170  23.489  23.859  1.00  0.00    -0.013 A 
ATOM     22  C   UNL A   1      34.467  23.804  25.196  1.00  0.00     0.009 A 
ATOM     23  C   UNL A   1      35.206  23.074  23.014  1.00  0.00     0.009 A 
ATOM     24  C   UNL A   1      35.768  23.689  25.686  1.00  0.00     0.001 A 
ATOM     25  C   UNL A   1      36.508  22.951  23.510  1.00  0.00     0.001 A 
ATOM     26  C   UNL A   1      36.786  23.253  24.843  1.00  0.00     0.000 A 
ENDBRANCH   9  21
ENDBRANCH   6   9
ENDBRANCH   4   5
ENDBRANCH   3   4
ENDBRANCH   2   3
ENDBRANCH   1   2
BRANCH   1  27
ATOM     27  C   UNL A   1      31.866  29.409  26.888  1.00  0.00     0.021 C 
BRANCH  27  28
ATOM     28  C   UNL A   1      33.131  30.129  26.431  1.00  0.00     0.116 C 
BRANCH  28  29
ATOM     29  N   UNL A   1      33.055  31.563  26.665  1.00  0.00    -0.352 N 
ATOM     30  C   UNL A   1      33.793  32.342  27.522  1.00  0.00     0.251 C 
ATOM     31  H   UNL A   1      32.379  32.043  26.134  1.00  0.00     0.163 HD
ATOM     32  O   UNL A   1      33.454  33.504  27.733  1.00  0.00    -0.269 OA
BRANCH  30  33
ATOM     33  C   UNL A   1      34.984  31.783  28.199  1.00  0.00     0.039 A 
ATOM     34  C   UNL A   1      34.886  30.532  28.813  1.00  0.00     0.014 A 
ATOM     35  C   UNL A   1      36.183  32.501  28.260  1.00  0.00     0.014 A 
ATOM     36  C   UNL A   1      36.000  29.982  29.454  1.00  0.00     0.010 A 
ATOM     37  C   UNL A   1      37.309  31.926  28.847  1.00  0.00     0.010 A 
ATOM     38  C   UNL A   1      37.225  30.668  29.462  1.00  0.00    -0.014 A 
BRANCH  38  39
ATOM     39  C   UNL A   1      38.425  30.086  30.117  1.00  0.00     0.031 A 
ATOM     40  C   UNL A   1      38.822  30.523  31.500  1.00  0.00     0.074 A 
ATOM     41  C   UNL A   1      39.198  29.218  29.437  1.00  0.00     0.049 A 
ATOM     42  N   UNL A   1      39.845  30.144  32.223  1.00  0.00    -0.248 NA
ATOM     43  C   UNL A   1      37.977  31.540  32.149  1.00  0.00     0.031 C 
ATOM     44  C   UNL A   1      38.969  28.782  28.058  1.00  0.00     0.029 A 
ATOM     45  N   UNL A   1      40.348  28.565  29.805  1.00  0.00    -0.354 N 
ATOM     46  C   UNL A   1      39.786  30.894  33.390  1.00  0.00     0.074 A 
ATOM     47  C   UNL A   1      38.646  31.776  33.268  1.00  0.00     0.031 C 
ATOM     48  C   UNL A   1      39.946  27.933  27.698  1.00  0.00     0.029 A 
ATOM     49  C   UNL A   1      40.876  27.773  28.813  1.00  0.00     0.049 A 
ATOM     50  H   UNL A   1      40.757  28.655  30.696  1.00  0.00     0.167 HD
ATOM     51  C   UNL A   1      40.586  30.832  34.482  1.00  0.00     0.034 A 
ATOM     52  C   UNL A   1      41.980  27.000  28.803  1.00  0.00     0.034 A 
ATOM     53  C   UNL A   1      41.683  29.913  34.627  1.00  0.00     0.049 A 
ATOM     54  C   UNL A   1      42.809  26.895  30.054  1.00  0.00     0.074 A 
ATOM     55  C   UNL A   1      42.492  29.705  35.729  1.00  0.00     0.029 A 
ATOM     56  N   UNL A   1      42.125  29.049  33.638  1.00  0.00    -0.354 N 
ATOM     57  N   UNL A   1      42.632  27.482  31.213  1.00  0.00    -0.248 NA
ATOM     58  C   UNL A   1      43.965  25.986  30.011  1.00  0.00     0.031 C 
ATOM     59  C   UNL A   1      43.427  28.716  35.405  1.00  0.00     0.029 A 
ATOM     60  C   UNL A   1      43.196  28.305  34.102  1.00  0.00     0.049 A 
ATOM     61  H   UNL A   1      41.734  28.974  32.737  1.00  0.00     0.167 HD
ATOM     62  C   UNL A   1      43.634  26.994  32.045  1.00  0.00     0.074 A 
ATOM     63  C   UNL A   1      44.397  26.042  31.264  1.00  0.00     0.031 C 
ATOM     64  C   UNL A   1      43.910  27.320  33.332  1.00  0.00     0.034 A 
BRANCH  51  65
ATOM     65  C   UNL A   1      40.256  31.736  35.640  1.00  0.00     0.023 A 
ATOM     66  C   UNL A   1      41.082  32.850  35.900  1.00  0.00     0.012 A 
ATOM     67  C   UNL A   1      39.113  31.523  36.435  1.00  0.00     0.148 A 
ATOM     68  C   UNL A   1      40.794  33.718  36.952  1.00  0.00     0.002 A 
ATOM     69  C   UNL A   1      38.813  32.415  37.460  1.00  0.00     0.091 A 
ATOM     70  F   UNL A   1      38.354  30.446  36.190  1.00  0.00    -0.205 F 
ATOM     71  C   UNL A   1      39.656  33.507  37.725  1.00  0.00     0.022 A 
BRANCH  69  72
ATOM     72  S   UNL A   1      37.330  32.266  38.464  1.00  0.00     0.127 S 
ATOM     73  O   UNL A   1      36.378  33.078  37.706  1.00  0.00    -0.237 OA
ATOM     74  O   UNL A   1      37.069  30.826  38.422  1.00  0.00    -0.237 OA
ATOM     75  O   UNL A   1      37.687  32.777  39.779  1.00  0.00    -0.744 OA
ENDBRANCH  69  72
ENDBRANCH  51  65
BRANCH  52  76
ATOM     76  C   UNL A   1      42.306  26.192  27.595  1.00  0.00     0.023 A 
ATOM     77  C   UNL A   1      43.059  26.780  26.560  1.00  0.00     0.012 A 
ATOM     78  C   UNL A   1      41.915  24.845  27.480  1.00  0.00     0.148 A 
ATOM     79  C   UNL A   1      43.393  26.049  25.420  1.00  0.00     0.002 A 
ATOM     80  C   UNL A   1      42.297  24.107  26.364  1.00  0.00     0.091 A 
ATOM     81  F   UNL A   1      41.186  24.306  28.468  1.00  0.00    -0.205 F 
ATOM     82  C   UNL A   1      43.022  24.711  25.327  1.00  0.00     0.022 A 
BRANCH  80  83
ATOM     83  S   UNL A   1      41.976  22.343  26.231  1.00  0.00     0.127 S 
ATOM     84  O   UNL A   1      42.553  21.838  27.474  1.00  0.00    -0.237 OA
ATOM     85  O   UNL A   1      40.514  22.300  26.167  1.00  0.00    -0.237 OA
ATOM     86  O   UNL A   1      42.637  21.922  25.002  1.00  0.00    -0.744 OA
ENDBRANCH  80  83
ENDBRANCH  52  76
BRANCH  64  87
ATOM     87  C   UNL A   1      45.078  26.632  33.988  1.00  0.00     0.023 A 
ATOM     88  C   UNL A   1      46.353  27.228  33.936  1.00  0.00     0.012 A 
ATOM     89  C   UNL A   1      44.902  25.437  34.712  1.00  0.00     0.148 A 
ATOM     90  C   UNL A   1      47.442  26.630  34.567  1.00  0.00     0.002 A 
ATOM     91  C   UNL A   1      45.985  24.869  35.376  1.00  0.00     0.091 A 
ATOM     92  F   UNL A   1      43.687  24.870  34.733  1.00  0.00    -0.205 F 
ATOM     93  C   UNL A   1      47.256  25.458  35.296  1.00  0.00     0.022 A 
BRANCH  91  94
ATOM     94  S   UNL A   1      45.807  23.409  36.410  1.00  0.00     0.127 S 
ATOM     95  O   UNL A   1      45.180  22.464  35.487  1.00  0.00    -0.237 OA
ATOM     96  O   UNL A   1      47.193  23.095  36.756  1.00  0.00    -0.237 OA
ATOM     97  O   UNL A   1      44.988  23.827  37.541  1.00  0.00    -0.744 OA
ENDBRANCH  91  94
ENDBRANCH  64  87
ENDBRANCH  38  39
ENDBRANCH  30  33
ENDBRANCH  28  29
ENDBRANCH  27  28
ENDBRANCH   1  27
TORSDOF 19
ENDMDL
