MODEL 1
REMARK VINA RESULT:     -11.6      0.000      0.000
REMARK SMILES CC(=O)c1nnn(-c2ccc(C(=O)NCCCCCCNC(=O)c3ccc(-c4c5nc(c(-c6cccc(S(=O)(=O)[O-])c6F)c6ccc([nH]6)c(-c6cccc(S(=O)(=O)[O-])c6F)c6nc(c(-c7cccc(S(=O)(=O)[O-])c7F)c7ccc4[nH]7)C=C6)C=C5)cc3)cc2)c1C
REMARK SMILES IDX 18 1 17 2 16 3 15 4 14 5 12 6 13 7 11 9 8 10 9 11 88 12
REMARK SMILES IDX 10 13 87 14 7 15 4 16 5 17 89 18 6 19 90 20 2 21 1 22 3 23
REMARK SMILES IDX 19 24 20 25 21 26 22 27 23 29 24 30 25 31 86 32 26 33 85 34
REMARK SMILES IDX 27 35 28 36 29 37 79 38 30 39 84 40 78 41 80 42 31 43 83 44
REMARK SMILES IDX 77 45 76 46 32 48 64 49 44 50 63 51 45 52 48 53 62 54 81 55
REMARK SMILES IDX 46 56 47 57 61 59 82 60 49 61 33 62 34 63 42 64 35 65 37 66
REMARK SMILES IDX 43 67 36 68 38 69 39 70 40 71 41 72 65 73 66 74 74 75 67 76
REMARK SMILES IDX 69 77 75 78 68 79 70 80 71 81 72 82 73 83 50 84 51 85 59 86
REMARK SMILES IDX 52 87 54 88 60 89 53 90 55 91 56 92 57 93 58 94
REMARK H PARENT 14 8 21 28 80 47 48 58
REMARK Flexibility Score: inf
ROOT
ATOM      1  C   UNL A   1      33.121  30.258  27.161  1.00  0.00     0.002 C 
ENDROOT
BRANCH   1   2
ATOM      2  C   UNL A   1      32.439  28.887  27.005  1.00  0.00     0.002 C 
BRANCH   2   3
ATOM      3  C   UNL A   1      31.384  28.792  25.894  1.00  0.00     0.021 C 
BRANCH   3   4
ATOM      4  C   UNL A   1      31.403  29.987  24.940  1.00  0.00     0.116 C 
BRANCH   4   5
ATOM      5  N   UNL A   1      30.495  29.766  23.828  1.00  0.00    -0.352 N 
ATOM      6  C   UNL A   1      30.469  28.849  22.806  1.00  0.00     0.251 C 
ATOM      7  O   UNL A   1      29.515  28.902  22.028  1.00  0.00    -0.269 OA
ATOM      8  H   UNL A   1      29.744  30.403  23.802  1.00  0.00     0.163 HD
BRANCH   6   9
ATOM      9  C   UNL A   1      31.458  27.740  22.677  1.00  0.00     0.039 A 
ATOM     10  C   UNL A   1      33.254  25.613  22.895  1.00  0.00     0.067 A 
ATOM     11  C   UNL A   1      31.889  25.359  23.014  1.00  0.00     0.029 A 
ATOM     12  C   UNL A   1      33.714  26.879  22.524  1.00  0.00     0.029 A 
ATOM     13  C   UNL A   1      30.999  26.435  22.939  1.00  0.00     0.016 A 
ATOM     14  C   UNL A   1      32.802  27.920  22.351  1.00  0.00     0.016 A 
BRANCH  10  15
ATOM     15  N   UNL A   1      34.190  24.615  23.212  1.00  0.00    -0.217 N 
ATOM     16  C   UNL A   1      35.779  23.454  24.142  1.00  0.00     0.151 A 
ATOM     17  N   UNL A   1      35.559  22.992  22.865  1.00  0.00    -0.126 NA
ATOM     18  C   UNL A   1      34.826  24.421  24.433  1.00  0.00     0.073 A 
ATOM     19  N   UNL A   1      34.495  23.611  22.371  1.00  0.00    -0.061 NA
ATOM     20  C   UNL A   1      34.414  25.141  25.662  1.00  0.00     0.069 C 
BRANCH  16  21
ATOM     21  C   UNL A   1      36.828  22.874  24.973  1.00  0.00     0.181 C 
ATOM     22  C   UNL A   1      37.088  21.392  24.887  1.00  0.00     0.095 C 
ATOM     23  O   UNL A   1      37.535  23.568  25.705  1.00  0.00    -0.293 OA
ENDBRANCH  16  21
ENDBRANCH  10  15
ENDBRANCH   6   9
ENDBRANCH   4   5
ENDBRANCH   3   4
ENDBRANCH   2   3
ENDBRANCH   1   2
BRANCH   1  24
ATOM     24  C   UNL A   1      34.617  30.243  27.513  1.00  0.00     0.021 C 
BRANCH  24  25
ATOM     25  C   UNL A   1      35.228  31.630  27.627  1.00  0.00     0.116 C 
BRANCH  25  26
ATOM     26  N   UNL A   1      34.860  32.295  28.883  1.00  0.00    -0.352 N 
ATOM     27  C   UNL A   1      35.195  31.954  30.183  1.00  0.00     0.251 C 
ATOM     28  H   UNL A   1      34.296  33.097  28.788  1.00  0.00     0.163 HD
ATOM     29  O   UNL A   1      34.531  32.351  31.127  1.00  0.00    -0.269 OA
BRANCH  27  30
ATOM     30  C   UNL A   1      36.389  31.117  30.401  1.00  0.00     0.039 A 
ATOM     31  C   UNL A   1      36.321  29.731  30.564  1.00  0.00     0.014 A 
ATOM     32  C   UNL A   1      37.614  31.772  30.421  1.00  0.00     0.014 A 
ATOM     33  C   UNL A   1      37.513  29.021  30.698  1.00  0.00     0.010 A 
ATOM     34  C   UNL A   1      38.763  31.059  30.275  1.00  0.00     0.010 A 
ATOM     35  C   UNL A   1      38.730  29.704  30.546  1.00  0.00    -0.014 A 
BRANCH  35  36
ATOM     36  C   UNL A   1      40.017  29.032  30.573  1.00  0.00     0.031 A 
ATOM     37  C   UNL A   1      40.621  28.991  31.924  1.00  0.00     0.074 A 
ATOM     38  C   UNL A   1      40.467  28.300  29.528  1.00  0.00     0.049 A 
ATOM     39  N   UNL A   1      41.616  29.690  32.356  1.00  0.00    -0.248 NA
ATOM     40  C   UNL A   1      39.907  28.255  32.981  1.00  0.00     0.031 C 
ATOM     41  C   UNL A   1      39.769  27.983  28.270  1.00  0.00     0.029 A 
ATOM     42  N   UNL A   1      41.595  27.551  29.427  1.00  0.00    -0.354 N 
ATOM     43  C   UNL A   1      41.828  29.250  33.657  1.00  0.00     0.074 A 
ATOM     44  C   UNL A   1      40.607  28.608  34.061  1.00  0.00     0.031 C 
ATOM     45  C   UNL A   1      40.363  26.926  27.674  1.00  0.00     0.029 A 
ATOM     46  C   UNL A   1      41.573  26.603  28.404  1.00  0.00     0.049 A 
ATOM     47  H   UNL A   1      42.366  27.667  30.027  1.00  0.00     0.167 HD
ATOM     48  C   UNL A   1      43.091  29.158  34.160  1.00  0.00     0.034 A 
ATOM     49  C   UNL A   1      42.463  25.598  28.211  1.00  0.00     0.034 A 
ATOM     50  C   UNL A   1      44.031  29.856  33.313  1.00  0.00     0.049 A 
ATOM     51  C   UNL A   1      43.687  25.958  28.961  1.00  0.00     0.074 A 
ATOM     52  C   UNL A   1      44.154  31.148  32.843  1.00  0.00     0.029 A 
ATOM     53  N   UNL A   1      44.798  29.074  32.481  1.00  0.00    -0.354 N 
ATOM     54  N   UNL A   1      44.437  26.980  28.658  1.00  0.00    -0.248 NA
ATOM     55  C   UNL A   1      43.812  25.468  30.324  1.00  0.00     0.031 C 
ATOM     56  C   UNL A   1      44.594  31.007  31.493  1.00  0.00     0.029 A 
ATOM     57  C   UNL A   1      44.802  29.649  31.239  1.00  0.00     0.049 A 
ATOM     58  H   UNL A   1      45.263  28.244  32.734  1.00  0.00     0.167 HD
ATOM     59  C   UNL A   1      44.744  27.550  29.886  1.00  0.00     0.074 A 
ATOM     60  C   UNL A   1      44.430  26.518  30.873  1.00  0.00     0.031 C 
ATOM     61  C   UNL A   1      44.927  28.899  30.008  1.00  0.00     0.034 A 
BRANCH  48  62
ATOM     62  C   UNL A   1      43.566  28.111  35.148  1.00  0.00     0.023 A 
ATOM     63  C   UNL A   1      44.299  28.580  36.262  1.00  0.00     0.012 A 
ATOM     64  C   UNL A   1      43.586  26.715  34.919  1.00  0.00     0.148 A 
ATOM     65  C   UNL A   1      45.071  27.721  37.052  1.00  0.00     0.002 A 
ATOM     66  C   UNL A   1      44.292  25.855  35.752  1.00  0.00     0.091 A 
ATOM     67  F   UNL A   1      43.034  26.202  33.819  1.00  0.00    -0.205 F 
ATOM     68  C   UNL A   1      45.066  26.357  36.798  1.00  0.00     0.022 A 
BRANCH  66  69
ATOM     69  S   UNL A   1      44.285  24.076  35.494  1.00  0.00     0.127 S 
ATOM     70  O   UNL A   1      42.853  23.791  35.467  1.00  0.00    -0.237 OA
ATOM     71  O   UNL A   1      44.967  23.962  34.206  1.00  0.00    -0.237 OA
ATOM     72  O   UNL A   1      45.028  23.510  36.614  1.00  0.00    -0.744 OA
ENDBRANCH  66  69
ENDBRANCH  48  62
BRANCH  49  73
ATOM     73  C   UNL A   1      42.264  24.232  27.667  1.00  0.00     0.023 A 
ATOM     74  C   UNL A   1      40.978  23.654  27.672  1.00  0.00     0.012 A 
ATOM     75  C   UNL A   1      43.262  23.624  26.873  1.00  0.00     0.148 A 
ATOM     76  C   UNL A   1      40.684  22.532  26.885  1.00  0.00     0.002 A 
ATOM     77  C   UNL A   1      42.967  22.509  26.093  1.00  0.00     0.091 A 
ATOM     78  F   UNL A   1      44.470  24.197  26.809  1.00  0.00    -0.205 F 
ATOM     79  C   UNL A   1      41.675  21.966  26.087  1.00  0.00     0.022 A 
BRANCH  77  80
ATOM     80  S   UNL A   1      44.184  21.752  25.006  1.00  0.00     0.127 S 
ATOM     81  O   UNL A   1      43.644  20.402  24.845  1.00  0.00    -0.237 OA
ATOM     82  O   UNL A   1      44.094  22.597  23.819  1.00  0.00    -0.237 OA
ATOM     83  O   UNL A   1      45.452  21.811  25.724  1.00  0.00    -0.744 OA
ENDBRANCH  77  80
ENDBRANCH  49  73
BRANCH  61  84
ATOM     84  C   UNL A   1      45.050  29.713  28.742  1.00  0.00     0.023 A 
ATOM     85  C   UNL A   1      43.935  30.119  27.977  1.00  0.00     0.012 A 
ATOM     86  C   UNL A   1      46.316  30.224  28.417  1.00  0.00     0.148 A 
ATOM     87  C   UNL A   1      44.087  31.001  26.902  1.00  0.00     0.002 A 
ATOM     88  C   UNL A   1      46.456  31.136  27.380  1.00  0.00     0.091 A 
ATOM     89  F   UNL A   1      47.365  29.829  29.156  1.00  0.00    -0.205 F 
ATOM     90  C   UNL A   1      45.346  31.521  26.612  1.00  0.00     0.022 A 
BRANCH  88  91
ATOM     91  S   UNL A   1      48.028  31.931  27.044  1.00  0.00     0.127 S 
ATOM     92  O   UNL A   1      48.385  32.466  28.356  1.00  0.00    -0.237 OA
ATOM     93  O   UNL A   1      48.856  30.812  26.592  1.00  0.00    -0.237 OA
ATOM     94  O   UNL A   1      47.761  32.927  26.012  1.00  0.00    -0.744 OA
ENDBRANCH  88  91
ENDBRANCH  61  84
ENDBRANCH  35  36
ENDBRANCH  27  30
ENDBRANCH  25  26
ENDBRANCH  24  25
ENDBRANCH   1  24
TORSDOF 18
ENDMDL
MODEL 2
REMARK VINA RESULT:     -11.6      2.712      8.275
REMARK SMILES CC(=O)c1nnn(-c2ccc(C(=O)NCCCCCCNC(=O)c3ccc(-c4c5nc(c(-c6cccc(S(=O)(=O)[O-])c6F)c6ccc([nH]6)c(-c6cccc(S(=O)(=O)[O-])c6F)c6nc(c(-c7cccc(S(=O)(=O)[O-])c7F)c7ccc4[nH]7)C=C6)C=C5)cc3)cc2)c1C
REMARK SMILES IDX 18 1 17 2 16 3 15 4 14 5 12 6 13 7 11 9 8 10 9 11 88 12
REMARK SMILES IDX 10 13 87 14 7 15 4 16 5 17 89 18 6 19 90 20 2 21 1 22 3 23
REMARK SMILES IDX 19 24 20 25 21 26 22 27 23 29 24 30 25 31 86 32 26 33 85 34
REMARK SMILES IDX 27 35 28 36 29 37 79 38 30 39 84 40 78 41 80 42 31 43 83 44
REMARK SMILES IDX 77 45 76 46 32 48 64 49 44 50 63 51 45 52 48 53 62 54 81 55
REMARK SMILES IDX 46 56 47 57 61 59 82 60 49 61 33 62 34 63 42 64 35 65 37 66
REMARK SMILES IDX 43 67 36 68 38 69 39 70 40 71 41 72 65 73 66 74 74 75 67 76
REMARK SMILES IDX 69 77 75 78 68 79 70 80 71 81 72 82 73 83 50 84 51 85 59 86
REMARK SMILES IDX 52 87 54 88 60 89 53 90 55 91 56 92 57 93 58 94
REMARK H PARENT 14 8 21 28 80 47 48 58
REMARK Flexibility Score: inf
ROOT
ATOM      1  C   UNL A   1      37.265  20.538  24.969  1.00  0.00     0.002 C 
ENDROOT
BRANCH   1   2
ATOM      2  C   UNL A   1      37.370  22.032  24.613  1.00  0.00     0.002 C 
BRANCH   2   3
ATOM      3  C   UNL A   1      36.094  22.671  24.048  1.00  0.00     0.021 C 
BRANCH   3   4
ATOM      4  C   UNL A   1      34.814  21.965  24.497  1.00  0.00     0.116 C 
BRANCH   4   5
ATOM      5  N   UNL A   1      34.609  22.139  25.924  1.00  0.00    -0.352 N 
ATOM      6  C   UNL A   1      34.045  23.141  26.676  1.00  0.00     0.251 C 
ATOM      7  O   UNL A   1      33.983  22.962  27.893  1.00  0.00    -0.269 OA
ATOM      8  H   UNL A   1      34.941  21.384  26.463  1.00  0.00     0.163 HD
BRANCH   6   9
ATOM      9  C   UNL A   1      33.409  24.351  26.080  1.00  0.00     0.039 A 
ATOM     10  C   UNL A   1      32.078  26.327  24.625  1.00  0.00     0.067 A 
ATOM     11  C   UNL A   1      31.327  25.378  25.316  1.00  0.00     0.029 A 
ATOM     12  C   UNL A   1      33.466  26.387  24.774  1.00  0.00     0.029 A 
ATOM     13  C   UNL A   1      32.002  24.370  26.012  1.00  0.00     0.016 A 
ATOM     14  C   UNL A   1      34.116  25.435  25.558  1.00  0.00     0.016 A 
BRANCH  10  15
ATOM     15  N   UNL A   1      31.453  27.198  23.715  1.00  0.00    -0.217 N 
ATOM     16  C   UNL A   1      30.332  28.831  22.814  1.00  0.00     0.151 A 
ATOM     17  N   UNL A   1      30.455  27.802  21.909  1.00  0.00    -0.126 NA
ATOM     18  C   UNL A   1      31.072  28.515  23.945  1.00  0.00     0.073 A 
ATOM     19  N   UNL A   1      31.261  26.883  22.423  1.00  0.00    -0.061 NA
ATOM     20  C   UNL A   1      31.491  29.259  25.158  1.00  0.00     0.069 C 
BRANCH  16  21
ATOM     21  C   UNL A   1      29.582  30.035  22.475  1.00  0.00     0.181 C 
ATOM     22  C   UNL A   1      29.052  30.900  23.588  1.00  0.00     0.095 C 
ATOM     23  O   UNL A   1      29.411  30.385  21.306  1.00  0.00    -0.293 OA
ENDBRANCH  16  21
ENDBRANCH  10  15
ENDBRANCH   6   9
ENDBRANCH   4   5
ENDBRANCH   3   4
ENDBRANCH   2   3
ENDBRANCH   1   2
BRANCH   1  24
ATOM     24  C   UNL A   1      38.514  19.682  24.705  1.00  0.00     0.021 C 
BRANCH  24  25
ATOM     25  C   UNL A   1      39.203  19.207  25.973  1.00  0.00     0.116 C 
BRANCH  25  26
ATOM     26  N   UNL A   1      40.593  18.801  25.729  1.00  0.00    -0.352 N 
ATOM     27  C   UNL A   1      41.743  19.572  25.738  1.00  0.00     0.251 C 
ATOM     28  H   UNL A   1      40.727  17.845  25.532  1.00  0.00     0.163 HD
ATOM     29  O   UNL A   1      42.752  19.201  25.160  1.00  0.00    -0.269 OA
BRANCH  27  30
ATOM     30  C   UNL A   1      41.726  20.845  26.482  1.00  0.00     0.039 A 
ATOM     31  C   UNL A   1      41.217  20.957  27.779  1.00  0.00     0.014 A 
ATOM     32  C   UNL A   1      42.264  21.951  25.836  1.00  0.00     0.014 A 
ATOM     33  C   UNL A   1      41.308  22.190  28.422  1.00  0.00     0.010 A 
ATOM     34  C   UNL A   1      42.595  23.057  26.555  1.00  0.00     0.010 A 
ATOM     35  C   UNL A   1      42.006  23.232  27.793  1.00  0.00    -0.014 A 
BRANCH  35  36
ATOM     36  C   UNL A   1      42.234  24.520  28.427  1.00  0.00     0.031 A 
ATOM     37  C   UNL A   1      41.122  25.473  28.215  1.00  0.00     0.074 A 
ATOM     38  C   UNL A   1      43.228  24.712  29.325  1.00  0.00     0.049 A 
ATOM     39  N   UNL A   1      41.113  26.500  27.433  1.00  0.00    -0.248 NA
ATOM     40  C   UNL A   1      39.800  25.130  28.764  1.00  0.00     0.031 C 
ATOM     41  C   UNL A   1      44.166  23.716  29.873  1.00  0.00     0.029 A 
ATOM     42  N   UNL A   1      43.519  25.816  30.060  1.00  0.00    -0.354 N 
ATOM     43  C   UNL A   1      39.871  27.092  27.631  1.00  0.00     0.074 A 
ATOM     44  C   UNL A   1      39.037  26.076  28.212  1.00  0.00     0.031 C 
ATOM     45  C   UNL A   1      44.722  24.193  31.009  1.00  0.00     0.029 A 
ATOM     46  C   UNL A   1      44.323  25.576  31.174  1.00  0.00     0.049 A 
ATOM     47  H   UNL A   1      43.190  26.713  29.825  1.00  0.00     0.167 HD
ATOM     48  C   UNL A   1      39.739  28.447  27.609  1.00  0.00     0.034 A 
ATOM     49  C   UNL A   1      44.590  26.444  32.182  1.00  0.00     0.034 A 
ATOM     50  C   UNL A   1      40.921  29.068  27.057  1.00  0.00     0.049 A 
ATOM     51  C   UNL A   1      44.288  27.800  31.672  1.00  0.00     0.074 A 
ATOM     52  C   UNL A   1      41.614  28.969  25.867  1.00  0.00     0.029 A 
ATOM     53  N   UNL A   1      41.795  29.626  27.960  1.00  0.00    -0.354 N 
ATOM     54  N   UNL A   1      44.956  28.366  30.707  1.00  0.00    -0.248 NA
ATOM     55  C   UNL A   1      42.955  28.329  31.910  1.00  0.00     0.031 C 
ATOM     56  C   UNL A   1      42.990  29.029  26.238  1.00  0.00     0.029 A 
ATOM     57  C   UNL A   1      43.064  29.249  27.615  1.00  0.00     0.049 A 
ATOM     58  H   UNL A   1      41.550  30.198  28.723  1.00  0.00     0.167 HD
ATOM     59  C   UNL A   1      43.978  28.962  29.922  1.00  0.00     0.074 A 
ATOM     60  C   UNL A   1      42.785  29.002  30.768  1.00  0.00     0.031 C 
ATOM     61  C   UNL A   1      44.138  29.080  28.570  1.00  0.00     0.034 A 
BRANCH  48  62
ATOM     62  C   UNL A   1      38.767  29.246  28.455  1.00  0.00     0.023 A 
ATOM     63  C   UNL A   1      37.980  30.207  27.778  1.00  0.00     0.012 A 
ATOM     64  C   UNL A   1      38.773  29.315  29.868  1.00  0.00     0.148 A 
ATOM     65  C   UNL A   1      37.307  31.224  28.462  1.00  0.00     0.002 A 
ATOM     66  C   UNL A   1      38.039  30.280  30.548  1.00  0.00     0.091 A 
ATOM     67  F   UNL A   1      39.588  28.537  30.580  1.00  0.00    -0.205 F 
ATOM     68  C   UNL A   1      37.334  31.260  29.849  1.00  0.00     0.022 A 
BRANCH  66  69
ATOM     69  S   UNL A   1      38.006  30.346  32.345  1.00  0.00     0.127 S 
ATOM     70  O   UNL A   1      37.586  31.725  32.577  1.00  0.00    -0.237 OA
ATOM     71  O   UNL A   1      37.005  29.328  32.659  1.00  0.00    -0.237 OA
ATOM     72  O   UNL A   1      39.356  30.008  32.779  1.00  0.00    -0.744 OA
ENDBRANCH  66  69
ENDBRANCH  48  62
BRANCH  49  73
ATOM     73  C   UNL A   1      44.822  26.195  33.626  1.00  0.00     0.023 A 
ATOM     74  C   UNL A   1      46.126  26.281  34.154  1.00  0.00     0.012 A 
ATOM     75  C   UNL A   1      43.738  26.174  34.532  1.00  0.00     0.148 A 
ATOM     76  C   UNL A   1      46.343  26.383  35.536  1.00  0.00     0.002 A 
ATOM     77  C   UNL A   1      43.957  26.274  35.903  1.00  0.00     0.091 A 
ATOM     78  F   UNL A   1      42.492  26.154  34.043  1.00  0.00    -0.205 F 
ATOM     79  C   UNL A   1      45.259  26.390  36.409  1.00  0.00     0.022 A 
BRANCH  77  80
ATOM     80  S   UNL A   1      42.604  26.333  37.088  1.00  0.00     0.127 S 
ATOM     81  O   UNL A   1      43.323  26.358  38.362  1.00  0.00    -0.237 OA
ATOM     82  O   UNL A   1      41.945  27.585  36.728  1.00  0.00    -0.237 OA
ATOM     83  O   UNL A   1      41.823  25.124  36.861  1.00  0.00    -0.744 OA
ENDBRANCH  77  80
ENDBRANCH  49  73
BRANCH  61  84
ATOM     84  C   UNL A   1      45.503  28.794  27.992  1.00  0.00     0.023 A 
ATOM     85  C   UNL A   1      46.574  29.712  28.056  1.00  0.00     0.012 A 
ATOM     86  C   UNL A   1      45.753  27.493  27.527  1.00  0.00     0.148 A 
ATOM     87  C   UNL A   1      47.860  29.342  27.647  1.00  0.00     0.002 A 
ATOM     88  C   UNL A   1      47.039  27.116  27.166  1.00  0.00     0.091 A 
ATOM     89  F   UNL A   1      44.725  26.633  27.474  1.00  0.00    -0.205 F 
ATOM     90  C   UNL A   1      48.096  28.039  27.215  1.00  0.00     0.022 A 
BRANCH  88  91
ATOM     91  S   UNL A   1      47.424  25.421  26.724  1.00  0.00     0.127 S 
ATOM     92  O   UNL A   1      48.788  25.540  26.216  1.00  0.00    -0.237 OA
ATOM     93  O   UNL A   1      47.306  24.727  28.007  1.00  0.00    -0.237 OA
ATOM     94  O   UNL A   1      46.421  25.025  25.741  1.00  0.00    -0.744 OA
ENDBRANCH  88  91
ENDBRANCH  61  84
ENDBRANCH  35  36
ENDBRANCH  27  30
ENDBRANCH  25  26
ENDBRANCH  24  25
ENDBRANCH   1  24
TORSDOF 18
ENDMDL
MODEL 3
REMARK VINA RESULT:     -11.4      2.015      2.410
REMARK SMILES CC(=O)c1nnn(-c2ccc(C(=O)NCCCCCCNC(=O)c3ccc(-c4c5nc(c(-c6cccc(S(=O)(=O)[O-])c6F)c6ccc([nH]6)c(-c6cccc(S(=O)(=O)[O-])c6F)c6nc(c(-c7cccc(S(=O)(=O)[O-])c7F)c7ccc4[nH]7)C=C6)C=C5)cc3)cc2)c1C
REMARK SMILES IDX 18 1 17 2 16 3 15 4 14 5 12 6 13 7 11 9 8 10 9 11 88 12
REMARK SMILES IDX 10 13 87 14 7 15 4 16 5 17 89 18 6 19 90 20 2 21 1 22 3 23
REMARK SMILES IDX 19 24 20 25 21 26 22 27 23 29 24 30 25 31 86 32 26 33 85 34
REMARK SMILES IDX 27 35 28 36 29 37 79 38 30 39 84 40 78 41 80 42 31 43 83 44
REMARK SMILES IDX 77 45 76 46 32 48 64 49 44 50 63 51 45 52 48 53 62 54 81 55
REMARK SMILES IDX 46 56 47 57 61 59 82 60 49 61 33 62 34 63 42 64 35 65 37 66
REMARK SMILES IDX 43 67 36 68 38 69 39 70 40 71 41 72 65 73 66 74 74 75 67 76
REMARK SMILES IDX 69 77 75 78 68 79 70 80 71 81 72 82 73 83 50 84 51 85 59 86
REMARK SMILES IDX 52 87 54 88 60 89 53 90 55 91 56 92 57 93 58 94
REMARK H PARENT 14 8 21 28 80 47 48 58
REMARK Flexibility Score: inf
ROOT
ATOM      1  C   UNL A   1      33.883  29.104  27.324  1.00  0.00     0.002 C 
ENDROOT
BRANCH   1   2
ATOM      2  C   UNL A   1      32.783  28.032  27.229  1.00  0.00     0.002 C 
BRANCH   2   3
ATOM      3  C   UNL A   1      31.848  28.145  26.017  1.00  0.00     0.021 C 
BRANCH   3   4
ATOM      4  C   UNL A   1      32.582  28.471  24.716  1.00  0.00     0.116 C 
BRANCH   4   5
ATOM      5  N   UNL A   1      31.647  28.550  23.608  1.00  0.00    -0.352 N 
ATOM      6  C   UNL A   1      31.129  27.611  22.749  1.00  0.00     0.251 C 
ATOM      7  O   UNL A   1      30.302  28.002  21.923  1.00  0.00    -0.269 OA
ATOM      8  H   UNL A   1      31.314  29.461  23.440  1.00  0.00     0.163 HD
BRANCH   6   9
ATOM      9  C   UNL A   1      31.427  26.154  22.854  1.00  0.00     0.039 A 
ATOM     10  C   UNL A   1      32.019  23.505  23.509  1.00  0.00     0.067 A 
ATOM     11  C   UNL A   1      30.762  24.014  23.830  1.00  0.00     0.029 A 
ATOM     12  C   UNL A   1      32.916  24.250  22.739  1.00  0.00     0.029 A 
ATOM     13  C   UNL A   1      30.487  25.353  23.531  1.00  0.00     0.016 A 
ATOM     14  C   UNL A   1      32.583  25.550  22.359  1.00  0.00     0.016 A 
BRANCH  10  15
ATOM     15  N   UNL A   1      32.426  22.257  24.011  1.00  0.00    -0.217 N 
ATOM     16  C   UNL A   1      32.664  20.125  24.378  1.00  0.00     0.151 A 
ATOM     17  N   UNL A   1      33.143  20.835  25.456  1.00  0.00    -0.126 NA
ATOM     18  C   UNL A   1      32.308  21.023  23.381  1.00  0.00     0.073 A 
ATOM     19  N   UNL A   1      33.124  22.125  25.152  1.00  0.00    -0.061 NA
ATOM     20  C   UNL A   1      31.919  20.897  21.955  1.00  0.00     0.069 C 
BRANCH  16  21
ATOM     21  C   UNL A   1      32.665  18.666  24.388  1.00  0.00     0.181 C 
ATOM     22  C   UNL A   1      32.618  17.948  25.710  1.00  0.00     0.095 C 
ATOM     23  O   UNL A   1      32.658  18.011  23.345  1.00  0.00    -0.293 OA
ENDBRANCH  16  21
ENDBRANCH  10  15
ENDBRANCH   6   9
ENDBRANCH   4   5
ENDBRANCH   3   4
ENDBRANCH   2   3
ENDBRANCH   1   2
BRANCH   1  24
ATOM     24  C   UNL A   1      33.414  30.568  27.326  1.00  0.00     0.021 C 
BRANCH  24  25
ATOM     25  C   UNL A   1      34.519  31.558  27.658  1.00  0.00     0.116 C 
BRANCH  25  26
ATOM     26  N   UNL A   1      34.405  32.078  29.026  1.00  0.00    -0.352 N 
ATOM     27  C   UNL A   1      35.180  31.791  30.137  1.00  0.00     0.251 C 
ATOM     28  H   UNL A   1      33.674  32.722  29.175  1.00  0.00     0.163 HD
ATOM     29  O   UNL A   1      34.757  31.988  31.265  1.00  0.00    -0.269 OA
BRANCH  27  30
ATOM     30  C   UNL A   1      36.539  31.262  29.924  1.00  0.00     0.039 A 
ATOM     31  C   UNL A   1      37.652  32.087  29.738  1.00  0.00     0.014 A 
ATOM     32  C   UNL A   1      36.677  29.880  29.934  1.00  0.00     0.014 A 
ATOM     33  C   UNL A   1      38.905  31.489  29.612  1.00  0.00     0.010 A 
ATOM     34  C   UNL A   1      37.911  29.326  30.087  1.00  0.00     0.010 A 
ATOM     35  C   UNL A   1      39.016  30.102  29.793  1.00  0.00    -0.014 A 
BRANCH  35  36
ATOM     36  C   UNL A   1      40.292  29.407  29.776  1.00  0.00     0.031 A 
ATOM     37  C   UNL A   1      40.833  29.158  31.131  1.00  0.00     0.074 A 
ATOM     38  C   UNL A   1      40.779  28.828  28.654  1.00  0.00     0.049 A 
ATOM     39  N   UNL A   1      41.816  29.767  31.702  1.00  0.00    -0.248 NA
ATOM     40  C   UNL A   1      40.062  28.289  32.036  1.00  0.00     0.031 C 
ATOM     41  C   UNL A   1      40.133  28.712  27.334  1.00  0.00     0.029 A 
ATOM     42  N   UNL A   1      41.900  28.080  28.492  1.00  0.00    -0.354 N 
ATOM     43  C   UNL A   1      41.964  29.136  32.933  1.00  0.00     0.074 A 
ATOM     44  C   UNL A   1      40.718  28.467  33.185  1.00  0.00     0.031 C 
ATOM     45  C   UNL A   1      40.740  27.742  26.615  1.00  0.00     0.029 A 
ATOM     46  C   UNL A   1      41.912  27.293  27.341  1.00  0.00     0.049 A 
ATOM     47  H   UNL A   1      42.645  28.092  29.135  1.00  0.00     0.167 HD
ATOM     48  C   UNL A   1      43.201  28.947  33.470  1.00  0.00     0.034 A 
ATOM     49  C   UNL A   1      42.796  26.309  27.040  1.00  0.00     0.034 A 
ATOM     50  C   UNL A   1      44.188  29.743  32.776  1.00  0.00     0.049 A 
ATOM     51  C   UNL A   1      43.990  26.532  27.887  1.00  0.00     0.074 A 
ATOM     52  C   UNL A   1      44.349  31.087  32.506  1.00  0.00     0.029 A 
ATOM     53  N   UNL A   1      44.981  29.077  31.871  1.00  0.00    -0.354 N 
ATOM     54  N   UNL A   1      44.765  27.572  27.770  1.00  0.00    -0.248 NA
ATOM     55  C   UNL A   1      44.046  25.845  29.167  1.00  0.00     0.031 C 
ATOM     56  C   UNL A   1      44.848  31.136  31.171  1.00  0.00     0.029 A 
ATOM     57  C   UNL A   1      45.049  29.827  30.729  1.00  0.00     0.049 A 
ATOM     58  H   UNL A   1      45.424  28.210  32.019  1.00  0.00     0.167 HD
ATOM     59  C   UNL A   1      45.025  27.950  29.081  1.00  0.00     0.074 A 
ATOM     60  C   UNL A   1      44.653  26.790  29.891  1.00  0.00     0.031 C 
ATOM     61  C   UNL A   1      45.220  29.263  29.407  1.00  0.00     0.034 A 
BRANCH  48  62
ATOM     62  C   UNL A   1      43.618  27.758  34.312  1.00  0.00     0.023 A 
ATOM     63  C   UNL A   1      44.307  28.044  35.514  1.00  0.00     0.012 A 
ATOM     64  C   UNL A   1      43.629  26.411  33.882  1.00  0.00     0.148 A 
ATOM     65  C   UNL A   1      45.031  27.064  36.201  1.00  0.00     0.002 A 
ATOM     66  C   UNL A   1      44.285  25.424  34.609  1.00  0.00     0.091 A 
ATOM     67  F   UNL A   1      43.121  26.074  32.696  1.00  0.00    -0.205 F 
ATOM     68  C   UNL A   1      45.019  25.752  35.749  1.00  0.00     0.022 A 
BRANCH  66  69
ATOM     69  S   UNL A   1      44.266  23.702  34.092  1.00  0.00     0.127 S 
ATOM     70  O   UNL A   1      45.232  23.111  35.013  1.00  0.00    -0.237 OA
ATOM     71  O   UNL A   1      42.871  23.337  34.333  1.00  0.00    -0.237 OA
ATOM     72  O   UNL A   1      44.646  23.706  32.684  1.00  0.00    -0.744 OA
ENDBRANCH  66  69
ENDBRANCH  48  62
BRANCH  49  73
ATOM     73  C   UNL A   1      42.604  25.042  26.293  1.00  0.00     0.023 A 
ATOM     74  C   UNL A   1      43.561  24.635  25.341  1.00  0.00     0.012 A 
ATOM     75  C   UNL A   1      41.652  24.092  26.727  1.00  0.00     0.148 A 
ATOM     76  C   UNL A   1      43.594  23.316  24.865  1.00  0.00     0.002 A 
ATOM     77  C   UNL A   1      41.688  22.784  26.251  1.00  0.00     0.091 A 
ATOM     78  F   UNL A   1      40.776  24.446  27.676  1.00  0.00    -0.205 F 
ATOM     79  C   UNL A   1      42.665  22.388  25.329  1.00  0.00     0.022 A 
BRANCH  77  80
ATOM     80  S   UNL A   1      40.548  21.521  26.836  1.00  0.00     0.127 S 
ATOM     81  O   UNL A   1      40.830  21.505  28.272  1.00  0.00    -0.237 OA
ATOM     82  O   UNL A   1      39.254  22.090  26.469  1.00  0.00    -0.237 OA
ATOM     83  O   UNL A   1      40.917  20.296  26.137  1.00  0.00    -0.744 OA
ENDBRANCH  77  80
ENDBRANCH  49  73
BRANCH  61  84
ATOM     84  C   UNL A   1      45.410  30.250  28.281  1.00  0.00     0.023 A 
ATOM     85  C   UNL A   1      44.333  30.866  27.607  1.00  0.00     0.012 A 
ATOM     86  C   UNL A   1      46.716  30.694  28.019  1.00  0.00     0.148 A 
ATOM     87  C   UNL A   1      44.559  31.889  26.680  1.00  0.00     0.002 A 
ATOM     88  C   UNL A   1      46.933  31.741  27.133  1.00  0.00     0.091 A 
ATOM     89  F   UNL A   1      47.727  30.099  28.669  1.00  0.00    -0.205 F 
ATOM     90  C   UNL A   1      45.859  32.336  26.453  1.00  0.00     0.022 A 
BRANCH  88  91
ATOM     91  S   UNL A   1      48.567  32.440  26.899  1.00  0.00     0.127 S 
ATOM     92  O   UNL A   1      48.876  32.948  28.234  1.00  0.00    -0.237 OA
ATOM     93  O   UNL A   1      49.352  31.273  26.491  1.00  0.00    -0.237 OA
ATOM     94  O   UNL A   1      48.425  33.453  25.859  1.00  0.00    -0.744 OA
ENDBRANCH  88  91
ENDBRANCH  61  84
ENDBRANCH  35  36
ENDBRANCH  27  30
ENDBRANCH  25  26
ENDBRANCH  24  25
ENDBRANCH   1  24
TORSDOF 18
ENDMDL
