MODEL 1
REMARK VINA RESULT:     -12.1      0.000      0.000
REMARK SMILES C[C@H]1CN(C(=O)N2CC[NH+]([C@@H](C)C(=O)NCCCCCCNC(=O)c3ccc(-c4c5nc(c(-c6cccc(S(=O)(=O)[O-])c6F)c6ccc([nH]6)c(-c6cccc(S(=O)(=O)[O-])c6F)c6nc(c(-c7cccc(S(=O)(=O)[O-])c7F)c7ccc4[nH]7)C=C6)C=C5)cc3)CC2)C[C@@H]1C
REMARK SMILES IDX 19 1 18 2 17 3 16 4 15 5 13 6 14 7 11 9 12 10 10 11 1 12
REMARK SMILES IDX 2 13 3 14 91 15 4 16 90 17 92 18 5 19 6 20 7 21 8 22 89 23
REMARK SMILES IDX 9 24 88 25 20 27 21 28 22 29 23 30 24 32 25 33 26 34 87 35
REMARK SMILES IDX 27 36 86 37 28 38 29 39 30 40 80 41 31 42 85 43 79 44 81 45
REMARK SMILES IDX 32 46 84 47 78 48 77 49 33 51 65 52 45 53 64 54 46 55 49 56
REMARK SMILES IDX 63 57 82 58 47 59 48 60 62 62 83 63 50 64 34 65 35 66 43 67
REMARK SMILES IDX 36 68 38 69 44 70 37 71 39 72 40 73 41 74 42 75 66 76 67 77
REMARK SMILES IDX 75 78 68 79 70 80 76 81 69 82 71 83 72 84 73 85 74 86 51 87
REMARK SMILES IDX 52 88 60 89 53 90 55 91 61 92 54 93 56 94 57 95 58 96 59 97
REMARK H PARENT 15 8 10 26 22 31 81 50 49 61
REMARK Flexibility Score: inf
ROOT
ATOM      1  C   UNL A   1      31.344  30.527  26.055  1.00  0.00     0.002 C 
ENDROOT
BRANCH   1   2
ATOM      2  C   UNL A   1      32.586  29.734  26.471  1.00  0.00     0.002 C 
BRANCH   2   3
ATOM      3  C   UNL A   1      32.300  28.539  27.378  1.00  0.00     0.021 C 
BRANCH   3   4
ATOM      4  C   UNL A   1      32.357  27.181  26.665  1.00  0.00     0.116 C 
BRANCH   4   5
ATOM      5  N   UNL A   1      31.130  26.437  26.879  1.00  0.00    -0.351 N 
ATOM      6  C   UNL A   1      30.389  25.629  26.072  1.00  0.00     0.278 C 
ATOM      7  O   UNL A   1      29.296  25.268  26.532  1.00  0.00    -0.268 OA
ATOM      8  H   UNL A   1      30.761  26.537  27.786  1.00  0.00     0.163 HD
BRANCH   6   9
ATOM      9  C   UNL A   1      30.856  25.111  24.682  1.00  0.00     0.271 C 
ATOM     10  C   UNL A   1      30.518  26.064  23.537  1.00  0.00     0.086 C 
BRANCH   9  11
ATOM     11  N   UNL A   1      30.705  23.646  24.507  1.00  0.00    -0.322 N 
ATOM     12  C   UNL A   1      32.525  17.257  26.261  1.00  0.00     0.010 C 
ATOM     13  C   UNL A   1      32.516  17.721  24.801  1.00  0.00     0.010 C 
ATOM     14  C   UNL A   1      32.393  19.236  24.716  1.00  0.00     0.125 C 
ATOM     15  C   UNL A   1      33.862  17.458  24.095  1.00  0.00     0.010 C 
ATOM     16  N   UNL A   1      33.761  19.723  24.749  1.00  0.00    -0.324 N 
ATOM     17  C   UNL A   1      34.722  18.651  24.541  1.00  0.00     0.125 C 
ATOM     18  C   UNL A   1      33.706  17.448  22.569  1.00  0.00     0.010 C 
ATOM     19  C   UNL A   1      34.115  21.047  24.676  1.00  0.00     0.320 C 
ATOM     20  O   UNL A   1      35.263  21.447  24.496  1.00  0.00    -0.248 OA
ATOM     21  N   UNL A   1      33.037  21.898  24.667  1.00  0.00    -0.313 N 
ATOM     22  C   UNL A   1      32.842  22.728  23.502  1.00  0.00     0.183 C 
ATOM     23  C   UNL A   1      32.465  22.396  25.908  1.00  0.00     0.183 C 
ATOM     24  C   UNL A   1      31.344  23.017  23.346  1.00  0.00     0.284 C 
ATOM     25  C   UNL A   1      30.997  22.848  25.721  1.00  0.00     0.284 C 
ATOM     26  H   UNL A   1      29.706  23.618  24.308  1.00  0.00     0.348 HD
ENDBRANCH   9  11
ENDBRANCH   6   9
ENDBRANCH   4   5
ENDBRANCH   3   4
ENDBRANCH   2   3
ENDBRANCH   1   2
BRANCH   1  27
ATOM     27  C   UNL A   1      31.364  32.016  26.418  1.00  0.00     0.021 C 
BRANCH  27  28
ATOM     28  C   UNL A   1      32.575  32.465  27.230  1.00  0.00     0.116 C 
BRANCH  28  29
ATOM     29  N   UNL A   1      32.481  33.867  27.610  1.00  0.00    -0.352 N 
ATOM     30  C   UNL A   1      33.125  34.548  28.614  1.00  0.00     0.251 C 
ATOM     31  H   UNL A   1      31.863  34.407  27.067  1.00  0.00     0.163 HD
ATOM     32  O   UNL A   1      32.736  35.661  28.944  1.00  0.00    -0.269 OA
BRANCH  30  33
ATOM     33  C   UNL A   1      34.288  33.935  29.291  1.00  0.00     0.039 A 
ATOM     34  C   UNL A   1      35.567  34.418  29.011  1.00  0.00     0.014 A 
ATOM     35  C   UNL A   1      34.116  32.864  30.173  1.00  0.00     0.014 A 
ATOM     36  C   UNL A   1      36.674  33.853  29.647  1.00  0.00     0.010 A 
ATOM     37  C   UNL A   1      35.211  32.353  30.863  1.00  0.00     0.010 A 
ATOM     38  C   UNL A   1      36.503  32.830  30.595  1.00  0.00    -0.014 A 
BRANCH  38  39
ATOM     39  C   UNL A   1      37.666  32.238  31.305  1.00  0.00     0.031 A 
ATOM     40  C   UNL A   1      38.437  31.105  30.683  1.00  0.00     0.074 A 
ATOM     41  C   UNL A   1      37.979  32.670  32.542  1.00  0.00     0.049 A 
ATOM     42  N   UNL A   1      39.452  30.436  31.164  1.00  0.00    -0.248 NA
ATOM     43  C   UNL A   1      37.992  30.644  29.357  1.00  0.00     0.031 C 
ATOM     44  C   UNL A   1      37.258  33.708  33.283  1.00  0.00     0.029 A 
ATOM     45  N   UNL A   1      38.971  32.276  33.404  1.00  0.00    -0.354 N 
ATOM     46  C   UNL A   1      39.747  29.459  30.220  1.00  0.00     0.074 A 
ATOM     47  C   UNL A   1      38.776  29.596  29.156  1.00  0.00     0.031 C 
ATOM     48  C   UNL A   1      37.838  33.877  34.482  1.00  0.00     0.029 A 
ATOM     49  C   UNL A   1      38.952  32.941  34.607  1.00  0.00     0.049 A 
ATOM     50  H   UNL A   1      39.633  31.584  33.182  1.00  0.00     0.167 HD
ATOM     51  C   UNL A   1      40.752  28.552  30.220  1.00  0.00     0.034 A 
ATOM     52  C   UNL A   1      39.742  32.811  35.691  1.00  0.00     0.034 A 
ATOM     53  C   UNL A   1      41.738  28.447  31.263  1.00  0.00     0.049 A 
ATOM     54  C   UNL A   1      40.875  31.820  35.651  1.00  0.00     0.074 A 
ATOM     55  C   UNL A   1      42.842  27.617  31.323  1.00  0.00     0.029 A 
ATOM     56  N   UNL A   1      41.735  29.194  32.431  1.00  0.00    -0.354 N 
ATOM     57  N   UNL A   1      41.230  31.011  34.683  1.00  0.00    -0.248 NA
ATOM     58  C   UNL A   1      41.740  31.754  36.838  1.00  0.00     0.031 C 
ATOM     59  C   UNL A   1      43.495  27.846  32.539  1.00  0.00     0.029 A 
ATOM     60  C   UNL A   1      42.814  28.841  33.222  1.00  0.00     0.049 A 
ATOM     61  H   UNL A   1      41.064  29.876  32.663  1.00  0.00     0.167 HD
ATOM     62  C   UNL A   1      42.382  30.369  35.125  1.00  0.00     0.074 A 
ATOM     63  C   UNL A   1      42.674  30.900  36.442  1.00  0.00     0.031 C 
ATOM     64  C   UNL A   1      43.123  29.418  34.505  1.00  0.00     0.034 A 
BRANCH  51  65
ATOM     65  C   UNL A   1      40.866  27.635  29.029  1.00  0.00     0.023 A 
ATOM     66  C   UNL A   1      40.008  26.521  28.925  1.00  0.00     0.012 A 
ATOM     67  C   UNL A   1      41.784  27.897  27.993  1.00  0.00     0.148 A 
ATOM     68  C   UNL A   1      40.088  25.658  27.832  1.00  0.00     0.002 A 
ATOM     69  C   UNL A   1      41.826  27.059  26.883  1.00  0.00     0.091 A 
ATOM     70  F   UNL A   1      42.607  28.948  28.116  1.00  0.00    -0.205 F 
ATOM     71  C   UNL A   1      40.990  25.933  26.807  1.00  0.00     0.022 A 
BRANCH  69  72
ATOM     72  S   UNL A   1      42.895  27.371  25.473  1.00  0.00     0.127 S 
ATOM     73  O   UNL A   1      44.138  27.772  26.129  1.00  0.00    -0.237 OA
ATOM     74  O   UNL A   1      42.944  26.059  24.827  1.00  0.00    -0.237 OA
ATOM     75  O   UNL A   1      42.237  28.408  24.692  1.00  0.00    -0.744 OA
ENDBRANCH  69  72
ENDBRANCH  51  65
BRANCH  52  76
ATOM     76  C   UNL A   1      39.541  33.696  36.873  1.00  0.00     0.023 A 
ATOM     77  C   UNL A   1      39.921  35.050  36.792  1.00  0.00     0.012 A 
ATOM     78  C   UNL A   1      38.960  33.215  38.062  1.00  0.00     0.148 A 
ATOM     79  C   UNL A   1      39.757  35.902  37.885  1.00  0.00     0.002 A 
ATOM     80  C   UNL A   1      38.750  34.083  39.128  1.00  0.00     0.091 A 
ATOM     81  F   UNL A   1      38.613  31.922  38.122  1.00  0.00    -0.205 F 
ATOM     82  C   UNL A   1      39.164  35.421  39.048  1.00  0.00     0.022 A 
BRANCH  80  83
ATOM     83  S   UNL A   1      37.880  33.587  40.620  1.00  0.00     0.127 S 
ATOM     84  O   UNL A   1      38.830  32.656  41.223  1.00  0.00    -0.237 OA
ATOM     85  O   UNL A   1      37.735  34.862  41.322  1.00  0.00    -0.237 OA
ATOM     86  O   UNL A   1      36.624  33.004  40.165  1.00  0.00    -0.744 OA
ENDBRANCH  80  83
ENDBRANCH  52  76
BRANCH  64  87
ATOM     87  C   UNL A   1      44.353  28.918  35.218  1.00  0.00     0.023 A 
ATOM     88  C   UNL A   1      45.607  29.500  34.951  1.00  0.00     0.012 A 
ATOM     89  C   UNL A   1      44.251  27.915  36.202  1.00  0.00     0.148 A 
ATOM     90  C   UNL A   1      46.748  29.067  35.626  1.00  0.00     0.002 A 
ATOM     91  C   UNL A   1      45.383  27.524  36.907  1.00  0.00     0.091 A 
ATOM     92  F   UNL A   1      43.053  27.358  36.428  1.00  0.00    -0.205 F 
ATOM     93  C   UNL A   1      46.635  28.088  36.611  1.00  0.00     0.022 A 
BRANCH  91  94
ATOM     94  S   UNL A   1      45.313  26.344  38.260  1.00  0.00     0.127 S 
ATOM     95  O   UNL A   1      44.792  25.153  37.590  1.00  0.00    -0.237 OA
ATOM     96  O   UNL A   1      46.716  26.251  38.664  1.00  0.00    -0.237 OA
ATOM     97  O   UNL A   1      44.435  26.935  39.261  1.00  0.00    -0.744 OA
ENDBRANCH  91  94
ENDBRANCH  64  87
ENDBRANCH  38  39
ENDBRANCH  30  33
ENDBRANCH  28  29
ENDBRANCH  27  28
ENDBRANCH   1  27
TORSDOF 17
ENDMDL
MODEL 2
REMARK VINA RESULT:     -12.0      1.382      1.999
REMARK SMILES C[C@H]1CN(C(=O)N2CC[NH+]([C@@H](C)C(=O)NCCCCCCNC(=O)c3ccc(-c4c5nc(c(-c6cccc(S(=O)(=O)[O-])c6F)c6ccc([nH]6)c(-c6cccc(S(=O)(=O)[O-])c6F)c6nc(c(-c7cccc(S(=O)(=O)[O-])c7F)c7ccc4[nH]7)C=C6)C=C5)cc3)CC2)C[C@@H]1C
REMARK SMILES IDX 19 1 18 2 17 3 16 4 15 5 13 6 14 7 11 9 12 10 10 11 1 12
REMARK SMILES IDX 2 13 3 14 91 15 4 16 90 17 92 18 5 19 6 20 7 21 8 22 89 23
REMARK SMILES IDX 9 24 88 25 20 27 21 28 22 29 23 30 24 32 25 33 26 34 87 35
REMARK SMILES IDX 27 36 86 37 28 38 29 39 30 40 80 41 31 42 85 43 79 44 81 45
REMARK SMILES IDX 32 46 84 47 78 48 77 49 33 51 65 52 45 53 64 54 46 55 49 56
REMARK SMILES IDX 63 57 82 58 47 59 48 60 62 62 83 63 50 64 34 65 35 66 43 67
REMARK SMILES IDX 36 68 38 69 44 70 37 71 39 72 40 73 41 74 42 75 66 76 67 77
REMARK SMILES IDX 75 78 68 79 70 80 76 81 69 82 71 83 72 84 73 85 74 86 51 87
REMARK SMILES IDX 52 88 60 89 53 90 55 91 61 92 54 93 56 94 57 95 58 96 59 97
REMARK H PARENT 15 8 10 26 22 31 81 50 49 61
REMARK Flexibility Score: inf
ROOT
ATOM      1  C   UNL A   1      31.609  30.707  26.913  1.00  0.00     0.002 C 
ENDROOT
BRANCH   1   2
ATOM      2  C   UNL A   1      33.016  30.134  27.104  1.00  0.00     0.002 C 
BRANCH   2   3
ATOM      3  C   UNL A   1      33.547  29.345  25.908  1.00  0.00     0.021 C 
BRANCH   3   4
ATOM      4  C   UNL A   1      32.782  29.596  24.601  1.00  0.00     0.116 C 
BRANCH   4   5
ATOM      5  N   UNL A   1      33.493  29.026  23.472  1.00  0.00    -0.351 N 
ATOM      6  C   UNL A   1      33.169  28.055  22.574  1.00  0.00     0.278 C 
ATOM      7  O   UNL A   1      34.083  27.698  21.818  1.00  0.00    -0.268 OA
ATOM      8  H   UNL A   1      34.385  29.417  23.328  1.00  0.00     0.163 HD
BRANCH   6   9
ATOM      9  C   UNL A   1      31.749  27.440  22.421  1.00  0.00     0.271 C 
ATOM     10  C   UNL A   1      30.643  28.489  22.326  1.00  0.00     0.086 C 
BRANCH   9  11
ATOM     11  N   UNL A   1      31.543  26.204  23.215  1.00  0.00    -0.322 N 
ATOM     12  C   UNL A   1      34.021  21.445  27.505  1.00  0.00     0.010 C 
ATOM     13  C   UNL A   1      33.318  21.065  26.199  1.00  0.00     0.010 C 
ATOM     14  C   UNL A   1      33.159  22.281  25.297  1.00  0.00     0.125 C 
ATOM     15  C   UNL A   1      34.172  20.118  25.330  1.00  0.00     0.010 C 
ATOM     16  N   UNL A   1      34.376  22.319  24.505  1.00  0.00    -0.324 N 
ATOM     17  C   UNL A   1      35.131  21.080  24.614  1.00  0.00     0.125 C 
ATOM     18  C   UNL A   1      33.311  19.360  24.310  1.00  0.00     0.010 C 
ATOM     19  C   UNL A   1      34.645  23.257  23.540  1.00  0.00     0.320 C 
ATOM     20  O   UNL A   1      35.567  23.174  22.733  1.00  0.00    -0.248 OA
ATOM     21  N   UNL A   1      33.685  24.235  23.451  1.00  0.00    -0.313 N 
ATOM     22  C   UNL A   1      32.955  24.356  22.211  1.00  0.00     0.183 C 
ATOM     23  C   UNL A   1      33.765  25.439  24.264  1.00  0.00     0.183 C 
ATOM     24  C   UNL A   1      31.560  24.917  22.511  1.00  0.00     0.284 C 
ATOM     25  C   UNL A   1      32.380  26.109  24.433  1.00  0.00     0.284 C 
ATOM     26  H   UNL A   1      30.569  26.351  23.476  1.00  0.00     0.348 HD
ENDBRANCH   9  11
ENDBRANCH   6   9
ENDBRANCH   4   5
ENDBRANCH   3   4
ENDBRANCH   2   3
ENDBRANCH   1   2
BRANCH   1  27
ATOM     27  C   UNL A   1      31.516  32.237  26.924  1.00  0.00     0.021 C 
BRANCH  27  28
ATOM     28  C   UNL A   1      32.827  32.961  27.224  1.00  0.00     0.116 C 
BRANCH  28  29
ATOM     29  N   UNL A   1      32.598  34.312  27.713  1.00  0.00    -0.352 N 
ATOM     30  C   UNL A   1      33.101  34.937  28.827  1.00  0.00     0.251 C 
ATOM     31  H   UNL A   1      31.991  34.859  27.164  1.00  0.00     0.163 HD
ATOM     32  O   UNL A   1      32.605  35.987  29.215  1.00  0.00    -0.269 OA
BRANCH  30  33
ATOM     33  C   UNL A   1      34.242  34.340  29.554  1.00  0.00     0.039 A 
ATOM     34  C   UNL A   1      33.991  33.414  30.568  1.00  0.00     0.014 A 
ATOM     35  C   UNL A   1      35.554  34.722  29.257  1.00  0.00     0.014 A 
ATOM     36  C   UNL A   1      35.060  32.838  31.258  1.00  0.00     0.010 A 
ATOM     37  C   UNL A   1      36.620  34.092  29.893  1.00  0.00     0.010 A 
ATOM     38  C   UNL A   1      36.383  33.156  30.912  1.00  0.00    -0.014 A 
BRANCH  38  39
ATOM     39  C   UNL A   1      37.533  32.530  31.613  1.00  0.00     0.031 A 
ATOM     40  C   UNL A   1      38.281  31.392  30.974  1.00  0.00     0.074 A 
ATOM     41  C   UNL A   1      37.856  32.938  32.856  1.00  0.00     0.049 A 
ATOM     42  N   UNL A   1      39.283  30.694  31.444  1.00  0.00    -0.248 NA
ATOM     43  C   UNL A   1      37.827  30.959  29.641  1.00  0.00     0.031 C 
ATOM     44  C   UNL A   1      37.156  33.979  33.613  1.00  0.00     0.029 A 
ATOM     45  N   UNL A   1      38.840  32.511  33.712  1.00  0.00    -0.354 N 
ATOM     46  C   UNL A   1      39.557  29.726  30.486  1.00  0.00     0.074 A 
ATOM     47  C   UNL A   1      38.589  29.898  29.425  1.00  0.00     0.031 C 
ATOM     48  C   UNL A   1      37.740  34.118  34.814  1.00  0.00     0.029 A 
ATOM     49  C   UNL A   1      38.835  33.158  34.924  1.00  0.00     0.049 A 
ATOM     50  H   UNL A   1      39.488  31.809  33.479  1.00  0.00     0.167 HD
ATOM     51  C   UNL A   1      40.544  28.799  30.472  1.00  0.00     0.034 A 
ATOM     52  C   UNL A   1      39.623  32.996  36.006  1.00  0.00     0.034 A 
ATOM     53  C   UNL A   1      41.527  28.659  31.512  1.00  0.00     0.049 A 
ATOM     54  C   UNL A   1      40.735  31.984  35.951  1.00  0.00     0.074 A 
ATOM     55  C   UNL A   1      42.615  27.805  31.560  1.00  0.00     0.029 A 
ATOM     56  N   UNL A   1      41.541  29.388  32.691  1.00  0.00    -0.354 N 
ATOM     57  N   UNL A   1      41.073  31.181  34.970  1.00  0.00    -0.248 NA
ATOM     58  C   UNL A   1      41.598  31.882  37.136  1.00  0.00     0.031 C 
ATOM     59  C   UNL A   1      43.272  28.002  32.779  1.00  0.00     0.029 A 
ATOM     60  C   UNL A   1      42.613  29.001  33.477  1.00  0.00     0.049 A 
ATOM     61  H   UNL A   1      40.884  30.080  32.934  1.00  0.00     0.167 HD
ATOM     62  C   UNL A   1      42.212  30.509  35.403  1.00  0.00     0.074 A 
ATOM     63  C   UNL A   1      42.516  31.015  36.726  1.00  0.00     0.031 C 
ATOM     64  C   UNL A   1      42.933  29.553  34.768  1.00  0.00     0.034 A 
BRANCH  51  65
ATOM     65  C   UNL A   1      40.639  27.897  29.268  1.00  0.00     0.023 A 
ATOM     66  C   UNL A   1      39.831  26.743  29.197  1.00  0.00     0.012 A 
ATOM     67  C   UNL A   1      41.487  28.211  28.188  1.00  0.00     0.148 A 
ATOM     68  C   UNL A   1      39.895  25.894  28.094  1.00  0.00     0.002 A 
ATOM     69  C   UNL A   1      41.511  27.384  27.069  1.00  0.00     0.091 A 
ATOM     70  F   UNL A   1      42.264  29.299  28.278  1.00  0.00    -0.205 F 
ATOM     71  C   UNL A   1      40.726  26.220  27.026  1.00  0.00     0.022 A 
BRANCH  69  72
ATOM     72  S   UNL A   1      42.488  27.758  25.608  1.00  0.00     0.127 S 
ATOM     73  O   UNL A   1      42.158  26.632  24.736  1.00  0.00    -0.237 OA
ATOM     74  O   UNL A   1      41.929  29.041  25.184  1.00  0.00    -0.237 OA
ATOM     75  O   UNL A   1      43.872  27.817  26.056  1.00  0.00    -0.744 OA
ENDBRANCH  69  72
ENDBRANCH  51  65
BRANCH  52  76
ATOM     76  C   UNL A   1      39.440  33.868  37.201  1.00  0.00     0.023 A 
ATOM     77  C   UNL A   1      39.900  35.199  37.159  1.00  0.00     0.012 A 
ATOM     78  C   UNL A   1      38.799  33.398  38.363  1.00  0.00     0.148 A 
ATOM     79  C   UNL A   1      39.755  36.037  38.265  1.00  0.00     0.002 A 
ATOM     80  C   UNL A   1      38.610  34.255  39.442  1.00  0.00     0.091 A 
ATOM     81  F   UNL A   1      38.376  32.126  38.385  1.00  0.00    -0.205 F 
ATOM     82  C   UNL A   1      39.103  35.568  39.402  1.00  0.00     0.022 A 
BRANCH  80  83
ATOM     83  S   UNL A   1      37.670  33.781  40.898  1.00  0.00     0.127 S 
ATOM     84  O   UNL A   1      37.452  35.072  41.545  1.00  0.00    -0.237 OA
ATOM     85  O   UNL A   1      36.477  33.179  40.303  1.00  0.00    -0.237 OA
ATOM     86  O   UNL A   1      38.518  32.845  41.624  1.00  0.00    -0.744 OA
ENDBRANCH  80  83
ENDBRANCH  52  76
BRANCH  64  87
ATOM     87  C   UNL A   1      44.153  29.017  35.473  1.00  0.00     0.023 A 
ATOM     88  C   UNL A   1      45.403  29.639  35.287  1.00  0.00     0.012 A 
ATOM     89  C   UNL A   1      44.043  27.938  36.371  1.00  0.00     0.148 A 
ATOM     90  C   UNL A   1      46.533  29.172  35.957  1.00  0.00     0.002 A 
ATOM     91  C   UNL A   1      45.163  27.510  37.074  1.00  0.00     0.091 A 
ATOM     92  F   UNL A   1      42.850  27.346  36.519  1.00  0.00    -0.205 F 
ATOM     93  C   UNL A   1      46.412  28.116  36.858  1.00  0.00     0.022 A 
BRANCH  91  94
ATOM     94  S   UNL A   1      45.079  26.226  38.327  1.00  0.00     0.127 S 
ATOM     95  O   UNL A   1      44.072  26.766  39.240  1.00  0.00    -0.237 OA
ATOM     96  O   UNL A   1      44.639  25.064  37.552  1.00  0.00    -0.237 OA
ATOM     97  O   UNL A   1      46.424  26.111  38.874  1.00  0.00    -0.744 OA
ENDBRANCH  91  94
ENDBRANCH  64  87
ENDBRANCH  38  39
ENDBRANCH  30  33
ENDBRANCH  28  29
ENDBRANCH  27  28
ENDBRANCH   1  27
TORSDOF 17
ENDMDL
MODEL 3
REMARK VINA RESULT:     -11.5      3.636      8.666
REMARK SMILES C[C@H]1CN(C(=O)N2CC[NH+]([C@@H](C)C(=O)NCCCCCCNC(=O)c3ccc(-c4c5nc(c(-c6cccc(S(=O)(=O)[O-])c6F)c6ccc([nH]6)c(-c6cccc(S(=O)(=O)[O-])c6F)c6nc(c(-c7cccc(S(=O)(=O)[O-])c7F)c7ccc4[nH]7)C=C6)C=C5)cc3)CC2)C[C@@H]1C
REMARK SMILES IDX 19 1 18 2 17 3 16 4 15 5 13 6 14 7 11 9 12 10 10 11 1 12
REMARK SMILES IDX 2 13 3 14 91 15 4 16 90 17 92 18 5 19 6 20 7 21 8 22 89 23
REMARK SMILES IDX 9 24 88 25 20 27 21 28 22 29 23 30 24 32 25 33 26 34 87 35
REMARK SMILES IDX 27 36 86 37 28 38 29 39 30 40 80 41 31 42 85 43 79 44 81 45
REMARK SMILES IDX 32 46 84 47 78 48 77 49 33 51 65 52 45 53 64 54 46 55 49 56
REMARK SMILES IDX 63 57 82 58 47 59 48 60 62 62 83 63 50 64 34 65 35 66 43 67
REMARK SMILES IDX 36 68 38 69 44 70 37 71 39 72 40 73 41 74 42 75 66 76 67 77
REMARK SMILES IDX 75 78 68 79 70 80 76 81 69 82 71 83 72 84 73 85 74 86 51 87
REMARK SMILES IDX 52 88 60 89 53 90 55 91 61 92 54 93 56 94 57 95 58 96 59 97
REMARK H PARENT 15 8 10 26 22 31 81 50 49 61
REMARK Flexibility Score: inf
ROOT
ATOM      1  C   UNL A   1      31.673  28.760  26.594  1.00  0.00     0.002 C 
ENDROOT
BRANCH   1   2
ATOM      2  C   UNL A   1      31.306  29.709  25.451  1.00  0.00     0.002 C 
BRANCH   2   3
ATOM      3  C   UNL A   1      31.374  29.082  24.059  1.00  0.00     0.021 C 
BRANCH   3   4
ATOM      4  C   UNL A   1      30.427  27.890  23.861  1.00  0.00     0.116 C 
BRANCH   4   5
ATOM      5  N   UNL A   1      30.748  27.177  22.639  1.00  0.00    -0.351 N 
ATOM      6  C   UNL A   1      31.575  26.128  22.375  1.00  0.00     0.278 C 
ATOM      7  O   UNL A   1      31.733  25.860  21.176  1.00  0.00    -0.268 OA
ATOM      8  H   UNL A   1      30.275  27.519  21.847  1.00  0.00     0.163 HD
BRANCH   6   9
ATOM      9  C   UNL A   1      32.255  25.251  23.464  1.00  0.00     0.271 C 
ATOM     10  C   UNL A   1      33.675  25.700  23.802  1.00  0.00     0.086 C 
BRANCH   9  11
ATOM     11  N   UNL A   1      31.931  23.807  23.359  1.00  0.00    -0.322 N 
ATOM     12  C   UNL A   1      32.274  17.459  25.964  1.00  0.00     0.010 C 
ATOM     13  C   UNL A   1      32.694  17.763  24.523  1.00  0.00     0.010 C 
ATOM     14  C   UNL A   1      32.827  19.264  24.304  1.00  0.00     0.125 C 
ATOM     15  C   UNL A   1      34.116  17.255  24.209  1.00  0.00     0.010 C 
ATOM     16  N   UNL A   1      34.202  19.571  24.654  1.00  0.00    -0.324 N 
ATOM     17  C   UNL A   1      35.011  18.368  24.776  1.00  0.00     0.125 C 
ATOM     18  C   UNL A   1      34.340  17.104  22.698  1.00  0.00     0.010 C 
ATOM     19  C   UNL A   1      34.760  20.823  24.583  1.00  0.00     0.320 C 
ATOM     20  O   UNL A   1      35.964  21.050  24.678  1.00  0.00    -0.248 OA
ATOM     21  N   UNL A   1      33.859  21.800  24.237  1.00  0.00    -0.313 N 
ATOM     22  C   UNL A   1      34.084  22.520  23.006  1.00  0.00     0.183 C 
ATOM     23  C   UNL A   1      33.082  22.496  25.251  1.00  0.00     0.183 C 
ATOM     24  C   UNL A   1      32.732  22.981  22.449  1.00  0.00     0.284 C 
ATOM     25  C   UNL A   1      31.792  23.112  24.659  1.00  0.00     0.284 C 
ATOM     26  H   UNL A   1      31.019  23.888  22.911  1.00  0.00     0.348 HD
ENDBRANCH   9  11
ENDBRANCH   6   9
ENDBRANCH   4   5
ENDBRANCH   3   4
ENDBRANCH   2   3
ENDBRANCH   1   2
BRANCH   1  27
ATOM     27  C   UNL A   1      33.002  28.015  26.429  1.00  0.00     0.021 C 
BRANCH  27  28
ATOM     28  C   UNL A   1      34.232  28.911  26.306  1.00  0.00     0.116 C 
BRANCH  28  29
ATOM     29  N   UNL A   1      34.018  30.211  26.925  1.00  0.00    -0.352 N 
ATOM     30  C   UNL A   1      34.706  30.820  27.945  1.00  0.00     0.251 C 
ATOM     31  H   UNL A   1      33.268  30.731  26.556  1.00  0.00     0.163 HD
ATOM     32  O   UNL A   1      34.232  31.803  28.500  1.00  0.00    -0.269 OA
BRANCH  30  33
ATOM     33  C   UNL A   1      36.019  30.287  28.368  1.00  0.00     0.039 A 
ATOM     34  C   UNL A   1      37.147  30.575  27.597  1.00  0.00     0.014 A 
ATOM     35  C   UNL A   1      36.129  29.478  29.503  1.00  0.00     0.014 A 
ATOM     36  C   UNL A   1      38.395  30.084  27.987  1.00  0.00     0.010 A 
ATOM     37  C   UNL A   1      37.383  29.053  29.932  1.00  0.00     0.010 A 
ATOM     38  C   UNL A   1      38.526  29.337  29.170  1.00  0.00    -0.014 A 
BRANCH  38  39
ATOM     39  C   UNL A   1      39.850  28.834  29.618  1.00  0.00     0.031 A 
ATOM     40  C   UNL A   1      40.586  29.528  30.732  1.00  0.00     0.074 A 
ATOM     41  C   UNL A   1      40.420  27.798  28.973  1.00  0.00     0.049 A 
ATOM     42  N   UNL A   1      41.764  29.262  31.235  1.00  0.00    -0.248 NA
ATOM     43  C   UNL A   1      39.926  30.694  31.344  1.00  0.00     0.031 C 
ATOM     44  C   UNL A   1      39.839  27.092  27.828  1.00  0.00     0.029 A 
ATOM     45  N   UNL A   1      41.625  27.172  29.173  1.00  0.00    -0.354 N 
ATOM     46  C   UNL A   1      41.999  30.239  32.195  1.00  0.00     0.074 A 
ATOM     47  C   UNL A   1      40.860  31.131  32.175  1.00  0.00     0.031 C 
ATOM     48  C   UNL A   1      40.683  26.123  27.435  1.00  0.00     0.029 A 
ATOM     49  C   UNL A   1      41.874  26.158  28.279  1.00  0.00     0.049 A 
ATOM     50  H   UNL A   1      42.250  27.425  29.889  1.00  0.00     0.167 HD
ATOM     51  C   UNL A   1      43.050  30.366  33.038  1.00  0.00     0.034 A 
ATOM     52  C   UNL A   1      42.943  25.347  28.152  1.00  0.00     0.034 A 
ATOM     53  C   UNL A   1      44.161  29.453  33.080  1.00  0.00     0.049 A 
ATOM     54  C   UNL A   1      44.082  25.486  29.126  1.00  0.00     0.074 A 
ATOM     55  C   UNL A   1      45.238  29.446  33.948  1.00  0.00     0.029 A 
ATOM     56  N   UNL A   1      44.341  28.387  32.212  1.00  0.00    -0.354 N 
ATOM     57  N   UNL A   1      44.215  26.322  30.127  1.00  0.00    -0.248 NA
ATOM     58  C   UNL A   1      45.200  24.544  28.977  1.00  0.00     0.031 C 
ATOM     59  C   UNL A   1      46.081  28.389  33.589  1.00  0.00     0.029 A 
ATOM     60  C   UNL A   1      45.513  27.719  32.518  1.00  0.00     0.049 A 
ATOM     61  H   UNL A   1      43.724  28.142  31.484  1.00  0.00     0.167 HD
ATOM     62  C   UNL A   1      45.409  25.982  30.753  1.00  0.00     0.074 A 
ATOM     63  C   UNL A   1      45.950  24.849  30.028  1.00  0.00     0.031 C 
ATOM     64  C   UNL A   1      46.010  26.560  31.822  1.00  0.00     0.034 A 
BRANCH  51  65
ATOM     65  C   UNL A   1      43.021  31.507  34.024  1.00  0.00     0.023 A 
ATOM     66  C   UNL A   1      43.639  32.730  33.689  1.00  0.00     0.012 A 
ATOM     67  C   UNL A   1      42.347  31.390  35.255  1.00  0.00     0.148 A 
ATOM     68  C   UNL A   1      43.624  33.804  34.579  1.00  0.00     0.002 A 
ATOM     69  C   UNL A   1      42.296  32.481  36.117  1.00  0.00     0.091 A 
ATOM     70  F   UNL A   1      41.783  30.215  35.567  1.00  0.00    -0.205 F 
ATOM     71  C   UNL A   1      42.944  33.682  35.788  1.00  0.00     0.022 A 
BRANCH  69  72
ATOM     72  S   UNL A   1      41.379  32.452  37.662  1.00  0.00     0.127 S 
ATOM     73  O   UNL A   1      42.205  31.564  38.479  1.00  0.00    -0.237 OA
ATOM     74  O   UNL A   1      41.412  33.857  38.067  1.00  0.00    -0.237 OA
ATOM     75  O   UNL A   1      40.054  31.947  37.334  1.00  0.00    -0.744 OA
ENDBRANCH  69  72
ENDBRANCH  51  65
BRANCH  52  76
ATOM     76  C   UNL A   1      42.951  24.279  27.112  1.00  0.00     0.023 A 
ATOM     77  C   UNL A   1      43.676  24.482  25.922  1.00  0.00     0.012 A 
ATOM     78  C   UNL A   1      42.266  23.063  27.301  1.00  0.00     0.148 A 
ATOM     79  C   UNL A   1      43.694  23.507  24.924  1.00  0.00     0.002 A 
ATOM     80  C   UNL A   1      42.333  22.074  26.326  1.00  0.00     0.091 A 
ATOM     81  F   UNL A   1      41.575  22.893  28.437  1.00  0.00    -0.205 F 
ATOM     82  C   UNL A   1      43.030  22.301  25.130  1.00  0.00     0.022 A 
BRANCH  80  83
ATOM     83  S   UNL A   1      41.617  20.442  26.555  1.00  0.00     0.127 S 
ATOM     84  O   UNL A   1      40.187  20.743  26.556  1.00  0.00    -0.237 OA
ATOM     85  O   UNL A   1      42.097  19.734  25.368  1.00  0.00    -0.237 OA
ATOM     86  O   UNL A   1      42.161  19.948  27.812  1.00  0.00    -0.744 OA
ENDBRANCH  80  83
ENDBRANCH  52  76
BRANCH  64  87
ATOM     87  C   UNL A   1      47.301  25.953  32.308  1.00  0.00     0.023 A 
ATOM     88  C   UNL A   1      47.285  25.007  33.351  1.00  0.00     0.012 A 
ATOM     89  C   UNL A   1      48.522  26.274  31.683  1.00  0.00     0.148 A 
ATOM     90  C   UNL A   1      48.470  24.416  33.790  1.00  0.00     0.002 A 
ATOM     91  C   UNL A   1      49.691  25.644  32.091  1.00  0.00     0.091 A 
ATOM     92  F   UNL A   1      48.520  27.192  30.706  1.00  0.00    -0.205 F 
ATOM     93  C   UNL A   1      49.670  24.725  33.153  1.00  0.00     0.022 A 
BRANCH  91  94
ATOM     94  S   UNL A   1      51.263  25.905  31.262  1.00  0.00     0.127 S 
ATOM     95  O   UNL A   1      50.937  25.542  29.884  1.00  0.00    -0.237 OA
ATOM     96  O   UNL A   1      51.494  27.334  31.477  1.00  0.00    -0.237 OA
ATOM     97  O   UNL A   1      52.219  25.033  31.931  1.00  0.00    -0.744 OA
ENDBRANCH  91  94
ENDBRANCH  64  87
ENDBRANCH  38  39
ENDBRANCH  30  33
ENDBRANCH  28  29
ENDBRANCH  27  28
ENDBRANCH   1  27
TORSDOF 17
ENDMDL
