MODEL 1
REMARK VINA RESULT:     -11.7      0.000      0.000
REMARK SMILES COc1ccc(C2=NN(C(=O)CCC(=O)NCCCCCCNC(=O)c3ccc(-c4c5nc(c(-c6cccc(S(=O)(=O)[O-])c6F)c6ccc([nH]6)c(-c6cccc(S(=O)(=O)[O-])c6F)c6nc(c(-c7cccc(S(=O)(=O)[O-])c7F)c7ccc4[nH]7)C=C6)C=C5)cc3)[C@H](c3ccc(Cl)cc3Cl)C2)cc1
REMARK SMILES IDX 18 1 17 2 16 3 14 4 15 5 13 7 12 8 10 9 11 10 9 11 7 12 8 13
REMARK SMILES IDX 98 14 89 15 6 16 3 17 4 18 100 19 5 20 99 21 2 22 1 23 90 24
REMARK SMILES IDX 91 25 96 26 92 27 95 28 97 29 93 30 94 31 19 32 20 33 21 34
REMARK SMILES IDX 22 35 23 36 24 37 25 39 26 40 27 41 88 42 28 43 87 44 29 45
REMARK SMILES IDX 30 46 31 47 81 48 32 49 86 50 80 51 82 52 33 53 85 54 79 55
REMARK SMILES IDX 78 56 34 58 66 59 46 60 65 61 47 62 50 63 64 64 83 65 48 66
REMARK SMILES IDX 49 67 63 69 84 70 51 71 35 72 36 73 44 74 37 75 39 76 45 77
REMARK SMILES IDX 38 78 40 79 41 80 42 81 43 82 67 83 68 84 76 85 69 86 71 87
REMARK SMILES IDX 77 88 70 89 72 90 73 91 74 92 75 93 52 94 53 95 61 96 54 97
REMARK SMILES IDX 56 98 62 99 55 100 57 101 58 102 59 103 60 104
REMARK H PARENT 16 6 23 38 82 57 50 68
REMARK Flexibility Score: inf
ROOT
ATOM      1  C   UNL A   1      40.507  28.476  27.630  1.00  0.00     0.021 C 
ENDROOT
BRANCH   1   2
ATOM      2  C   UNL A   1      39.366  26.588  27.957  1.00  0.00     0.116 C 
BRANCH   2   3
ATOM      3  N   UNL A   1      39.751  25.048  27.925  1.00  0.00    -0.356 N 
ATOM      4  C   UNL A   1      39.443  23.930  27.205  1.00  0.00     0.220 C 
ATOM      5  O   UNL A   1      40.153  22.948  27.469  1.00  0.00    -0.275 OA
ATOM      6  H   UNL A   1      40.401  24.836  28.634  1.00  0.00     0.163 HD
BRANCH   4   7
ATOM      7  C   UNL A   1      38.388  23.778  26.104  1.00  0.00     0.110 C 
BRANCH   7   8
ATOM      8  C   UNL A   1      36.901  23.751  26.411  1.00  0.00     0.112 C 
BRANCH   8   9
ATOM      9  C   UNL A   1      36.222  23.615  25.104  1.00  0.00     0.243 C 
ATOM     10  O   UNL A   1      36.821  23.359  24.070  1.00  0.00    -0.273 OA
BRANCH   9  11
ATOM     11  N   UNL A   1      34.887  23.914  25.232  1.00  0.00    -0.225 N 
ATOM     12  C   UNL A   1      32.743  25.914  24.969  1.00  0.00     0.071 C 
ATOM     13  N   UNL A   1      34.317  25.740  24.928  1.00  0.00    -0.174 NA
ATOM     14  C   UNL A   1      31.852  24.282  25.604  1.00  0.00     0.091 C 
ATOM     15  C   UNL A   1      33.252  22.891  25.674  1.00  0.00     0.149 C 
BRANCH  12  16
ATOM     16  C   UNL A   1      31.904  26.860  24.094  1.00  0.00    -0.002 A 
ATOM     17  C   UNL A   1      29.984  28.360  22.574  1.00  0.00     0.118 A 
ATOM     18  C   UNL A   1      29.895  28.298  23.957  1.00  0.00     0.047 A 
ATOM     19  C   UNL A   1      31.066  27.719  21.961  1.00  0.00     0.047 A 
ATOM     20  C   UNL A   1      30.845  27.580  24.701  1.00  0.00     0.014 A 
ATOM     21  C   UNL A   1      32.012  26.957  22.711  1.00  0.00     0.014 A 
BRANCH  17  22
ATOM     22  O   UNL A   1      28.976  29.066  21.982  1.00  0.00    -0.497 OA
ATOM     23  C   UNL A   1      28.127  29.875  22.791  1.00  0.00     0.278 C 
ENDBRANCH  17  22
ENDBRANCH  12  16
BRANCH  15  24
ATOM     24  C   UNL A   1      32.807  21.508  25.085  1.00  0.00    -0.004 A 
ATOM     25  C   UNL A   1      33.100  20.326  25.803  1.00  0.00     0.009 A 
ATOM     26  C   UNL A   1      32.517  21.322  23.704  1.00  0.00     0.047 A 
ATOM     27  C   UNL A   1      33.114  19.061  25.195  1.00  0.00     0.021 A 
ATOM     28  C   UNL A   1      32.427  20.045  23.125  1.00  0.00     0.041 A 
ATOM     29  Cl  UNL A   1      32.535  22.591  22.525  1.00  0.00    -0.084 Cl
ATOM     30  C   UNL A   1      32.754  18.922  23.864  1.00  0.00     0.042 A 
ATOM     31  Cl  UNL A   1      32.813  17.380  23.105  1.00  0.00    -0.084 Cl
ENDBRANCH  15  24
ENDBRANCH   9  11
ENDBRANCH   8   9
ENDBRANCH   7   8
ENDBRANCH   4   7
ENDBRANCH   2   3
ENDBRANCH   1   2
BRANCH   1  32
ATOM     32  C   UNL A   1      42.220  28.532  26.823  1.00  0.00     0.002 C 
BRANCH  32  33
ATOM     33  C   UNL A   1      43.371  29.600  27.239  1.00  0.00     0.002 C 
BRANCH  33  34
ATOM     34  C   UNL A   1      43.557  30.884  26.466  1.00  0.00     0.021 C 
BRANCH  34  35
ATOM     35  C   UNL A   1      44.852  31.562  26.793  1.00  0.00     0.116 C 
BRANCH  35  36
ATOM     36  N   UNL A   1      45.345  32.300  25.623  1.00  0.00    -0.352 N 
ATOM     37  C   UNL A   1      44.664  33.361  25.085  1.00  0.00     0.251 C 
ATOM     38  H   UNL A   1      46.194  32.022  25.210  1.00  0.00     0.163 HD
ATOM     39  O   UNL A   1      44.189  33.337  23.959  1.00  0.00    -0.269 OA
BRANCH  37  40
ATOM     40  C   UNL A   1      44.505  34.512  25.991  1.00  0.00     0.039 A 
ATOM     41  C   UNL A   1      43.230  34.991  26.277  1.00  0.00     0.014 A 
ATOM     42  C   UNL A   1      45.608  34.845  26.772  1.00  0.00     0.014 A 
ATOM     43  C   UNL A   1      43.029  35.576  27.512  1.00  0.00     0.010 A 
ATOM     44  C   UNL A   1      45.350  35.125  28.082  1.00  0.00     0.010 A 
ATOM     45  C   UNL A   1      44.056  35.478  28.463  1.00  0.00    -0.014 A 
BRANCH  45  46
ATOM     46  C   UNL A   1      43.771  35.609  29.895  1.00  0.00     0.031 A 
ATOM     47  C   UNL A   1      43.175  34.452  30.624  1.00  0.00     0.074 A 
ATOM     48  C   UNL A   1      43.961  36.816  30.464  1.00  0.00     0.049 A 
ATOM     49  N   UNL A   1      42.891  34.355  31.890  1.00  0.00    -0.248 NA
ATOM     50  C   UNL A   1      42.797  33.262  29.833  1.00  0.00     0.031 C 
ATOM     51  C   UNL A   1      44.375  38.040  29.760  1.00  0.00     0.029 A 
ATOM     52  N   UNL A   1      43.843  37.218  31.764  1.00  0.00    -0.354 N 
ATOM     53  C   UNL A   1      42.290  33.115  32.036  1.00  0.00     0.074 A 
ATOM     54  C   UNL A   1      42.158  32.531  30.727  1.00  0.00     0.031 C 
ATOM     55  C   UNL A   1      44.564  39.025  30.648  1.00  0.00     0.029 A 
ATOM     56  C   UNL A   1      44.226  38.523  31.971  1.00  0.00     0.049 A 
ATOM     57  H   UNL A   1      43.517  36.631  32.483  1.00  0.00     0.167 HD
ATOM     58  C   UNL A   1      41.932  32.501  33.180  1.00  0.00     0.034 A 
ATOM     59  C   UNL A   1      44.299  39.222  33.117  1.00  0.00     0.034 A 
ATOM     60  C   UNL A   1      42.096  33.115  34.463  1.00  0.00     0.049 A 
ATOM     61  C   UNL A   1      43.939  38.498  34.380  1.00  0.00     0.074 A 
ATOM     62  C   UNL A   1      41.843  32.583  35.710  1.00  0.00     0.029 A 
ATOM     63  N   UNL A   1      42.538  34.417  34.654  1.00  0.00    -0.354 N 
ATOM     64  N   UNL A   1      43.541  37.256  34.531  1.00  0.00    -0.248 NA
ATOM     65  C   UNL A   1      44.065  39.251  35.632  1.00  0.00     0.031 C 
ATOM     66  C   UNL A   1      42.082  33.585  36.654  1.00  0.00     0.029 A 
ATOM     67  C   UNL A   1      42.545  34.720  36.000  1.00  0.00     0.049 A 
ATOM     68  H   UNL A   1      42.807  35.033  33.934  1.00  0.00     0.167 HD
ATOM     69  C   UNL A   1      43.393  37.066  35.896  1.00  0.00     0.074 A 
ATOM     70  C   UNL A   1      43.778  38.316  36.527  1.00  0.00     0.031 C 
ATOM     71  C   UNL A   1      42.963  35.973  36.574  1.00  0.00     0.034 A 
BRANCH  58  72
ATOM     72  C   UNL A   1      41.364  31.116  33.069  1.00  0.00     0.023 A 
ATOM     73  C   UNL A   1      42.203  29.989  33.220  1.00  0.00     0.012 A 
ATOM     74  C   UNL A   1      39.997  30.930  32.803  1.00  0.00     0.148 A 
ATOM     75  C   UNL A   1      41.695  28.700  33.068  1.00  0.00     0.002 A 
ATOM     76  C   UNL A   1      39.488  29.642  32.712  1.00  0.00     0.091 A 
ATOM     77  F   UNL A   1      39.229  32.012  32.621  1.00  0.00    -0.205 F 
ATOM     78  C   UNL A   1      40.335  28.527  32.826  1.00  0.00     0.022 A 
BRANCH  76  79
ATOM     79  S   UNL A   1      37.740  29.313  32.479  1.00  0.00     0.127 S 
ATOM     80  O   UNL A   1      37.135  30.524  33.032  1.00  0.00    -0.237 OA
ATOM     81  O   UNL A   1      37.648  29.192  31.024  1.00  0.00    -0.237 OA
ATOM     82  O   UNL A   1      37.457  28.088  33.215  1.00  0.00    -0.744 OA
ENDBRANCH  76  79
ENDBRANCH  58  72
BRANCH  59  83
ATOM     83  C   UNL A   1      44.776  40.634  33.118  1.00  0.00     0.023 A 
ATOM     84  C   UNL A   1      46.158  40.911  33.093  1.00  0.00     0.012 A 
ATOM     85  C   UNL A   1      43.864  41.707  33.125  1.00  0.00     0.148 A 
ATOM     86  C   UNL A   1      46.620  42.228  33.120  1.00  0.00     0.002 A 
ATOM     87  C   UNL A   1      44.329  43.015  33.097  1.00  0.00     0.091 A 
ATOM     88  F   UNL A   1      42.554  41.423  33.146  1.00  0.00    -0.205 F 
ATOM     89  C   UNL A   1      45.708  43.279  33.115  1.00  0.00     0.022 A 
BRANCH  87  90
ATOM     90  S   UNL A   1      43.228  44.427  32.972  1.00  0.00     0.127 S 
ATOM     91  O   UNL A   1      44.115  45.446  32.415  1.00  0.00    -0.237 OA
ATOM     92  O   UNL A   1      42.206  43.930  32.052  1.00  0.00    -0.237 OA
ATOM     93  O   UNL A   1      42.752  44.678  34.325  1.00  0.00    -0.744 OA
ENDBRANCH  87  90
ENDBRANCH  59  83
BRANCH  71  94
ATOM     94  C   UNL A   1      42.928  36.079  38.071  1.00  0.00     0.023 A 
ATOM     95  C   UNL A   1      44.045  35.688  38.833  1.00  0.00     0.012 A 
ATOM     96  C   UNL A   1      41.801  36.628  38.711  1.00  0.00     0.148 A 
ATOM     97  C   UNL A   1      44.020  35.796  40.221  1.00  0.00     0.002 A 
ATOM     98  C   UNL A   1      41.810  36.794  40.086  1.00  0.00     0.091 A 
ATOM     99  F   UNL A   1      40.747  36.981  37.960  1.00  0.00    -0.205 F 
ATOM    100  C   UNL A   1      42.909  36.360  40.845  1.00  0.00     0.022 A 
BRANCH  98 101
ATOM    101  S   UNL A   1      40.476  37.613  40.959  1.00  0.00     0.127 S 
ATOM    102  O   UNL A   1      39.318  36.828  40.534  1.00  0.00    -0.237 OA
ATOM    103  O   UNL A   1      40.863  37.425  42.358  1.00  0.00    -0.237 OA
ATOM    104  O   UNL A   1      40.486  38.998  40.510  1.00  0.00    -0.744 OA
ENDBRANCH  98 101
ENDBRANCH  71  94
ENDBRANCH  45  46
ENDBRANCH  37  40
ENDBRANCH  35  36
ENDBRANCH  34  35
ENDBRANCH  33  34
ENDBRANCH  32  33
ENDBRANCH   1  32
TORSDOF 22
ENDMDL
MODEL 2
REMARK VINA RESULT:     -11.4      2.307      2.804
REMARK SMILES COc1ccc(C2=NN(C(=O)CCC(=O)NCCCCCCNC(=O)c3ccc(-c4c5nc(c(-c6cccc(S(=O)(=O)[O-])c6F)c6ccc([nH]6)c(-c6cccc(S(=O)(=O)[O-])c6F)c6nc(c(-c7cccc(S(=O)(=O)[O-])c7F)c7ccc4[nH]7)C=C6)C=C5)cc3)[C@H](c3ccc(Cl)cc3Cl)C2)cc1
REMARK SMILES IDX 18 1 17 2 16 3 14 4 15 5 13 7 12 8 10 9 11 10 9 11 7 12 8 13
REMARK SMILES IDX 98 14 89 15 6 16 3 17 4 18 100 19 5 20 99 21 2 22 1 23 90 24
REMARK SMILES IDX 91 25 96 26 92 27 95 28 97 29 93 30 94 31 19 32 20 33 21 34
REMARK SMILES IDX 22 35 23 36 24 37 25 39 26 40 27 41 88 42 28 43 87 44 29 45
REMARK SMILES IDX 30 46 31 47 81 48 32 49 86 50 80 51 82 52 33 53 85 54 79 55
REMARK SMILES IDX 78 56 34 58 66 59 46 60 65 61 47 62 50 63 64 64 83 65 48 66
REMARK SMILES IDX 49 67 63 69 84 70 51 71 35 72 36 73 44 74 37 75 39 76 45 77
REMARK SMILES IDX 38 78 40 79 41 80 42 81 43 82 67 83 68 84 76 85 69 86 71 87
REMARK SMILES IDX 77 88 70 89 72 90 73 91 74 92 75 93 52 94 53 95 61 96 54 97
REMARK SMILES IDX 56 98 62 99 55 100 57 101 58 102 59 103 60 104
REMARK H PARENT 16 6 23 38 82 57 50 68
REMARK Flexibility Score: inf
ROOT
ATOM      1  C   UNL A   1      40.459  28.177  27.609  1.00  0.00     0.021 C 
ENDROOT
BRANCH   1   2
ATOM      2  C   UNL A   1      39.399  26.263  28.040  1.00  0.00     0.116 C 
BRANCH   2   3
ATOM      3  N   UNL A   1      39.787  24.730  27.895  1.00  0.00    -0.356 N 
ATOM      4  C   UNL A   1      39.465  23.663  27.108  1.00  0.00     0.220 C 
ATOM      5  O   UNL A   1      40.184  22.668  27.288  1.00  0.00    -0.275 OA
ATOM      6  H   UNL A   1      40.454  24.474  28.572  1.00  0.00     0.163 HD
BRANCH   4   7
ATOM      7  C   UNL A   1      38.385  23.581  26.024  1.00  0.00     0.110 C 
BRANCH   7   8
ATOM      8  C   UNL A   1      36.906  23.521  26.363  1.00  0.00     0.112 C 
BRANCH   8   9
ATOM      9  C   UNL A   1      36.191  23.652  25.075  1.00  0.00     0.243 C 
ATOM     10  O   UNL A   1      36.760  23.596  23.994  1.00  0.00    -0.273 OA
BRANCH   9  11
ATOM     11  N   UNL A   1      34.866  23.935  25.297  1.00  0.00    -0.225 N 
ATOM     12  C   UNL A   1      32.706  25.936  25.275  1.00  0.00     0.071 C 
ATOM     13  N   UNL A   1      34.275  25.773  25.133  1.00  0.00    -0.174 NA
ATOM     14  C   UNL A   1      31.856  24.265  25.863  1.00  0.00     0.091 C 
ATOM     15  C   UNL A   1      33.261  22.880  25.771  1.00  0.00     0.149 C 
BRANCH  12  16
ATOM     16  C   UNL A   1      31.816  26.927  24.507  1.00  0.00    -0.002 A 
ATOM     17  C   UNL A   1      30.464  28.741  22.739  1.00  0.00     0.118 A 
ATOM     18  C   UNL A   1      30.612  27.404  22.398  1.00  0.00     0.047 A 
ATOM     19  C   UNL A   1      30.942  29.153  23.988  1.00  0.00     0.047 A 
ATOM     20  C   UNL A   1      31.257  26.514  23.272  1.00  0.00     0.014 A 
ATOM     21  C   UNL A   1      31.630  28.258  24.862  1.00  0.00     0.014 A 
BRANCH  17  22
ATOM     22  O   UNL A   1      29.847  29.495  21.782  1.00  0.00    -0.497 OA
ATOM     23  C   UNL A   1      28.848  30.433  22.174  1.00  0.00     0.278 C 
ENDBRANCH  17  22
ENDBRANCH  12  16
BRANCH  15  24
ATOM     24  C   UNL A   1      32.785  21.531  25.129  1.00  0.00    -0.004 A 
ATOM     25  C   UNL A   1      33.038  20.317  25.808  1.00  0.00     0.009 A 
ATOM     26  C   UNL A   1      32.506  21.402  23.740  1.00  0.00     0.047 A 
ATOM     27  C   UNL A   1      33.025  19.074  25.155  1.00  0.00     0.021 A 
ATOM     28  C   UNL A   1      32.388  20.149  23.114  1.00  0.00     0.041 A 
ATOM     29  Cl  UNL A   1      32.572  22.710  22.606  1.00  0.00    -0.084 Cl
ATOM     30  C   UNL A   1      32.676  18.992  23.817  1.00  0.00     0.042 A 
ATOM     31  Cl  UNL A   1      32.702  17.477  23.004  1.00  0.00    -0.084 Cl
ENDBRANCH  15  24
ENDBRANCH   9  11
ENDBRANCH   8   9
ENDBRANCH   7   8
ENDBRANCH   4   7
ENDBRANCH   2   3
ENDBRANCH   1   2
BRANCH   1  32
ATOM     32  C   UNL A   1      41.817  28.343  26.297  1.00  0.00     0.002 C 
BRANCH  32  33
ATOM     33  C   UNL A   1      43.251  29.051  26.578  1.00  0.00     0.002 C 
BRANCH  33  34
ATOM     34  C   UNL A   1      43.345  30.530  26.869  1.00  0.00     0.021 C 
BRANCH  34  35
ATOM     35  C   UNL A   1      44.737  30.951  27.232  1.00  0.00     0.116 C 
BRANCH  35  36
ATOM     36  N   UNL A   1      45.335  31.718  26.132  1.00  0.00    -0.352 N 
ATOM     37  C   UNL A   1      44.877  32.959  25.770  1.00  0.00     0.251 C 
ATOM     38  H   UNL A   1      46.090  31.327  25.638  1.00  0.00     0.163 HD
ATOM     39  O   UNL A   1      44.370  33.182  24.680  1.00  0.00    -0.269 OA
BRANCH  37  40
ATOM     40  C   UNL A   1      44.998  33.988  26.817  1.00  0.00     0.039 A 
ATOM     41  C   UNL A   1      44.091  35.043  26.850  1.00  0.00     0.014 A 
ATOM     42  C   UNL A   1      45.800  33.672  27.910  1.00  0.00     0.014 A 
ATOM     43  C   UNL A   1      43.801  35.597  28.082  1.00  0.00     0.010 A 
ATOM     44  C   UNL A   1      45.293  33.990  29.135  1.00  0.00     0.010 A 
ATOM     45  C   UNL A   1      44.281  34.945  29.228  1.00  0.00    -0.014 A 
BRANCH  45  46
ATOM     46  C   UNL A   1      43.641  35.145  30.532  1.00  0.00     0.031 A 
ATOM     47  C   UNL A   1      42.342  34.466  30.814  1.00  0.00     0.074 A 
ATOM     48  C   UNL A   1      44.206  36.027  31.379  1.00  0.00     0.049 A 
ATOM     49  N   UNL A   1      41.645  34.482  31.912  1.00  0.00    -0.248 NA
ATOM     50  C   UNL A   1      41.709  33.710  29.713  1.00  0.00     0.031 C 
ATOM     51  C   UNL A   1      45.385  36.859  31.088  1.00  0.00     0.029 A 
ATOM     52  N   UNL A   1      43.880  36.370  32.660  1.00  0.00    -0.354 N 
ATOM     53  C   UNL A   1      40.496  33.763  31.626  1.00  0.00     0.074 A 
ATOM     54  C   UNL A   1      40.534  33.404  30.232  1.00  0.00     0.031 C 
ATOM     55  C   UNL A   1      45.732  37.543  32.188  1.00  0.00     0.029 A 
ATOM     56  C   UNL A   1      44.769  37.246  33.237  1.00  0.00     0.049 A 
ATOM     57  H   UNL A   1      43.085  36.022  33.126  1.00  0.00     0.167 HD
ATOM     58  C   UNL A   1      39.520  33.390  32.477  1.00  0.00     0.034 A 
ATOM     59  C   UNL A   1      44.795  37.741  34.487  1.00  0.00     0.034 A 
ATOM     60  C   UNL A   1      39.530  33.758  33.861  1.00  0.00     0.049 A 
ATOM     61  C   UNL A   1      43.723  37.273  35.427  1.00  0.00     0.074 A 
ATOM     62  C   UNL A   1      38.647  33.394  34.854  1.00  0.00     0.029 A 
ATOM     63  N   UNL A   1      40.471  34.601  34.437  1.00  0.00    -0.354 N 
ATOM     64  N   UNL A   1      42.734  36.441  35.196  1.00  0.00    -0.248 NA
ATOM     65  C   UNL A   1      43.783  37.779  36.801  1.00  0.00     0.031 C 
ATOM     66  C   UNL A   1      39.023  34.061  36.023  1.00  0.00     0.029 A 
ATOM     67  C   UNL A   1      40.180  34.790  35.772  1.00  0.00     0.049 A 
ATOM     68  H   UNL A   1      41.234  35.004  33.962  1.00  0.00     0.167 HD
ATOM     69  C   UNL A   1      42.065  36.301  36.402  1.00  0.00     0.074 A 
ATOM     70  C   UNL A   1      42.788  37.111  37.367  1.00  0.00     0.031 C 
ATOM     71  C   UNL A   1      40.949  35.588  36.692  1.00  0.00     0.034 A 
BRANCH  58  72
ATOM     72  C   UNL A   1      38.411  32.544  31.925  1.00  0.00     0.023 A 
ATOM     73  C   UNL A   1      38.440  31.141  32.086  1.00  0.00     0.012 A 
ATOM     74  C   UNL A   1      37.341  33.138  31.236  1.00  0.00     0.148 A 
ATOM     75  C   UNL A   1      37.441  30.341  31.534  1.00  0.00     0.002 A 
ATOM     76  C   UNL A   1      36.320  32.340  30.739  1.00  0.00     0.091 A 
ATOM     77  F   UNL A   1      37.356  34.466  31.057  1.00  0.00    -0.205 F 
ATOM     78  C   UNL A   1      36.375  30.942  30.871  1.00  0.00     0.022 A 
BRANCH  76  79
ATOM     79  S   UNL A   1      34.867  33.024  29.939  1.00  0.00     0.127 S 
ATOM     80  O   UNL A   1      34.349  31.859  29.223  1.00  0.00    -0.237 OA
ATOM     81  O   UNL A   1      34.062  33.442  31.087  1.00  0.00    -0.237 OA
ATOM     82  O   UNL A   1      35.342  34.110  29.094  1.00  0.00    -0.744 OA
ENDBRANCH  76  79
ENDBRANCH  58  72
BRANCH  59  83
ATOM     83  C   UNL A   1      45.882  38.665  34.918  1.00  0.00     0.023 A 
ATOM     84  C   UNL A   1      47.099  38.144  35.400  1.00  0.00     0.012 A 
ATOM     85  C   UNL A   1      45.720  40.061  34.835  1.00  0.00     0.148 A 
ATOM     86  C   UNL A   1      48.117  38.997  35.831  1.00  0.00     0.002 A 
ATOM     87  C   UNL A   1      46.757  40.904  35.214  1.00  0.00     0.091 A 
ATOM     88  F   UNL A   1      44.557  40.537  34.371  1.00  0.00    -0.205 F 
ATOM     89  C   UNL A   1      47.950  40.375  35.732  1.00  0.00     0.022 A 
BRANCH  87  90
ATOM     90  S   UNL A   1      46.673  42.686  35.013  1.00  0.00     0.127 S 
ATOM     91  O   UNL A   1      45.581  43.036  35.919  1.00  0.00    -0.237 OA
ATOM     92  O   UNL A   1      48.002  43.101  35.462  1.00  0.00    -0.237 OA
ATOM     93  O   UNL A   1      46.415  42.912  33.598  1.00  0.00    -0.744 OA
ENDBRANCH  87  90
ENDBRANCH  59  83
BRANCH  71  94
ATOM     94  C   UNL A   1      40.474  35.628  38.117  1.00  0.00     0.023 A 
ATOM     95  C   UNL A   1      39.620  36.661  38.547  1.00  0.00     0.012 A 
ATOM     96  C   UNL A   1      40.833  34.598  39.006  1.00  0.00     0.148 A 
ATOM     97  C   UNL A   1      39.169  36.694  39.864  1.00  0.00     0.002 A 
ATOM     98  C   UNL A   1      40.326  34.602  40.295  1.00  0.00     0.091 A 
ATOM     99  F   UNL A   1      41.657  33.633  38.571  1.00  0.00    -0.205 F 
ATOM    100  C   UNL A   1      39.511  35.659  40.733  1.00  0.00     0.022 A 
BRANCH  98 101
ATOM    101  S   UNL A   1      40.620  33.256  41.443  1.00  0.00     0.127 S 
ATOM    102  O   UNL A   1      42.079  33.257  41.532  1.00  0.00    -0.237 OA
ATOM    103  O   UNL A   1      39.932  33.725  42.647  1.00  0.00    -0.237 OA
ATOM    104  O   UNL A   1      40.035  32.069  40.835  1.00  0.00    -0.744 OA
ENDBRANCH  98 101
ENDBRANCH  71  94
ENDBRANCH  45  46
ENDBRANCH  37  40
ENDBRANCH  35  36
ENDBRANCH  34  35
ENDBRANCH  33  34
ENDBRANCH  32  33
ENDBRANCH   1  32
TORSDOF 22
ENDMDL
MODEL 3
REMARK VINA RESULT:     -11.0      4.393      8.863
REMARK SMILES COc1ccc(C2=NN(C(=O)CCC(=O)NCCCCCCNC(=O)c3ccc(-c4c5nc(c(-c6cccc(S(=O)(=O)[O-])c6F)c6ccc([nH]6)c(-c6cccc(S(=O)(=O)[O-])c6F)c6nc(c(-c7cccc(S(=O)(=O)[O-])c7F)c7ccc4[nH]7)C=C6)C=C5)cc3)[C@H](c3ccc(Cl)cc3Cl)C2)cc1
REMARK SMILES IDX 18 1 17 2 16 3 14 4 15 5 13 7 12 8 10 9 11 10 9 11 7 12 8 13
REMARK SMILES IDX 98 14 89 15 6 16 3 17 4 18 100 19 5 20 99 21 2 22 1 23 90 24
REMARK SMILES IDX 91 25 96 26 92 27 95 28 97 29 93 30 94 31 19 32 20 33 21 34
REMARK SMILES IDX 22 35 23 36 24 37 25 39 26 40 27 41 88 42 28 43 87 44 29 45
REMARK SMILES IDX 30 46 31 47 81 48 32 49 86 50 80 51 82 52 33 53 85 54 79 55
REMARK SMILES IDX 78 56 34 58 66 59 46 60 65 61 47 62 50 63 64 64 83 65 48 66
REMARK SMILES IDX 49 67 63 69 84 70 51 71 35 72 36 73 44 74 37 75 39 76 45 77
REMARK SMILES IDX 38 78 40 79 41 80 42 81 43 82 67 83 68 84 76 85 69 86 71 87
REMARK SMILES IDX 77 88 70 89 72 90 73 91 74 92 75 93 52 94 53 95 61 96 54 97
REMARK SMILES IDX 56 98 62 99 55 100 57 101 58 102 59 103 60 104
REMARK H PARENT 16 6 23 38 82 57 50 68
REMARK Flexibility Score: inf
ROOT
ATOM      1  C   UNL A   1      41.064  28.902  26.174  1.00  0.00     0.021 C 
ENDROOT
BRANCH   1   2
ATOM      2  C   UNL A   1      43.026  27.863  26.385  1.00  0.00     0.116 C 
BRANCH   2   3
ATOM      3  N   UNL A   1      43.806  26.792  25.510  1.00  0.00    -0.356 N 
ATOM      4  C   UNL A   1      44.455  25.604  25.686  1.00  0.00     0.220 C 
ATOM      5  O   UNL A   1      44.778  25.044  24.628  1.00  0.00    -0.275 OA
ATOM      6  H   UNL A   1      43.829  27.064  24.565  1.00  0.00     0.163 HD
BRANCH   4   7
ATOM      7  C   UNL A   1      44.768  24.885  27.003  1.00  0.00     0.110 C 
BRANCH   7   8
ATOM      8  C   UNL A   1      44.162  25.325  28.325  1.00  0.00     0.112 C 
BRANCH   8   9
ATOM      9  C   UNL A   1      43.128  24.319  28.649  1.00  0.00     0.243 C 
ATOM     10  O   UNL A   1      43.389  23.251  29.187  1.00  0.00    -0.273 OA
BRANCH   9  11
ATOM     11  N   UNL A   1      41.906  24.726  28.173  1.00  0.00    -0.225 N 
ATOM     12  C   UNL A   1      39.544  24.118  26.523  1.00  0.00     0.071 C 
ATOM     13  N   UNL A   1      40.999  23.604  26.879  1.00  0.00    -0.174 NA
ATOM     14  C   UNL A   1      39.202  25.899  27.279  1.00  0.00     0.091 C 
ATOM     15  C   UNL A   1      40.720  26.278  28.485  1.00  0.00     0.149 C 
BRANCH  12  16
ATOM     16  C   UNL A   1      38.311  23.247  26.232  1.00  0.00    -0.002 A 
ATOM     17  C   UNL A   1      36.163  21.610  25.259  1.00  0.00     0.118 A 
ATOM     18  C   UNL A   1      37.467  21.137  25.254  1.00  0.00     0.047 A 
ATOM     19  C   UNL A   1      35.931  22.878  25.803  1.00  0.00     0.047 A 
ATOM     20  C   UNL A   1      38.515  21.931  25.748  1.00  0.00     0.014 A 
ATOM     21  C   UNL A   1      36.998  23.702  26.271  1.00  0.00     0.014 A 
BRANCH  17  22
ATOM     22  O   UNL A   1      35.254  20.743  24.720  1.00  0.00    -0.497 OA
ATOM     23  C   UNL A   1      33.887  21.136  24.637  1.00  0.00     0.278 C 
ENDBRANCH  17  22
ENDBRANCH  12  16
BRANCH  15  24
ATOM     24  C   UNL A   1      40.300  26.891  29.866  1.00  0.00    -0.004 A 
ATOM     25  C   UNL A   1      38.928  26.961  30.201  1.00  0.00     0.009 A 
ATOM     26  C   UNL A   1      41.149  27.758  30.608  1.00  0.00     0.047 A 
ATOM     27  C   UNL A   1      38.438  27.830  31.188  1.00  0.00     0.021 A 
ATOM     28  C   UNL A   1      40.670  28.547  31.668  1.00  0.00     0.041 A 
ATOM     29  Cl  UNL A   1      42.762  28.179  30.139  1.00  0.00    -0.084 Cl
ATOM     30  C   UNL A   1      39.313  28.603  31.934  1.00  0.00     0.042 A 
ATOM     31  Cl  UNL A   1      38.713  29.701  33.114  1.00  0.00    -0.084 Cl
ENDBRANCH  15  24
ENDBRANCH   9  11
ENDBRANCH   8   9
ENDBRANCH   7   8
ENDBRANCH   4   7
ENDBRANCH   2   3
ENDBRANCH   1   2
BRANCH   1  32
ATOM     32  C   UNL A   1      40.120  29.653  27.636  1.00  0.00     0.002 C 
BRANCH  32  33
ATOM     33  C   UNL A   1      38.513  29.524  27.824  1.00  0.00     0.002 C 
BRANCH  33  34
ATOM     34  C   UNL A   1      37.688  30.694  28.303  1.00  0.00     0.021 C 
BRANCH  34  35
ATOM     35  C   UNL A   1      36.221  30.388  28.320  1.00  0.00     0.116 C 
BRANCH  35  36
ATOM     36  N   UNL A   1      35.447  31.614  28.089  1.00  0.00    -0.352 N 
ATOM     37  C   UNL A   1      34.487  32.051  28.965  1.00  0.00     0.251 C 
ATOM     38  H   UNL A   1      35.624  32.140  27.276  1.00  0.00     0.163 HD
ATOM     39  O   UNL A   1      33.304  32.118  28.666  1.00  0.00    -0.269 OA
BRANCH  37  40
ATOM     40  C   UNL A   1      34.989  32.386  30.309  1.00  0.00     0.039 A 
ATOM     41  C   UNL A   1      35.740  31.450  31.015  1.00  0.00     0.014 A 
ATOM     42  C   UNL A   1      34.971  33.732  30.662  1.00  0.00     0.014 A 
ATOM     43  C   UNL A   1      36.686  31.927  31.900  1.00  0.00     0.010 A 
ATOM     44  C   UNL A   1      36.093  34.203  31.279  1.00  0.00     0.010 A 
ATOM     45  C   UNL A   1      36.965  33.302  31.890  1.00  0.00    -0.014 A 
BRANCH  45  46
ATOM     46  C   UNL A   1      38.241  33.816  32.397  1.00  0.00     0.031 A 
ATOM     47  C   UNL A   1      39.345  34.093  31.433  1.00  0.00     0.074 A 
ATOM     48  C   UNL A   1      38.393  33.909  33.733  1.00  0.00     0.049 A 
ATOM     49  N   UNL A   1      40.524  34.587  31.676  1.00  0.00    -0.248 NA
ATOM     50  C   UNL A   1      39.129  33.728  30.017  1.00  0.00     0.031 C 
ATOM     51  C   UNL A   1      37.408  33.482  34.739  1.00  0.00     0.029 A 
ATOM     52  N   UNL A   1      39.424  34.400  34.482  1.00  0.00    -0.354 N 
ATOM     53  C   UNL A   1      41.186  34.570  30.459  1.00  0.00     0.074 A 
ATOM     54  C   UNL A   1      40.325  33.933  29.497  1.00  0.00     0.031 C 
ATOM     55  C   UNL A   1      37.844  33.814  35.962  1.00  0.00     0.029 A 
ATOM     56  C   UNL A   1      39.161  34.418  35.832  1.00  0.00     0.049 A 
ATOM     57  H   UNL A   1      40.273  34.711  34.093  1.00  0.00     0.167 HD
ATOM     58  C   UNL A   1      42.392  35.095  30.166  1.00  0.00     0.034 A 
ATOM     59  C   UNL A   1      39.912  34.885  36.845  1.00  0.00     0.034 A 
ATOM     60  C   UNL A   1      43.209  35.733  31.154  1.00  0.00     0.049 A 
ATOM     61  C   UNL A   1      41.230  35.506  36.485  1.00  0.00     0.074 A 
ATOM     62  C   UNL A   1      44.419  36.372  30.987  1.00  0.00     0.029 A 
ATOM     63  N   UNL A   1      42.897  35.790  32.505  1.00  0.00    -0.354 N 
ATOM     64  N   UNL A   1      41.773  35.651  35.298  1.00  0.00    -0.248 NA
ATOM     65  C   UNL A   1      42.024  36.056  37.587  1.00  0.00     0.031 C 
ATOM     66  C   UNL A   1      44.867  36.768  32.250  1.00  0.00     0.029 A 
ATOM     67  C   UNL A   1      43.904  36.434  33.194  1.00  0.00     0.049 A 
ATOM     68  H   UNL A   1      42.078  35.424  32.913  1.00  0.00     0.167 HD
ATOM     69  C   UNL A   1      42.962  36.332  35.504  1.00  0.00     0.074 A 
ATOM     70  C   UNL A   1      43.039  36.600  36.930  1.00  0.00     0.031 C 
ATOM     71  C   UNL A   1      43.916  36.694  34.611  1.00  0.00     0.034 A 
BRANCH  58  72
ATOM     72  C   UNL A   1      42.853  35.007  28.741  1.00  0.00     0.023 A 
ATOM     73  C   UNL A   1      42.649  36.093  27.860  1.00  0.00     0.012 A 
ATOM     74  C   UNL A   1      43.481  33.843  28.269  1.00  0.00     0.148 A 
ATOM     75  C   UNL A   1      43.028  36.002  26.522  1.00  0.00     0.002 A 
ATOM     76  C   UNL A   1      43.908  33.783  26.950  1.00  0.00     0.091 A 
ATOM     77  F   UNL A   1      43.625  32.810  29.111  1.00  0.00    -0.205 F 
ATOM     78  C   UNL A   1      43.669  34.852  26.071  1.00  0.00     0.022 A 
BRANCH  76  79
ATOM     79  S   UNL A   1      44.811  32.378  26.294  1.00  0.00     0.127 S 
ATOM     80  O   UNL A   1      44.891  32.717  24.873  1.00  0.00    -0.237 OA
ATOM     81  O   UNL A   1      46.078  32.472  27.017  1.00  0.00    -0.237 OA
ATOM     82  O   UNL A   1      44.012  31.201  26.606  1.00  0.00    -0.744 OA
ENDBRANCH  76  79
ENDBRANCH  58  72
BRANCH  59  83
ATOM     83  C   UNL A   1      39.415  34.833  38.248  1.00  0.00     0.023 A 
ATOM     84  C   UNL A   1      38.991  36.014  38.890  1.00  0.00     0.012 A 
ATOM     85  C   UNL A   1      39.344  33.612  38.946  1.00  0.00     0.148 A 
ATOM     86  C   UNL A   1      38.547  35.985  40.213  1.00  0.00     0.002 A 
ATOM     87  C   UNL A   1      38.850  33.582  40.244  1.00  0.00     0.091 A 
ATOM     88  F   UNL A   1      39.749  32.500  38.319  1.00  0.00    -0.205 F 
ATOM     89  C   UNL A   1      38.469  34.770  40.887  1.00  0.00     0.022 A 
BRANCH  87  90
ATOM     90  S   UNL A   1      38.607  32.050  41.147  1.00  0.00     0.127 S 
ATOM     91  O   UNL A   1      39.982  31.593  41.332  1.00  0.00    -0.237 OA
ATOM     92  O   UNL A   1      37.946  32.521  42.364  1.00  0.00    -0.237 OA
ATOM     93  O   UNL A   1      37.774  31.215  40.292  1.00  0.00    -0.744 OA
ENDBRANCH  87  90
ENDBRANCH  59  83
BRANCH  71  94
ATOM     94  C   UNL A   1      45.097  37.446  35.153  1.00  0.00     0.023 A 
ATOM     95  C   UNL A   1      46.273  36.757  35.506  1.00  0.00     0.012 A 
ATOM     96  C   UNL A   1      45.052  38.850  35.249  1.00  0.00     0.148 A 
ATOM     97  C   UNL A   1      47.373  37.453  35.998  1.00  0.00     0.002 A 
ATOM     98  C   UNL A   1      46.174  39.541  35.676  1.00  0.00     0.091 A 
ATOM     99  F   UNL A   1      43.915  39.479  34.917  1.00  0.00    -0.205 F 
ATOM    100  C   UNL A   1      47.328  38.844  36.071  1.00  0.00     0.022 A 
BRANCH  98 101
ATOM    101  S   UNL A   1      46.245  41.332  35.692  1.00  0.00     0.127 S 
ATOM    102  O   UNL A   1      45.636  41.665  34.405  1.00  0.00    -0.237 OA
ATOM    103  O   UNL A   1      45.426  41.661  36.860  1.00  0.00    -0.237 OA
ATOM    104  O   UNL A   1      47.652  41.682  35.823  1.00  0.00    -0.744 OA
ENDBRANCH  98 101
ENDBRANCH  71  94
ENDBRANCH  45  46
ENDBRANCH  37  40
ENDBRANCH  35  36
ENDBRANCH  34  35
ENDBRANCH  33  34
ENDBRANCH  32  33
ENDBRANCH   1  32
TORSDOF 22
ENDMDL
