MODEL 1
REMARK VINA RESULT:      -9.0      0.000      0.000
REMARK SMILES COc1ccc(-c2csc(NC(=O)[C@H](CC(=O)NCCCCCCNC(=O)c3ccc(-c4c5nc(c(-c6cccc(S(=O)(=O)[O-])c6F)c6ccc([nH]6)c(-c6cccc(S(=O)(=O)[O-])c6F)c6nc(c(-c7cccc(S(=O)(=O)[O-])c7F)c7ccc4[nH]7)C=C6)C=C5)cc3)[NH+]3CCCCC3)n2)cc1
REMARK SMILES IDX 20 1 19 2 18 3 16 4 17 5 15 7 14 8 12 9 11 10 13 12 10 13
REMARK SMILES IDX 7 14 8 15 97 16 9 17 6 18 3 19 4 20 99 21 5 22 98 23 2 24
REMARK SMILES IDX 1 25 91 26 92 27 96 28 93 30 95 31 94 32 21 33 22 34 23 35
REMARK SMILES IDX 24 36 25 37 26 38 27 40 28 41 29 42 90 43 30 44 89 45 31 46
REMARK SMILES IDX 32 47 33 48 83 49 34 50 88 51 82 52 84 53 35 54 87 55 81 56
REMARK SMILES IDX 80 57 36 59 68 60 48 61 67 62 49 63 52 64 66 65 85 66 50 67
REMARK SMILES IDX 51 68 65 70 86 71 53 72 37 73 38 74 46 75 39 76 41 77 47 78
REMARK SMILES IDX 40 79 42 80 43 81 44 82 45 83 69 84 70 85 78 86 71 87 73 88
REMARK SMILES IDX 79 89 72 90 74 91 75 92 76 93 77 94 54 95 55 96 63 97 56 98
REMARK SMILES IDX 58 99 64 100 57 101 59 102 60 103 61 104 62 105
REMARK H PARENT 18 6 11 11 91 29 25 39 84 58 52 69
REMARK Flexibility Score: inf
ROOT
ATOM      1  C   UNL A   1      44.412  26.343  26.569  1.00  0.00     0.021 C 
ENDROOT
BRANCH   1   2
ATOM      2  C   UNL A   1      43.976  27.982  26.161  1.00  0.00     0.116 C 
BRANCH   2   3
ATOM      3  N   UNL A   1      43.520  29.596  27.477  1.00  0.00    -0.356 N 
ATOM      4  C   UNL A   1      43.937  30.960  27.919  1.00  0.00     0.226 C 
ATOM      5  O   UNL A   1      43.457  31.346  28.994  1.00  0.00    -0.275 OA
ATOM      6  H   UNL A   1      42.721  29.344  27.996  1.00  0.00     0.163 HD
BRANCH   4   7
ATOM      7  C   UNL A   1      44.982  31.964  27.107  1.00  0.00     0.175 C 
BRANCH   7   8
ATOM      8  C   UNL A   1      44.788  33.550  26.873  1.00  0.00     0.284 C 
BRANCH   8   9
ATOM      9  C   UNL A   1      44.754  33.646  25.374  1.00  0.00     0.285 C 
ATOM     10  N   UNL A   1      45.806  34.257  24.784  1.00  0.00    -0.297 N 
ATOM     11  H   UNL A   1      45.868  34.162  23.806  1.00  0.00     0.172 HD
ATOM     12  O   UNL A   1      43.836  33.181  24.698  1.00  0.00    -0.268 OA
BRANCH  10  13
ATOM     13  C   UNL A   1      46.800  34.994  25.384  1.00  0.00     0.190 A 
ATOM     14  C   UNL A   1      49.596  36.175  25.356  1.00  0.00     0.084 A 
ATOM     15  C   UNL A   1      48.812  37.519  26.011  1.00  0.00     0.097 A 
ATOM     16  N   UNL A   1      48.432  34.770  24.931  1.00  0.00    -0.220 NA
ATOM     17  S   UNL A   1      46.595  37.134  26.394  1.00  0.00    -0.105 S 
BRANCH  14  18
ATOM     18  C   UNL A   1      51.044  36.021  25.281  1.00  0.00     0.001 A 
ATOM     19  C   UNL A   1      53.843  35.956  25.237  1.00  0.00     0.118 A 
ATOM     20  C   UNL A   1      53.162  36.659  24.253  1.00  0.00     0.047 A 
ATOM     21  C   UNL A   1      53.145  35.292  26.245  1.00  0.00     0.047 A 
ATOM     22  C   UNL A   1      51.766  36.636  24.244  1.00  0.00     0.014 A 
ATOM     23  C   UNL A   1      51.744  35.344  26.280  1.00  0.00     0.014 A 
BRANCH  19  24
ATOM     24  O   UNL A   1      55.210  35.974  25.233  1.00  0.00    -0.497 OA
ATOM     25  C   UNL A   1      55.703  35.581  26.514  1.00  0.00     0.278 C 
ENDBRANCH  19  24
ENDBRANCH  14  18
ENDBRANCH  10  13
ENDBRANCH   8   9
BRANCH   8  26
ATOM     26  N   UNL A   1      43.629  34.369  27.384  1.00  0.00    -0.324 N 
ATOM     27  C   UNL A   1      43.544  34.562  28.838  1.00  0.00     0.262 C 
ATOM     28  C   UNL A   1      43.358  35.655  26.705  1.00  0.00     0.262 C 
ATOM     29  H   UNL A   1      42.887  33.725  27.113  1.00  0.00     0.348 HD
ATOM     30  C   UNL A   1      42.107  34.979  29.219  1.00  0.00     0.062 C 
ATOM     31  C   UNL A   1      41.921  36.113  26.987  1.00  0.00     0.062 C 
ATOM     32  C   UNL A   1      41.645  36.231  28.477  1.00  0.00     0.012 C 
ENDBRANCH   8  26
ENDBRANCH   7   8
ENDBRANCH   4   7
ENDBRANCH   2   3
ENDBRANCH   1   2
BRANCH   1  33
ATOM     33  C   UNL A   1      43.752  25.277  25.723  1.00  0.00     0.002 C 
BRANCH  33  34
ATOM     34  C   UNL A   1      43.412  23.992  26.476  1.00  0.00     0.002 C 
BRANCH  34  35
ATOM     35  C   UNL A   1      42.567  22.969  25.725  1.00  0.00     0.021 C 
BRANCH  35  36
ATOM     36  C   UNL A   1      41.432  22.399  26.555  1.00  0.00     0.116 C 
BRANCH  36  37
ATOM     37  N   UNL A   1      40.159  22.526  25.852  1.00  0.00    -0.352 N 
ATOM     38  C   UNL A   1      39.115  23.372  26.110  1.00  0.00     0.251 C 
ATOM     39  H   UNL A   1      40.033  21.920  25.087  1.00  0.00     0.163 HD
ATOM     40  O   UNL A   1      37.983  23.118  25.713  1.00  0.00    -0.269 OA
BRANCH  38  41
ATOM     41  C   UNL A   1      39.395  24.599  26.869  1.00  0.00     0.039 A 
ATOM     42  C   UNL A   1      38.973  24.709  28.192  1.00  0.00     0.014 A 
ATOM     43  C   UNL A   1      40.132  25.616  26.256  1.00  0.00     0.014 A 
ATOM     44  C   UNL A   1      39.349  25.832  28.925  1.00  0.00     0.010 A 
ATOM     45  C   UNL A   1      40.605  26.664  27.019  1.00  0.00     0.010 A 
ATOM     46  C   UNL A   1      40.200  26.794  28.353  1.00  0.00    -0.014 A 
BRANCH  46  47
ATOM     47  C   UNL A   1      40.689  27.951  29.129  1.00  0.00     0.031 A 
ATOM     48  C   UNL A   1      42.007  27.863  29.844  1.00  0.00     0.074 A 
ATOM     49  C   UNL A   1      39.895  29.029  29.271  1.00  0.00     0.049 A 
ATOM     50  N   UNL A   1      42.577  28.738  30.627  1.00  0.00    -0.248 NA
ATOM     51  C   UNL A   1      42.772  26.611  29.691  1.00  0.00     0.031 C 
ATOM     52  C   UNL A   1      38.553  29.173  28.699  1.00  0.00     0.029 A 
ATOM     53  N   UNL A   1      40.088  30.196  29.962  1.00  0.00    -0.354 N 
ATOM     54  C   UNL A   1      43.738  28.132  31.090  1.00  0.00     0.074 A 
ATOM     55  C   UNL A   1      43.772  26.797  30.538  1.00  0.00     0.031 C 
ATOM     56  C   UNL A   1      38.051  30.367  29.051  1.00  0.00     0.029 A 
ATOM     57  C   UNL A   1      39.013  31.052  29.904  1.00  0.00     0.049 A 
ATOM     58  H   UNL A   1      40.916  30.401  30.452  1.00  0.00     0.167 HD
ATOM     59  C   UNL A   1      44.704  28.654  31.877  1.00  0.00     0.034 A 
ATOM     60  C   UNL A   1      38.825  32.249  30.490  1.00  0.00     0.034 A 
ATOM     61  C   UNL A   1      44.674  29.997  32.386  1.00  0.00     0.049 A 
ATOM     62  C   UNL A   1      39.931  32.821  31.332  1.00  0.00     0.074 A 
ATOM     63  C   UNL A   1      45.647  30.666  33.103  1.00  0.00     0.029 A 
ATOM     64  N   UNL A   1      43.605  30.869  32.245  1.00  0.00    -0.354 N 
ATOM     65  N   UNL A   1      41.104  32.307  31.612  1.00  0.00    -0.248 NA
ATOM     66  C   UNL A   1      39.702  34.151  31.915  1.00  0.00     0.031 C 
ATOM     67  C   UNL A   1      45.148  31.929  33.434  1.00  0.00     0.029 A 
ATOM     68  C   UNL A   1      43.881  32.062  32.886  1.00  0.00     0.049 A 
ATOM     69  H   UNL A   1      42.772  30.668  31.759  1.00  0.00     0.167 HD
ATOM     70  C   UNL A   1      41.762  33.254  32.384  1.00  0.00     0.074 A 
ATOM     71  C   UNL A   1      40.868  34.389  32.499  1.00  0.00     0.031 C 
ATOM     72  C   UNL A   1      42.988  33.189  32.961  1.00  0.00     0.034 A 
BRANCH  59  73
ATOM     73  C   UNL A   1      45.890  27.784  32.203  1.00  0.00     0.023 A 
ATOM     74  C   UNL A   1      45.925  27.070  33.419  1.00  0.00     0.012 A 
ATOM     75  C   UNL A   1      46.946  27.637  31.285  1.00  0.00     0.148 A 
ATOM     76  C   UNL A   1      47.010  26.253  33.732  1.00  0.00     0.002 A 
ATOM     77  C   UNL A   1      48.000  26.780  31.582  1.00  0.00     0.091 A 
ATOM     78  F   UNL A   1      46.908  28.343  30.146  1.00  0.00    -0.205 F 
ATOM     79  C   UNL A   1      48.040  26.099  32.809  1.00  0.00     0.022 A 
BRANCH  77  80
ATOM     80  S   UNL A   1      49.335  26.450  30.427  1.00  0.00     0.127 S 
ATOM     81  O   UNL A   1      49.962  27.766  30.318  1.00  0.00    -0.237 OA
ATOM     82  O   UNL A   1      50.126  25.456  31.152  1.00  0.00    -0.237 OA
ATOM     83  O   UNL A   1      48.703  25.958  29.211  1.00  0.00    -0.744 OA
ENDBRANCH  77  80
ENDBRANCH  59  73
BRANCH  60  84
ATOM     84  C   UNL A   1      37.558  32.998  30.260  1.00  0.00     0.023 A 
ATOM     85  C   UNL A   1      37.233  33.435  28.962  1.00  0.00     0.012 A 
ATOM     86  C   UNL A   1      36.657  33.247  31.314  1.00  0.00     0.148 A 
ATOM     87  C   UNL A   1      36.050  34.135  28.722  1.00  0.00     0.002 A 
ATOM     88  C   UNL A   1      35.454  33.893  31.059  1.00  0.00     0.091 A 
ATOM     89  F   UNL A   1      36.988  32.828  32.543  1.00  0.00    -0.205 F 
ATOM     90  C   UNL A   1      35.157  34.356  29.767  1.00  0.00     0.022 A 
BRANCH  88  91
ATOM     91  S   UNL A   1      34.186  34.099  32.313  1.00  0.00     0.127 S 
ATOM     92  O   UNL A   1      33.194  34.907  31.608  1.00  0.00    -0.237 OA
ATOM     93  O   UNL A   1      33.787  32.714  32.568  1.00  0.00    -0.237 OA
ATOM     94  O   UNL A   1      34.844  34.749  33.439  1.00  0.00    -0.744 OA
ENDBRANCH  88  91
ENDBRANCH  60  84
BRANCH  72  95
ATOM     95  C   UNL A   1      43.444  34.382  33.758  1.00  0.00     0.023 A 
ATOM     96  C   UNL A   1      43.228  34.418  35.150  1.00  0.00     0.012 A 
ATOM     97  C   UNL A   1      44.155  35.429  33.139  1.00  0.00     0.148 A 
ATOM     98  C   UNL A   1      43.686  35.493  35.909  1.00  0.00     0.002 A 
ATOM     99  C   UNL A   1      44.655  36.470  33.909  1.00  0.00     0.091 A 
ATOM    100  F   UNL A   1      44.337  35.380  31.811  1.00  0.00    -0.205 F 
ATOM    101  C   UNL A   1      44.409  36.512  35.292  1.00  0.00     0.022 A 
BRANCH  99 102
ATOM    102  S   UNL A   1      45.680  37.773  33.222  1.00  0.00     0.127 S 
ATOM    103  O   UNL A   1      46.873  37.031  32.816  1.00  0.00    -0.237 OA
ATOM    104  O   UNL A   1      44.857  38.260  32.114  1.00  0.00    -0.237 OA
ATOM    105  O   UNL A   1      45.886  38.736  34.295  1.00  0.00    -0.744 OA
ENDBRANCH  99 102
ENDBRANCH  72  95
ENDBRANCH  46  47
ENDBRANCH  38  41
ENDBRANCH  36  37
ENDBRANCH  35  36
ENDBRANCH  34  35
ENDBRANCH  33  34
ENDBRANCH   1  33
TORSDOF 22
ENDMDL
MODEL 2
REMARK VINA RESULT:      -8.4      2.483      3.735
REMARK SMILES COc1ccc(-c2csc(NC(=O)[C@H](CC(=O)NCCCCCCNC(=O)c3ccc(-c4c5nc(c(-c6cccc(S(=O)(=O)[O-])c6F)c6ccc([nH]6)c(-c6cccc(S(=O)(=O)[O-])c6F)c6nc(c(-c7cccc(S(=O)(=O)[O-])c7F)c7ccc4[nH]7)C=C6)C=C5)cc3)[NH+]3CCCCC3)n2)cc1
REMARK SMILES IDX 20 1 19 2 18 3 16 4 17 5 15 7 14 8 12 9 11 10 13 12 10 13
REMARK SMILES IDX 7 14 8 15 97 16 9 17 6 18 3 19 4 20 99 21 5 22 98 23 2 24
REMARK SMILES IDX 1 25 91 26 92 27 96 28 93 30 95 31 94 32 21 33 22 34 23 35
REMARK SMILES IDX 24 36 25 37 26 38 27 40 28 41 29 42 90 43 30 44 89 45 31 46
REMARK SMILES IDX 32 47 33 48 83 49 34 50 88 51 82 52 84 53 35 54 87 55 81 56
REMARK SMILES IDX 80 57 36 59 68 60 48 61 67 62 49 63 52 64 66 65 85 66 50 67
REMARK SMILES IDX 51 68 65 70 86 71 53 72 37 73 38 74 46 75 39 76 41 77 47 78
REMARK SMILES IDX 40 79 42 80 43 81 44 82 45 83 69 84 70 85 78 86 71 87 73 88
REMARK SMILES IDX 79 89 72 90 74 91 75 92 76 93 77 94 54 95 55 96 63 97 56 98
REMARK SMILES IDX 58 99 64 100 57 101 59 102 60 103 61 104 62 105
REMARK H PARENT 18 6 11 11 91 29 25 39 84 58 52 69
REMARK Flexibility Score: inf
ROOT
ATOM      1  C   UNL A   1      44.199  26.169  26.628  1.00  0.00     0.021 C 
ENDROOT
BRANCH   1   2
ATOM      2  C   UNL A   1      44.327  27.852  26.188  1.00  0.00     0.116 C 
BRANCH   2   3
ATOM      3  N   UNL A   1      43.440  29.540  27.143  1.00  0.00    -0.356 N 
ATOM      4  C   UNL A   1      43.723  30.817  27.862  1.00  0.00     0.226 C 
ATOM      5  O   UNL A   1      42.774  31.297  28.499  1.00  0.00    -0.275 OA
ATOM      6  H   UNL A   1      42.462  29.437  27.088  1.00  0.00     0.163 HD
BRANCH   4   7
ATOM      7  C   UNL A   1      45.180  31.614  27.885  1.00  0.00     0.175 C 
BRANCH   7   8
ATOM      8  C   UNL A   1      45.393  33.201  28.096  1.00  0.00     0.284 C 
BRANCH   8   9
ATOM      9  C   UNL A   1      46.579  33.480  27.217  1.00  0.00     0.285 C 
ATOM     10  N   UNL A   1      47.404  34.476  27.613  1.00  0.00    -0.297 N 
ATOM     11  H   UNL A   1      48.265  34.537  27.140  1.00  0.00     0.172 HD
ATOM     12  O   UNL A   1      46.817  32.835  26.195  1.00  0.00    -0.268 OA
BRANCH  10  13
ATOM     13  C   UNL A   1      47.187  35.410  28.598  1.00  0.00     0.190 A 
ATOM     14  C   UNL A   1      47.743  36.498  31.377  1.00  0.00     0.084 A 
ATOM     15  C   UNL A   1      47.722  37.983  30.575  1.00  0.00     0.097 A 
ATOM     16  N   UNL A   1      47.514  35.033  30.232  1.00  0.00    -0.220 NA
ATOM     17  S   UNL A   1      47.192  37.775  28.365  1.00  0.00    -0.105 S 
BRANCH  14  18
ATOM     18  C   UNL A   1      47.756  36.344  32.826  1.00  0.00     0.001 A 
ATOM     19  C   UNL A   1      47.610  36.232  35.621  1.00  0.00     0.118 A 
ATOM     20  C   UNL A   1      48.348  37.240  35.017  1.00  0.00     0.047 A 
ATOM     21  C   UNL A   1      46.940  35.284  34.848  1.00  0.00     0.047 A 
ATOM     22  C   UNL A   1      48.469  37.255  33.626  1.00  0.00     0.014 A 
ATOM     23  C   UNL A   1      46.995  35.354  33.449  1.00  0.00     0.014 A 
BRANCH  19  24
ATOM     24  O   UNL A   1      47.505  36.218  36.984  1.00  0.00    -0.497 OA
ATOM     25  C   UNL A   1      48.602  35.499  37.547  1.00  0.00     0.278 C 
ENDBRANCH  19  24
ENDBRANCH  14  18
ENDBRANCH  10  13
ENDBRANCH   8   9
BRANCH   8  26
ATOM     26  N   UNL A   1      44.369  34.265  27.789  1.00  0.00    -0.324 N 
ATOM     27  C   UNL A   1      43.686  34.173  26.491  1.00  0.00     0.262 C 
ATOM     28  C   UNL A   1      43.376  34.573  28.841  1.00  0.00     0.262 C 
ATOM     29  H   UNL A   1      45.012  35.054  27.744  1.00  0.00     0.348 HD
ATOM     30  C   UNL A   1      43.063  35.541  26.138  1.00  0.00     0.062 C 
ATOM     31  C   UNL A   1      42.748  35.951  28.594  1.00  0.00     0.062 C 
ATOM     32  C   UNL A   1      42.111  36.046  27.218  1.00  0.00     0.012 C 
ENDBRANCH   8  26
ENDBRANCH   7   8
ENDBRANCH   4   7
ENDBRANCH   2   3
ENDBRANCH   1   2
BRANCH   1  33
ATOM     33  C   UNL A   1      44.383  25.194  25.487  1.00  0.00     0.002 C 
BRANCH  33  34
ATOM     34  C   UNL A   1      44.056  23.743  25.835  1.00  0.00     0.002 C 
BRANCH  34  35
ATOM     35  C   UNL A   1      42.756  23.186  25.268  1.00  0.00     0.021 C 
BRANCH  35  36
ATOM     36  C   UNL A   1      41.888  22.501  26.308  1.00  0.00     0.116 C 
BRANCH  36  37
ATOM     37  N   UNL A   1      40.505  22.405  25.850  1.00  0.00    -0.352 N 
ATOM     38  C   UNL A   1      39.407  23.099  26.279  1.00  0.00     0.251 C 
ATOM     39  H   UNL A   1      40.339  21.750  25.134  1.00  0.00     0.163 HD
ATOM     40  O   UNL A   1      38.276  22.662  26.103  1.00  0.00    -0.269 OA
BRANCH  38  41
ATOM     41  C   UNL A   1      39.627  24.389  26.947  1.00  0.00     0.039 A 
ATOM     42  C   UNL A   1      39.254  24.555  28.279  1.00  0.00     0.014 A 
ATOM     43  C   UNL A   1      40.259  25.415  26.238  1.00  0.00     0.014 A 
ATOM     44  C   UNL A   1      39.576  25.747  28.923  1.00  0.00     0.010 A 
ATOM     45  C   UNL A   1      40.685  26.542  26.912  1.00  0.00     0.010 A 
ATOM     46  C   UNL A   1      40.328  26.728  28.253  1.00  0.00    -0.014 A 
BRANCH  46  47
ATOM     47  C   UNL A   1      40.762  27.966  28.933  1.00  0.00     0.031 A 
ATOM     48  C   UNL A   1      42.089  28.001  29.636  1.00  0.00     0.074 A 
ATOM     49  C   UNL A   1      39.913  29.009  29.001  1.00  0.00     0.049 A 
ATOM     50  N   UNL A   1      42.618  28.962  30.343  1.00  0.00    -0.248 NA
ATOM     51  C   UNL A   1      42.917  26.782  29.570  1.00  0.00     0.031 C 
ATOM     52  C   UNL A   1      38.561  29.038  28.437  1.00  0.00     0.029 A 
ATOM     53  N   UNL A   1      40.050  30.234  29.599  1.00  0.00    -0.354 N 
ATOM     54  C   UNL A   1      43.813  28.455  30.836  1.00  0.00     0.074 A 
ATOM     55  C   UNL A   1      43.912  27.085  30.388  1.00  0.00     0.031 C 
ATOM     56  C   UNL A   1      38.000  30.228  28.703  1.00  0.00     0.029 A 
ATOM     57  C   UNL A   1      38.932  31.026  29.490  1.00  0.00     0.049 A 
ATOM     58  H   UNL A   1      40.871  30.519  30.062  1.00  0.00     0.167 HD
ATOM     59  C   UNL A   1      44.757  29.085  31.570  1.00  0.00     0.034 A 
ATOM     60  C   UNL A   1      38.685  32.253  29.984  1.00  0.00     0.034 A 
ATOM     61  C   UNL A   1      44.660  30.459  31.975  1.00  0.00     0.049 A 
ATOM     62  C   UNL A   1      39.767  32.945  30.766  1.00  0.00     0.074 A 
ATOM     63  C   UNL A   1      45.603  31.232  32.627  1.00  0.00     0.029 A 
ATOM     64  N   UNL A   1      43.546  31.262  31.781  1.00  0.00    -0.354 N 
ATOM     65  N   UNL A   1      40.967  32.515  31.071  1.00  0.00    -0.248 NA
ATOM     66  C   UNL A   1      39.473  34.302  31.249  1.00  0.00     0.031 C 
ATOM     67  C   UNL A   1      45.041  32.489  32.866  1.00  0.00     0.029 A 
ATOM     68  C   UNL A   1      43.764  32.514  32.326  1.00  0.00     0.049 A 
ATOM     69  H   UNL A   1      42.721  30.982  31.322  1.00  0.00     0.167 HD
ATOM     70  C   UNL A   1      41.582  33.552  31.760  1.00  0.00     0.074 A 
ATOM     71  C   UNL A   1      40.630  34.644  31.799  1.00  0.00     0.031 C 
ATOM     72  C   UNL A   1      42.814  33.595  32.325  1.00  0.00     0.034 A 
BRANCH  59  73
ATOM     73  C   UNL A   1      45.990  28.305  31.947  1.00  0.00     0.023 A 
ATOM     74  C   UNL A   1      46.049  27.641  33.189  1.00  0.00     0.012 A 
ATOM     75  C   UNL A   1      47.069  28.193  31.051  1.00  0.00     0.148 A 
ATOM     76  C   UNL A   1      47.177  26.906  33.550  1.00  0.00     0.002 A 
ATOM     77  C   UNL A   1      48.170  27.416  31.397  1.00  0.00     0.091 A 
ATOM     78  F   UNL A   1      47.007  28.852  29.886  1.00  0.00    -0.205 F 
ATOM     79  C   UNL A   1      48.231  26.785  32.649  1.00  0.00     0.022 A 
BRANCH  77  80
ATOM     80  S   UNL A   1      49.543  27.129  30.275  1.00  0.00     0.127 S 
ATOM     81  O   UNL A   1      50.470  28.190  30.668  1.00  0.00    -0.237 OA
ATOM     82  O   UNL A   1      49.966  25.781  30.651  1.00  0.00    -0.237 OA
ATOM     83  O   UNL A   1      48.997  27.246  28.931  1.00  0.00    -0.744 OA
ENDBRANCH  77  80
ENDBRANCH  59  73
BRANCH  60  84
ATOM     84  C   UNL A   1      37.379  32.915  29.713  1.00  0.00     0.023 A 
ATOM     85  C   UNL A   1      36.956  33.104  28.384  1.00  0.00     0.012 A 
ATOM     86  C   UNL A   1      36.538  33.326  30.766  1.00  0.00     0.148 A 
ATOM     87  C   UNL A   1      35.735  33.719  28.106  1.00  0.00     0.002 A 
ATOM     88  C   UNL A   1      35.297  33.884  30.484  1.00  0.00     0.091 A 
ATOM     89  F   UNL A   1      36.961  33.142  32.024  1.00  0.00    -0.205 F 
ATOM     90  C   UNL A   1      34.902  34.100  29.155  1.00  0.00     0.022 A 
BRANCH  88  91
ATOM     91  S   UNL A   1      34.104  34.279  31.767  1.00  0.00     0.127 S 
ATOM     92  O   UNL A   1      33.877  32.971  32.378  1.00  0.00    -0.237 OA
ATOM     93  O   UNL A   1      34.854  35.225  32.595  1.00  0.00    -0.237 OA
ATOM     94  O   UNL A   1      32.960  34.861  31.078  1.00  0.00    -0.744 OA
ENDBRANCH  88  91
ENDBRANCH  60  84
BRANCH  72  95
ATOM     95  C   UNL A   1      43.213  34.868  33.023  1.00  0.00     0.023 A 
ATOM     96  C   UNL A   1      43.631  35.980  32.267  1.00  0.00     0.012 A 
ATOM     97  C   UNL A   1      43.096  34.984  34.423  1.00  0.00     0.148 A 
ATOM     98  C   UNL A   1      43.959  37.180  32.895  1.00  0.00     0.002 A 
ATOM     99  C   UNL A   1      43.372  36.199  35.036  1.00  0.00     0.091 A 
ATOM    100  F   UNL A   1      42.709  33.908  35.124  1.00  0.00    -0.205 F 
ATOM    101  C   UNL A   1      43.818  37.293  34.276  1.00  0.00     0.022 A 
BRANCH  99 102
ATOM    102  S   UNL A   1      43.126  36.471  36.793  1.00  0.00     0.127 S 
ATOM    103  O   UNL A   1      41.676  36.321  36.917  1.00  0.00    -0.237 OA
ATOM    104  O   UNL A   1      43.904  35.382  37.385  1.00  0.00    -0.237 OA
ATOM    105  O   UNL A   1      43.637  37.805  37.073  1.00  0.00    -0.744 OA
ENDBRANCH  99 102
ENDBRANCH  72  95
ENDBRANCH  46  47
ENDBRANCH  38  41
ENDBRANCH  36  37
ENDBRANCH  35  36
ENDBRANCH  34  35
ENDBRANCH  33  34
ENDBRANCH   1  33
TORSDOF 22
ENDMDL
MODEL 3
REMARK VINA RESULT:      -8.4      2.589      3.286
REMARK SMILES COc1ccc(-c2csc(NC(=O)[C@H](CC(=O)NCCCCCCNC(=O)c3ccc(-c4c5nc(c(-c6cccc(S(=O)(=O)[O-])c6F)c6ccc([nH]6)c(-c6cccc(S(=O)(=O)[O-])c6F)c6nc(c(-c7cccc(S(=O)(=O)[O-])c7F)c7ccc4[nH]7)C=C6)C=C5)cc3)[NH+]3CCCCC3)n2)cc1
REMARK SMILES IDX 20 1 19 2 18 3 16 4 17 5 15 7 14 8 12 9 11 10 13 12 10 13
REMARK SMILES IDX 7 14 8 15 97 16 9 17 6 18 3 19 4 20 99 21 5 22 98 23 2 24
REMARK SMILES IDX 1 25 91 26 92 27 96 28 93 30 95 31 94 32 21 33 22 34 23 35
REMARK SMILES IDX 24 36 25 37 26 38 27 40 28 41 29 42 90 43 30 44 89 45 31 46
REMARK SMILES IDX 32 47 33 48 83 49 34 50 88 51 82 52 84 53 35 54 87 55 81 56
REMARK SMILES IDX 80 57 36 59 68 60 48 61 67 62 49 63 52 64 66 65 85 66 50 67
REMARK SMILES IDX 51 68 65 70 86 71 53 72 37 73 38 74 46 75 39 76 41 77 47 78
REMARK SMILES IDX 40 79 42 80 43 81 44 82 45 83 69 84 70 85 78 86 71 87 73 88
REMARK SMILES IDX 79 89 72 90 74 91 75 92 76 93 77 94 54 95 55 96 63 97 56 98
REMARK SMILES IDX 58 99 64 100 57 101 59 102 60 103 61 104 62 105
REMARK H PARENT 18 6 11 11 91 29 25 39 84 58 52 69
REMARK Flexibility Score: inf
ROOT
ATOM      1  C   UNL A   1      44.248  26.242  26.574  1.00  0.00     0.021 C 
ENDROOT
BRANCH   1   2
ATOM      2  C   UNL A   1      44.321  27.937  26.169  1.00  0.00     0.116 C 
BRANCH   2   3
ATOM      3  N   UNL A   1      43.538  29.592  27.262  1.00  0.00    -0.356 N 
ATOM      4  C   UNL A   1      43.864  30.927  27.845  1.00  0.00     0.226 C 
ATOM      5  O   UNL A   1      43.060  31.357  28.685  1.00  0.00    -0.275 OA
ATOM      6  H   UNL A   1      42.591  29.402  27.458  1.00  0.00     0.163 HD
BRANCH   4   7
ATOM      7  C   UNL A   1      45.197  31.847  27.475  1.00  0.00     0.175 C 
BRANCH   7   8
ATOM      8  C   UNL A   1      45.218  33.448  27.264  1.00  0.00     0.284 C 
BRANCH   8   9
ATOM      9  C   UNL A   1      45.426  33.569  25.781  1.00  0.00     0.285 C 
ATOM     10  N   UNL A   1      46.426  34.383  25.375  1.00  0.00    -0.297 N 
ATOM     11  H   UNL A   1      46.674  34.322  24.425  1.00  0.00     0.172 HD
ATOM     12  O   UNL A   1      44.745  32.952  24.961  1.00  0.00    -0.268 OA
BRANCH  10  13
ATOM     13  C   UNL A   1      47.142  35.283  26.130  1.00  0.00     0.190 A 
ATOM     14  C   UNL A   1      47.289  37.849  27.745  1.00  0.00     0.084 A 
ATOM     15  C   UNL A   1      48.235  36.903  28.775  1.00  0.00     0.097 A 
ATOM     16  N   UNL A   1      46.608  36.898  26.281  1.00  0.00    -0.220 NA
ATOM     17  S   UNL A   1      48.588  34.803  27.953  1.00  0.00    -0.105 S 
BRANCH  14  18
ATOM     18  C   UNL A   1      47.145  39.295  27.855  1.00  0.00     0.001 A 
ATOM     19  C   UNL A   1      47.013  42.061  28.270  1.00  0.00     0.118 A 
ATOM     20  C   UNL A   1      46.225  41.218  29.042  1.00  0.00     0.047 A 
ATOM     21  C   UNL A   1      47.869  41.541  27.301  1.00  0.00     0.047 A 
ATOM     22  C   UNL A   1      46.249  39.845  28.788  1.00  0.00     0.014 A 
ATOM     23  C   UNL A   1      47.952  40.154  27.108  1.00  0.00     0.014 A 
BRANCH  19  24
ATOM     24  O   UNL A   1      46.977  43.405  28.518  1.00  0.00    -0.497 OA
ATOM     25  C   UNL A   1      48.292  43.879  28.808  1.00  0.00     0.278 C 
ENDBRANCH  19  24
ENDBRANCH  14  18
ENDBRANCH  10  13
ENDBRANCH   8   9
BRANCH   8  26
ATOM     26  N   UNL A   1      44.093  34.388  27.620  1.00  0.00    -0.324 N 
ATOM     27  C   UNL A   1      44.323  35.301  28.747  1.00  0.00     0.262 C 
ATOM     28  C   UNL A   1      43.457  35.132  26.511  1.00  0.00     0.262 C 
ATOM     29  H   UNL A   1      43.426  33.680  27.926  1.00  0.00     0.348 HD
ATOM     30  C   UNL A   1      42.968  35.823  29.273  1.00  0.00     0.062 C 
ATOM     31  C   UNL A   1      42.072  35.638  26.935  1.00  0.00     0.062 C 
ATOM     32  C   UNL A   1      42.141  36.501  28.185  1.00  0.00     0.012 C 
ENDBRANCH   8  26
ENDBRANCH   7   8
ENDBRANCH   4   7
ENDBRANCH   2   3
ENDBRANCH   1   2
BRANCH   1  33
ATOM     33  C   UNL A   1      44.476  25.297  25.414  1.00  0.00     0.002 C 
BRANCH  33  34
ATOM     34  C   UNL A   1      44.130  23.839  25.709  1.00  0.00     0.002 C 
BRANCH  34  35
ATOM     35  C   UNL A   1      42.793  23.338  25.174  1.00  0.00     0.021 C 
BRANCH  35  36
ATOM     36  C   UNL A   1      41.953  22.629  26.221  1.00  0.00     0.116 C 
BRANCH  36  37
ATOM     37  N   UNL A   1      40.557  22.549  25.801  1.00  0.00    -0.352 N 
ATOM     38  C   UNL A   1      39.472  23.226  26.290  1.00  0.00     0.251 C 
ATOM     39  H   UNL A   1      40.369  21.924  25.065  1.00  0.00     0.163 HD
ATOM     40  O   UNL A   1      38.336  22.795  26.130  1.00  0.00    -0.269 OA
BRANCH  38  41
ATOM     41  C   UNL A   1      39.713  24.489  27.001  1.00  0.00     0.039 A 
ATOM     42  C   UNL A   1      39.390  24.598  28.352  1.00  0.00     0.014 A 
ATOM     43  C   UNL A   1      40.314  25.546  26.312  1.00  0.00     0.014 A 
ATOM     44  C   UNL A   1      39.732  25.763  29.032  1.00  0.00     0.010 A 
ATOM     45  C   UNL A   1      40.761  26.646  27.016  1.00  0.00     0.010 A 
ATOM     46  C   UNL A   1      40.455  26.775  28.376  1.00  0.00    -0.014 A 
BRANCH  46  47
ATOM     47  C   UNL A   1      40.909  27.986  29.089  1.00  0.00     0.031 A 
ATOM     48  C   UNL A   1      42.234  27.977  29.798  1.00  0.00     0.074 A 
ATOM     49  C   UNL A   1      40.081  29.043  29.182  1.00  0.00     0.049 A 
ATOM     50  N   UNL A   1      42.778  28.909  30.532  1.00  0.00    -0.248 NA
ATOM     51  C   UNL A   1      43.039  26.745  29.703  1.00  0.00     0.031 C 
ATOM     52  C   UNL A   1      38.732  29.114  28.613  1.00  0.00     0.029 A 
ATOM     53  N   UNL A   1      40.239  30.249  29.812  1.00  0.00    -0.354 N 
ATOM     54  C   UNL A   1      43.961  28.365  31.016  1.00  0.00     0.074 A 
ATOM     55  C   UNL A   1      44.036  27.007  30.532  1.00  0.00     0.031 C 
ATOM     56  C   UNL A   1      38.193  30.307  28.908  1.00  0.00     0.029 A 
ATOM     57  C   UNL A   1      39.137  31.066  29.719  1.00  0.00     0.049 A 
ATOM     58  H   UNL A   1      41.063  30.506  30.285  1.00  0.00     0.167 HD
ATOM     59  C   UNL A   1      44.915  28.958  31.770  1.00  0.00     0.034 A 
ATOM     60  C   UNL A   1      38.912  32.284  30.245  1.00  0.00     0.034 A 
ATOM     61  C   UNL A   1      44.843  30.323  32.210  1.00  0.00     0.049 A 
ATOM     62  C   UNL A   1      40.003  32.934  31.049  1.00  0.00     0.074 A 
ATOM     63  C   UNL A   1      45.797  31.060  32.886  1.00  0.00     0.029 A 
ATOM     64  N   UNL A   1      43.745  31.152  32.033  1.00  0.00    -0.354 N 
ATOM     65  N   UNL A   1      41.194  32.473  31.346  1.00  0.00    -0.248 NA
ATOM     66  C   UNL A   1      39.734  34.283  31.566  1.00  0.00     0.031 C 
ATOM     67  C   UNL A   1      45.259  32.321  33.156  1.00  0.00     0.029 A 
ATOM     68  C   UNL A   1      43.985  32.384  32.611  1.00  0.00     0.049 A 
ATOM     69  H   UNL A   1      42.917  30.900  31.563  1.00  0.00     0.167 HD
ATOM     70  C   UNL A   1      41.825  33.480  32.065  1.00  0.00     0.074 A 
ATOM     71  C   UNL A   1      40.895  34.589  32.129  1.00  0.00     0.031 C 
ATOM     72  C   UNL A   1      43.056  33.484  32.635  1.00  0.00     0.034 A 
BRANCH  59  73
ATOM     73  C   UNL A   1      46.130  28.145  32.130  1.00  0.00     0.023 A 
ATOM     74  C   UNL A   1      47.275  28.190  31.309  1.00  0.00     0.012 A 
ATOM     75  C   UNL A   1      46.153  27.372  33.306  1.00  0.00     0.148 A 
ATOM     76  C   UNL A   1      48.412  27.452  31.633  1.00  0.00     0.002 A 
ATOM     77  C   UNL A   1      47.309  26.679  33.649  1.00  0.00     0.091 A 
ATOM     78  F   UNL A   1      45.047  27.320  34.061  1.00  0.00    -0.205 F 
ATOM     79  C   UNL A   1      48.432  26.706  32.808  1.00  0.00     0.022 A 
BRANCH  77  80
ATOM     80  S   UNL A   1      47.465  25.755  35.182  1.00  0.00     0.127 S 
ATOM     81  O   UNL A   1      48.902  25.486  35.217  1.00  0.00    -0.237 OA
ATOM     82  O   UNL A   1      47.002  26.727  36.171  1.00  0.00    -0.237 OA
ATOM     83  O   UNL A   1      46.615  24.582  35.034  1.00  0.00    -0.744 OA
ENDBRANCH  77  80
ENDBRANCH  59  73
BRANCH  60  84
ATOM     84  C   UNL A   1      37.620  32.978  29.986  1.00  0.00     0.023 A 
ATOM     85  C   UNL A   1      37.280  33.351  28.672  1.00  0.00     0.012 A 
ATOM     86  C   UNL A   1      36.711  33.239  31.031  1.00  0.00     0.148 A 
ATOM     87  C   UNL A   1      36.073  33.999  28.406  1.00  0.00     0.002 A 
ATOM     88  C   UNL A   1      35.486  33.832  30.751  1.00  0.00     0.091 A 
ATOM     89  F   UNL A   1      37.056  32.881  32.275  1.00  0.00    -0.205 F 
ATOM     90  C   UNL A   1      35.173  34.231  29.442  1.00  0.00     0.022 A 
BRANCH  88  91
ATOM     91  S   UNL A   1      34.211  34.044  31.998  1.00  0.00     0.127 S 
ATOM     92  O   UNL A   1      34.885  34.896  32.975  1.00  0.00    -0.237 OA
ATOM     93  O   UNL A   1      33.149  34.699  31.234  1.00  0.00    -0.237 OA
ATOM     94  O   UNL A   1      33.879  32.701  32.457  1.00  0.00    -0.744 OA
ENDBRANCH  88  91
ENDBRANCH  60  84
BRANCH  72  95
ATOM     95  C   UNL A   1      43.476  34.730  33.368  1.00  0.00     0.023 A 
ATOM     96  C   UNL A   1      44.071  35.792  32.659  1.00  0.00     0.012 A 
ATOM     97  C   UNL A   1      43.209  34.877  34.743  1.00  0.00     0.148 A 
ATOM     98  C   UNL A   1      44.423  36.970  33.314  1.00  0.00     0.002 A 
ATOM     99  C   UNL A   1      43.513  36.074  35.378  1.00  0.00     0.091 A 
ATOM    100  F   UNL A   1      42.655  33.847  35.401  1.00  0.00    -0.205 F 
ATOM    101  C   UNL A   1      44.133  37.116  34.669  1.00  0.00     0.022 A 
BRANCH  99 102
ATOM    102  S   UNL A   1      43.089  36.392  37.093  1.00  0.00     0.127 S 
ATOM    103  O   UNL A   1      43.905  35.399  37.791  1.00  0.00    -0.237 OA
ATOM    104  O   UNL A   1      43.530  37.776  37.267  1.00  0.00    -0.237 OA
ATOM    105  O   UNL A   1      41.650  36.194  37.198  1.00  0.00    -0.744 OA
ENDBRANCH  99 102
ENDBRANCH  72  95
ENDBRANCH  46  47
ENDBRANCH  38  41
ENDBRANCH  36  37
ENDBRANCH  35  36
ENDBRANCH  34  35
ENDBRANCH  33  34
ENDBRANCH   1  33
TORSDOF 22
ENDMDL
