MODEL 1
REMARK VINA RESULT:     -12.0      0.000      0.000
REMARK SMILES O=C(NCCCCCCNC(=O)c1ccc(-c2c3nc(c(-c4cccc(S(=O)(=O)[O-])c4F)c4ccc([nH]4)c(-c4cccc(S(=O)(=O)[O-])c4F)c4nc(c(-c5cccc(S(=O)(=O)[O-])c5F)c5ccc2[nH]5)C=C4)C=C3)cc1)C1=Cc2cc(Cl)cc(C#Cc3ccccc3)c2O[C@@H]1C(F)(F)F
REMARK SMILES IDX 7 1 6 2 5 3 4 4 3 5 1 6 2 7 76 9 77 10 94 11 78 12 93 13
REMARK SMILES IDX 79 14 92 15 80 16 83 17 81 18 82 19 95 20 96 21 97 22 98 23
REMARK SMILES IDX 84 24 85 25 86 26 87 27 91 28 88 29 90 30 89 31 8 32 9 33
REMARK SMILES IDX 10 34 11 35 12 37 13 38 14 39 75 40 15 41 74 42 16 43 17 44
REMARK SMILES IDX 18 45 68 46 19 47 73 48 67 49 69 50 20 51 72 52 66 53 65 54
REMARK SMILES IDX 21 56 53 57 33 58 52 59 34 60 37 61 51 62 70 63 35 64 36 65
REMARK SMILES IDX 50 67 71 68 38 69 22 70 23 71 31 72 24 73 26 74 32 75 25 76
REMARK SMILES IDX 27 77 28 78 29 79 30 80 54 81 55 82 63 83 56 84 58 85 64 86
REMARK SMILES IDX 57 87 59 88 60 89 61 90 62 91 39 92 40 93 48 94 41 95 43 96
REMARK SMILES IDX 49 97 42 98 44 99 45 100 46 101 47 102
REMARK H PARENT 3 8 10 36 69 55 37 66
REMARK Flexibility Score: inf
ROOT
ATOM      1  C   UNL A   1      31.985  28.649  24.551  1.00  0.00     0.002 C 
ENDROOT
BRANCH   1   2
ATOM      2  C   UNL A   1      30.839  27.707  24.160  1.00  0.00     0.002 C 
BRANCH   2   3
ATOM      3  C   UNL A   1      30.030  27.091  25.301  1.00  0.00     0.021 C 
BRANCH   3   4
ATOM      4  C   UNL A   1      29.818  25.584  25.240  1.00  0.00     0.116 C 
BRANCH   4   5
ATOM      5  N   UNL A   1      30.521  24.807  26.247  1.00  0.00    -0.352 N 
ATOM      6  O   UNL A   1      32.281  23.897  27.307  1.00  0.00    -0.270 OA
ATOM      7  C   UNL A   1      31.836  24.427  26.289  1.00  0.00     0.251 C 
ATOM      8  H   UNL A   1      29.973  24.510  27.009  1.00  0.00     0.163 HD
BRANCH   7   9
ATOM      9  C   UNL A   1      32.792  24.729  25.178  1.00  0.00     0.067 C 
ATOM     10  C   UNL A   1      34.067  25.085  25.414  1.00  0.00     0.025 C 
ATOM     11  C   UNL A   1      32.507  23.897  23.950  1.00  0.00     0.314 C 
ATOM     12  C   UNL A   1      35.042  24.024  25.058  1.00  0.00     0.020 A 
ATOM     13  O   UNL A   1      33.327  22.701  23.936  1.00  0.00    -0.474 OA
ATOM     14  C   UNL A   1      36.318  24.103  25.628  1.00  0.00     0.032 A 
ATOM     15  C   UNL A   1      34.581  22.815  24.498  1.00  0.00     0.143 A 
ATOM     16  C   UNL A   1      37.097  22.953  25.723  1.00  0.00     0.043 A 
ATOM     17  C   UNL A   1      35.343  21.651  24.669  1.00  0.00     0.069 A 
ATOM     18  Cl  UNL A   1      38.574  23.003  26.602  1.00  0.00    -0.084 Cl
ATOM     19  C   UNL A   1      36.612  21.731  25.259  1.00  0.00     0.041 A 
BRANCH  11  20
ATOM     20  C   UNL A   1      32.628  24.740  22.665  1.00  0.00     0.429 C 
ATOM     21  F   UNL A   1      33.241  24.052  21.672  1.00  0.00    -0.167 F 
ATOM     22  F   UNL A   1      31.403  25.091  22.193  1.00  0.00    -0.167 F 
ATOM     23  F   UNL A   1      33.319  25.889  22.848  1.00  0.00    -0.167 F 
ENDBRANCH  11  20
BRANCH  17  24
ATOM     24  C   UNL A   1      34.764  20.343  24.536  1.00  0.00    -0.058 C 
ATOM     25  C   UNL A   1      34.346  19.223  24.652  1.00  0.00    -0.062 C 
BRANCH  25  26
ATOM     26  C   UNL A   1      33.942  17.875  24.934  1.00  0.00     0.025 A 
ATOM     27  C   UNL A   1      32.656  17.594  25.398  1.00  0.00     0.017 A 
ATOM     28  C   UNL A   1      34.859  16.833  24.763  1.00  0.00     0.017 A 
ATOM     29  C   UNL A   1      32.282  16.273  25.664  1.00  0.00     0.001 A 
ATOM     30  C   UNL A   1      34.486  15.514  25.032  1.00  0.00     0.001 A 
ATOM     31  C   UNL A   1      33.194  15.233  25.476  1.00  0.00     0.000 A 
ENDBRANCH  25  26
ENDBRANCH  17  24
ENDBRANCH   7   9
ENDBRANCH   4   5
ENDBRANCH   3   4
ENDBRANCH   2   3
ENDBRANCH   1   2
BRANCH   1  32
ATOM     32  C   UNL A   1      32.624  28.431  25.925  1.00  0.00     0.021 C 
BRANCH  32  33
ATOM     33  C   UNL A   1      33.989  29.073  26.151  1.00  0.00     0.116 C 
BRANCH  33  34
ATOM     34  N   UNL A   1      33.896  30.415  26.697  1.00  0.00    -0.352 N 
ATOM     35  C   UNL A   1      34.664  31.037  27.649  1.00  0.00     0.251 C 
ATOM     36  H   UNL A   1      33.169  30.966  26.326  1.00  0.00     0.163 HD
ATOM     37  O   UNL A   1      34.321  32.139  28.073  1.00  0.00    -0.269 OA
BRANCH  35  38
ATOM     38  C   UNL A   1      35.886  30.393  28.186  1.00  0.00     0.039 A 
ATOM     39  C   UNL A   1      37.083  30.537  27.477  1.00  0.00     0.014 A 
ATOM     40  C   UNL A   1      35.858  29.620  29.350  1.00  0.00     0.014 A 
ATOM     41  C   UNL A   1      38.255  29.946  27.956  1.00  0.00     0.010 A 
ATOM     42  C   UNL A   1      37.043  29.094  29.867  1.00  0.00     0.010 A 
ATOM     43  C   UNL A   1      38.251  29.239  29.170  1.00  0.00    -0.014 A 
BRANCH  43  44
ATOM     44  C   UNL A   1      39.501  28.649  29.717  1.00  0.00     0.031 A 
ATOM     45  C   UNL A   1      40.165  29.252  30.926  1.00  0.00     0.074 A 
ATOM     46  C   UNL A   1      40.080  27.612  29.082  1.00  0.00     0.049 A 
ATOM     47  N   UNL A   1      41.275  28.899  31.521  1.00  0.00    -0.248 NA
ATOM     48  C   UNL A   1      39.509  30.423  31.533  1.00  0.00     0.031 C 
ATOM     49  C   UNL A   1      39.579  26.986  27.856  1.00  0.00     0.029 A 
ATOM     50  N   UNL A   1      41.230  26.917  29.363  1.00  0.00    -0.354 N 
ATOM     51  C   UNL A   1      41.468  29.818  32.546  1.00  0.00     0.074 A 
ATOM     52  C   UNL A   1      40.380  30.767  32.470  1.00  0.00     0.031 C 
ATOM     53  C   UNL A   1      40.414  26.001  27.492  1.00  0.00     0.029 A 
ATOM     54  C   UNL A   1      41.525  25.943  28.437  1.00  0.00     0.049 A 
ATOM     55  H   UNL A   1      41.790  27.097  30.152  1.00  0.00     0.167 HD
ATOM     56  C   UNL A   1      42.445  29.852  33.485  1.00  0.00     0.034 A 
ATOM     57  C   UNL A   1      42.577  25.104  28.350  1.00  0.00     0.034 A 
ATOM     58  C   UNL A   1      43.508  28.887  33.576  1.00  0.00     0.049 A 
ATOM     59  C   UNL A   1      43.632  25.141  29.421  1.00  0.00     0.074 A 
ATOM     60  C   UNL A   1      44.497  28.785  34.538  1.00  0.00     0.029 A 
ATOM     61  N   UNL A   1      43.730  27.864  32.666  1.00  0.00    -0.354 N 
ATOM     62  N   UNL A   1      43.712  25.917  30.475  1.00  0.00    -0.248 NA
ATOM     63  C   UNL A   1      44.722  24.160  29.315  1.00  0.00     0.031 C 
ATOM     64  C   UNL A   1      45.335  27.719  34.193  1.00  0.00     0.029 A 
ATOM     65  C   UNL A   1      44.847  27.134  33.035  1.00  0.00     0.049 A 
ATOM     66  H   UNL A   1      43.174  27.684  31.874  1.00  0.00     0.167 HD
ATOM     67  C   UNL A   1      44.838  25.499  31.173  1.00  0.00     0.074 A 
ATOM     68  C   UNL A   1      45.397  24.386  30.434  1.00  0.00     0.031 C 
ATOM     69  C   UNL A   1      45.369  26.000  32.316  1.00  0.00     0.034 A 
BRANCH  56  70
ATOM     70  C   UNL A   1      42.381  30.949  34.517  1.00  0.00     0.023 A 
ATOM     71  C   UNL A   1      41.722  30.716  35.743  1.00  0.00     0.012 A 
ATOM     72  C   UNL A   1      43.006  32.192  34.298  1.00  0.00     0.148 A 
ATOM     73  C   UNL A   1      41.646  31.715  36.713  1.00  0.00     0.002 A 
ATOM     74  C   UNL A   1      42.968  33.167  35.290  1.00  0.00     0.091 A 
ATOM     75  F   UNL A   1      43.611  32.406  33.122  1.00  0.00    -0.205 F 
ATOM     76  C   UNL A   1      42.277  32.935  36.491  1.00  0.00     0.022 A 
BRANCH  74  77
ATOM     77  S   UNL A   1      43.817  34.742  35.134  1.00  0.00     0.127 S 
ATOM     78  O   UNL A   1      45.203  34.314  34.954  1.00  0.00    -0.237 OA
ATOM     79  O   UNL A   1      43.195  35.310  33.937  1.00  0.00    -0.237 OA
ATOM     80  O   UNL A   1      43.541  35.471  36.364  1.00  0.00    -0.744 OA
ENDBRANCH  74  77
ENDBRANCH  56  70
BRANCH  57  81
ATOM     81  C   UNL A   1      42.648  24.122  27.232  1.00  0.00     0.023 A 
ATOM     82  C   UNL A   1      43.332  24.464  26.049  1.00  0.00     0.012 A 
ATOM     83  C   UNL A   1      42.082  22.838  27.353  1.00  0.00     0.148 A 
ATOM     84  C   UNL A   1      43.426  23.555  24.995  1.00  0.00     0.002 A 
ATOM     85  C   UNL A   1      42.229  21.918  26.322  1.00  0.00     0.091 A 
ATOM     86  F   UNL A   1      41.429  22.536  28.484  1.00  0.00    -0.205 F 
ATOM     87  C   UNL A   1      42.885  22.279  25.135  1.00  0.00     0.022 A 
BRANCH  85  88
ATOM     88  S   UNL A   1      41.686  20.212  26.467  1.00  0.00     0.127 S 
ATOM     89  O   UNL A   1      40.244  20.340  26.288  1.00  0.00    -0.237 OA
ATOM     90  O   UNL A   1      42.393  19.577  25.354  1.00  0.00    -0.237 OA
ATOM     91  O   UNL A   1      42.123  19.770  27.784  1.00  0.00    -0.744 OA
ENDBRANCH  85  88
ENDBRANCH  57  81
BRANCH  69  92
ATOM     92  C   UNL A   1      46.602  25.330  32.868  1.00  0.00     0.023 A 
ATOM     93  C   UNL A   1      47.880  25.786  32.490  1.00  0.00     0.012 A 
ATOM     94  C   UNL A   1      46.490  24.295  33.817  1.00  0.00     0.148 A 
ATOM     95  C   UNL A   1      49.028  25.200  33.021  1.00  0.00     0.002 A 
ATOM     96  C   UNL A   1      47.637  23.751  34.382  1.00  0.00     0.091 A 
ATOM     97  F   UNL A   1      45.266  23.862  34.151  1.00  0.00    -0.205 F 
ATOM     98  C   UNL A   1      48.906  24.193  33.976  1.00  0.00     0.022 A 
BRANCH  96  99
ATOM     99  S   UNL A   1      47.578  22.519  35.689  1.00  0.00     0.127 S 
ATOM    100  O   UNL A   1      46.845  23.231  36.735  1.00  0.00    -0.237 OA
ATOM    101  O   UNL A   1      46.834  21.430  35.054  1.00  0.00    -0.237 OA
ATOM    102  O   UNL A   1      48.964  22.200  36.004  1.00  0.00    -0.744 OA
ENDBRANCH  96  99
ENDBRANCH  69  92
ENDBRANCH  43  44
ENDBRANCH  35  38
ENDBRANCH  33  34
ENDBRANCH  32  33
ENDBRANCH   1  32
TORSDOF 19
ENDMDL
MODEL 2
REMARK VINA RESULT:     -12.0      2.906      4.404
REMARK SMILES O=C(NCCCCCCNC(=O)c1ccc(-c2c3nc(c(-c4cccc(S(=O)(=O)[O-])c4F)c4ccc([nH]4)c(-c4cccc(S(=O)(=O)[O-])c4F)c4nc(c(-c5cccc(S(=O)(=O)[O-])c5F)c5ccc2[nH]5)C=C4)C=C3)cc1)C1=Cc2cc(Cl)cc(C#Cc3ccccc3)c2O[C@@H]1C(F)(F)F
REMARK SMILES IDX 7 1 6 2 5 3 4 4 3 5 1 6 2 7 76 9 77 10 94 11 78 12 93 13
REMARK SMILES IDX 79 14 92 15 80 16 83 17 81 18 82 19 95 20 96 21 97 22 98 23
REMARK SMILES IDX 84 24 85 25 86 26 87 27 91 28 88 29 90 30 89 31 8 32 9 33
REMARK SMILES IDX 10 34 11 35 12 37 13 38 14 39 75 40 15 41 74 42 16 43 17 44
REMARK SMILES IDX 18 45 68 46 19 47 73 48 67 49 69 50 20 51 72 52 66 53 65 54
REMARK SMILES IDX 21 56 53 57 33 58 52 59 34 60 37 61 51 62 70 63 35 64 36 65
REMARK SMILES IDX 50 67 71 68 38 69 22 70 23 71 31 72 24 73 26 74 32 75 25 76
REMARK SMILES IDX 27 77 28 78 29 79 30 80 54 81 55 82 63 83 56 84 58 85 64 86
REMARK SMILES IDX 57 87 59 88 60 89 61 90 62 91 39 92 40 93 48 94 41 95 43 96
REMARK SMILES IDX 49 97 42 98 44 99 45 100 46 101 47 102
REMARK H PARENT 3 8 10 36 69 55 37 66
REMARK Flexibility Score: inf
ROOT
ATOM      1  C   UNL A   1      31.960  27.942  25.152  1.00  0.00     0.002 C 
ENDROOT
BRANCH   1   2
ATOM      2  C   UNL A   1      32.399  27.639  23.714  1.00  0.00     0.002 C 
BRANCH   2   3
ATOM      3  C   UNL A   1      31.291  27.393  22.689  1.00  0.00     0.021 C 
BRANCH   3   4
ATOM      4  C   UNL A   1      31.064  25.945  22.276  1.00  0.00     0.116 C 
BRANCH   4   5
ATOM      5  N   UNL A   1      32.250  25.216  21.855  1.00  0.00    -0.352 N 
ATOM      6  O   UNL A   1      33.709  23.511  21.761  1.00  0.00    -0.270 OA
ATOM      7  C   UNL A   1      32.777  24.055  22.354  1.00  0.00     0.251 C 
ATOM      8  H   UNL A   1      32.745  25.615  21.104  1.00  0.00     0.163 HD
BRANCH   7   9
ATOM      9  C   UNL A   1      32.195  23.356  23.542  1.00  0.00     0.067 C 
ATOM     10  C   UNL A   1      31.740  22.093  23.471  1.00  0.00     0.025 C 
ATOM     11  C   UNL A   1      32.846  23.801  24.830  1.00  0.00     0.314 C 
ATOM     12  C   UNL A   1      32.612  21.120  24.174  1.00  0.00     0.020 A 
ATOM     13  O   UNL A   1      33.923  22.903  25.199  1.00  0.00    -0.474 OA
ATOM     14  C   UNL A   1      32.482  19.769  23.829  1.00  0.00     0.032 A 
ATOM     15  C   UNL A   1      33.760  21.579  24.852  1.00  0.00     0.143 A 
ATOM     16  C   UNL A   1      33.537  18.896  24.078  1.00  0.00     0.043 A 
ATOM     17  C   UNL A   1      34.842  20.706  25.027  1.00  0.00     0.069 A 
ATOM     18  Cl  UNL A   1      33.462  17.288  23.474  1.00  0.00    -0.084 Cl
ATOM     19  C   UNL A   1      34.715  19.358  24.661  1.00  0.00     0.041 A 
BRANCH  11  20
ATOM     20  C   UNL A   1      31.799  23.996  25.945  1.00  0.00     0.429 C 
ATOM     21  F   UNL A   1      30.602  24.381  25.444  1.00  0.00    -0.167 F 
ATOM     22  F   UNL A   1      31.582  22.837  26.619  1.00  0.00    -0.167 F 
ATOM     23  F   UNL A   1      32.169  24.918  26.864  1.00  0.00    -0.167 F 
ENDBRANCH  11  20
BRANCH  17  24
ATOM     24  C   UNL A   1      36.169  21.191  25.289  1.00  0.00    -0.058 C 
ATOM     25  C   UNL A   1      37.167  21.764  25.634  1.00  0.00    -0.062 C 
BRANCH  25  26
ATOM     26  C   UNL A   1      38.255  22.578  26.093  1.00  0.00     0.025 A 
ATOM     27  C   UNL A   1      38.102  23.956  26.256  1.00  0.00     0.017 A 
ATOM     28  C   UNL A   1      39.494  21.984  26.359  1.00  0.00     0.017 A 
ATOM     29  C   UNL A   1      39.176  24.730  26.707  1.00  0.00     0.001 A 
ATOM     30  C   UNL A   1      40.566  22.759  26.807  1.00  0.00     0.001 A 
ATOM     31  C   UNL A   1      40.405  24.132  26.988  1.00  0.00     0.000 A 
ENDBRANCH  25  26
ENDBRANCH  17  24
ENDBRANCH   7   9
ENDBRANCH   4   5
ENDBRANCH   3   4
ENDBRANCH   2   3
ENDBRANCH   1   2
BRANCH   1  32
ATOM     32  C   UNL A   1      33.045  27.904  26.231  1.00  0.00     0.021 C 
BRANCH  32  33
ATOM     33  C   UNL A   1      34.191  28.900  26.080  1.00  0.00     0.116 C 
BRANCH  33  34
ATOM     34  N   UNL A   1      33.802  30.260  26.409  1.00  0.00    -0.352 N 
ATOM     35  C   UNL A   1      34.272  31.102  27.385  1.00  0.00     0.251 C 
ATOM     36  H   UNL A   1      33.091  30.638  25.842  1.00  0.00     0.163 HD
ATOM     37  O   UNL A   1      33.698  32.171  27.584  1.00  0.00    -0.269 OA
BRANCH  35  38
ATOM     38  C   UNL A   1      35.445  30.733  28.213  1.00  0.00     0.039 A 
ATOM     39  C   UNL A   1      36.598  31.518  28.124  1.00  0.00     0.014 A 
ATOM     40  C   UNL A   1      35.435  29.606  29.039  1.00  0.00     0.014 A 
ATOM     41  C   UNL A   1      37.721  31.201  28.893  1.00  0.00     0.010 A 
ATOM     42  C   UNL A   1      36.528  29.335  29.862  1.00  0.00     0.010 A 
ATOM     43  C   UNL A   1      37.688  30.120  29.789  1.00  0.00    -0.014 A 
BRANCH  43  44
ATOM     44  C   UNL A   1      38.857  29.803  30.650  1.00  0.00     0.031 A 
ATOM     45  C   UNL A   1      39.021  30.467  31.991  1.00  0.00     0.074 A 
ATOM     46  C   UNL A   1      39.813  28.969  30.195  1.00  0.00     0.049 A 
ATOM     47  N   UNL A   1      39.990  30.344  32.860  1.00  0.00    -0.248 NA
ATOM     48  C   UNL A   1      37.969  31.414  32.399  1.00  0.00     0.031 C 
ATOM     49  C   UNL A   1      39.811  28.321  28.881  1.00  0.00     0.029 A 
ATOM     50  N   UNL A   1      40.982  28.543  30.773  1.00  0.00    -0.354 N 
ATOM     51  C   UNL A   1      39.685  31.218  33.898  1.00  0.00     0.074 A 
ATOM     52  C   UNL A   1      38.460  31.892  33.533  1.00  0.00     0.031 C 
ATOM     53  C   UNL A   1      40.923  27.581  28.754  1.00  0.00     0.029 A 
ATOM     54  C   UNL A   1      41.732  27.724  29.961  1.00  0.00     0.049 A 
ATOM     55  H   UNL A   1      41.258  28.799  31.683  1.00  0.00     0.167 HD
ATOM     56  C   UNL A   1      40.348  31.419  35.063  1.00  0.00     0.034 A 
ATOM     57  C   UNL A   1      42.939  27.158  30.159  1.00  0.00     0.034 A 
ATOM     58  C   UNL A   1      41.550  30.723  35.437  1.00  0.00     0.049 A 
ATOM     59  C   UNL A   1      43.640  27.372  31.472  1.00  0.00     0.074 A 
ATOM     60  C   UNL A   1      42.251  30.794  36.627  1.00  0.00     0.029 A 
ATOM     61  N   UNL A   1      42.239  29.838  34.621  1.00  0.00    -0.354 N 
ATOM     62  N   UNL A   1      43.256  28.079  32.507  1.00  0.00    -0.248 NA
ATOM     63  C   UNL A   1      44.923  26.679  31.662  1.00  0.00     0.031 C 
ATOM     64  C   UNL A   1      43.380  29.974  36.520  1.00  0.00     0.029 A 
ATOM     65  C   UNL A   1      43.364  29.365  35.276  1.00  0.00     0.049 A 
ATOM     66  H   UNL A   1      41.967  29.583  33.709  1.00  0.00     0.167 HD
ATOM     67  C   UNL A   1      44.229  27.891  33.482  1.00  0.00     0.074 A 
ATOM     68  C   UNL A   1      45.211  26.985  32.920  1.00  0.00     0.031 C 
ATOM     69  C   UNL A   1      44.310  28.429  34.724  1.00  0.00     0.034 A 
BRANCH  56  70
ATOM     70  C   UNL A   1      39.758  32.406  36.039  1.00  0.00     0.023 A 
ATOM     71  C   UNL A   1      38.793  31.971  36.973  1.00  0.00     0.012 A 
ATOM     72  C   UNL A   1      40.184  33.748  36.065  1.00  0.00     0.148 A 
ATOM     73  C   UNL A   1      38.230  32.864  37.884  1.00  0.00     0.002 A 
ATOM     74  C   UNL A   1      39.653  34.622  37.009  1.00  0.00     0.091 A 
ATOM     75  F   UNL A   1      41.087  34.151  35.160  1.00  0.00    -0.205 F 
ATOM     76  C   UNL A   1      38.667  34.185  37.908  1.00  0.00     0.022 A 
BRANCH  74  77
ATOM     77  S   UNL A   1      40.207  36.322  37.175  1.00  0.00     0.127 S 
ATOM     78  O   UNL A   1      39.876  36.870  35.860  1.00  0.00    -0.237 OA
ATOM     79  O   UNL A   1      39.369  36.814  38.269  1.00  0.00    -0.237 OA
ATOM     80  O   UNL A   1      41.629  36.253  37.484  1.00  0.00    -0.744 OA
ENDBRANCH  74  77
ENDBRANCH  56  70
BRANCH  57  81
ATOM     81  C   UNL A   1      43.530  26.291  29.103  1.00  0.00     0.023 A 
ATOM     82  C   UNL A   1      43.315  24.899  29.145  1.00  0.00     0.012 A 
ATOM     83  C   UNL A   1      44.264  26.841  28.033  1.00  0.00     0.148 A 
ATOM     84  C   UNL A   1      43.845  24.068  28.158  1.00  0.00     0.002 A 
ATOM     85  C   UNL A   1      44.740  26.014  27.023  1.00  0.00     0.091 A 
ATOM     86  F   UNL A   1      44.463  28.166  28.017  1.00  0.00    -0.205 F 
ATOM     87  C   UNL A   1      44.547  24.625  27.092  1.00  0.00     0.022 A 
BRANCH  85  88
ATOM     88  S   UNL A   1      45.534  26.655  25.545  1.00  0.00     0.127 S 
ATOM     89  O   UNL A   1      44.512  27.557  25.024  1.00  0.00    -0.237 OA
ATOM     90  O   UNL A   1      46.715  27.316  26.102  1.00  0.00    -0.237 OA
ATOM     91  O   UNL A   1      45.830  25.492  24.720  1.00  0.00    -0.744 OA
ENDBRANCH  85  88
ENDBRANCH  57  81
BRANCH  69  92
ATOM     92  C   UNL A   1      45.481  28.030  35.585  1.00  0.00     0.023 A 
ATOM     93  C   UNL A   1      46.662  28.800  35.569  1.00  0.00     0.012 A 
ATOM     94  C   UNL A   1      45.383  26.934  36.464  1.00  0.00     0.148 A 
ATOM     95  C   UNL A   1      47.739  28.463  36.388  1.00  0.00     0.002 A 
ATOM     96  C   UNL A   1      46.440  26.636  37.315  1.00  0.00     0.091 A 
ATOM     97  F   UNL A   1      44.259  26.203  36.452  1.00  0.00    -0.205 F 
ATOM     98  C   UNL A   1      47.623  27.391  37.269  1.00  0.00     0.022 A 
BRANCH  96  99
ATOM     99  S   UNL A   1      46.345  25.335  38.552  1.00  0.00     0.127 S 
ATOM    100  O   UNL A   1      47.067  24.247  37.895  1.00  0.00    -0.237 OA
ATOM    101  O   UNL A   1      47.046  25.936  39.687  1.00  0.00    -0.237 OA
ATOM    102  O   UNL A   1      44.925  25.096  38.775  1.00  0.00    -0.744 OA
ENDBRANCH  96  99
ENDBRANCH  69  92
ENDBRANCH  43  44
ENDBRANCH  35  38
ENDBRANCH  33  34
ENDBRANCH  32  33
ENDBRANCH   1  32
TORSDOF 19
ENDMDL
MODEL 3
REMARK VINA RESULT:     -11.7      2.985      8.174
REMARK SMILES O=C(NCCCCCCNC(=O)c1ccc(-c2c3nc(c(-c4cccc(S(=O)(=O)[O-])c4F)c4ccc([nH]4)c(-c4cccc(S(=O)(=O)[O-])c4F)c4nc(c(-c5cccc(S(=O)(=O)[O-])c5F)c5ccc2[nH]5)C=C4)C=C3)cc1)C1=Cc2cc(Cl)cc(C#Cc3ccccc3)c2O[C@@H]1C(F)(F)F
REMARK SMILES IDX 7 1 6 2 5 3 4 4 3 5 1 6 2 7 76 9 77 10 94 11 78 12 93 13
REMARK SMILES IDX 79 14 92 15 80 16 83 17 81 18 82 19 95 20 96 21 97 22 98 23
REMARK SMILES IDX 84 24 85 25 86 26 87 27 91 28 88 29 90 30 89 31 8 32 9 33
REMARK SMILES IDX 10 34 11 35 12 37 13 38 14 39 75 40 15 41 74 42 16 43 17 44
REMARK SMILES IDX 18 45 68 46 19 47 73 48 67 49 69 50 20 51 72 52 66 53 65 54
REMARK SMILES IDX 21 56 53 57 33 58 52 59 34 60 37 61 51 62 70 63 35 64 36 65
REMARK SMILES IDX 50 67 71 68 38 69 22 70 23 71 31 72 24 73 26 74 32 75 25 76
REMARK SMILES IDX 27 77 28 78 29 79 30 80 54 81 55 82 63 83 56 84 58 85 64 86
REMARK SMILES IDX 57 87 59 88 60 89 61 90 62 91 39 92 40 93 48 94 41 95 43 96
REMARK SMILES IDX 49 97 42 98 44 99 45 100 46 101 47 102
REMARK H PARENT 3 8 10 36 69 55 37 66
REMARK Flexibility Score: inf
ROOT
ATOM      1  C   UNL A   1      31.779  28.014  25.991  1.00  0.00     0.002 C 
ENDROOT
BRANCH   1   2
ATOM      2  C   UNL A   1      31.173  27.590  24.647  1.00  0.00     0.002 C 
BRANCH   2   3
ATOM      3  C   UNL A   1      32.150  27.319  23.503  1.00  0.00     0.021 C 
BRANCH   3   4
ATOM      4  C   UNL A   1      31.702  26.302  22.461  1.00  0.00     0.116 C 
BRANCH   4   5
ATOM      5  N   UNL A   1      32.742  25.424  21.950  1.00  0.00    -0.352 N 
ATOM      6  O   UNL A   1      33.843  23.495  21.610  1.00  0.00    -0.270 OA
ATOM      7  C   UNL A   1      33.007  24.117  22.265  1.00  0.00     0.251 C 
ATOM      8  H   UNL A   1      33.342  25.826  21.282  1.00  0.00     0.163 HD
BRANCH   7   9
ATOM      9  C   UNL A   1      32.240  23.375  23.314  1.00  0.00     0.067 C 
ATOM     10  C   UNL A   1      31.772  22.132  23.106  1.00  0.00     0.025 C 
ATOM     11  C   UNL A   1      32.704  23.732  24.707  1.00  0.00     0.314 C 
ATOM     12  C   UNL A   1      32.509  21.097  23.873  1.00  0.00     0.020 A 
ATOM     13  O   UNL A   1      33.694  22.783  25.178  1.00  0.00    -0.474 OA
ATOM     14  C   UNL A   1      32.400  19.771  23.438  1.00  0.00     0.032 A 
ATOM     15  C   UNL A   1      33.554  21.485  24.737  1.00  0.00     0.143 A 
ATOM     16  C   UNL A   1      33.387  18.854  23.788  1.00  0.00     0.043 A 
ATOM     17  C   UNL A   1      34.579  20.571  25.018  1.00  0.00     0.069 A 
ATOM     18  Cl  UNL A   1      33.365  17.283  23.090  1.00  0.00    -0.084 Cl
ATOM     19  C   UNL A   1      34.477  19.249  24.562  1.00  0.00     0.041 A 
BRANCH  11  20
ATOM     20  C   UNL A   1      31.509  23.900  25.666  1.00  0.00     0.429 C 
ATOM     21  F   UNL A   1      31.735  24.874  26.579  1.00  0.00    -0.167 F 
ATOM     22  F   UNL A   1      30.386  24.257  24.990  1.00  0.00    -0.167 F 
ATOM     23  F   UNL A   1      31.212  22.769  26.346  1.00  0.00    -0.167 F 
ENDBRANCH  11  20
BRANCH  17  24
ATOM     24  C   UNL A   1      35.864  21.001  25.497  1.00  0.00    -0.058 C 
ATOM     25  C   UNL A   1      36.867  21.575  25.824  1.00  0.00    -0.062 C 
BRANCH  25  26
ATOM     26  C   UNL A   1      38.010  22.391  26.116  1.00  0.00     0.025 A 
ATOM     27  C   UNL A   1      39.287  21.832  26.206  1.00  0.00     0.017 A 
ATOM     28  C   UNL A   1      37.838  23.761  26.337  1.00  0.00     0.017 A 
ATOM     29  C   UNL A   1      40.387  22.647  26.489  1.00  0.00     0.001 A 
ATOM     30  C   UNL A   1      38.938  24.573  26.623  1.00  0.00     0.001 A 
ATOM     31  C   UNL A   1      40.214  24.017  26.692  1.00  0.00     0.000 A 
ENDBRANCH  25  26
ENDBRANCH  17  24
ENDBRANCH   7   9
ENDBRANCH   4   5
ENDBRANCH   3   4
ENDBRANCH   2   3
ENDBRANCH   1   2
BRANCH   1  32
ATOM     32  C   UNL A   1      33.254  27.676  26.225  1.00  0.00     0.021 C 
BRANCH  32  33
ATOM     33  C   UNL A   1      34.257  28.798  25.978  1.00  0.00     0.116 C 
BRANCH  33  34
ATOM     34  N   UNL A   1      33.731  30.109  26.317  1.00  0.00    -0.352 N 
ATOM     35  C   UNL A   1      34.114  30.989  27.298  1.00  0.00     0.251 C 
ATOM     36  H   UNL A   1      32.982  30.414  25.755  1.00  0.00     0.163 HD
ATOM     37  O   UNL A   1      33.434  31.991  27.505  1.00  0.00    -0.269 OA
BRANCH  35  38
ATOM     38  C   UNL A   1      35.321  30.738  28.120  1.00  0.00     0.039 A 
ATOM     39  C   UNL A   1      36.294  31.739  28.200  1.00  0.00     0.014 A 
ATOM     40  C   UNL A   1      35.523  29.520  28.776  1.00  0.00     0.014 A 
ATOM     41  C   UNL A   1      37.443  31.538  28.970  1.00  0.00     0.010 A 
ATOM     42  C   UNL A   1      36.633  29.349  29.604  1.00  0.00     0.010 A 
ATOM     43  C   UNL A   1      37.611  30.349  29.700  1.00  0.00    -0.014 A 
BRANCH  43  44
ATOM     44  C   UNL A   1      38.804  30.143  30.563  1.00  0.00     0.031 A 
ATOM     45  C   UNL A   1      39.906  29.212  30.133  1.00  0.00     0.074 A 
ATOM     46  C   UNL A   1      38.863  30.738  31.770  1.00  0.00     0.049 A 
ATOM     47  N   UNL A   1      41.000  28.879  30.767  1.00  0.00    -0.248 NA
ATOM     48  C   UNL A   1      39.746  28.547  28.828  1.00  0.00     0.031 C 
ATOM     49  C   UNL A   1      37.825  31.602  32.337  1.00  0.00     0.029 A 
ATOM     50  N   UNL A   1      39.823  30.689  32.749  1.00  0.00    -0.354 N 
ATOM     51  C   UNL A   1      41.641  27.946  29.960  1.00  0.00     0.074 A 
ATOM     52  C   UNL A   1      40.795  27.737  28.806  1.00  0.00     0.031 C 
ATOM     53  C   UNL A   1      38.203  32.001  33.560  1.00  0.00     0.029 A 
ATOM     54  C   UNL A   1      39.494  31.400  33.880  1.00  0.00     0.049 A 
ATOM     55  H   UNL A   1      40.668  30.192  32.651  1.00  0.00     0.167 HD
ATOM     56  C   UNL A   1      42.839  27.341  30.146  1.00  0.00     0.034 A 
ATOM     57  C   UNL A   1      40.152  31.544  35.048  1.00  0.00     0.034 A 
ATOM     58  C   UNL A   1      43.693  27.575  31.280  1.00  0.00     0.049 A 
ATOM     59  C   UNL A   1      41.494  30.887  35.218  1.00  0.00     0.074 A 
ATOM     60  C   UNL A   1      44.960  27.076  31.521  1.00  0.00     0.029 A 
ATOM     61  N   UNL A   1      43.362  28.366  32.370  1.00  0.00    -0.354 N 
ATOM     62  N   UNL A   1      42.156  30.133  34.375  1.00  0.00    -0.248 NA
ATOM     63  C   UNL A   1      42.198  31.131  36.486  1.00  0.00     0.031 C 
ATOM     64  C   UNL A   1      45.383  27.540  32.771  1.00  0.00     0.029 A 
ATOM     65  C   UNL A   1      44.394  28.358  33.293  1.00  0.00     0.049 A 
ATOM     66  H   UNL A   1      42.516  28.859  32.473  1.00  0.00     0.167 HD
ATOM     67  C   UNL A   1      43.366  29.840  34.993  1.00  0.00     0.074 A 
ATOM     68  C   UNL A   1      43.354  30.516  36.274  1.00  0.00     0.031 C 
ATOM     69  C   UNL A   1      44.390  29.070  34.546  1.00  0.00     0.034 A 
BRANCH  56  70
ATOM     70  C   UNL A   1      43.316  26.395  29.072  1.00  0.00     0.023 A 
ATOM     71  C   UNL A   1      42.990  25.025  29.154  1.00  0.00     0.012 A 
ATOM     72  C   UNL A   1      44.047  26.863  27.963  1.00  0.00     0.148 A 
ATOM     73  C   UNL A   1      43.422  24.130  28.176  1.00  0.00     0.002 A 
ATOM     74  C   UNL A   1      44.433  25.972  26.966  1.00  0.00     0.091 A 
ATOM     75  F   UNL A   1      44.366  28.164  27.908  1.00  0.00    -0.205 F 
ATOM     76  C   UNL A   1      44.134  24.605  27.078  1.00  0.00     0.022 A 
BRANCH  74  77
ATOM     77  S   UNL A   1      45.283  26.497  25.474  1.00  0.00     0.127 S 
ATOM     78  O   UNL A   1      45.342  25.250  24.713  1.00  0.00    -0.237 OA
ATOM     79  O   UNL A   1      44.364  27.498  24.931  1.00  0.00    -0.237 OA
ATOM     80  O   UNL A   1      46.569  27.026  25.909  1.00  0.00    -0.744 OA
ENDBRANCH  74  77
ENDBRANCH  56  70
BRANCH  57  81
ATOM     81  C   UNL A   1      39.568  32.393  36.124  1.00  0.00     0.023 A 
ATOM     82  C   UNL A   1      38.642  31.833  37.026  1.00  0.00     0.012 A 
ATOM     83  C   UNL A   1      39.959  33.736  36.286  1.00  0.00     0.148 A 
ATOM     84  C   UNL A   1      38.094  32.604  38.051  1.00  0.00     0.002 A 
ATOM     85  C   UNL A   1      39.453  34.481  37.343  1.00  0.00     0.091 A 
ATOM     86  F   UNL A   1      40.835  34.251  35.412  1.00  0.00    -0.205 F 
ATOM     87  C   UNL A   1      38.507  33.923  38.218  1.00  0.00     0.022 A 
BRANCH  85  88
ATOM     88  S   UNL A   1      40.029  36.141  37.717  1.00  0.00     0.127 S 
ATOM     89  O   UNL A   1      39.878  36.808  36.428  1.00  0.00    -0.237 OA
ATOM     90  O   UNL A   1      39.078  36.564  38.747  1.00  0.00    -0.237 OA
ATOM     91  O   UNL A   1      41.397  35.986  38.192  1.00  0.00    -0.744 OA
ENDBRANCH  85  88
ENDBRANCH  57  81
BRANCH  69  92
ATOM     92  C   UNL A   1      45.605  28.940  35.428  1.00  0.00     0.023 A 
ATOM     93  C   UNL A   1      46.627  29.909  35.367  1.00  0.00     0.012 A 
ATOM     94  C   UNL A   1      45.698  27.896  36.370  1.00  0.00     0.148 A 
ATOM     95  C   UNL A   1      47.738  29.821  36.205  1.00  0.00     0.002 A 
ATOM     96  C   UNL A   1      46.782  27.845  37.237  1.00  0.00     0.091 A 
ATOM     97  F   UNL A   1      44.725  26.975  36.401  1.00  0.00    -0.205 F 
ATOM     98  C   UNL A   1      47.809  28.798  37.147  1.00  0.00     0.022 A 
BRANCH  96  99
ATOM     99  S   UNL A   1      46.911  26.622  38.547  1.00  0.00     0.127 S 
ATOM    100  O   UNL A   1      46.847  25.371  37.794  1.00  0.00    -0.237 OA
ATOM    101  O   UNL A   1      48.223  26.922  39.122  1.00  0.00    -0.237 OA
ATOM    102  O   UNL A   1      45.788  26.870  39.441  1.00  0.00    -0.744 OA
ENDBRANCH  96  99
ENDBRANCH  69  92
ENDBRANCH  43  44
ENDBRANCH  35  38
ENDBRANCH  33  34
ENDBRANCH  32  33
ENDBRANCH   1  32
TORSDOF 19
ENDMDL
