MODEL 1
REMARK VINA RESULT:     -10.9      0.000      0.000
REMARK SMILES C[C@@H]1CC[C@@]1(SC1CCCCC1)C(=O)NCCCCCCNC(=O)c1ccc(-c2c3nc(c(-c4cccc(S(=O)(=O)[O-])c4F)c4ccc([nH]4)c(-c4cccc(S(=O)(=O)[O-])c4F)c4nc(c(-c5cccc(S(=O)(=O)[O-])c5F)c5ccc2[nH]5)C=C4)C=C3)cc1
REMARK SMILES IDX 19 1 18 2 17 3 16 4 15 5 13 6 14 7 5 9 1 10 2 11 3 12 4 13
REMARK SMILES IDX 6 14 7 15 8 16 12 17 9 18 11 19 10 20 20 21 21 22 22 23
REMARK SMILES IDX 23 24 24 26 25 27 26 28 87 29 27 30 86 31 28 32 29 33 30 34
REMARK SMILES IDX 80 35 31 36 85 37 79 38 81 39 32 40 84 41 78 42 77 43 33 45
REMARK SMILES IDX 65 46 45 47 64 48 46 49 49 50 63 51 82 52 47 53 48 54 62 56
REMARK SMILES IDX 83 57 50 58 34 59 35 60 43 61 36 62 38 63 44 64 37 65 39 66
REMARK SMILES IDX 40 67 41 68 42 69 66 70 67 71 75 72 68 73 70 74 76 75 69 76
REMARK SMILES IDX 71 77 72 78 73 79 74 80 51 81 52 82 60 83 53 84 55 85 61 86
REMARK SMILES IDX 54 87 56 88 57 89 58 90 59 91
REMARK H PARENT 15 8 22 25 81 44 49 55
REMARK Flexibility Score: inf
ROOT
ATOM      1  C   UNL A   1      30.970  29.123  25.160  1.00  0.00     0.002 C 
ENDROOT
BRANCH   1   2
ATOM      2  C   UNL A   1      30.659  28.495  23.796  1.00  0.00     0.002 C 
BRANCH   2   3
ATOM      3  C   UNL A   1      29.767  27.248  23.856  1.00  0.00     0.021 C 
BRANCH   3   4
ATOM      4  C   UNL A   1      30.322  26.172  24.779  1.00  0.00     0.116 C 
BRANCH   4   5
ATOM      5  N   UNL A   1      30.209  24.870  24.156  1.00  0.00    -0.355 N 
ATOM      6  C   UNL A   1      31.116  24.124  23.444  1.00  0.00     0.236 C 
ATOM      7  O   UNL A   1      30.713  22.997  23.114  1.00  0.00    -0.273 OA
ATOM      8  H   UNL A   1      29.327  24.445  24.261  1.00  0.00     0.163 HD
BRANCH   6   9
ATOM      9  C   UNL A   1      32.543  24.676  23.065  1.00  0.00     0.097 C 
ATOM     10  C   UNL A   1      32.527  25.577  20.452  1.00  0.00     0.009 C 
ATOM     11  C   UNL A   1      32.405  25.822  21.944  1.00  0.00     0.012 C 
ATOM     12  C   UNL A   1      33.593  26.549  22.594  1.00  0.00     0.007 C 
ATOM     13  C   UNL A   1      33.302  25.770  23.880  1.00  0.00     0.028 C 
BRANCH   9  14
ATOM     14  S   UNL A   1      33.674  23.314  22.440  1.00  0.00    -0.141 SA
BRANCH  14  15
ATOM     15  C   UNL A   1      34.836  22.916  23.800  1.00  0.00     0.047 C 
ATOM     16  C   UNL A   1      34.422  21.672  24.590  1.00  0.00     0.014 C 
ATOM     17  C   UNL A   1      36.329  22.936  23.454  1.00  0.00     0.014 C 
ATOM     18  C   UNL A   1      35.320  21.460  25.808  1.00  0.00     0.001 C 
ATOM     19  C   UNL A   1      37.223  22.631  24.658  1.00  0.00     0.001 C 
ATOM     20  C   UNL A   1      36.784  21.369  25.395  1.00  0.00     0.000 C 
ENDBRANCH  14  15
ENDBRANCH   9  14
ENDBRANCH   6   9
ENDBRANCH   4   5
ENDBRANCH   3   4
ENDBRANCH   2   3
ENDBRANCH   1   2
BRANCH   1  21
ATOM     21  C   UNL A   1      32.314  28.705  25.761  1.00  0.00     0.021 C 
BRANCH  21  22
ATOM     22  C   UNL A   1      33.426  29.727  25.564  1.00  0.00     0.116 C 
BRANCH  22  23
ATOM     23  N   UNL A   1      33.080  31.015  26.146  1.00  0.00    -0.352 N 
ATOM     24  C   UNL A   1      33.613  31.632  27.249  1.00  0.00     0.251 C 
ATOM     25  H   UNL A   1      32.364  31.512  25.686  1.00  0.00     0.163 HD
ATOM     26  O   UNL A   1      33.057  32.614  27.737  1.00  0.00    -0.269 OA
BRANCH  24  27
ATOM     27  C   UNL A   1      34.851  31.099  27.850  1.00  0.00     0.039 A 
ATOM     28  C   UNL A   1      35.952  31.944  28.000  1.00  0.00     0.014 A 
ATOM     29  C   UNL A   1      34.916  29.767  28.274  1.00  0.00     0.014 A 
ATOM     30  C   UNL A   1      37.105  31.467  28.623  1.00  0.00     0.010 A 
ATOM     31  C   UNL A   1      36.034  29.320  28.967  1.00  0.00     0.010 A 
ATOM     32  C   UNL A   1      37.146  30.159  29.137  1.00  0.00    -0.014 A 
BRANCH  32  33
ATOM     33  C   UNL A   1      38.337  29.659  29.868  1.00  0.00     0.031 A 
ATOM     34  C   UNL A   1      38.668  30.188  31.235  1.00  0.00     0.074 A 
ATOM     35  C   UNL A   1      39.173  28.797  29.258  1.00  0.00     0.049 A 
ATOM     36  N   UNL A   1      39.686  29.904  32.004  1.00  0.00    -0.248 NA
ATOM     37  C   UNL A   1      37.751  31.192  31.802  1.00  0.00     0.031 C 
ATOM     38  C   UNL A   1      39.010  28.281  27.898  1.00  0.00     0.029 A 
ATOM     39  N   UNL A   1      40.342  28.226  29.693  1.00  0.00    -0.354 N 
ATOM     40  C   UNL A   1      39.559  30.720  33.121  1.00  0.00     0.074 A 
ATOM     41  C   UNL A   1      38.383  31.535  32.914  1.00  0.00     0.031 C 
ATOM     42  C   UNL A   1      40.040  27.472  27.609  1.00  0.00     0.029 A 
ATOM     43  C   UNL A   1      40.953  27.436  28.748  1.00  0.00     0.049 A 
ATOM     44  H   UNL A   1      40.710  28.366  30.596  1.00  0.00     0.167 HD
ATOM     45  C   UNL A   1      40.337  30.772  34.228  1.00  0.00     0.034 A 
ATOM     46  C   UNL A   1      42.125  26.772  28.783  1.00  0.00     0.034 A 
ATOM     47  C   UNL A   1      41.488  29.936  34.441  1.00  0.00     0.049 A 
ATOM     48  C   UNL A   1      42.947  26.805  30.039  1.00  0.00     0.074 A 
ATOM     49  C   UNL A   1      42.276  29.830  35.572  1.00  0.00     0.029 A 
ATOM     50  N   UNL A   1      42.031  29.081  33.493  1.00  0.00    -0.354 N 
ATOM     51  N   UNL A   1      42.717  27.448  31.158  1.00  0.00    -0.248 NA
ATOM     52  C   UNL A   1      44.173  25.993  30.054  1.00  0.00     0.031 C 
ATOM     53  C   UNL A   1      43.323  28.944  35.293  1.00  0.00     0.029 A 
ATOM     54  C   UNL A   1      43.160  28.462  34.004  1.00  0.00     0.049 A 
ATOM     55  H   UNL A   1      41.667  28.934  32.590  1.00  0.00     0.167 HD
ATOM     56  C   UNL A   1      43.750  27.098  32.020  1.00  0.00     0.074 A 
ATOM     57  C   UNL A   1      44.597  26.169  31.298  1.00  0.00     0.031 C 
ATOM     58  C   UNL A   1      43.979  27.515  33.290  1.00  0.00     0.034 A 
BRANCH  45  59
ATOM     59  C   UNL A   1      39.951  31.752  35.306  1.00  0.00     0.023 A 
ATOM     60  C   UNL A   1      40.504  33.051  35.310  1.00  0.00     0.012 A 
ATOM     61  C   UNL A   1      39.017  31.399  36.299  1.00  0.00     0.148 A 
ATOM     62  C   UNL A   1      40.175  33.962  36.313  1.00  0.00     0.002 A 
ATOM     63  C   UNL A   1      38.654  32.331  37.266  1.00  0.00     0.091 A 
ATOM     64  F   UNL A   1      38.517  30.156  36.296  1.00  0.00    -0.205 F 
ATOM     65  C   UNL A   1      39.244  33.605  37.283  1.00  0.00     0.022 A 
BRANCH  63  66
ATOM     66  S   UNL A   1      37.400  31.994  38.507  1.00  0.00     0.127 S 
ATOM     67  O   UNL A   1      38.118  32.306  39.743  1.00  0.00    -0.237 OA
ATOM     68  O   UNL A   1      36.352  32.952  38.153  1.00  0.00    -0.237 OA
ATOM     69  O   UNL A   1      37.029  30.598  38.332  1.00  0.00    -0.744 OA
ENDBRANCH  63  66
ENDBRANCH  45  59
BRANCH  46  70
ATOM     70  C   UNL A   1      42.551  25.981  27.595  1.00  0.00     0.023 A 
ATOM     71  C   UNL A   1      43.427  26.553  26.653  1.00  0.00     0.012 A 
ATOM     72  C   UNL A   1      42.146  24.642  27.435  1.00  0.00     0.148 A 
ATOM     73  C   UNL A   1      43.875  25.812  25.560  1.00  0.00     0.002 A 
ATOM     74  C   UNL A   1      42.643  23.891  26.378  1.00  0.00     0.091 A 
ATOM     75  F   UNL A   1      41.309  24.120  28.342  1.00  0.00    -0.205 F 
ATOM     76  C   UNL A   1      43.494  24.479  25.428  1.00  0.00     0.022 A 
BRANCH  74  77
ATOM     77  S   UNL A   1      42.322  22.132  26.207  1.00  0.00     0.127 S 
ATOM     78  O   UNL A   1      42.855  21.606  27.461  1.00  0.00    -0.237 OA
ATOM     79  O   UNL A   1      40.863  22.106  26.097  1.00  0.00    -0.237 OA
ATOM     80  O   UNL A   1      43.025  21.715  25.001  1.00  0.00    -0.744 OA
ENDBRANCH  74  77
ENDBRANCH  46  70
BRANCH  58  81
ATOM     81  C   UNL A   1      45.180  26.952  34.006  1.00  0.00     0.023 A 
ATOM     82  C   UNL A   1      46.406  27.645  33.982  1.00  0.00     0.012 A 
ATOM     83  C   UNL A   1      45.071  25.769  34.765  1.00  0.00     0.148 A 
ATOM     84  C   UNL A   1      47.512  27.155  34.676  1.00  0.00     0.002 A 
ATOM     85  C   UNL A   1      46.161  25.315  35.496  1.00  0.00     0.091 A 
ATOM     86  F   UNL A   1      43.901  25.113  34.760  1.00  0.00    -0.205 F 
ATOM     87  C   UNL A   1      47.387  25.998  35.442  1.00  0.00     0.022 A 
BRANCH  85  88
ATOM     88  S   UNL A   1      46.064  23.893  36.589  1.00  0.00     0.127 S 
ATOM     89  O   UNL A   1      45.776  22.813  35.647  1.00  0.00    -0.237 OA
ATOM     90  O   UNL A   1      47.406  23.857  37.169  1.00  0.00    -0.237 OA
ATOM     91  O   UNL A   1      45.001  24.188  37.542  1.00  0.00    -0.744 OA
ENDBRANCH  85  88
ENDBRANCH  58  81
ENDBRANCH  32  33
ENDBRANCH  24  27
ENDBRANCH  22  23
ENDBRANCH  21  22
ENDBRANCH   1  21
TORSDOF 18
ENDMDL
MODEL 2
REMARK VINA RESULT:     -10.8      2.637      3.243
REMARK SMILES C[C@@H]1CC[C@@]1(SC1CCCCC1)C(=O)NCCCCCCNC(=O)c1ccc(-c2c3nc(c(-c4cccc(S(=O)(=O)[O-])c4F)c4ccc([nH]4)c(-c4cccc(S(=O)(=O)[O-])c4F)c4nc(c(-c5cccc(S(=O)(=O)[O-])c5F)c5ccc2[nH]5)C=C4)C=C3)cc1
REMARK SMILES IDX 19 1 18 2 17 3 16 4 15 5 13 6 14 7 5 9 1 10 2 11 3 12 4 13
REMARK SMILES IDX 6 14 7 15 8 16 12 17 9 18 11 19 10 20 20 21 21 22 22 23
REMARK SMILES IDX 23 24 24 26 25 27 26 28 87 29 27 30 86 31 28 32 29 33 30 34
REMARK SMILES IDX 80 35 31 36 85 37 79 38 81 39 32 40 84 41 78 42 77 43 33 45
REMARK SMILES IDX 65 46 45 47 64 48 46 49 49 50 63 51 82 52 47 53 48 54 62 56
REMARK SMILES IDX 83 57 50 58 34 59 35 60 43 61 36 62 38 63 44 64 37 65 39 66
REMARK SMILES IDX 40 67 41 68 42 69 66 70 67 71 75 72 68 73 70 74 76 75 69 76
REMARK SMILES IDX 71 77 72 78 73 79 74 80 51 81 52 82 60 83 53 84 55 85 61 86
REMARK SMILES IDX 54 87 56 88 57 89 58 90 59 91
REMARK H PARENT 15 8 22 25 81 44 49 55
REMARK Flexibility Score: inf
ROOT
ATOM      1  C   UNL A   1      31.537  28.647  25.152  1.00  0.00     0.002 C 
ENDROOT
BRANCH   1   2
ATOM      2  C   UNL A   1      31.030  27.214  24.949  1.00  0.00     0.002 C 
BRANCH   2   3
ATOM      3  C   UNL A   1      31.332  26.259  26.112  1.00  0.00     0.021 C 
BRANCH   3   4
ATOM      4  C   UNL A   1      31.619  24.838  25.649  1.00  0.00     0.116 C 
BRANCH   4   5
ATOM      5  N   UNL A   1      32.588  24.212  26.523  1.00  0.00    -0.355 N 
ATOM      6  C   UNL A   1      33.684  23.431  26.250  1.00  0.00     0.236 C 
ATOM      7  O   UNL A   1      34.358  23.119  27.245  1.00  0.00    -0.273 OA
ATOM      8  H   UNL A   1      32.435  24.375  27.482  1.00  0.00     0.163 HD
BRANCH   6   9
ATOM      9  C   UNL A   1      34.033  22.957  24.788  1.00  0.00     0.097 C 
ATOM     10  C   UNL A   1      33.653  25.046  23.018  1.00  0.00     0.009 C 
ATOM     11  C   UNL A   1      34.544  24.209  23.916  1.00  0.00     0.012 C 
ATOM     12  C   UNL A   1      35.510  23.260  23.188  1.00  0.00     0.007 C 
ATOM     13  C   UNL A   1      35.392  22.306  24.380  1.00  0.00     0.028 C 
BRANCH   9  14
ATOM     14  S   UNL A   1      32.558  22.159  23.943  1.00  0.00    -0.141 SA
BRANCH  14  15
ATOM     15  C   UNL A   1      32.899  20.360  23.858  1.00  0.00     0.047 C 
ATOM     16  C   UNL A   1      32.853  19.682  25.229  1.00  0.00     0.014 C 
ATOM     17  C   UNL A   1      32.153  19.572  22.775  1.00  0.00     0.014 C 
ATOM     18  C   UNL A   1      33.295  18.221  25.144  1.00  0.00     0.001 C 
ATOM     19  C   UNL A   1      32.529  18.088  22.754  1.00  0.00     0.001 C 
ATOM     20  C   UNL A   1      32.444  17.454  24.139  1.00  0.00     0.000 C 
ENDBRANCH  14  15
ENDBRANCH   9  14
ENDBRANCH   6   9
ENDBRANCH   4   5
ENDBRANCH   3   4
ENDBRANCH   2   3
ENDBRANCH   1   2
BRANCH   1  21
ATOM     21  C   UNL A   1      33.031  28.838  24.878  1.00  0.00     0.021 C 
BRANCH  21  22
ATOM     22  C   UNL A   1      33.869  29.042  26.134  1.00  0.00     0.116 C 
BRANCH  22  23
ATOM     23  N   UNL A   1      33.883  30.437  26.549  1.00  0.00    -0.352 N 
ATOM     24  C   UNL A   1      34.689  31.051  27.474  1.00  0.00     0.251 C 
ATOM     25  H   UNL A   1      33.224  31.019  26.106  1.00  0.00     0.163 HD
ATOM     26  O   UNL A   1      34.423  32.185  27.868  1.00  0.00    -0.269 OA
BRANCH  24  27
ATOM     27  C   UNL A   1      35.867  30.334  27.999  1.00  0.00     0.039 A 
ATOM     28  C   UNL A   1      37.046  30.326  27.252  1.00  0.00     0.014 A 
ATOM     29  C   UNL A   1      35.806  29.682  29.235  1.00  0.00     0.014 A 
ATOM     30  C   UNL A   1      38.183  29.703  27.768  1.00  0.00     0.010 A 
ATOM     31  C   UNL A   1      36.961  29.136  29.782  1.00  0.00     0.010 A 
ATOM     32  C   UNL A   1      38.158  29.128  29.050  1.00  0.00    -0.014 A 
BRANCH  32  33
ATOM     33  C   UNL A   1      39.377  28.527  29.645  1.00  0.00     0.031 A 
ATOM     34  C   UNL A   1      39.996  29.126  30.877  1.00  0.00     0.074 A 
ATOM     35  C   UNL A   1      39.981  27.499  29.019  1.00  0.00     0.049 A 
ATOM     36  N   UNL A   1      41.082  28.766  31.510  1.00  0.00    -0.248 NA
ATOM     37  C   UNL A   1      39.325  30.301  31.457  1.00  0.00     0.031 C 
ATOM     38  C   UNL A   1      39.529  26.890  27.767  1.00  0.00     0.029 A 
ATOM     39  N   UNL A   1      41.121  26.804  29.335  1.00  0.00    -0.354 N 
ATOM     40  C   UNL A   1      41.248  29.692  32.533  1.00  0.00     0.074 A 
ATOM     41  C   UNL A   1      40.171  30.648  32.415  1.00  0.00     0.031 C 
ATOM     42  C   UNL A   1      40.382  25.915  27.420  1.00  0.00     0.029 A 
ATOM     43  C   UNL A   1      41.458  25.850  28.405  1.00  0.00     0.049 A 
ATOM     44  H   UNL A   1      41.648  26.972  30.149  1.00  0.00     0.167 HD
ATOM     45  C   UNL A   1      42.198  29.729  33.497  1.00  0.00     0.034 A 
ATOM     46  C   UNL A   1      42.522  25.026  28.338  1.00  0.00     0.034 A 
ATOM     47  C   UNL A   1      43.249  28.756  33.629  1.00  0.00     0.049 A 
ATOM     48  C   UNL A   1      43.539  25.053  29.444  1.00  0.00     0.074 A 
ATOM     49  C   UNL A   1      44.193  28.640  34.633  1.00  0.00     0.029 A 
ATOM     50  N   UNL A   1      43.511  27.747  32.714  1.00  0.00    -0.354 N 
ATOM     51  N   UNL A   1      43.582  25.823  30.504  1.00  0.00    -0.248 NA
ATOM     52  C   UNL A   1      44.633  24.074  29.366  1.00  0.00     0.031 C 
ATOM     53  C   UNL A   1      45.055  27.587  34.302  1.00  0.00     0.029 A 
ATOM     54  C   UNL A   1      44.618  27.018  33.116  1.00  0.00     0.049 A 
ATOM     55  H   UNL A   1      42.988  27.573  31.899  1.00  0.00     0.167 HD
ATOM     56  C   UNL A   1      44.689  25.406  31.235  1.00  0.00     0.074 A 
ATOM     57  C   UNL A   1      45.276  24.299  30.504  1.00  0.00     0.031 C 
ATOM     58  C   UNL A   1      45.178  25.899  32.400  1.00  0.00     0.034 A 
BRANCH  45  59
ATOM     59  C   UNL A   1      42.128  30.851  34.502  1.00  0.00     0.023 A 
ATOM     60  C   UNL A   1      41.419  30.675  35.709  1.00  0.00     0.012 A 
ATOM     61  C   UNL A   1      42.788  32.072  34.265  1.00  0.00     0.148 A 
ATOM     62  C   UNL A   1      41.324  31.710  36.638  1.00  0.00     0.002 A 
ATOM     63  C   UNL A   1      42.734  33.082  35.219  1.00  0.00     0.091 A 
ATOM     64  F   UNL A   1      43.439  32.234  33.104  1.00  0.00    -0.205 F 
ATOM     65  C   UNL A   1      41.989  32.908  36.397  1.00  0.00     0.022 A 
BRANCH  63  66
ATOM     66  S   UNL A   1      43.627  34.629  35.039  1.00  0.00     0.127 S 
ATOM     67  O   UNL A   1      44.995  34.157  34.829  1.00  0.00    -0.237 OA
ATOM     68  O   UNL A   1      42.995  35.214  33.856  1.00  0.00    -0.237 OA
ATOM     69  O   UNL A   1      43.401  35.368  36.273  1.00  0.00    -0.744 OA
ENDBRANCH  63  66
ENDBRANCH  45  59
BRANCH  46  70
ATOM     70  C   UNL A   1      42.640  24.075  27.198  1.00  0.00     0.023 A 
ATOM     71  C   UNL A   1      43.374  24.443  26.054  1.00  0.00     0.012 A 
ATOM     72  C   UNL A   1      42.085  22.783  27.275  1.00  0.00     0.148 A 
ATOM     73  C   UNL A   1      43.535  23.548  24.997  1.00  0.00     0.002 A 
ATOM     74  C   UNL A   1      42.299  21.876  26.245  1.00  0.00     0.091 A 
ATOM     75  F   UNL A   1      41.387  22.457  28.372  1.00  0.00    -0.205 F 
ATOM     76  C   UNL A   1      43.009  22.262  25.096  1.00  0.00     0.022 A 
BRANCH  74  77
ATOM     77  S   UNL A   1      41.783  20.158  26.347  1.00  0.00     0.127 S 
ATOM     78  O   UNL A   1      40.332  20.274  26.233  1.00  0.00    -0.237 OA
ATOM     79  O   UNL A   1      42.450  19.578  25.181  1.00  0.00    -0.237 OA
ATOM     80  O   UNL A   1      42.275  19.671  27.628  1.00  0.00    -0.744 OA
ENDBRANCH  74  77
ENDBRANCH  46  70
BRANCH  58  81
ATOM     81  C   UNL A   1      46.396  25.233  32.986  1.00  0.00     0.023 A 
ATOM     82  C   UNL A   1      47.681  25.744  32.713  1.00  0.00     0.012 A 
ATOM     83  C   UNL A   1      46.260  24.143  33.869  1.00  0.00     0.148 A 
ATOM     84  C   UNL A   1      48.812  25.161  33.284  1.00  0.00     0.002 A 
ATOM     85  C   UNL A   1      47.386  23.602  34.476  1.00  0.00     0.091 A 
ATOM     86  F   UNL A   1      45.031  23.659  34.102  1.00  0.00    -0.205 F 
ATOM     87  C   UNL A   1      48.664  24.100  34.173  1.00  0.00     0.022 A 
BRANCH  85  88
ATOM     88  S   UNL A   1      47.286  22.301  35.710  1.00  0.00     0.127 S 
ATOM     89  O   UNL A   1      48.651  22.279  36.231  1.00  0.00    -0.237 OA
ATOM     90  O   UNL A   1      46.287  22.831  36.638  1.00  0.00    -0.237 OA
ATOM     91  O   UNL A   1      46.872  21.100  34.997  1.00  0.00    -0.744 OA
ENDBRANCH  85  88
ENDBRANCH  58  81
ENDBRANCH  32  33
ENDBRANCH  24  27
ENDBRANCH  22  23
ENDBRANCH  21  22
ENDBRANCH   1  21
TORSDOF 18
ENDMDL
MODEL 3
REMARK VINA RESULT:     -10.7      2.627      8.294
REMARK SMILES C[C@@H]1CC[C@@]1(SC1CCCCC1)C(=O)NCCCCCCNC(=O)c1ccc(-c2c3nc(c(-c4cccc(S(=O)(=O)[O-])c4F)c4ccc([nH]4)c(-c4cccc(S(=O)(=O)[O-])c4F)c4nc(c(-c5cccc(S(=O)(=O)[O-])c5F)c5ccc2[nH]5)C=C4)C=C3)cc1
REMARK SMILES IDX 19 1 18 2 17 3 16 4 15 5 13 6 14 7 5 9 1 10 2 11 3 12 4 13
REMARK SMILES IDX 6 14 7 15 8 16 12 17 9 18 11 19 10 20 20 21 21 22 22 23
REMARK SMILES IDX 23 24 24 26 25 27 26 28 87 29 27 30 86 31 28 32 29 33 30 34
REMARK SMILES IDX 80 35 31 36 85 37 79 38 81 39 32 40 84 41 78 42 77 43 33 45
REMARK SMILES IDX 65 46 45 47 64 48 46 49 49 50 63 51 82 52 47 53 48 54 62 56
REMARK SMILES IDX 83 57 50 58 34 59 35 60 43 61 36 62 38 63 44 64 37 65 39 66
REMARK SMILES IDX 40 67 41 68 42 69 66 70 67 71 75 72 68 73 70 74 76 75 69 76
REMARK SMILES IDX 71 77 72 78 73 79 74 80 51 81 52 82 60 83 53 84 55 85 61 86
REMARK SMILES IDX 54 87 56 88 57 89 58 90 59 91
REMARK H PARENT 15 8 22 25 81 44 49 55
REMARK Flexibility Score: inf
ROOT
ATOM      1  C   UNL A   1      31.472  30.930  26.415  1.00  0.00     0.002 C 
ENDROOT
BRANCH   1   2
ATOM      2  C   UNL A   1      32.669  30.127  26.938  1.00  0.00     0.002 C 
BRANCH   2   3
ATOM      3  C   UNL A   1      32.443  28.610  27.000  1.00  0.00     0.021 C 
BRANCH   3   4
ATOM      4  C   UNL A   1      33.613  27.816  26.437  1.00  0.00     0.116 C 
BRANCH   4   5
ATOM      5  N   UNL A   1      33.997  28.339  25.143  1.00  0.00    -0.355 N 
ATOM      6  C   UNL A   1      33.739  27.891  23.871  1.00  0.00     0.236 C 
ATOM      7  O   UNL A   1      34.156  28.632  22.966  1.00  0.00    -0.273 OA
ATOM      8  H   UNL A   1      34.540  29.160  25.181  1.00  0.00     0.163 HD
BRANCH   6   9
ATOM      9  C   UNL A   1      32.990  26.532  23.597  1.00  0.00     0.097 C 
ATOM     10  C   UNL A   1      30.432  26.653  24.638  1.00  0.00     0.009 C 
ATOM     11  C   UNL A   1      31.407  26.794  23.484  1.00  0.00     0.012 C 
ATOM     12  C   UNL A   1      31.337  25.685  22.421  1.00  0.00     0.007 C 
ATOM     13  C   UNL A   1      32.836  25.887  22.183  1.00  0.00     0.028 C 
BRANCH   9  14
ATOM     14  S   UNL A   1      33.326  25.267  24.944  1.00  0.00    -0.141 SA
BRANCH  14  15
ATOM     15  C   UNL A   1      34.956  24.514  24.576  1.00  0.00     0.047 C 
ATOM     16  C   UNL A   1      35.767  24.208  25.837  1.00  0.00     0.014 C 
ATOM     17  C   UNL A   1      34.966  23.362  23.564  1.00  0.00     0.014 C 
ATOM     18  C   UNL A   1      37.177  23.731  25.492  1.00  0.00     0.001 C 
ATOM     19  C   UNL A   1      36.373  22.823  23.290  1.00  0.00     0.001 C 
ATOM     20  C   UNL A   1      37.130  22.511  24.578  1.00  0.00     0.000 C 
ENDBRANCH  14  15
ENDBRANCH   9  14
ENDBRANCH   6   9
ENDBRANCH   4   5
ENDBRANCH   3   4
ENDBRANCH   2   3
ENDBRANCH   1   2
BRANCH   1  21
ATOM     21  C   UNL A   1      31.507  32.421  26.759  1.00  0.00     0.021 C 
BRANCH  21  22
ATOM     22  C   UNL A   1      32.848  32.901  27.300  1.00  0.00     0.116 C 
BRANCH  22  23
ATOM     23  N   UNL A   1      32.743  34.225  27.896  1.00  0.00    -0.352 N 
ATOM     24  C   UNL A   1      33.412  34.735  28.979  1.00  0.00     0.251 C 
ATOM     25  H   UNL A   1      32.105  34.837  27.462  1.00  0.00     0.163 HD
ATOM     26  O   UNL A   1      33.046  35.793  29.488  1.00  0.00    -0.269 OA
BRANCH  24  27
ATOM     27  C   UNL A   1      34.564  33.998  29.534  1.00  0.00     0.039 A 
ATOM     28  C   UNL A   1      35.852  34.347  29.129  1.00  0.00     0.014 A 
ATOM     29  C   UNL A   1      34.366  32.971  30.463  1.00  0.00     0.014 A 
ATOM     30  C   UNL A   1      36.951  33.698  29.694  1.00  0.00     0.010 A 
ATOM     31  C   UNL A   1      35.461  32.384  31.084  1.00  0.00     0.010 A 
ATOM     32  C   UNL A   1      36.765  32.731  30.697  1.00  0.00    -0.014 A 
BRANCH  32  33
ATOM     33  C   UNL A   1      37.923  32.084  31.361  1.00  0.00     0.031 A 
ATOM     34  C   UNL A   1      38.642  30.943  30.696  1.00  0.00     0.074 A 
ATOM     35  C   UNL A   1      38.269  32.463  32.607  1.00  0.00     0.049 A 
ATOM     36  N   UNL A   1      39.642  30.229  31.141  1.00  0.00    -0.248 NA
ATOM     37  C   UNL A   1      38.153  30.531  29.370  1.00  0.00     0.031 C 
ATOM     38  C   UNL A   1      37.591  33.494  33.394  1.00  0.00     0.029 A 
ATOM     39  N   UNL A   1      39.257  32.003  33.441  1.00  0.00    -0.354 N 
ATOM     40  C   UNL A   1      39.874  29.258  30.174  1.00  0.00     0.074 A 
ATOM     41  C   UNL A   1      38.889  29.455  29.135  1.00  0.00     0.031 C 
ATOM     42  C   UNL A   1      38.180  33.589  34.595  1.00  0.00     0.029 A 
ATOM     43  C   UNL A   1      39.256  32.604  34.677  1.00  0.00     0.049 A 
ATOM     44  H   UNL A   1      39.905  31.310  33.179  1.00  0.00     0.167 HD
ATOM     45  C   UNL A   1      40.835  28.304  30.143  1.00  0.00     0.034 A 
ATOM     46  C   UNL A   1      40.020  32.378  35.764  1.00  0.00     0.034 A 
ATOM     47  C   UNL A   1      41.832  28.134  31.166  1.00  0.00     0.049 A 
ATOM     48  C   UNL A   1      41.110  31.347  35.689  1.00  0.00     0.074 A 
ATOM     49  C   UNL A   1      42.915  27.273  31.177  1.00  0.00     0.029 A 
ATOM     50  N   UNL A   1      41.854  28.820  32.371  1.00  0.00    -0.354 N 
ATOM     51  N   UNL A   1      41.430  30.556  34.694  1.00  0.00    -0.248 NA
ATOM     52  C   UNL A   1      41.970  31.201  36.873  1.00  0.00     0.031 C 
ATOM     53  C   UNL A   1      43.566  27.407  32.409  1.00  0.00     0.029 A 
ATOM     54  C   UNL A   1      42.917  28.385  33.145  1.00  0.00     0.049 A 
ATOM     55  H   UNL A   1      41.210  29.515  32.638  1.00  0.00     0.167 HD
ATOM     56  C   UNL A   1      42.543  29.839  35.118  1.00  0.00     0.074 A 
ATOM     57  C   UNL A   1      42.854  30.306  36.455  1.00  0.00     0.031 C 
ATOM     58  C   UNL A   1      43.238  28.877  34.462  1.00  0.00     0.034 A 
BRANCH  45  59
ATOM     59  C   UNL A   1      40.865  27.384  28.949  1.00  0.00     0.023 A 
ATOM     60  C   UNL A   1      39.947  26.316  28.857  1.00  0.00     0.012 A 
ATOM     61  C   UNL A   1      41.783  27.593  27.903  1.00  0.00     0.148 A 
ATOM     62  C   UNL A   1      39.976  25.443  27.771  1.00  0.00     0.002 A 
ATOM     63  C   UNL A   1      41.772  26.750  26.798  1.00  0.00     0.091 A 
ATOM     64  F   UNL A   1      42.664  28.598  28.014  1.00  0.00    -0.205 F 
ATOM     65  C   UNL A   1      40.882  25.666  26.738  1.00  0.00     0.022 A 
BRANCH  63  66
ATOM     66  S   UNL A   1      42.842  27.006  25.377  1.00  0.00     0.127 S 
ATOM     67  O   UNL A   1      42.278  28.226  24.800  1.00  0.00    -0.237 OA
ATOM     68  O   UNL A   1      44.152  27.177  26.006  1.00  0.00    -0.237 OA
ATOM     69  O   UNL A   1      42.715  25.808  24.560  1.00  0.00    -0.744 OA
ENDBRANCH  63  66
ENDBRANCH  45  59
BRANCH  46  70
ATOM     70  C   UNL A   1      39.799  33.188  36.993  1.00  0.00     0.023 A 
ATOM     71  C   UNL A   1      38.747  32.856  37.869  1.00  0.00     0.012 A 
ATOM     72  C   UNL A   1      40.670  34.241  37.331  1.00  0.00     0.148 A 
ATOM     73  C   UNL A   1      38.555  33.573  39.049  1.00  0.00     0.002 A 
ATOM     74  C   UNL A   1      40.508  34.913  38.536  1.00  0.00     0.091 A 
ATOM     75  F   UNL A   1      41.661  34.542  36.480  1.00  0.00    -0.205 F 
ATOM     76  C   UNL A   1      39.441  34.592  39.389  1.00  0.00     0.022 A 
BRANCH  74  77
ATOM     77  S   UNL A   1      41.682  36.141  39.122  1.00  0.00     0.127 S 
ATOM     78  O   UNL A   1      41.592  37.161  38.082  1.00  0.00    -0.237 OA
ATOM     79  O   UNL A   1      41.099  36.518  40.410  1.00  0.00    -0.237 OA
ATOM     80  O   UNL A   1      42.962  35.452  39.219  1.00  0.00    -0.744 OA
ENDBRANCH  74  77
ENDBRANCH  46  70
BRANCH  58  81
ATOM     81  C   UNL A   1      44.430  28.274  35.161  1.00  0.00     0.023 A 
ATOM     82  C   UNL A   1      45.707  28.846  35.001  1.00  0.00     0.012 A 
ATOM     83  C   UNL A   1      44.268  27.182  36.037  1.00  0.00     0.148 A 
ATOM     84  C   UNL A   1      46.809  28.322  35.677  1.00  0.00     0.002 A 
ATOM     85  C   UNL A   1      45.359  26.699  36.747  1.00  0.00     0.091 A 
ATOM     86  F   UNL A   1      43.048  26.639  36.162  1.00  0.00    -0.205 F 
ATOM     87  C   UNL A   1      46.633  27.258  36.557  1.00  0.00     0.022 A 
BRANCH  85  88
ATOM     88  S   UNL A   1      45.210  25.399  37.977  1.00  0.00     0.127 S 
ATOM     89  O   UNL A   1      44.312  26.013  38.953  1.00  0.00    -0.237 OA
ATOM     90  O   UNL A   1      44.618  24.308  37.204  1.00  0.00    -0.237 OA
ATOM     91  O   UNL A   1      46.563  25.138  38.454  1.00  0.00    -0.744 OA
ENDBRANCH  85  88
ENDBRANCH  58  81
ENDBRANCH  32  33
ENDBRANCH  24  27
ENDBRANCH  22  23
ENDBRANCH  21  22
ENDBRANCH   1  21
TORSDOF 18
ENDMDL
