MODEL 1
REMARK VINA RESULT:     -10.9      0.000      0.000
REMARK SMILES C=C(C)C[N@H+](C)[C@H](C(=O)NCCCCCCNC(=O)c1ccc(-c2c3nc(c(-c4cccc(S(=O)(=O)[O-])c4F)c4ccc([nH]4)c(-c4cccc(S(=O)(=O)[O-])c4F)c4nc(c(-c5cccc(S(=O)(=O)[O-])c5F)c5ccc2[nH]5)C=C4)C=C3)cc1)c1cc(C)c(OC)c(C)c1
REMARK SMILES IDX 13 1 12 2 11 3 10 4 8 5 9 6 7 8 5 9 6 10 4 12 2 13 1 14 3 15
REMARK SMILES IDX 83 16 84 17 92 18 85 19 90 20 86 21 87 22 91 23 88 24 89 25
REMARK SMILES IDX 14 26 15 27 16 28 17 29 18 30 19 32 20 33 21 34 82 35 22 36
REMARK SMILES IDX 81 37 23 38 24 39 25 40 75 41 26 42 80 43 74 44 76 45 27 46
REMARK SMILES IDX 79 47 73 48 72 49 28 51 60 52 40 53 59 54 41 55 44 56 58 57
REMARK SMILES IDX 77 58 42 59 43 60 57 62 78 63 45 64 29 65 30 66 38 67 31 68
REMARK SMILES IDX 33 69 39 70 32 71 34 72 35 73 36 74 37 75 61 76 62 77 70 78
REMARK SMILES IDX 63 79 65 80 71 81 64 82 66 83 67 84 68 85 69 86 46 87 47 88
REMARK SMILES IDX 55 89 48 90 50 91 56 92 49 93 51 94 52 95 53 96 54 97
REMARK H PARENT 10 7 5 11 17 31 76 50 44 61
REMARK Flexibility Score: inf
ROOT
ATOM      1  C   UNL A   1      31.767  26.689  26.547  1.00  0.00     0.002 C 
ENDROOT
BRANCH   1   2
ATOM      2  C   UNL A   1      31.055  26.349  25.234  1.00  0.00     0.021 C 
BRANCH   2   3
ATOM      3  C   UNL A   1      30.710  24.871  25.078  1.00  0.00     0.116 C 
BRANCH   3   4
ATOM      4  N   UNL A   1      30.797  24.181  26.351  1.00  0.00    -0.351 N 
ATOM      5  C   UNL A   1      31.617  23.146  26.719  1.00  0.00     0.283 C 
ATOM      6  O   UNL A   1      31.377  22.599  27.798  1.00  0.00    -0.268 OA
ATOM      7  H   UNL A   1      30.181  24.500  27.050  1.00  0.00     0.163 HD
BRANCH   5   8
ATOM      8  C   UNL A   1      32.795  22.757  25.785  1.00  0.00     0.305 C 
BRANCH   8   9
ATOM      9  N   UNL A   1      34.158  23.010  26.364  1.00  0.00    -0.320 N 
ATOM     10  C   UNL A   1      34.881  21.728  26.451  1.00  0.00     0.333 C 
ATOM     11  H   UNL A   1      33.960  23.444  27.266  1.00  0.00     0.349 HD
BRANCH   9  12
ATOM     12  C   UNL A   1      35.026  23.972  25.670  1.00  0.00     0.294 C 
BRANCH  12  13
ATOM     13  C   UNL A   1      34.971  23.987  24.163  1.00  0.00    -0.026 C 
ATOM     14  C   UNL A   1      35.730  23.158  23.423  1.00  0.00     0.013 C 
ATOM     15  C   UNL A   1      34.096  25.014  23.505  1.00  0.00     0.045 C 
ENDBRANCH  12  13
ENDBRANCH   9  12
ENDBRANCH   8   9
BRANCH   8  16
ATOM     16  C   UNL A   1      32.578  21.430  25.062  1.00  0.00     0.020 A 
ATOM     17  C   UNL A   1      32.564  20.205  25.723  1.00  0.00     0.017 A 
ATOM     18  C   UNL A   1      32.360  21.415  23.674  1.00  0.00     0.017 A 
ATOM     19  C   UNL A   1      32.514  18.991  25.014  1.00  0.00    -0.008 A 
ATOM     20  C   UNL A   1      32.203  20.219  22.939  1.00  0.00    -0.008 A 
ATOM     21  C   UNL A   1      32.746  17.715  25.778  1.00  0.00     0.048 C 
ATOM     22  C   UNL A   1      32.355  18.996  23.612  1.00  0.00     0.124 A 
ATOM     23  C   UNL A   1      31.933  20.361  21.467  1.00  0.00     0.048 C 
BRANCH  22  24
ATOM     24  O   UNL A   1      32.501  17.764  23.027  1.00  0.00    -0.496 OA
ATOM     25  C   UNL A   1      33.809  17.259  22.826  1.00  0.00     0.278 C 
ENDBRANCH  22  24
ENDBRANCH   8  16
ENDBRANCH   5   8
ENDBRANCH   3   4
ENDBRANCH   2   3
ENDBRANCH   1   2
BRANCH   1  26
ATOM     26  C   UNL A   1      31.590  28.133  27.024  1.00  0.00     0.002 C 
BRANCH  26  27
ATOM     27  C   UNL A   1      31.562  29.188  25.913  1.00  0.00     0.021 C 
BRANCH  27  28
ATOM     28  C   UNL A   1      32.831  30.023  25.799  1.00  0.00     0.116 C 
BRANCH  28  29
ATOM     29  N   UNL A   1      32.611  31.404  26.198  1.00  0.00    -0.352 N 
ATOM     30  C   UNL A   1      33.256  32.136  27.161  1.00  0.00     0.251 C 
ATOM     31  H   UNL A   1      31.902  31.880  25.708  1.00  0.00     0.163 HD
ATOM     32  O   UNL A   1      32.809  33.229  27.507  1.00  0.00    -0.269 OA
BRANCH  30  33
ATOM     33  C   UNL A   1      34.478  31.598  27.793  1.00  0.00     0.039 A 
ATOM     34  C   UNL A   1      35.586  32.435  27.945  1.00  0.00     0.014 A 
ATOM     35  C   UNL A   1      34.529  30.273  28.235  1.00  0.00     0.014 A 
ATOM     36  C   UNL A   1      36.730  31.956  28.586  1.00  0.00     0.010 A 
ATOM     37  C   UNL A   1      35.641  29.821  28.939  1.00  0.00     0.010 A 
ATOM     38  C   UNL A   1      36.757  30.653  29.113  1.00  0.00    -0.014 A 
BRANCH  38  39
ATOM     39  C   UNL A   1      37.941  30.147  29.851  1.00  0.00     0.031 A 
ATOM     40  C   UNL A   1      38.228  30.630  31.246  1.00  0.00     0.074 A 
ATOM     41  C   UNL A   1      38.804  29.316  29.233  1.00  0.00     0.049 A 
ATOM     42  N   UNL A   1      39.239  30.344  32.026  1.00  0.00    -0.248 NA
ATOM     43  C   UNL A   1      37.270  31.580  31.835  1.00  0.00     0.031 C 
ATOM     44  C   UNL A   1      38.678  28.839  27.854  1.00  0.00     0.029 A 
ATOM     45  N   UNL A   1      39.971  28.745  29.675  1.00  0.00    -0.354 N 
ATOM     46  C   UNL A   1      39.057  31.099  33.178  1.00  0.00     0.074 A 
ATOM     47  C   UNL A   1      37.859  31.886  32.982  1.00  0.00     0.031 C 
ATOM     48  C   UNL A   1      39.723  28.048  27.565  1.00  0.00     0.029 A 
ATOM     49  C   UNL A   1      40.609  27.985  28.723  1.00  0.00     0.049 A 
ATOM     50  H   UNL A   1      40.320  28.869  30.588  1.00  0.00     0.167 HD
ATOM     51  C   UNL A   1      39.800  31.114  34.310  1.00  0.00     0.034 A 
ATOM     52  C   UNL A   1      41.779  27.318  28.774  1.00  0.00     0.034 A 
ATOM     53  C   UNL A   1      40.969  30.302  34.516  1.00  0.00     0.049 A 
ATOM     54  C   UNL A   1      42.567  27.322  30.056  1.00  0.00     0.074 A 
ATOM     55  C   UNL A   1      41.744  30.183  35.656  1.00  0.00     0.029 A 
ATOM     56  N   UNL A   1      41.537  29.476  33.558  1.00  0.00    -0.354 N 
ATOM     57  N   UNL A   1      42.294  27.921  31.189  1.00  0.00    -0.248 NA
ATOM     58  C   UNL A   1      43.804  26.529  30.078  1.00  0.00     0.031 C 
ATOM     59  C   UNL A   1      42.795  29.303  35.380  1.00  0.00     0.029 A 
ATOM     60  C   UNL A   1      42.658  28.849  34.078  1.00  0.00     0.049 A 
ATOM     61  H   UNL A   1      41.194  29.352  32.645  1.00  0.00     0.167 HD
ATOM     62  C   UNL A   1      43.304  27.549  32.070  1.00  0.00     0.074 A 
ATOM     63  C   UNL A   1      44.182  26.655  31.343  1.00  0.00     0.031 C 
ATOM     64  C   UNL A   1      43.494  27.923  33.359  1.00  0.00     0.034 A 
BRANCH  51  65
ATOM     65  C   UNL A   1      39.341  32.004  35.437  1.00  0.00     0.023 A 
ATOM     66  C   UNL A   1      38.450  31.495  36.404  1.00  0.00     0.012 A 
ATOM     67  C   UNL A   1      39.831  33.317  35.574  1.00  0.00     0.148 A 
ATOM     68  C   UNL A   1      38.024  32.291  37.468  1.00  0.00     0.002 A 
ATOM     69  C   UNL A   1      39.438  34.088  36.662  1.00  0.00     0.091 A 
ATOM     70  F   UNL A   1      40.661  33.792  34.634  1.00  0.00    -0.205 F 
ATOM     71  C   UNL A   1      38.526  33.581  37.602  1.00  0.00     0.022 A 
BRANCH  69  72
ATOM     72  S   UNL A   1      40.088  35.734  36.969  1.00  0.00     0.127 S 
ATOM     73  O   UNL A   1      39.643  36.455  35.777  1.00  0.00    -0.237 OA
ATOM     74  O   UNL A   1      39.397  36.113  38.202  1.00  0.00    -0.237 OA
ATOM     75  O   UNL A   1      41.530  35.579  37.103  1.00  0.00    -0.744 OA
ENDBRANCH  69  72
ENDBRANCH  51  65
BRANCH  52  76
ATOM     76  C   UNL A   1      42.243  26.542  27.590  1.00  0.00     0.023 A 
ATOM     77  C   UNL A   1      43.013  27.182  26.600  1.00  0.00     0.012 A 
ATOM     78  C   UNL A   1      41.950  25.171  27.452  1.00  0.00     0.148 A 
ATOM     79  C   UNL A   1      43.457  26.480  25.479  1.00  0.00     0.002 A 
ATOM     80  C   UNL A   1      42.444  24.464  26.363  1.00  0.00     0.091 A 
ATOM     81  F   UNL A   1      41.207  24.583  28.401  1.00  0.00    -0.205 F 
ATOM     82  C   UNL A   1      43.181  25.120  25.365  1.00  0.00     0.022 A 
BRANCH  80  83
ATOM     83  S   UNL A   1      42.253  22.685  26.204  1.00  0.00     0.127 S 
ATOM     84  O   UNL A   1      40.799  22.541  26.190  1.00  0.00    -0.237 OA
ATOM     85  O   UNL A   1      42.911  22.425  24.923  1.00  0.00    -0.237 OA
ATOM     86  O   UNL A   1      42.936  22.111  27.355  1.00  0.00    -0.744 OA
ENDBRANCH  80  83
ENDBRANCH  52  76
BRANCH  64  87
ATOM     87  C   UNL A   1      44.677  27.342  34.089  1.00  0.00     0.023 A 
ATOM     88  C   UNL A   1      45.903  28.034  34.105  1.00  0.00     0.012 A 
ATOM     89  C   UNL A   1      44.549  26.145  34.822  1.00  0.00     0.148 A 
ATOM     90  C   UNL A   1      46.994  27.528  34.810  1.00  0.00     0.002 A 
ATOM     91  C   UNL A   1      45.624  25.674  35.564  1.00  0.00     0.091 A 
ATOM     92  F   UNL A   1      43.378  25.492  34.780  1.00  0.00    -0.205 F 
ATOM     93  C   UNL A   1      46.851  26.355  35.549  1.00  0.00     0.022 A 
BRANCH  91  94
ATOM     94  S   UNL A   1      45.503  24.227  36.623  1.00  0.00     0.127 S 
ATOM     95  O   UNL A   1      44.765  23.296  35.771  1.00  0.00    -0.237 OA
ATOM     96  O   UNL A   1      46.908  23.879  36.834  1.00  0.00    -0.237 OA
ATOM     97  O   UNL A   1      44.802  24.665  37.822  1.00  0.00    -0.744 OA
ENDBRANCH  91  94
ENDBRANCH  64  87
ENDBRANCH  38  39
ENDBRANCH  30  33
ENDBRANCH  28  29
ENDBRANCH  27  28
ENDBRANCH  26  27
ENDBRANCH   1  26
TORSDOF 21
ENDMDL
MODEL 2
REMARK VINA RESULT:     -10.7      5.302     10.467
REMARK SMILES C=C(C)C[N@H+](C)[C@H](C(=O)NCCCCCCNC(=O)c1ccc(-c2c3nc(c(-c4cccc(S(=O)(=O)[O-])c4F)c4ccc([nH]4)c(-c4cccc(S(=O)(=O)[O-])c4F)c4nc(c(-c5cccc(S(=O)(=O)[O-])c5F)c5ccc2[nH]5)C=C4)C=C3)cc1)c1cc(C)c(OC)c(C)c1
REMARK SMILES IDX 13 1 12 2 11 3 10 4 8 5 9 6 7 8 5 9 6 10 4 12 2 13 1 14 3 15
REMARK SMILES IDX 83 16 84 17 92 18 85 19 90 20 86 21 87 22 91 23 88 24 89 25
REMARK SMILES IDX 14 26 15 27 16 28 17 29 18 30 19 32 20 33 21 34 82 35 22 36
REMARK SMILES IDX 81 37 23 38 24 39 25 40 75 41 26 42 80 43 74 44 76 45 27 46
REMARK SMILES IDX 79 47 73 48 72 49 28 51 60 52 40 53 59 54 41 55 44 56 58 57
REMARK SMILES IDX 77 58 42 59 43 60 57 62 78 63 45 64 29 65 30 66 38 67 31 68
REMARK SMILES IDX 33 69 39 70 32 71 34 72 35 73 36 74 37 75 61 76 62 77 70 78
REMARK SMILES IDX 63 79 65 80 71 81 64 82 66 83 67 84 68 85 69 86 46 87 47 88
REMARK SMILES IDX 55 89 48 90 50 91 56 92 49 93 51 94 52 95 53 96 54 97
REMARK H PARENT 10 7 5 11 17 31 76 50 44 61
REMARK Flexibility Score: inf
ROOT
ATOM      1  C   UNL A   1      37.555  21.897  24.810  1.00  0.00     0.002 C 
ENDROOT
BRANCH   1   2
ATOM      2  C   UNL A   1      36.467  22.873  24.353  1.00  0.00     0.021 C 
BRANCH   2   3
ATOM      3  C   UNL A   1      36.032  23.866  25.425  1.00  0.00     0.116 C 
BRANCH   3   4
ATOM      4  N   UNL A   1      35.443  23.180  26.560  1.00  0.00    -0.351 N 
ATOM      5  C   UNL A   1      34.121  23.040  26.895  1.00  0.00     0.283 C 
ATOM      6  O   UNL A   1      33.873  22.575  28.010  1.00  0.00    -0.268 OA
ATOM      7  H   UNL A   1      36.082  22.754  27.176  1.00  0.00     0.163 HD
BRANCH   5   8
ATOM      8  C   UNL A   1      33.040  23.440  25.856  1.00  0.00     0.305 C 
BRANCH   8   9
ATOM      9  N   UNL A   1      31.771  22.639  25.938  1.00  0.00    -0.320 N 
ATOM     10  C   UNL A   1      30.690  23.395  25.277  1.00  0.00     0.333 C 
ATOM     11  H   UNL A   1      31.637  22.503  26.941  1.00  0.00     0.349 HD
BRANCH   9  12
ATOM     12  C   UNL A   1      31.782  21.282  25.376  1.00  0.00     0.294 C 
BRANCH  12  13
ATOM     13  C   UNL A   1      32.779  20.999  24.279  1.00  0.00    -0.026 C 
ATOM     14  C   UNL A   1      33.821  20.170  24.472  1.00  0.00     0.013 C 
ATOM     15  C   UNL A   1      32.617  21.734  22.980  1.00  0.00     0.045 C 
ENDBRANCH  12  13
ENDBRANCH   9  12
ENDBRANCH   8   9
BRANCH   8  16
ATOM     16  C   UNL A   1      32.903  24.950  25.677  1.00  0.00     0.020 A 
ATOM     17  C   UNL A   1      32.486  25.795  26.703  1.00  0.00     0.017 A 
ATOM     18  C   UNL A   1      33.225  25.543  24.445  1.00  0.00     0.017 A 
ATOM     19  C   UNL A   1      32.225  27.157  26.468  1.00  0.00    -0.008 A 
ATOM     20  C   UNL A   1      33.072  26.926  24.201  1.00  0.00    -0.008 A 
ATOM     21  C   UNL A   1      31.550  27.946  27.557  1.00  0.00     0.048 C 
ATOM     22  C   UNL A   1      32.497  27.723  25.204  1.00  0.00     0.124 A 
ATOM     23  C   UNL A   1      33.497  27.424  22.848  1.00  0.00     0.048 C 
BRANCH  22  24
ATOM     24  O   UNL A   1      32.034  29.005  25.053  1.00  0.00    -0.496 OA
ATOM     25  C   UNL A   1      32.890  30.080  25.396  1.00  0.00     0.278 C 
ENDBRANCH  22  24
ENDBRANCH   8  16
ENDBRANCH   5   8
ENDBRANCH   3   4
ENDBRANCH   2   3
ENDBRANCH   1   2
BRANCH   1  26
ATOM     26  C   UNL A   1      37.211  20.415  24.635  1.00  0.00     0.002 C 
BRANCH  26  27
ATOM     27  C   UNL A   1      38.164  19.438  25.331  1.00  0.00     0.021 C 
BRANCH  27  28
ATOM     28  C   UNL A   1      39.366  20.091  26.000  1.00  0.00     0.116 C 
BRANCH  28  29
ATOM     29  N   UNL A   1      40.520  19.207  26.029  1.00  0.00    -0.352 N 
ATOM     30  C   UNL A   1      41.849  19.529  26.121  1.00  0.00     0.251 C 
ATOM     31  H   UNL A   1      40.319  18.245  25.977  1.00  0.00     0.163 HD
ATOM     32  O   UNL A   1      42.707  18.666  25.930  1.00  0.00    -0.269 OA
BRANCH  30  33
ATOM     33  C   UNL A   1      42.247  20.917  26.433  1.00  0.00     0.039 A 
ATOM     34  C   UNL A   1      42.410  21.825  25.385  1.00  0.00     0.014 A 
ATOM     35  C   UNL A   1      42.456  21.319  27.755  1.00  0.00     0.014 A 
ATOM     36  C   UNL A   1      42.737  23.153  25.668  1.00  0.00     0.010 A 
ATOM     37  C   UNL A   1      42.707  22.658  28.039  1.00  0.00     0.010 A 
ATOM     38  C   UNL A   1      42.860  23.587  27.000  1.00  0.00    -0.014 A 
BRANCH  38  39
ATOM     39  C   UNL A   1      43.146  25.008  27.321  1.00  0.00     0.031 A 
ATOM     40  C   UNL A   1      44.536  25.558  27.152  1.00  0.00     0.074 A 
ATOM     41  C   UNL A   1      42.174  25.779  27.845  1.00  0.00     0.049 A 
ATOM     42  N   UNL A   1      44.988  26.754  27.430  1.00  0.00    -0.248 NA
ATOM     43  C   UNL A   1      45.560  24.639  26.626  1.00  0.00     0.031 C 
ATOM     44  C   UNL A   1      40.807  25.338  28.133  1.00  0.00     0.029 A 
ATOM     45  N   UNL A   1      42.191  27.089  28.254  1.00  0.00    -0.354 N 
ATOM     46  C   UNL A   1      46.348  26.721  27.146  1.00  0.00     0.074 A 
ATOM     47  C   UNL A   1      46.656  25.378  26.709  1.00  0.00     0.031 C 
ATOM     48  C   UNL A   1      40.118  26.358  28.667  1.00  0.00     0.029 A 
ATOM     49  C   UNL A   1      40.998  27.516  28.791  1.00  0.00     0.049 A 
ATOM     50  H   UNL A   1      42.983  27.669  28.172  1.00  0.00     0.167 HD
ATOM     51  C   UNL A   1      47.253  27.727  27.212  1.00  0.00     0.034 A 
ATOM     52  C   UNL A   1      40.655  28.702  29.329  1.00  0.00     0.034 A 
ATOM     53  C   UNL A   1      46.935  29.072  27.610  1.00  0.00     0.049 A 
ATOM     54  C   UNL A   1      41.670  29.813  29.357  1.00  0.00     0.074 A 
ATOM     55  C   UNL A   1      47.761  30.181  27.630  1.00  0.00     0.029 A 
ATOM     56  N   UNL A   1      45.693  29.489  28.064  1.00  0.00    -0.354 N 
ATOM     57  N   UNL A   1      42.911  29.807  28.937  1.00  0.00    -0.248 NA
ATOM     58  C   UNL A   1      41.225  31.106  29.897  1.00  0.00     0.031 C 
ATOM     59  C   UNL A   1      47.026  31.264  28.121  1.00  0.00     0.029 A 
ATOM     60  C   UNL A   1      45.732  30.838  28.377  1.00  0.00     0.049 A 
ATOM     61  H   UNL A   1      44.901  28.912  28.152  1.00  0.00     0.167 HD
ATOM     62  C   UNL A   1      43.385  31.099  29.128  1.00  0.00     0.074 A 
ATOM     63  C   UNL A   1      42.290  31.868  29.682  1.00  0.00     0.031 C 
ATOM     64  C   UNL A   1      44.620  31.602  28.880  1.00  0.00     0.034 A 
BRANCH  51  65
ATOM     65  C   UNL A   1      48.669  27.422  26.794  1.00  0.00     0.023 A 
ATOM     66  C   UNL A   1      49.561  26.853  27.727  1.00  0.00     0.012 A 
ATOM     67  C   UNL A   1      49.102  27.643  25.472  1.00  0.00     0.148 A 
ATOM     68  C   UNL A   1      50.871  26.544  27.361  1.00  0.00     0.002 A 
ATOM     69  C   UNL A   1      50.395  27.290  25.104  1.00  0.00     0.091 A 
ATOM     70  F   UNL A   1      48.248  28.204  24.605  1.00  0.00    -0.205 F 
ATOM     71  C   UNL A   1      51.284  26.753  26.049  1.00  0.00     0.022 A 
BRANCH  69  72
ATOM     72  S   UNL A   1      50.999  27.444  23.419  1.00  0.00     0.127 S 
ATOM     73  O   UNL A   1      52.288  26.758  23.504  1.00  0.00    -0.237 OA
ATOM     74  O   UNL A   1      49.976  26.726  22.658  1.00  0.00    -0.237 OA
ATOM     75  O   UNL A   1      51.069  28.873  23.145  1.00  0.00    -0.744 OA
ENDBRANCH  69  72
ENDBRANCH  51  65
BRANCH  52  76
ATOM     76  C   UNL A   1      39.268  28.917  29.830  1.00  0.00     0.023 A 
ATOM     77  C   UNL A   1      38.957  28.596  31.165  1.00  0.00     0.012 A 
ATOM     78  C   UNL A   1      38.267  29.461  29.003  1.00  0.00     0.148 A 
ATOM     79  C   UNL A   1      37.665  28.782  31.659  1.00  0.00     0.002 A 
ATOM     80  C   UNL A   1      36.997  29.699  29.517  1.00  0.00     0.091 A 
ATOM     81  F   UNL A   1      38.582  29.751  27.732  1.00  0.00    -0.205 F 
ATOM     82  C   UNL A   1      36.689  29.342  30.839  1.00  0.00     0.022 A 
BRANCH  80  83
ATOM     83  S   UNL A   1      35.720  30.539  28.576  1.00  0.00     0.127 S 
ATOM     84  O   UNL A   1      34.983  29.416  28.002  1.00  0.00    -0.237 OA
ATOM     85  O   UNL A   1      35.008  31.273  29.623  1.00  0.00    -0.237 OA
ATOM     86  O   UNL A   1      36.425  31.387  27.624  1.00  0.00    -0.744 OA
ENDBRANCH  80  83
ENDBRANCH  52  76
BRANCH  64  87
ATOM     87  C   UNL A   1      44.852  33.062  29.168  1.00  0.00     0.023 A 
ATOM     88  C   UNL A   1      45.353  33.461  30.422  1.00  0.00     0.012 A 
ATOM     89  C   UNL A   1      44.642  34.032  28.166  1.00  0.00     0.148 A 
ATOM     90  C   UNL A   1      45.611  34.805  30.687  1.00  0.00     0.002 A 
ATOM     91  C   UNL A   1      44.949  35.362  28.421  1.00  0.00     0.091 A 
ATOM     92  F   UNL A   1      44.147  33.634  26.985  1.00  0.00    -0.205 F 
ATOM     93  C   UNL A   1      45.421  35.754  29.683  1.00  0.00     0.022 A 
BRANCH  91  94
ATOM     94  S   UNL A   1      44.830  36.636  27.159  1.00  0.00     0.127 S 
ATOM     95  O   UNL A   1      45.241  37.828  27.900  1.00  0.00    -0.237 OA
ATOM     96  O   UNL A   1      45.796  36.175  26.161  1.00  0.00    -0.237 OA
ATOM     97  O   UNL A   1      43.445  36.628  26.709  1.00  0.00    -0.744 OA
ENDBRANCH  91  94
ENDBRANCH  64  87
ENDBRANCH  38  39
ENDBRANCH  30  33
ENDBRANCH  28  29
ENDBRANCH  27  28
ENDBRANCH  26  27
ENDBRANCH   1  26
TORSDOF 21
ENDMDL
MODEL 3
REMARK VINA RESULT:     -10.6      5.138      7.524
REMARK SMILES C=C(C)C[N@H+](C)[C@H](C(=O)NCCCCCCNC(=O)c1ccc(-c2c3nc(c(-c4cccc(S(=O)(=O)[O-])c4F)c4ccc([nH]4)c(-c4cccc(S(=O)(=O)[O-])c4F)c4nc(c(-c5cccc(S(=O)(=O)[O-])c5F)c5ccc2[nH]5)C=C4)C=C3)cc1)c1cc(C)c(OC)c(C)c1
REMARK SMILES IDX 13 1 12 2 11 3 10 4 8 5 9 6 7 8 5 9 6 10 4 12 2 13 1 14 3 15
REMARK SMILES IDX 83 16 84 17 92 18 85 19 90 20 86 21 87 22 91 23 88 24 89 25
REMARK SMILES IDX 14 26 15 27 16 28 17 29 18 30 19 32 20 33 21 34 82 35 22 36
REMARK SMILES IDX 81 37 23 38 24 39 25 40 75 41 26 42 80 43 74 44 76 45 27 46
REMARK SMILES IDX 79 47 73 48 72 49 28 51 60 52 40 53 59 54 41 55 44 56 58 57
REMARK SMILES IDX 77 58 42 59 43 60 57 62 78 63 45 64 29 65 30 66 38 67 31 68
REMARK SMILES IDX 33 69 39 70 32 71 34 72 35 73 36 74 37 75 61 76 62 77 70 78
REMARK SMILES IDX 63 79 65 80 71 81 64 82 66 83 67 84 68 85 69 86 46 87 47 88
REMARK SMILES IDX 55 89 48 90 50 91 56 92 49 93 51 94 52 95 53 96 54 97
REMARK H PARENT 10 7 5 11 17 31 76 50 44 61
REMARK Flexibility Score: inf
ROOT
ATOM      1  C   UNL A   1      34.672  24.544  25.384  1.00  0.00     0.002 C 
ENDROOT
BRANCH   1   2
ATOM      2  C   UNL A   1      34.810  26.069  25.413  1.00  0.00     0.021 C 
BRANCH   2   3
ATOM      3  C   UNL A   1      33.529  26.816  25.058  1.00  0.00     0.116 C 
BRANCH   3   4
ATOM      4  N   UNL A   1      32.791  27.177  26.255  1.00  0.00    -0.351 N 
ATOM      5  C   UNL A   1      31.458  27.013  26.531  1.00  0.00     0.283 C 
ATOM      6  O   UNL A   1      31.024  27.571  27.541  1.00  0.00    -0.268 OA
ATOM      7  H   UNL A   1      33.322  27.598  26.969  1.00  0.00     0.163 HD
BRANCH   5   8
ATOM      8  C   UNL A   1      30.602  26.127  25.587  1.00  0.00     0.305 C 
BRANCH   8   9
ATOM      9  N   UNL A   1      30.176  26.803  24.315  1.00  0.00    -0.320 N 
ATOM     10  C   UNL A   1      28.768  26.458  24.043  1.00  0.00     0.333 C 
ATOM     11  H   UNL A   1      30.837  26.451  23.621  1.00  0.00     0.349 HD
BRANCH   9  12
ATOM     12  C   UNL A   1      30.304  28.266  24.242  1.00  0.00     0.294 C 
BRANCH  12  13
ATOM     13  C   UNL A   1      30.756  28.853  22.928  1.00  0.00    -0.026 C 
ATOM     14  C   UNL A   1      32.061  28.951  22.614  1.00  0.00     0.013 C 
ATOM     15  C   UNL A   1      29.705  29.401  22.007  1.00  0.00     0.045 C 
ENDBRANCH  12  13
ENDBRANCH   9  12
ENDBRANCH   8   9
BRANCH   8  16
ATOM     16  C   UNL A   1      31.112  24.692  25.478  1.00  0.00     0.020 A 
ATOM     17  C   UNL A   1      31.194  24.011  24.266  1.00  0.00     0.017 A 
ATOM     18  C   UNL A   1      31.545  24.012  26.629  1.00  0.00     0.017 A 
ATOM     19  C   UNL A   1      31.523  22.645  24.216  1.00  0.00    -0.008 A 
ATOM     20  C   UNL A   1      31.980  22.669  26.604  1.00  0.00    -0.008 A 
ATOM     21  C   UNL A   1      31.355  21.924  22.905  1.00  0.00     0.048 C 
ATOM     22  C   UNL A   1      31.897  21.962  25.393  1.00  0.00     0.124 A 
ATOM     23  C   UNL A   1      32.454  22.086  27.906  1.00  0.00     0.048 C 
BRANCH  22  24
ATOM     24  O   UNL A   1      32.018  20.604  25.239  1.00  0.00    -0.496 OA
ATOM     25  C   UNL A   1      33.125  20.101  24.513  1.00  0.00     0.278 C 
ENDBRANCH  22  24
ENDBRANCH   8  16
ENDBRANCH   5   8
ENDBRANCH   3   4
ENDBRANCH   2   3
ENDBRANCH   1   2
BRANCH   1  26
ATOM     26  C   UNL A   1      35.068  23.883  24.060  1.00  0.00     0.002 C 
BRANCH  26  27
ATOM     27  C   UNL A   1      35.522  22.424  24.170  1.00  0.00     0.021 C 
BRANCH  27  28
ATOM     28  C   UNL A   1      35.995  22.009  25.558  1.00  0.00     0.116 C 
BRANCH  28  29
ATOM     29  N   UNL A   1      36.926  20.893  25.505  1.00  0.00    -0.352 N 
ATOM     30  C   UNL A   1      38.287  20.899  25.664  1.00  0.00     0.251 C 
ATOM     31  H   UNL A   1      36.522  20.012  25.333  1.00  0.00     0.163 HD
ATOM     32  O   UNL A   1      38.943  19.894  25.389  1.00  0.00    -0.269 OA
BRANCH  30  33
ATOM     33  C   UNL A   1      38.962  22.119  26.149  1.00  0.00     0.039 A 
ATOM     34  C   UNL A   1      40.073  21.990  26.986  1.00  0.00     0.014 A 
ATOM     35  C   UNL A   1      38.502  23.386  25.778  1.00  0.00     0.014 A 
ATOM     36  C   UNL A   1      40.753  23.134  27.412  1.00  0.00     0.010 A 
ATOM     37  C   UNL A   1      39.224  24.518  26.141  1.00  0.00     0.010 A 
ATOM     38  C   UNL A   1      40.350  24.406  26.970  1.00  0.00    -0.014 A 
BRANCH  38  39
ATOM     39  C   UNL A   1      41.097  25.628  27.362  1.00  0.00     0.031 A 
ATOM     40  C   UNL A   1      40.411  26.720  28.136  1.00  0.00     0.074 A 
ATOM     41  C   UNL A   1      42.369  25.790  26.949  1.00  0.00     0.049 A 
ATOM     42  N   UNL A   1      40.882  27.878  28.521  1.00  0.00    -0.248 NA
ATOM     43  C   UNL A   1      39.003  26.494  28.505  1.00  0.00     0.031 C 
ATOM     44  C   UNL A   1      43.119  24.839  26.125  1.00  0.00     0.029 A 
ATOM     45  N   UNL A   1      43.250  26.824  27.143  1.00  0.00    -0.354 N 
ATOM     46  C   UNL A   1      39.824  28.530  29.145  1.00  0.00     0.074 A 
ATOM     47  C   UNL A   1      38.677  27.655  29.054  1.00  0.00     0.031 C 
ATOM     48  C   UNL A   1      44.344  25.333  25.887  1.00  0.00     0.029 A 
ATOM     49  C   UNL A   1      44.459  26.646  26.513  1.00  0.00     0.049 A 
ATOM     50  H   UNL A   1      43.035  27.621  27.682  1.00  0.00     0.167 HD
ATOM     51  C   UNL A   1      39.817  29.734  29.764  1.00  0.00     0.034 A 
ATOM     52  C   UNL A   1      45.536  27.452  26.441  1.00  0.00     0.034 A 
ATOM     53  C   UNL A   1      40.970  30.584  29.886  1.00  0.00     0.049 A 
ATOM     54  C   UNL A   1      45.514  28.769  27.168  1.00  0.00     0.074 A 
ATOM     55  C   UNL A   1      41.087  31.784  30.564  1.00  0.00     0.029 A 
ATOM     56  N   UNL A   1      42.205  30.329  29.308  1.00  0.00    -0.354 N 
ATOM     57  N   UNL A   1      44.554  29.298  27.886  1.00  0.00    -0.248 NA
ATOM     58  C   UNL A   1      46.737  29.582  27.109  1.00  0.00     0.031 C 
ATOM     59  C   UNL A   1      42.386  32.267  30.377  1.00  0.00     0.029 A 
ATOM     60  C   UNL A   1      43.088  31.353  29.608  1.00  0.00     0.049 A 
ATOM     61  H   UNL A   1      42.422  29.538  28.766  1.00  0.00     0.167 HD
ATOM     62  C   UNL A   1      45.066  30.487  28.392  1.00  0.00     0.074 A 
ATOM     63  C   UNL A   1      46.431  30.589  27.916  1.00  0.00     0.031 C 
ATOM     64  C   UNL A   1      44.459  31.417  29.170  1.00  0.00     0.034 A 
BRANCH  51  65
ATOM     65  C   UNL A   1      38.528  30.183  30.406  1.00  0.00     0.023 A 
ATOM     66  C   UNL A   1      38.240  29.792  31.730  1.00  0.00     0.012 A 
ATOM     67  C   UNL A   1      37.634  31.032  29.727  1.00  0.00     0.148 A 
ATOM     68  C   UNL A   1      37.064  30.209  32.354  1.00  0.00     0.002 A 
ATOM     69  C   UNL A   1      36.487  31.480  30.372  1.00  0.00     0.091 A 
ATOM     70  F   UNL A   1      37.914  31.376  28.462  1.00  0.00    -0.205 F 
ATOM     71  C   UNL A   1      36.195  31.060  31.679  1.00  0.00     0.022 A 
BRANCH  69  72
ATOM     72  S   UNL A   1      35.343  32.643  29.619  1.00  0.00     0.127 S 
ATOM     73  O   UNL A   1      34.853  31.875  28.474  1.00  0.00    -0.237 OA
ATOM     74  O   UNL A   1      34.360  32.841  30.685  1.00  0.00    -0.237 OA
ATOM     75  O   UNL A   1      36.128  33.824  29.289  1.00  0.00    -0.744 OA
ENDBRANCH  69  72
ENDBRANCH  51  65
BRANCH  52  76
ATOM     76  C   UNL A   1      46.748  27.006  25.697  1.00  0.00     0.023 A 
ATOM     77  C   UNL A   1      47.598  26.042  26.272  1.00  0.00     0.012 A 
ATOM     78  C   UNL A   1      47.048  27.509  24.416  1.00  0.00     0.148 A 
ATOM     79  C   UNL A   1      48.742  25.609  25.600  1.00  0.00     0.002 A 
ATOM     80  C   UNL A   1      48.157  27.031  23.727  1.00  0.00     0.091 A 
ATOM     81  F   UNL A   1      46.231  28.433  23.890  1.00  0.00    -0.205 F 
ATOM     82  C   UNL A   1      49.016  26.096  24.324  1.00  0.00     0.022 A 
BRANCH  80  83
ATOM     83  S   UNL A   1      48.510  27.501  22.030  1.00  0.00     0.127 S 
ATOM     84  O   UNL A   1      49.761  28.240  22.178  1.00  0.00    -0.237 OA
ATOM     85  O   UNL A   1      48.636  26.198  21.377  1.00  0.00    -0.237 OA
ATOM     86  O   UNL A   1      47.361  28.281  21.590  1.00  0.00    -0.744 OA
ENDBRANCH  80  83
ENDBRANCH  52  76
BRANCH  64  87
ATOM     87  C   UNL A   1      45.270  32.614  29.592  1.00  0.00     0.023 A 
ATOM     88  C   UNL A   1      46.038  32.562  30.772  1.00  0.00     0.012 A 
ATOM     89  C   UNL A   1      45.330  33.762  28.778  1.00  0.00     0.148 A 
ATOM     90  C   UNL A   1      46.825  33.647  31.153  1.00  0.00     0.002 A 
ATOM     91  C   UNL A   1      46.155  34.820  29.137  1.00  0.00     0.091 A 
ATOM     92  F   UNL A   1      44.577  33.799  27.668  1.00  0.00    -0.205 F 
ATOM     93  C   UNL A   1      46.894  34.770  30.330  1.00  0.00     0.022 A 
BRANCH  91  94
ATOM     94  S   UNL A   1      46.383  36.263  28.091  1.00  0.00     0.127 S 
ATOM     95  O   UNL A   1      46.868  35.658  26.852  1.00  0.00    -0.237 OA
ATOM     96  O   UNL A   1      45.026  36.806  28.015  1.00  0.00    -0.237 OA
ATOM     97  O   UNL A   1      47.337  37.116  28.786  1.00  0.00    -0.744 OA
ENDBRANCH  91  94
ENDBRANCH  64  87
ENDBRANCH  38  39
ENDBRANCH  30  33
ENDBRANCH  28  29
ENDBRANCH  27  28
ENDBRANCH  26  27
ENDBRANCH   1  26
TORSDOF 21
ENDMDL
