MODEL 1
REMARK VINA RESULT:     -12.6      0.000      0.000
REMARK SMILES COc1ccc(-c2nc3cc(N4C[C@@H](C(=O)NCCCCCCNC(=O)c5ccc(-c6c7nc(c(-c8cccc(S(=O)(=O)[O-])c8F)c8ccc([nH]8)c(-c8cccc(S(=O)(=O)[O-])c8F)c8nc(c(-c9cccc(S(=O)(=O)[O-])c9F)c9ccc6[nH]9)C=C8)C=C7)cc5)CC4=O)ccc3o2)cc1
REMARK SMILES IDX 20 1 19 2 18 3 17 4 15 5 16 6 14 8 12 9 13 10 91 11 90 12
REMARK SMILES IDX 92 13 11 14 7 15 8 16 96 17 9 18 95 19 10 20 94 21 93 22
REMARK SMILES IDX 6 23 3 24 4 25 98 26 5 27 97 28 2 29 1 30 21 31 22 32 23 33
REMARK SMILES IDX 24 34 25 35 26 37 27 38 28 39 89 40 29 41 88 42 30 43 31 44
REMARK SMILES IDX 32 45 82 46 33 47 87 48 81 49 83 50 34 51 86 52 80 53 79 54
REMARK SMILES IDX 35 56 67 57 47 58 66 59 48 60 51 61 65 62 84 63 49 64 50 65
REMARK SMILES IDX 64 67 85 68 52 69 36 70 37 71 45 72 38 73 40 74 46 75 39 76
REMARK SMILES IDX 41 77 42 78 43 79 44 80 68 81 69 82 77 83 70 84 72 85 78 86
REMARK SMILES IDX 71 87 73 88 74 89 75 90 76 91 53 92 54 93 62 94 55 95 57 96
REMARK SMILES IDX 63 97 56 98 58 99 59 100 60 101 61 102
REMARK H PARENT 17 7 24 36 83 55 51 66
REMARK Flexibility Score: inf
ROOT
ATOM      1  C   UNL A   1      35.602  21.072  25.351  1.00  0.00     0.002 C 
ENDROOT
BRANCH   1   2
ATOM      2  C   UNL A   1      34.723  19.964  24.760  1.00  0.00     0.021 C 
BRANCH   2   3
ATOM      3  C   UNL A   1      33.228  20.172  24.992  1.00  0.00     0.116 C 
BRANCH   3   4
ATOM      4  N   UNL A   1      32.517  20.228  23.727  1.00  0.00    -0.356 N 
ATOM      5  C   UNL A   1      32.270  21.259  22.883  1.00  0.00     0.225 C 
ATOM      6  O   UNL A   1      31.578  21.033  21.887  1.00  0.00    -0.275 OA
ATOM      7  H   UNL A   1      32.149  19.364  23.429  1.00  0.00     0.163 HD
BRANCH   5   8
ATOM      8  C   UNL A   1      32.874  22.629  23.085  1.00  0.00     0.107 C 
ATOM      9  N   UNL A   1      32.120  24.856  22.978  1.00  0.00    -0.312 N 
ATOM     10  C   UNL A   1      31.837  23.595  23.615  1.00  0.00     0.139 C 
ATOM     11  C   UNL A   1      32.996  24.720  21.898  1.00  0.00     0.227 C 
ATOM     12  C   UNL A   1      33.503  23.295  21.874  1.00  0.00     0.116 C 
ATOM     13  O   UNL A   1      33.387  25.574  21.126  1.00  0.00    -0.274 OA
BRANCH   9  14
ATOM     14  C   UNL A   1      31.611  26.085  23.466  1.00  0.00     0.046 A 
ATOM     15  C   UNL A   1      31.784  29.755  25.953  1.00  0.00     0.227 A 
ATOM     16  N   UNL A   1      32.240  28.537  26.164  1.00  0.00    -0.209 NA
ATOM     17  O   UNL A   1      30.936  29.887  24.881  1.00  0.00    -0.436 OA
ATOM     18  C   UNL A   1      31.755  27.836  25.106  1.00  0.00     0.112 A 
ATOM     19  C   UNL A   1      30.959  28.637  24.311  1.00  0.00     0.155 A 
ATOM     20  C   UNL A   1      32.042  26.528  24.723  1.00  0.00     0.058 A 
ATOM     21  C   UNL A   1      30.387  28.206  23.122  1.00  0.00     0.051 A 
ATOM     22  C   UNL A   1      30.772  26.915  22.696  1.00  0.00     0.030 A 
BRANCH  15  23
ATOM     23  C   UNL A   1      32.302  30.959  26.578  1.00  0.00     0.037 A 
ATOM     24  C   UNL A   1      33.350  33.111  28.052  1.00  0.00     0.118 A 
ATOM     25  C   UNL A   1      32.118  33.223  27.395  1.00  0.00     0.047 A 
ATOM     26  C   UNL A   1      34.071  31.925  27.950  1.00  0.00     0.047 A 
ATOM     27  C   UNL A   1      31.596  32.158  26.647  1.00  0.00     0.017 A 
ATOM     28  C   UNL A   1      33.545  30.859  27.225  1.00  0.00     0.017 A 
BRANCH  24  29
ATOM     29  O   UNL A   1      33.731  34.206  28.781  1.00  0.00    -0.497 OA
ATOM     30  C   UNL A   1      34.401  33.943  30.009  1.00  0.00     0.278 C 
ENDBRANCH  24  29
ENDBRANCH  15  23
ENDBRANCH   9  14
ENDBRANCH   5   8
ENDBRANCH   3   4
ENDBRANCH   2   3
ENDBRANCH   1   2
BRANCH   1  31
ATOM     31  C   UNL A   1      36.980  21.222  24.698  1.00  0.00     0.002 C 
BRANCH  31  32
ATOM     32  C   UNL A   1      37.956  20.077  24.973  1.00  0.00     0.021 C 
BRANCH  32  33
ATOM     33  C   UNL A   1      39.115  20.436  25.896  1.00  0.00     0.116 C 
BRANCH  33  34
ATOM     34  N   UNL A   1      40.109  19.377  25.964  1.00  0.00    -0.352 N 
ATOM     35  C   UNL A   1      41.471  19.478  26.092  1.00  0.00     0.251 C 
ATOM     36  H   UNL A   1      39.755  18.459  25.912  1.00  0.00     0.163 HD
ATOM     37  O   UNL A   1      42.178  18.484  25.948  1.00  0.00    -0.269 OA
BRANCH  35  38
ATOM     38  C   UNL A   1      42.085  20.791  26.385  1.00  0.00     0.039 A 
ATOM     39  C   UNL A   1      42.439  21.626  25.322  1.00  0.00     0.014 A 
ATOM     40  C   UNL A   1      42.311  21.197  27.704  1.00  0.00     0.014 A 
ATOM     41  C   UNL A   1      42.973  22.890  25.583  1.00  0.00     0.010 A 
ATOM     42  C   UNL A   1      42.776  22.483  27.961  1.00  0.00     0.010 A 
ATOM     43  C   UNL A   1      43.122  23.339  26.905  1.00  0.00    -0.014 A 
BRANCH  43  44
ATOM     44  C   UNL A   1      43.636  24.700  27.205  1.00  0.00     0.031 A 
ATOM     45  C   UNL A   1      42.702  25.768  27.705  1.00  0.00     0.074 A 
ATOM     46  C   UNL A   1      44.925  24.996  26.948  1.00  0.00     0.049 A 
ATOM     47  N   UNL A   1      42.952  27.025  27.966  1.00  0.00    -0.248 NA
ATOM     48  C   UNL A   1      41.297  25.381  27.915  1.00  0.00     0.031 C 
ATOM     49  C   UNL A   1      45.912  24.069  26.390  1.00  0.00     0.029 A 
ATOM     50  N   UNL A   1      45.620  26.170  27.095  1.00  0.00    -0.354 N 
ATOM     51  C   UNL A   1      41.734  27.586  28.335  1.00  0.00     0.074 A 
ATOM     52  C   UNL A   1      40.739  26.541  28.229  1.00  0.00     0.031 C 
ATOM     53  C   UNL A   1      47.085  24.707  26.248  1.00  0.00     0.029 A 
ATOM     54  C   UNL A   1      46.929  26.094  26.675  1.00  0.00     0.049 A 
ATOM     55  H   UNL A   1      45.221  26.990  27.466  1.00  0.00     0.167 HD
ATOM     56  C   UNL A   1      41.472  28.847  28.754  1.00  0.00     0.034 A 
ATOM     57  C   UNL A   1      47.891  27.036  26.635  1.00  0.00     0.034 A 
ATOM     58  C   UNL A   1      42.471  29.870  28.901  1.00  0.00     0.049 A 
ATOM     59  C   UNL A   1      47.583  28.419  27.143  1.00  0.00     0.074 A 
ATOM     60  C   UNL A   1      42.323  31.153  29.396  1.00  0.00     0.029 A 
ATOM     61  N   UNL A   1      43.805  29.730  28.549  1.00  0.00    -0.354 N 
ATOM     62  N   UNL A   1      46.461  28.886  27.635  1.00  0.00    -0.248 NA
ATOM     63  C   UNL A   1      48.683  29.394  27.125  1.00  0.00     0.031 C 
ATOM     64  C   UNL A   1      43.563  31.795  29.326  1.00  0.00     0.029 A 
ATOM     65  C   UNL A   1      44.490  30.903  28.810  1.00  0.00     0.049 A 
ATOM     66  H   UNL A   1      44.205  28.915  28.168  1.00  0.00     0.167 HD
ATOM     67  C   UNL A   1      46.730  30.194  28.023  1.00  0.00     0.074 A 
ATOM     68  C   UNL A   1      48.126  30.438  27.724  1.00  0.00     0.031 C 
ATOM     69  C   UNL A   1      45.894  31.115  28.563  1.00  0.00     0.034 A 
BRANCH  56  70
ATOM     70  C   UNL A   1      40.053  29.172  29.142  1.00  0.00     0.023 A 
ATOM     71  C   UNL A   1      39.111  29.474  28.137  1.00  0.00     0.012 A 
ATOM     72  C   UNL A   1      39.636  29.129  30.487  1.00  0.00     0.148 A 
ATOM     73  C   UNL A   1      37.787  29.767  28.464  1.00  0.00     0.002 A 
ATOM     74  C   UNL A   1      38.304  29.377  30.803  1.00  0.00     0.091 A 
ATOM     75  F   UNL A   1      40.547  28.861  31.432  1.00  0.00    -0.205 F 
ATOM     76  C   UNL A   1      37.382  29.709  29.795  1.00  0.00     0.022 A 
BRANCH  74  77
ATOM     77  S   UNL A   1      37.666  29.249  32.477  1.00  0.00     0.127 S 
ATOM     78  O   UNL A   1      38.561  30.150  33.203  1.00  0.00    -0.237 OA
ATOM     79  O   UNL A   1      36.297  29.744  32.324  1.00  0.00    -0.237 OA
ATOM     80  O   UNL A   1      37.766  27.842  32.837  1.00  0.00    -0.744 OA
ENDBRANCH  74  77
ENDBRANCH  56  70
BRANCH  57  81
ATOM     81  C   UNL A   1      49.261  26.681  26.166  1.00  0.00     0.023 A 
ATOM     82  C   UNL A   1      50.074  25.862  26.974  1.00  0.00     0.012 A 
ATOM     83  C   UNL A   1      49.751  27.123  24.922  1.00  0.00     0.148 A 
ATOM     84  C   UNL A   1      51.363  25.515  26.566  1.00  0.00     0.002 A 
ATOM     85  C   UNL A   1      51.015  26.728  24.497  1.00  0.00     0.091 A 
ATOM     86  F   UNL A   1      48.966  27.911  24.173  1.00  0.00    -0.205 F 
ATOM     87  C   UNL A   1      51.829  25.940  25.325  1.00  0.00     0.022 A 
BRANCH  85  88
ATOM     88  S   UNL A   1      51.646  27.118  22.861  1.00  0.00     0.127 S 
ATOM     89  O   UNL A   1      52.877  26.335  22.821  1.00  0.00    -0.237 OA
ATOM     90  O   UNL A   1      50.571  26.626  21.997  1.00  0.00    -0.237 OA
ATOM     91  O   UNL A   1      51.814  28.565  22.839  1.00  0.00    -0.744 OA
ENDBRANCH  85  88
ENDBRANCH  57  81
BRANCH  69  92
ATOM     92  C   UNL A   1      46.467  32.463  28.910  1.00  0.00     0.023 A 
ATOM     93  C   UNL A   1      47.081  32.665  30.161  1.00  0.00     0.012 A 
ATOM     94  C   UNL A   1      46.464  33.508  27.963  1.00  0.00     0.148 A 
ATOM     95  C   UNL A   1      47.655  33.896  30.478  1.00  0.00     0.002 A 
ATOM     96  C   UNL A   1      47.081  34.715  28.268  1.00  0.00     0.091 A 
ATOM     97  F   UNL A   1      45.856  33.303  26.785  1.00  0.00    -0.205 F 
ATOM     98  C   UNL A   1      47.667  34.914  29.528  1.00  0.00     0.022 A 
BRANCH  96  99
ATOM     99  S   UNL A   1      47.230  36.048  27.073  1.00  0.00     0.127 S 
ATOM    100  O   UNL A   1      48.399  36.768  27.574  1.00  0.00    -0.237 OA
ATOM    101  O   UNL A   1      47.450  35.322  25.822  1.00  0.00    -0.237 OA
ATOM    102  O   UNL A   1      45.971  36.780  27.130  1.00  0.00    -0.744 OA
ENDBRANCH  96  99
ENDBRANCH  69  92
ENDBRANCH  43  44
ENDBRANCH  35  38
ENDBRANCH  33  34
ENDBRANCH  32  33
ENDBRANCH  31  32
ENDBRANCH   1  31
TORSDOF 19
ENDMDL
MODEL 2
REMARK VINA RESULT:     -12.3      2.305      7.955
REMARK SMILES COc1ccc(-c2nc3cc(N4C[C@@H](C(=O)NCCCCCCNC(=O)c5ccc(-c6c7nc(c(-c8cccc(S(=O)(=O)[O-])c8F)c8ccc([nH]8)c(-c8cccc(S(=O)(=O)[O-])c8F)c8nc(c(-c9cccc(S(=O)(=O)[O-])c9F)c9ccc6[nH]9)C=C8)C=C7)cc5)CC4=O)ccc3o2)cc1
REMARK SMILES IDX 20 1 19 2 18 3 17 4 15 5 16 6 14 8 12 9 13 10 91 11 90 12
REMARK SMILES IDX 92 13 11 14 7 15 8 16 96 17 9 18 95 19 10 20 94 21 93 22
REMARK SMILES IDX 6 23 3 24 4 25 98 26 5 27 97 28 2 29 1 30 21 31 22 32 23 33
REMARK SMILES IDX 24 34 25 35 26 37 27 38 28 39 89 40 29 41 88 42 30 43 31 44
REMARK SMILES IDX 32 45 82 46 33 47 87 48 81 49 83 50 34 51 86 52 80 53 79 54
REMARK SMILES IDX 35 56 67 57 47 58 66 59 48 60 51 61 65 62 84 63 49 64 50 65
REMARK SMILES IDX 64 67 85 68 52 69 36 70 37 71 45 72 38 73 40 74 46 75 39 76
REMARK SMILES IDX 41 77 42 78 43 79 44 80 68 81 69 82 77 83 70 84 72 85 78 86
REMARK SMILES IDX 71 87 73 88 74 89 75 90 76 91 53 92 54 93 62 94 55 95 57 96
REMARK SMILES IDX 63 97 56 98 58 99 59 100 60 101 61 102
REMARK H PARENT 17 7 24 36 83 55 51 66
REMARK Flexibility Score: inf
ROOT
ATOM      1  C   UNL A   1      34.587  24.347  25.299  1.00  0.00     0.002 C 
ENDROOT
BRANCH   1   2
ATOM      2  C   UNL A   1      33.566  23.519  26.087  1.00  0.00     0.021 C 
BRANCH   2   3
ATOM      3  C   UNL A   1      32.310  23.169  25.292  1.00  0.00     0.116 C 
BRANCH   3   4
ATOM      4  N   UNL A   1      31.137  23.780  25.893  1.00  0.00    -0.356 N 
ATOM      5  C   UNL A   1      30.772  25.078  26.024  1.00  0.00     0.225 C 
ATOM      6  O   UNL A   1      29.732  25.323  26.640  1.00  0.00    -0.275 OA
ATOM      7  H   UNL A   1      30.494  23.138  26.272  1.00  0.00     0.163 HD
BRANCH   5   8
ATOM      8  C   UNL A   1      31.547  26.204  25.379  1.00  0.00     0.107 C 
ATOM      9  N   UNL A   1      32.192  28.387  25.973  1.00  0.00    -0.312 N 
ATOM     10  C   UNL A   1      32.269  27.022  26.428  1.00  0.00     0.139 C 
ATOM     11  C   UNL A   1      31.257  28.555  24.949  1.00  0.00     0.227 C 
ATOM     12  C   UNL A   1      30.762  27.188  24.529  1.00  0.00     0.116 C 
ATOM     13  O   UNL A   1      30.918  29.580  24.392  1.00  0.00    -0.274 OA
BRANCH   9  14
ATOM     14  C   UNL A   1      33.039  29.404  26.480  1.00  0.00     0.046 A 
ATOM     15  C   UNL A   1      33.840  33.298  28.451  1.00  0.00     0.227 A 
ATOM     16  N   UNL A   1      32.864  32.908  27.656  1.00  0.00    -0.209 NA
ATOM     17  O   UNL A   1      34.906  32.436  28.537  1.00  0.00    -0.436 OA
ATOM     18  C   UNL A   1      33.251  31.662  27.277  1.00  0.00     0.112 A 
ATOM     19  C   UNL A   1      34.491  31.353  27.802  1.00  0.00     0.155 A 
ATOM     20  C   UNL A   1      32.536  30.709  26.557  1.00  0.00     0.058 A 
ATOM     21  C   UNL A   1      35.105  30.119  27.638  1.00  0.00     0.051 A 
ATOM     22  C   UNL A   1      34.322  29.133  26.996  1.00  0.00     0.030 A 
BRANCH  15  23
ATOM     23  C   UNL A   1      33.753  34.391  29.402  1.00  0.00     0.037 A 
ATOM     24  C   UNL A   1      33.465  36.293  31.451  1.00  0.00     0.118 A 
ATOM     25  C   UNL A   1      32.932  36.525  30.177  1.00  0.00     0.047 A 
ATOM     26  C   UNL A   1      34.166  35.116  31.693  1.00  0.00     0.047 A 
ATOM     27  C   UNL A   1      33.084  35.586  29.146  1.00  0.00     0.017 A 
ATOM     28  C   UNL A   1      34.300  34.173  30.677  1.00  0.00     0.017 A 
BRANCH  24  29
ATOM     29  O   UNL A   1      33.215  37.268  32.380  1.00  0.00    -0.497 OA
ATOM     30  C   UNL A   1      33.748  37.049  33.682  1.00  0.00     0.278 C 
ENDBRANCH  24  29
ENDBRANCH  15  23
ENDBRANCH   9  14
ENDBRANCH   5   8
ENDBRANCH   3   4
ENDBRANCH   2   3
ENDBRANCH   1   2
BRANCH   1  31
ATOM     31  C   UNL A   1      35.211  23.632  24.097  1.00  0.00     0.002 C 
BRANCH  31  32
ATOM     32  C   UNL A   1      36.222  22.538  24.446  1.00  0.00     0.021 C 
BRANCH  32  33
ATOM     33  C   UNL A   1      37.050  22.813  25.697  1.00  0.00     0.116 C 
BRANCH  33  34
ATOM     34  N   UNL A   1      37.942  21.709  26.016  1.00  0.00    -0.352 N 
ATOM     35  C   UNL A   1      39.259  21.747  26.400  1.00  0.00     0.251 C 
ATOM     36  H   UNL A   1      37.547  20.810  25.946  1.00  0.00     0.163 HD
ATOM     37  O   UNL A   1      39.914  20.710  26.452  1.00  0.00    -0.269 OA
BRANCH  35  38
ATOM     38  C   UNL A   1      39.889  23.044  26.734  1.00  0.00     0.039 A 
ATOM     39  C   UNL A   1      40.796  23.102  27.795  1.00  0.00     0.014 A 
ATOM     40  C   UNL A   1      39.585  24.196  26.003  1.00  0.00     0.014 A 
ATOM     41  C   UNL A   1      41.437  24.307  28.091  1.00  0.00     0.010 A 
ATOM     42  C   UNL A   1      40.278  25.376  26.254  1.00  0.00     0.010 A 
ATOM     43  C   UNL A   1      41.203  25.448  27.307  1.00  0.00    -0.014 A 
BRANCH  43  44
ATOM     44  C   UNL A   1      41.915  26.725  27.569  1.00  0.00     0.031 A 
ATOM     45  C   UNL A   1      43.353  26.887  27.158  1.00  0.00     0.074 A 
ATOM     46  C   UNL A   1      41.293  27.706  28.252  1.00  0.00     0.049 A 
ATOM     47  N   UNL A   1      44.156  27.901  27.353  1.00  0.00    -0.248 NA
ATOM     48  C   UNL A   1      43.980  25.752  26.460  1.00  0.00     0.031 C 
ATOM     49  C   UNL A   1      39.925  27.640  28.771  1.00  0.00     0.029 A 
ATOM     50  N   UNL A   1      41.739  28.941  28.651  1.00  0.00    -0.354 N 
ATOM     51  C   UNL A   1      45.388  27.515  26.836  1.00  0.00     0.074 A 
ATOM     52  C   UNL A   1      45.236  26.159  26.353  1.00  0.00     0.031 C 
ATOM     53  C   UNL A   1      39.642  28.785  29.414  1.00  0.00     0.029 A 
ATOM     54  C   UNL A   1      40.815  29.653  29.379  1.00  0.00     0.049 A 
ATOM     55  H   UNL A   1      42.637  29.285  28.435  1.00  0.00     0.167 HD
ATOM     56  C   UNL A   1      46.533  28.232  26.743  1.00  0.00     0.034 A 
ATOM     57  C   UNL A   1      40.904  30.867  29.958  1.00  0.00     0.034 A 
ATOM     58  C   UNL A   1      46.668  29.593  27.184  1.00  0.00     0.049 A 
ATOM     59  C   UNL A   1      42.175  31.659  29.806  1.00  0.00     0.074 A 
ATOM     60  C   UNL A   1      47.759  30.434  27.059  1.00  0.00     0.029 A 
ATOM     61  N   UNL A   1      45.681  30.314  27.839  1.00  0.00    -0.354 N 
ATOM     62  N   UNL A   1      43.278  31.334  29.176  1.00  0.00    -0.248 NA
ATOM     63  C   UNL A   1      42.200  32.997  30.412  1.00  0.00     0.031 C 
ATOM     64  C   UNL A   1      47.439  31.658  27.656  1.00  0.00     0.029 A 
ATOM     65  C   UNL A   1      46.138  31.587  28.131  1.00  0.00     0.049 A 
ATOM     66  H   UNL A   1      44.786  29.970  28.064  1.00  0.00     0.167 HD
ATOM     67  C   UNL A   1      44.113  32.442  29.275  1.00  0.00     0.074 A 
ATOM     68  C   UNL A   1      43.380  33.452  30.010  1.00  0.00     0.031 C 
ATOM     69  C   UNL A   1      45.377  32.604  28.811  1.00  0.00     0.034 A 
BRANCH  56  70
ATOM     70  C   UNL A   1      47.717  27.572  26.083  1.00  0.00     0.023 A 
ATOM     71  C   UNL A   1      47.949  27.779  24.708  1.00  0.00     0.012 A 
ATOM     72  C   UNL A   1      48.627  26.795  26.827  1.00  0.00     0.148 A 
ATOM     73  C   UNL A   1      49.043  27.192  24.073  1.00  0.00     0.002 A 
ATOM     74  C   UNL A   1      49.741  26.250  26.197  1.00  0.00     0.091 A 
ATOM     75  F   UNL A   1      48.381  26.591  28.128  1.00  0.00    -0.205 F 
ATOM     76  C   UNL A   1      49.944  26.437  24.819  1.00  0.00     0.022 A 
BRANCH  74  77
ATOM     77  S   UNL A   1      51.001  25.328  27.085  1.00  0.00     0.127 S 
ATOM     78  O   UNL A   1      51.811  24.802  25.987  1.00  0.00    -0.237 OA
ATOM     79  O   UNL A   1      51.651  26.376  27.874  1.00  0.00    -0.237 OA
ATOM     80  O   UNL A   1      50.288  24.332  27.872  1.00  0.00    -0.744 OA
ENDBRANCH  74  77
ENDBRANCH  56  70
BRANCH  57  81
ATOM     81  C   UNL A   1      39.725  31.441  30.669  1.00  0.00     0.023 A 
ATOM     82  C   UNL A   1      38.713  32.075  29.922  1.00  0.00     0.012 A 
ATOM     83  C   UNL A   1      39.588  31.341  32.066  1.00  0.00     0.148 A 
ATOM     84  C   UNL A   1      37.599  32.627  30.557  1.00  0.00     0.002 A 
ATOM     85  C   UNL A   1      38.450  31.844  32.687  1.00  0.00     0.091 A 
ATOM     86  F   UNL A   1      40.567  30.744  32.760  1.00  0.00    -0.205 F 
ATOM     87  C   UNL A   1      37.464  32.503  31.937  1.00  0.00     0.022 A 
BRANCH  85  88
ATOM     88  S   UNL A   1      38.127  31.614  34.439  1.00  0.00     0.127 S 
ATOM     89  O   UNL A   1      38.239  30.165  34.576  1.00  0.00    -0.237 OA
ATOM     90  O   UNL A   1      39.215  32.379  35.050  1.00  0.00    -0.237 OA
ATOM     91  O   UNL A   1      36.801  32.172  34.670  1.00  0.00    -0.744 OA
ENDBRANCH  85  88
ENDBRANCH  57  81
BRANCH  69  92
ATOM     92  C   UNL A   1      46.043  33.933  29.044  1.00  0.00     0.023 A 
ATOM     93  C   UNL A   1      46.858  34.122  30.177  1.00  0.00     0.012 A 
ATOM     94  C   UNL A   1      45.922  34.972  28.098  1.00  0.00     0.148 A 
ATOM     95  C   UNL A   1      47.517  35.334  30.383  1.00  0.00     0.002 A 
ATOM     96  C   UNL A   1      46.620  36.159  28.285  1.00  0.00     0.091 A 
ATOM     97  F   UNL A   1      45.125  34.780  27.036  1.00  0.00    -0.205 F 
ATOM     98  C   UNL A   1      47.409  36.346  29.431  1.00  0.00     0.022 A 
BRANCH  96  99
ATOM     99  S   UNL A   1      46.617  37.478  27.066  1.00  0.00     0.127 S 
ATOM    100  O   UNL A   1      47.117  36.787  25.878  1.00  0.00    -0.237 OA
ATOM    101  O   UNL A   1      45.203  37.845  27.008  1.00  0.00    -0.237 OA
ATOM    102  O   UNL A   1      47.488  38.518  27.598  1.00  0.00    -0.744 OA
ENDBRANCH  96  99
ENDBRANCH  69  92
ENDBRANCH  43  44
ENDBRANCH  35  38
ENDBRANCH  33  34
ENDBRANCH  32  33
ENDBRANCH  31  32
ENDBRANCH   1  31
TORSDOF 19
ENDMDL
MODEL 3
REMARK VINA RESULT:     -11.7      1.648      2.185
REMARK SMILES COc1ccc(-c2nc3cc(N4C[C@@H](C(=O)NCCCCCCNC(=O)c5ccc(-c6c7nc(c(-c8cccc(S(=O)(=O)[O-])c8F)c8ccc([nH]8)c(-c8cccc(S(=O)(=O)[O-])c8F)c8nc(c(-c9cccc(S(=O)(=O)[O-])c9F)c9ccc6[nH]9)C=C8)C=C7)cc5)CC4=O)ccc3o2)cc1
REMARK SMILES IDX 20 1 19 2 18 3 17 4 15 5 16 6 14 8 12 9 13 10 91 11 90 12
REMARK SMILES IDX 92 13 11 14 7 15 8 16 96 17 9 18 95 19 10 20 94 21 93 22
REMARK SMILES IDX 6 23 3 24 4 25 98 26 5 27 97 28 2 29 1 30 21 31 22 32 23 33
REMARK SMILES IDX 24 34 25 35 26 37 27 38 28 39 89 40 29 41 88 42 30 43 31 44
REMARK SMILES IDX 32 45 82 46 33 47 87 48 81 49 83 50 34 51 86 52 80 53 79 54
REMARK SMILES IDX 35 56 67 57 47 58 66 59 48 60 51 61 65 62 84 63 49 64 50 65
REMARK SMILES IDX 64 67 85 68 52 69 36 70 37 71 45 72 38 73 40 74 46 75 39 76
REMARK SMILES IDX 41 77 42 78 43 79 44 80 68 81 69 82 77 83 70 84 72 85 78 86
REMARK SMILES IDX 71 87 73 88 74 89 75 90 76 91 53 92 54 93 62 94 55 95 57 96
REMARK SMILES IDX 63 97 56 98 58 99 59 100 60 101 61 102
REMARK H PARENT 17 7 24 36 83 55 51 66
REMARK Flexibility Score: inf
ROOT
ATOM      1  C   UNL A   1      36.616  21.839  24.462  1.00  0.00     0.002 C 
ENDROOT
BRANCH   1   2
ATOM      2  C   UNL A   1      35.501  20.860  24.847  1.00  0.00     0.021 C 
BRANCH   2   3
ATOM      3  C   UNL A   1      34.285  21.529  25.486  1.00  0.00     0.116 C 
BRANCH   3   4
ATOM      4  N   UNL A   1      33.248  21.757  24.495  1.00  0.00    -0.356 N 
ATOM      5  C   UNL A   1      32.855  22.884  23.853  1.00  0.00     0.225 C 
ATOM      6  O   UNL A   1      31.890  22.802  23.088  1.00  0.00    -0.275 OA
ATOM      7  H   UNL A   1      32.740  20.951  24.246  1.00  0.00     0.163 HD
BRANCH   5   8
ATOM      8  C   UNL A   1      33.602  24.190  23.985  1.00  0.00     0.107 C 
ATOM      9  N   UNL A   1      33.050  26.428  24.456  1.00  0.00    -0.312 N 
ATOM     10  C   UNL A   1      32.919  25.095  24.987  1.00  0.00     0.139 C 
ATOM     11  C   UNL A   1      33.449  26.431  23.117  1.00  0.00     0.227 C 
ATOM     12  C   UNL A   1      33.791  25.011  22.721  1.00  0.00     0.116 C 
ATOM     13  O   UNL A   1      33.596  27.379  22.371  1.00  0.00    -0.274 OA
BRANCH   9  14
ATOM     14  C   UNL A   1      32.861  27.585  25.254  1.00  0.00     0.046 A 
ATOM     15  C   UNL A   1      34.197  30.711  28.105  1.00  0.00     0.227 A 
ATOM     16  N   UNL A   1      34.529  29.442  27.985  1.00  0.00    -0.209 NA
ATOM     17  O   UNL A   1      33.109  31.105  27.365  1.00  0.00    -0.436 OA
ATOM     18  C   UNL A   1      33.683  28.989  27.024  1.00  0.00     0.112 A 
ATOM     19  C   UNL A   1      32.809  29.984  26.630  1.00  0.00     0.155 A 
ATOM     20  C   UNL A   1      33.678  27.754  26.379  1.00  0.00     0.058 A 
ATOM     21  C   UNL A   1      31.879  29.826  25.612  1.00  0.00     0.051 A 
ATOM     22  C   UNL A   1      31.959  28.608  24.901  1.00  0.00     0.030 A 
BRANCH  15  23
ATOM     23  C   UNL A   1      35.021  31.733  28.724  1.00  0.00     0.037 A 
ATOM     24  C   UNL A   1      36.869  33.561  29.795  1.00  0.00     0.118 A 
ATOM     25  C   UNL A   1      35.921  32.935  30.615  1.00  0.00     0.047 A 
ATOM     26  C   UNL A   1      36.875  33.289  28.430  1.00  0.00     0.047 A 
ATOM     27  C   UNL A   1      34.988  32.033  30.084  1.00  0.00     0.017 A 
ATOM     28  C   UNL A   1      35.963  32.377  27.905  1.00  0.00     0.017 A 
BRANCH  24  29
ATOM     29  O   UNL A   1      37.749  34.389  30.439  1.00  0.00    -0.497 OA
ATOM     30  C   UNL A   1      38.966  34.669  29.755  1.00  0.00     0.278 C 
ENDBRANCH  24  29
ENDBRANCH  15  23
ENDBRANCH   9  14
ENDBRANCH   5   8
ENDBRANCH   3   4
ENDBRANCH   2   3
ENDBRANCH   1   2
BRANCH   1  31
ATOM     31  C   UNL A   1      37.837  21.824  25.387  1.00  0.00     0.002 C 
BRANCH  31  32
ATOM     32  C   UNL A   1      38.717  20.576  25.279  1.00  0.00     0.021 C 
BRANCH  32  33
ATOM     33  C   UNL A   1      39.695  20.386  26.434  1.00  0.00     0.116 C 
BRANCH  33  34
ATOM     34  N   UNL A   1      40.760  19.454  26.099  1.00  0.00    -0.352 N 
ATOM     35  C   UNL A   1      42.091  19.708  25.881  1.00  0.00     0.251 C 
ATOM     36  H   UNL A   1      40.490  18.511  26.018  1.00  0.00     0.163 HD
ATOM     37  O   UNL A   1      42.818  18.828  25.427  1.00  0.00    -0.269 OA
BRANCH  35  38
ATOM     38  C   UNL A   1      42.641  21.049  26.178  1.00  0.00     0.039 A 
ATOM     39  C   UNL A   1      42.783  21.968  25.136  1.00  0.00     0.014 A 
ATOM     40  C   UNL A   1      43.017  21.396  27.479  1.00  0.00     0.014 A 
ATOM     41  C   UNL A   1      43.254  23.255  25.408  1.00  0.00     0.010 A 
ATOM     42  C   UNL A   1      43.416  22.699  27.759  1.00  0.00     0.010 A 
ATOM     43  C   UNL A   1      43.549  23.639  26.726  1.00  0.00    -0.014 A 
BRANCH  43  44
ATOM     44  C   UNL A   1      43.998  25.018  27.045  1.00  0.00     0.031 A 
ATOM     45  C   UNL A   1      43.035  26.008  27.642  1.00  0.00     0.074 A 
ATOM     46  C   UNL A   1      45.248  25.404  26.721  1.00  0.00     0.049 A 
ATOM     47  N   UNL A   1      43.225  27.269  27.935  1.00  0.00    -0.248 NA
ATOM     48  C   UNL A   1      41.672  25.527  27.923  1.00  0.00     0.031 C 
ATOM     49  C   UNL A   1      46.252  24.560  26.070  1.00  0.00     0.029 A 
ATOM     50  N   UNL A   1      45.879  26.613  26.871  1.00  0.00    -0.354 N 
ATOM     51  C   UNL A   1      42.001  27.739  28.399  1.00  0.00     0.074 A 
ATOM     52  C   UNL A   1      41.066  26.638  28.314  1.00  0.00     0.031 C 
ATOM     53  C   UNL A   1      47.373  25.275  25.881  1.00  0.00     0.029 A 
ATOM     54  C   UNL A   1      47.160  26.633  26.369  1.00  0.00     0.049 A 
ATOM     55  H   UNL A   1      45.455  27.393  27.297  1.00  0.00     0.167 HD
ATOM     56  C   UNL A   1      41.690  28.966  28.882  1.00  0.00     0.034 A 
ATOM     57  C   UNL A   1      48.060  27.635  26.307  1.00  0.00     0.034 A 
ATOM     58  C   UNL A   1      42.633  30.044  29.006  1.00  0.00     0.049 A 
ATOM     59  C   UNL A   1      47.702  28.978  26.885  1.00  0.00     0.074 A 
ATOM     60  C   UNL A   1      42.439  31.298  29.558  1.00  0.00     0.029 A 
ATOM     61  N   UNL A   1      43.948  30.000  28.568  1.00  0.00    -0.354 N 
ATOM     62  N   UNL A   1      46.587  29.356  27.462  1.00  0.00    -0.248 NA
ATOM     63  C   UNL A   1      48.737  30.019  26.837  1.00  0.00     0.031 C 
ATOM     64  C   UNL A   1      43.631  32.018  29.437  1.00  0.00     0.029 A 
ATOM     65  C   UNL A   1      44.576  31.204  28.832  1.00  0.00     0.049 A 
ATOM     66  H   UNL A   1      44.372  29.225  28.133  1.00  0.00     0.167 HD
ATOM     67  C   UNL A   1      46.800  30.665  27.882  1.00  0.00     0.074 A 
ATOM     68  C   UNL A   1      48.157  31.006  27.508  1.00  0.00     0.031 C 
ATOM     69  C   UNL A   1      45.946  31.512  28.508  1.00  0.00     0.034 A 
BRANCH  56  70
ATOM     70  C   UNL A   1      40.281  29.188  29.368  1.00  0.00     0.023 A 
ATOM     71  C   UNL A   1      39.276  29.538  28.443  1.00  0.00     0.012 A 
ATOM     72  C   UNL A   1      39.938  29.001  30.721  1.00  0.00     0.148 A 
ATOM     73  C   UNL A   1      37.961  29.738  28.861  1.00  0.00     0.002 A 
ATOM     74  C   UNL A   1      38.616  29.157  31.124  1.00  0.00     0.091 A 
ATOM     75  F   UNL A   1      40.909  28.689  31.591  1.00  0.00    -0.205 F 
ATOM     76  C   UNL A   1      37.629  29.538  30.198  1.00  0.00     0.022 A 
BRANCH  74  77
ATOM     77  S   UNL A   1      38.074  28.845  32.807  1.00  0.00     0.127 S 
ATOM     78  O   UNL A   1      36.725  29.411  32.792  1.00  0.00    -0.237 OA
ATOM     79  O   UNL A   1      38.120  27.384  32.881  1.00  0.00    -0.237 OA
ATOM     80  O   UNL A   1      39.029  29.527  33.669  1.00  0.00    -0.744 OA
ENDBRANCH  74  77
ENDBRANCH  56  70
BRANCH  57  81
ATOM     81  C   UNL A   1      49.416  27.382  25.741  1.00  0.00     0.023 A 
ATOM     82  C   UNL A   1      49.599  27.424  24.345  1.00  0.00     0.012 A 
ATOM     83  C   UNL A   1      50.525  27.130  26.572  1.00  0.00     0.148 A 
ATOM     84  C   UNL A   1      50.854  27.187  23.784  1.00  0.00     0.002 A 
ATOM     85  C   UNL A   1      51.783  26.949  26.009  1.00  0.00     0.091 A 
ATOM     86  F   UNL A   1      50.328  27.083  27.897  1.00  0.00    -0.205 F 
ATOM     87  C   UNL A   1      51.947  26.959  24.616  1.00  0.00     0.022 A 
BRANCH  85  88
ATOM     88  S   UNL A   1      53.268  26.782  27.006  1.00  0.00     0.127 S 
ATOM     89  O   UNL A   1      53.034  25.508  27.680  1.00  0.00    -0.237 OA
ATOM     90  O   UNL A   1      54.317  26.757  25.985  1.00  0.00    -0.237 OA
ATOM     91  O   UNL A   1      53.299  27.958  27.866  1.00  0.00    -0.744 OA
ENDBRANCH  85  88
ENDBRANCH  57  81
BRANCH  69  92
ATOM     92  C   UNL A   1      46.457  32.880  28.870  1.00  0.00     0.023 A 
ATOM     93  C   UNL A   1      47.232  33.056  30.033  1.00  0.00     0.012 A 
ATOM     94  C   UNL A   1      46.233  33.979  28.014  1.00  0.00     0.148 A 
ATOM     95  C   UNL A   1      47.749  34.310  30.357  1.00  0.00     0.002 A 
ATOM     96  C   UNL A   1      46.793  35.214  28.319  1.00  0.00     0.091 A 
ATOM     97  F   UNL A   1      45.477  33.796  26.922  1.00  0.00    -0.205 F 
ATOM     98  C   UNL A   1      47.541  35.384  29.494  1.00  0.00     0.022 A 
BRANCH  96  99
ATOM     99  S   UNL A   1      46.660  36.627  27.218  1.00  0.00     0.127 S 
ATOM    100  O   UNL A   1      47.330  36.133  26.017  1.00  0.00    -0.237 OA
ATOM    101  O   UNL A   1      45.211  36.784  27.088  1.00  0.00    -0.237 OA
ATOM    102  O   UNL A   1      47.326  37.730  27.899  1.00  0.00    -0.744 OA
ENDBRANCH  96  99
ENDBRANCH  69  92
ENDBRANCH  43  44
ENDBRANCH  35  38
ENDBRANCH  33  34
ENDBRANCH  32  33
ENDBRANCH  31  32
ENDBRANCH   1  31
TORSDOF 19
ENDMDL
