MODEL 1
REMARK VINA RESULT:     -11.5      0.000      0.000
REMARK SMILES C[C@H]1[C@@H]([NH2+]C[C@H]2CC[C@@H](C(=O)NCCCCCCNC(=O)c3ccc(-c4c5nc(c(-c6cccc(S(=O)(=O)[O-])c6F)c6ccc([nH]6)c(-c6cccc(S(=O)(=O)[O-])c6F)c6nc(c(-c7cccc(S(=O)(=O)[O-])c7F)c7ccc4[nH]7)C=C6)C=C5)cc3)CC2)CCC[C@@H]1C
REMARK SMILES IDX 15 1 14 2 13 3 12 4 10 5 11 6 9 8 6 9 7 10 86 11 8 12 85 13
REMARK SMILES IDX 5 14 4 15 3 18 1 19 2 20 90 21 87 22 89 23 91 24 88 25 16 26
REMARK SMILES IDX 17 27 18 28 19 29 20 30 21 32 22 33 23 34 84 35 24 36 83 37
REMARK SMILES IDX 25 38 26 39 27 40 77 41 28 42 82 43 76 44 78 45 29 46 81 47
REMARK SMILES IDX 75 48 74 49 30 51 62 52 42 53 61 54 43 55 46 56 60 57 79 58
REMARK SMILES IDX 44 59 45 60 59 62 80 63 47 64 31 65 32 66 40 67 33 68 35 69
REMARK SMILES IDX 41 70 34 71 36 72 37 73 38 74 39 75 63 76 64 77 72 78 65 79
REMARK SMILES IDX 67 80 73 81 66 82 68 83 69 84 70 85 71 86 48 87 49 88 57 89
REMARK SMILES IDX 50 90 52 91 58 92 51 93 53 94 54 95 55 96 56 97
REMARK H PARENT 12 7 4 16 4 17 19 31 78 50 46 61
REMARK Flexibility Score: inf
ROOT
ATOM      1  C   UNL A   1      35.936  21.485  25.747  1.00  0.00     0.002 C 
ENDROOT
BRANCH   1   2
ATOM      2  C   UNL A   1      34.708  21.534  26.670  1.00  0.00     0.021 C 
BRANCH   2   3
ATOM      3  C   UNL A   1      33.509  20.645  26.313  1.00  0.00     0.116 C 
BRANCH   3   4
ATOM      4  N   UNL A   1      32.263  21.391  26.261  1.00  0.00    -0.356 N 
ATOM      5  C   UNL A   1      31.849  22.424  25.479  1.00  0.00     0.223 C 
ATOM      6  O   UNL A   1      30.690  22.820  25.657  1.00  0.00    -0.275 OA
ATOM      7  H   UNL A   1      31.591  21.092  26.915  1.00  0.00     0.163 HD
BRANCH   5   8
ATOM      8  C   UNL A   1      32.715  23.103  24.413  1.00  0.00     0.078 C 
ATOM      9  C   UNL A   1      33.653  25.085  22.373  1.00  0.00     0.044 C 
ATOM     10  C   UNL A   1      34.280  25.002  23.783  1.00  0.00     0.010 C 
ATOM     11  C   UNL A   1      33.048  23.721  21.993  1.00  0.00     0.010 C 
ATOM     12  C   UNL A   1      33.326  24.437  24.851  1.00  0.00     0.014 C 
ATOM     13  C   UNL A   1      32.063  23.180  23.031  1.00  0.00     0.014 C 
BRANCH   9  14
ATOM     14  C   UNL A   1      32.665  26.272  22.313  1.00  0.00     0.264 C 
BRANCH  14  15
ATOM     15  N   UNL A   1      32.809  27.217  23.409  1.00  0.00    -0.343 N 
ATOM     16  H   UNL A   1      33.068  26.686  24.240  1.00  0.00     0.346 HD
ATOM     17  H   UNL A   1      33.509  27.887  23.092  1.00  0.00     0.346 HD
BRANCH  15  18
ATOM     18  C   UNL A   1      31.622  28.030  23.748  1.00  0.00     0.185 C 
ATOM     19  C   UNL A   1      32.483  29.857  25.389  1.00  0.00     0.014 C 
ATOM     20  C   UNL A   1      31.531  28.677  25.159  1.00  0.00     0.047 C 
ATOM     21  C   UNL A   1      31.601  27.575  26.232  1.00  0.00    -0.006 C 
ATOM     22  C   UNL A   1      30.394  27.095  23.596  1.00  0.00     0.065 C 
ATOM     23  C   UNL A   1      30.386  26.643  26.096  1.00  0.00     0.004 C 
ATOM     24  C   UNL A   1      31.725  28.133  27.636  1.00  0.00     0.008 C 
ATOM     25  C   UNL A   1      30.314  26.031  24.697  1.00  0.00     0.006 C 
ENDBRANCH  15  18
ENDBRANCH  14  15
ENDBRANCH   9  14
ENDBRANCH   5   8
ENDBRANCH   3   4
ENDBRANCH   2   3
ENDBRANCH   1   2
BRANCH   1  26
ATOM     26  C   UNL A   1      36.210  20.245  24.877  1.00  0.00     0.002 C 
BRANCH  26  27
ATOM     27  C   UNL A   1      37.524  19.447  24.975  1.00  0.00     0.021 C 
BRANCH  27  28
ATOM     28  C   UNL A   1      38.816  20.176  25.363  1.00  0.00     0.116 C 
BRANCH  28  29
ATOM     29  N   UNL A   1      39.826  19.247  25.838  1.00  0.00    -0.352 N 
ATOM     30  C   UNL A   1      41.151  19.469  26.142  1.00  0.00     0.251 C 
ATOM     31  H   UNL A   1      39.519  18.319  25.962  1.00  0.00     0.163 HD
ATOM     32  O   UNL A   1      41.913  18.506  26.207  1.00  0.00    -0.269 OA
BRANCH  30  33
ATOM     33  C   UNL A   1      41.683  20.833  26.409  1.00  0.00     0.039 A 
ATOM     34  C   UNL A   1      41.596  21.345  27.711  1.00  0.00     0.014 A 
ATOM     35  C   UNL A   1      42.145  21.660  25.381  1.00  0.00     0.014 A 
ATOM     36  C   UNL A   1      41.985  22.665  27.982  1.00  0.00     0.010 A 
ATOM     37  C   UNL A   1      42.573  22.966  25.663  1.00  0.00     0.010 A 
ATOM     38  C   UNL A   1      42.484  23.491  26.962  1.00  0.00    -0.014 A 
BRANCH  38  39
ATOM     39  C   UNL A   1      42.906  24.894  27.250  1.00  0.00     0.031 A 
ATOM     40  C   UNL A   1      41.959  25.876  27.895  1.00  0.00     0.074 A 
ATOM     41  C   UNL A   1      44.137  25.312  26.890  1.00  0.00     0.049 A 
ATOM     42  N   UNL A   1      42.158  27.131  28.212  1.00  0.00    -0.248 NA
ATOM     43  C   UNL A   1      40.606  25.390  28.210  1.00  0.00     0.031 C 
ATOM     44  C   UNL A   1      45.135  24.495  26.200  1.00  0.00     0.029 A 
ATOM     45  N   UNL A   1      44.749  26.536  27.031  1.00  0.00    -0.354 N 
ATOM     46  C   UNL A   1      40.953  27.594  28.731  1.00  0.00     0.074 A 
ATOM     47  C   UNL A   1      40.021  26.490  28.664  1.00  0.00     0.031 C 
ATOM     48  C   UNL A   1      46.232  25.237  25.975  1.00  0.00     0.029 A 
ATOM     49  C   UNL A   1      46.012  26.588  26.485  1.00  0.00     0.049 A 
ATOM     50  H   UNL A   1      44.324  27.302  27.479  1.00  0.00     0.167 HD
ATOM     51  C   UNL A   1      40.655  28.815  29.242  1.00  0.00     0.034 A 
ATOM     52  C   UNL A   1      46.894  27.604  26.399  1.00  0.00     0.034 A 
ATOM     53  C   UNL A   1      41.591  29.904  29.352  1.00  0.00     0.049 A 
ATOM     54  C   UNL A   1      46.553  28.937  27.010  1.00  0.00     0.074 A 
ATOM     55  C   UNL A   1      41.402  31.144  29.940  1.00  0.00     0.029 A 
ATOM     56  N   UNL A   1      42.887  29.891  28.862  1.00  0.00    -0.354 N 
ATOM     57  N   UNL A   1      45.466  29.299  27.646  1.00  0.00    -0.248 NA
ATOM     58  C   UNL A   1      47.578  29.989  26.928  1.00  0.00     0.031 C 
ATOM     59  C   UNL A   1      42.578  31.888  29.786  1.00  0.00     0.029 A 
ATOM     60  C   UNL A   1      43.505  31.103  29.122  1.00  0.00     0.049 A 
ATOM     61  H   UNL A   1      43.306  29.131  28.397  1.00  0.00     0.167 HD
ATOM     62  C   UNL A   1      45.687  30.606  28.067  1.00  0.00     0.074 A 
ATOM     63  C   UNL A   1      47.022  30.965  27.635  1.00  0.00     0.031 C 
ATOM     64  C   UNL A   1      44.853  31.439  28.736  1.00  0.00     0.034 A 
BRANCH  51  65
ATOM     65  C   UNL A   1      39.262  29.030  29.780  1.00  0.00     0.023 A 
ATOM     66  C   UNL A   1      38.951  28.599  31.086  1.00  0.00     0.012 A 
ATOM     67  C   UNL A   1      38.288  29.720  29.031  1.00  0.00     0.148 A 
ATOM     68  C   UNL A   1      37.684  28.820  31.625  1.00  0.00     0.002 A 
ATOM     69  C   UNL A   1      37.040  29.974  29.591  1.00  0.00     0.091 A 
ATOM     70  F   UNL A   1      38.595  30.110  27.785  1.00  0.00    -0.205 F 
ATOM     71  C   UNL A   1      36.733  29.515  30.882  1.00  0.00     0.022 A 
BRANCH  69  72
ATOM     72  S   UNL A   1      35.775  30.929  28.745  1.00  0.00     0.127 S 
ATOM     73  O   UNL A   1      35.073  29.889  27.994  1.00  0.00    -0.237 OA
ATOM     74  O   UNL A   1      35.014  31.493  29.861  1.00  0.00    -0.237 OA
ATOM     75  O   UNL A   1      36.486  31.912  27.940  1.00  0.00    -0.744 OA
ENDBRANCH  69  72
ENDBRANCH  51  65
BRANCH  52  76
ATOM     76  C   UNL A   1      48.223  27.378  25.762  1.00  0.00     0.023 A 
ATOM     77  C   UNL A   1      49.303  26.937  26.551  1.00  0.00     0.012 A 
ATOM     78  C   UNL A   1      48.413  27.565  24.379  1.00  0.00     0.148 A 
ATOM     79  C   UNL A   1      50.556  26.714  25.980  1.00  0.00     0.002 A 
ATOM     80  C   UNL A   1      49.649  27.286  23.807  1.00  0.00     0.091 A 
ATOM     81  F   UNL A   1      47.378  28.001  23.648  1.00  0.00    -0.205 F 
ATOM     82  C   UNL A   1      50.727  26.876  24.608  1.00  0.00     0.022 A 
BRANCH  80  83
ATOM     83  S   UNL A   1      49.915  27.336  22.031  1.00  0.00     0.127 S 
ATOM     84  O   UNL A   1      51.302  26.882  21.923  1.00  0.00    -0.237 OA
ATOM     85  O   UNL A   1      48.917  26.379  21.548  1.00  0.00    -0.237 OA
ATOM     86  O   UNL A   1      49.666  28.712  21.634  1.00  0.00    -0.744 OA
ENDBRANCH  80  83
ENDBRANCH  52  76
BRANCH  64  87
ATOM     87  C   UNL A   1      45.358  32.819  29.074  1.00  0.00     0.023 A 
ATOM     88  C   UNL A   1      46.060  33.031  30.278  1.00  0.00     0.012 A 
ATOM     89  C   UNL A   1      45.197  33.889  28.172  1.00  0.00     0.148 A 
ATOM     90  C   UNL A   1      46.567  34.293  30.591  1.00  0.00     0.002 A 
ATOM     91  C   UNL A   1      45.745  35.132  28.470  1.00  0.00     0.091 A 
ATOM     92  F   UNL A   1      44.508  33.676  27.041  1.00  0.00    -0.205 F 
ATOM     93  C   UNL A   1      46.419  35.338  29.685  1.00  0.00     0.022 A 
BRANCH  91  94
ATOM     94  S   UNL A   1      45.682  36.512  27.320  1.00  0.00     0.127 S 
ATOM     95  O   UNL A   1      46.049  35.868  26.061  1.00  0.00    -0.237 OA
ATOM     96  O   UNL A   1      44.281  36.927  27.407  1.00  0.00    -0.237 OA
ATOM     97  O   UNL A   1      46.632  37.494  27.823  1.00  0.00    -0.744 OA
ENDBRANCH  91  94
ENDBRANCH  64  87
ENDBRANCH  38  39
ENDBRANCH  30  33
ENDBRANCH  28  29
ENDBRANCH  27  28
ENDBRANCH  26  27
ENDBRANCH   1  26
TORSDOF 19
ENDMDL
MODEL 2
REMARK VINA RESULT:     -11.3      3.005      8.224
REMARK SMILES C[C@H]1[C@@H]([NH2+]C[C@H]2CC[C@@H](C(=O)NCCCCCCNC(=O)c3ccc(-c4c5nc(c(-c6cccc(S(=O)(=O)[O-])c6F)c6ccc([nH]6)c(-c6cccc(S(=O)(=O)[O-])c6F)c6nc(c(-c7cccc(S(=O)(=O)[O-])c7F)c7ccc4[nH]7)C=C6)C=C5)cc3)CC2)CCC[C@@H]1C
REMARK SMILES IDX 15 1 14 2 13 3 12 4 10 5 11 6 9 8 6 9 7 10 86 11 8 12 85 13
REMARK SMILES IDX 5 14 4 15 3 18 1 19 2 20 90 21 87 22 89 23 91 24 88 25 16 26
REMARK SMILES IDX 17 27 18 28 19 29 20 30 21 32 22 33 23 34 84 35 24 36 83 37
REMARK SMILES IDX 25 38 26 39 27 40 77 41 28 42 82 43 76 44 78 45 29 46 81 47
REMARK SMILES IDX 75 48 74 49 30 51 62 52 42 53 61 54 43 55 46 56 60 57 79 58
REMARK SMILES IDX 44 59 45 60 59 62 80 63 47 64 31 65 32 66 40 67 33 68 35 69
REMARK SMILES IDX 41 70 34 71 36 72 37 73 38 74 39 75 63 76 64 77 72 78 65 79
REMARK SMILES IDX 67 80 73 81 66 82 68 83 69 84 70 85 71 86 48 87 49 88 57 89
REMARK SMILES IDX 50 90 52 91 58 92 51 93 53 94 54 95 55 96 56 97
REMARK H PARENT 12 7 4 16 4 17 19 31 78 50 46 61
REMARK Flexibility Score: inf
ROOT
ATOM      1  C   UNL A   1      34.273  23.118  24.184  1.00  0.00     0.002 C 
ENDROOT
BRANCH   1   2
ATOM      2  C   UNL A   1      34.064  22.459  25.558  1.00  0.00     0.021 C 
BRANCH   2   3
ATOM      3  C   UNL A   1      33.550  23.342  26.703  1.00  0.00     0.116 C 
BRANCH   3   4
ATOM      4  N   UNL A   1      32.152  23.703  26.539  1.00  0.00    -0.356 N 
ATOM      5  C   UNL A   1      31.508  24.900  26.578  1.00  0.00     0.223 C 
ATOM      6  O   UNL A   1      30.291  24.879  26.355  1.00  0.00    -0.275 OA
ATOM      7  H   UNL A   1      31.559  22.936  26.369  1.00  0.00     0.163 HD
BRANCH   5   8
ATOM      8  C   UNL A   1      32.192  26.242  26.867  1.00  0.00     0.078 C 
ATOM      9  C   UNL A   1      33.208  29.034  26.500  1.00  0.00     0.044 C 
ATOM     10  C   UNL A   1      31.966  28.722  27.365  1.00  0.00     0.010 C 
ATOM     11  C   UNL A   1      34.126  27.799  26.444  1.00  0.00     0.010 C 
ATOM     12  C   UNL A   1      31.234  27.433  26.951  1.00  0.00     0.014 C 
ATOM     13  C   UNL A   1      33.410  26.527  25.987  1.00  0.00     0.014 C 
BRANCH   9  14
ATOM     14  C   UNL A   1      32.760  29.571  25.122  1.00  0.00     0.264 C 
BRANCH  14  15
ATOM     15  N   UNL A   1      33.542  29.064  24.006  1.00  0.00    -0.343 N 
ATOM     16  H   UNL A   1      34.336  29.691  23.877  1.00  0.00     0.346 HD
ATOM     17  H   UNL A   1      33.788  28.109  24.266  1.00  0.00     0.346 HD
BRANCH  15  18
ATOM     18  C   UNL A   1      32.850  28.944  22.706  1.00  0.00     0.185 C 
ATOM     19  C   UNL A   1      30.356  29.501  23.197  1.00  0.00     0.014 C 
ATOM     20  C   UNL A   1      31.369  28.472  22.682  1.00  0.00     0.047 C 
ATOM     21  C   UNL A   1      31.264  27.083  23.338  1.00  0.00    -0.006 C 
ATOM     22  C   UNL A   1      33.666  27.926  21.869  1.00  0.00     0.065 C 
ATOM     23  C   UNL A   1      32.066  26.061  22.515  1.00  0.00     0.004 C 
ATOM     24  C   UNL A   1      29.830  26.638  23.540  1.00  0.00     0.008 C 
ATOM     25  C   UNL A   1      33.528  26.486  22.380  1.00  0.00     0.006 C 
ENDBRANCH  15  18
ENDBRANCH  14  15
ENDBRANCH   9  14
ENDBRANCH   5   8
ENDBRANCH   3   4
ENDBRANCH   2   3
ENDBRANCH   1   2
BRANCH   1  26
ATOM     26  C   UNL A   1      35.590  22.917  23.414  1.00  0.00     0.002 C 
BRANCH  26  27
ATOM     27  C   UNL A   1      36.966  23.134  24.071  1.00  0.00     0.021 C 
BRANCH  27  28
ATOM     28  C   UNL A   1      37.078  23.119  25.600  1.00  0.00     0.116 C 
BRANCH  28  29
ATOM     29  N   UNL A   1      38.071  22.158  26.049  1.00  0.00    -0.352 N 
ATOM     30  C   UNL A   1      39.377  22.361  26.436  1.00  0.00     0.251 C 
ATOM     31  H   UNL A   1      37.765  21.222  26.083  1.00  0.00     0.163 HD
ATOM     32  O   UNL A   1      40.142  21.398  26.462  1.00  0.00    -0.269 OA
BRANCH  30  33
ATOM     33  C   UNL A   1      39.884  23.700  26.839  1.00  0.00     0.039 A 
ATOM     34  C   UNL A   1      40.317  23.887  28.158  1.00  0.00     0.014 A 
ATOM     35  C   UNL A   1      39.820  24.803  25.981  1.00  0.00     0.014 A 
ATOM     36  C   UNL A   1      40.700  25.159  28.608  1.00  0.00     0.010 A 
ATOM     37  C   UNL A   1      40.242  26.067  26.421  1.00  0.00     0.010 A 
ATOM     38  C   UNL A   1      40.672  26.265  27.743  1.00  0.00    -0.014 A 
BRANCH  38  39
ATOM     39  C   UNL A   1      41.086  27.618  28.217  1.00  0.00     0.031 A 
ATOM     40  C   UNL A   1      42.539  28.026  28.237  1.00  0.00     0.074 A 
ATOM     41  C   UNL A   1      40.158  28.481  28.679  1.00  0.00     0.049 A 
ATOM     42  N   UNL A   1      43.076  29.158  28.621  1.00  0.00    -0.248 NA
ATOM     43  C   UNL A   1      43.519  27.026  27.785  1.00  0.00     0.031 C 
ATOM     44  C   UNL A   1      38.726  28.201  28.781  1.00  0.00     0.029 A 
ATOM     45  N   UNL A   1      40.284  29.759  29.174  1.00  0.00    -0.354 N 
ATOM     46  C   UNL A   1      44.451  28.998  28.487  1.00  0.00     0.074 A 
ATOM     47  C   UNL A   1      44.668  27.649  28.010  1.00  0.00     0.031 C 
ATOM     48  C   UNL A   1      38.105  29.271  29.306  1.00  0.00     0.029 A 
ATOM     49  C   UNL A   1      39.094  30.306  29.598  1.00  0.00     0.049 A 
ATOM     50  H   UNL A   1      41.143  30.236  29.220  1.00  0.00     0.167 HD
ATOM     51  C   UNL A   1      45.443  29.896  28.714  1.00  0.00     0.034 A 
ATOM     52  C   UNL A   1      38.825  31.501  30.161  1.00  0.00     0.034 A 
ATOM     53  C   UNL A   1      45.231  31.253  29.146  1.00  0.00     0.049 A 
ATOM     54  C   UNL A   1      39.937  32.494  30.364  1.00  0.00     0.074 A 
ATOM     55  C   UNL A   1      46.169  32.259  29.313  1.00  0.00     0.029 A 
ATOM     56  N   UNL A   1      44.003  31.796  29.488  1.00  0.00    -0.354 N 
ATOM     57  N   UNL A   1      41.210  32.378  30.073  1.00  0.00    -0.248 NA
ATOM     58  C   UNL A   1      39.570  33.799  30.937  1.00  0.00     0.031 C 
ATOM     59  C   UNL A   1      45.509  33.404  29.774  1.00  0.00     0.029 A 
ATOM     60  C   UNL A   1      44.158  33.117  29.875  1.00  0.00     0.049 A 
ATOM     61  H   UNL A   1      43.145  31.313  29.459  1.00  0.00     0.167 HD
ATOM     62  C   UNL A   1      41.788  33.602  30.394  1.00  0.00     0.074 A 
ATOM     63  C   UNL A   1      40.723  34.454  30.880  1.00  0.00     0.031 C 
ATOM     64  C   UNL A   1      43.088  33.979  30.309  1.00  0.00     0.034 A 
BRANCH  51  65
ATOM     65  C   UNL A   1      46.862  29.459  28.443  1.00  0.00     0.023 A 
ATOM     66  C   UNL A   1      47.453  29.762  27.200  1.00  0.00     0.012 A 
ATOM     67  C   UNL A   1      47.631  28.820  29.436  1.00  0.00     0.148 A 
ATOM     68  C   UNL A   1      48.776  29.407  26.936  1.00  0.00     0.002 A 
ATOM     69  C   UNL A   1      48.962  28.507  29.181  1.00  0.00     0.091 A 
ATOM     70  F   UNL A   1      47.048  28.526  30.608  1.00  0.00    -0.205 F 
ATOM     71  C   UNL A   1      49.532  28.789  27.928  1.00  0.00     0.022 A 
BRANCH  69  72
ATOM     72  S   UNL A   1      50.042  27.781  30.420  1.00  0.00     0.127 S 
ATOM     73  O   UNL A   1      51.302  27.673  29.686  1.00  0.00    -0.237 OA
ATOM     74  O   UNL A   1      50.034  28.798  31.472  1.00  0.00    -0.237 OA
ATOM     75  O   UNL A   1      49.425  26.516  30.797  1.00  0.00    -0.744 OA
ENDBRANCH  69  72
ENDBRANCH  51  65
BRANCH  52  76
ATOM     76  C   UNL A   1      37.419  31.852  30.514  1.00  0.00     0.023 A 
ATOM     77  C   UNL A   1      36.932  31.550  31.801  1.00  0.00     0.012 A 
ATOM     78  C   UNL A   1      36.577  32.511  29.598  1.00  0.00     0.148 A 
ATOM     79  C   UNL A   1      35.623  31.872  32.159  1.00  0.00     0.002 A 
ATOM     80  C   UNL A   1      35.292  32.881  29.981  1.00  0.00     0.091 A 
ATOM     81  F   UNL A   1      37.053  32.775  28.373  1.00  0.00    -0.205 F 
ATOM     82  C   UNL A   1      34.807  32.547  31.255  1.00  0.00     0.022 A 
BRANCH  80  83
ATOM     83  S   UNL A   1      34.227  33.872  28.928  1.00  0.00     0.127 S 
ATOM     84  O   UNL A   1      33.727  32.874  27.984  1.00  0.00    -0.237 OA
ATOM     85  O   UNL A   1      33.233  34.367  29.882  1.00  0.00    -0.237 OA
ATOM     86  O   UNL A   1      35.082  34.905  28.365  1.00  0.00    -0.744 OA
ENDBRANCH  80  83
ENDBRANCH  52  76
BRANCH  64  87
ATOM     87  C   UNL A   1      43.441  35.385  30.725  1.00  0.00     0.023 A 
ATOM     88  C   UNL A   1      43.862  35.637  32.047  1.00  0.00     0.012 A 
ATOM     89  C   UNL A   1      43.423  36.441  29.793  1.00  0.00     0.148 A 
ATOM     90  C   UNL A   1      44.228  36.925  32.441  1.00  0.00     0.002 A 
ATOM     91  C   UNL A   1      43.834  37.712  30.181  1.00  0.00     0.091 A 
ATOM     92  F   UNL A   1      43.001  36.188  28.546  1.00  0.00    -0.205 F 
ATOM     93  C   UNL A   1      44.224  37.957  31.508  1.00  0.00     0.022 A 
BRANCH  91  94
ATOM     94  S   UNL A   1      43.948  39.081  29.024  1.00  0.00     0.127 S 
ATOM     95  O   UNL A   1      42.571  39.182  28.544  1.00  0.00    -0.237 OA
ATOM     96  O   UNL A   1      44.375  40.184  29.887  1.00  0.00    -0.237 OA
ATOM     97  O   UNL A   1      44.933  38.681  28.028  1.00  0.00    -0.744 OA
ENDBRANCH  91  94
ENDBRANCH  64  87
ENDBRANCH  38  39
ENDBRANCH  30  33
ENDBRANCH  28  29
ENDBRANCH  27  28
ENDBRANCH  26  27
ENDBRANCH   1  26
TORSDOF 19
ENDMDL
MODEL 3
REMARK VINA RESULT:     -11.1      1.729      7.737
REMARK SMILES C[C@H]1[C@@H]([NH2+]C[C@H]2CC[C@@H](C(=O)NCCCCCCNC(=O)c3ccc(-c4c5nc(c(-c6cccc(S(=O)(=O)[O-])c6F)c6ccc([nH]6)c(-c6cccc(S(=O)(=O)[O-])c6F)c6nc(c(-c7cccc(S(=O)(=O)[O-])c7F)c7ccc4[nH]7)C=C6)C=C5)cc3)CC2)CCC[C@@H]1C
REMARK SMILES IDX 15 1 14 2 13 3 12 4 10 5 11 6 9 8 6 9 7 10 86 11 8 12 85 13
REMARK SMILES IDX 5 14 4 15 3 18 1 19 2 20 90 21 87 22 89 23 91 24 88 25 16 26
REMARK SMILES IDX 17 27 18 28 19 29 20 30 21 32 22 33 23 34 84 35 24 36 83 37
REMARK SMILES IDX 25 38 26 39 27 40 77 41 28 42 82 43 76 44 78 45 29 46 81 47
REMARK SMILES IDX 75 48 74 49 30 51 62 52 42 53 61 54 43 55 46 56 60 57 79 58
REMARK SMILES IDX 44 59 45 60 59 62 80 63 47 64 31 65 32 66 40 67 33 68 35 69
REMARK SMILES IDX 41 70 34 71 36 72 37 73 38 74 39 75 63 76 64 77 72 78 65 79
REMARK SMILES IDX 67 80 73 81 66 82 68 83 69 84 70 85 71 86 48 87 49 88 57 89
REMARK SMILES IDX 50 90 52 91 58 92 51 93 53 94 54 95 55 96 56 97
REMARK H PARENT 12 7 4 16 4 17 19 31 78 50 46 61
REMARK Flexibility Score: inf
ROOT
ATOM      1  C   UNL A   1      35.776  18.945  24.770  1.00  0.00     0.002 C 
ENDROOT
BRANCH   1   2
ATOM      2  C   UNL A   1      34.506  18.159  24.407  1.00  0.00     0.021 C 
BRANCH   2   3
ATOM      3  C   UNL A   1      33.151  18.809  24.712  1.00  0.00     0.116 C 
BRANCH   3   4
ATOM      4  N   UNL A   1      32.470  19.262  23.510  1.00  0.00    -0.356 N 
ATOM      5  C   UNL A   1      32.341  20.490  22.941  1.00  0.00     0.223 C 
ATOM      6  O   UNL A   1      31.719  20.540  21.872  1.00  0.00    -0.275 OA
ATOM      7  H   UNL A   1      32.015  18.543  23.014  1.00  0.00     0.163 HD
BRANCH   5   8
ATOM      8  C   UNL A   1      32.915  21.782  23.533  1.00  0.00     0.078 C 
ATOM      9  C   UNL A   1      33.260  24.685  24.183  1.00  0.00     0.044 C 
ATOM     10  C   UNL A   1      32.700  23.676  25.211  1.00  0.00     0.010 C 
ATOM     11  C   UNL A   1      34.148  23.947  23.164  1.00  0.00     0.010 C 
ATOM     12  C   UNL A   1      32.013  22.457  24.569  1.00  0.00     0.014 C 
ATOM     13  C   UNL A   1      33.451  22.764  22.490  1.00  0.00     0.014 C 
BRANCH   9  14
ATOM     14  C   UNL A   1      32.099  25.495  23.565  1.00  0.00     0.264 C 
BRANCH  14  15
ATOM     15  N   UNL A   1      32.073  26.892  23.967  1.00  0.00    -0.343 N 
ATOM     16  H   UNL A   1      32.842  27.039  24.621  1.00  0.00     0.346 HD
ATOM     17  H   UNL A   1      32.143  27.420  23.098  1.00  0.00     0.346 HD
BRANCH  15  18
ATOM     18  C   UNL A   1      30.837  27.377  24.615  1.00  0.00     0.185 C 
ATOM     19  C   UNL A   1      30.517  29.813  23.758  1.00  0.00     0.014 C 
ATOM     20  C   UNL A   1      30.711  28.887  24.964  1.00  0.00     0.047 C 
ATOM     21  C   UNL A   1      31.860  29.290  25.907  1.00  0.00    -0.006 C 
ATOM     22  C   UNL A   1      30.702  26.590  25.944  1.00  0.00     0.065 C 
ATOM     23  C   UNL A   1      31.737  28.520  27.232  1.00  0.00     0.004 C 
ATOM     24  C   UNL A   1      31.933  30.787  26.134  1.00  0.00     0.008 C 
ATOM     25  C   UNL A   1      31.738  27.009  26.994  1.00  0.00     0.006 C 
ENDBRANCH  15  18
ENDBRANCH  14  15
ENDBRANCH   9  14
ENDBRANCH   5   8
ENDBRANCH   3   4
ENDBRANCH   2   3
ENDBRANCH   1   2
BRANCH   1  26
ATOM     26  C   UNL A   1      35.704  20.456  25.054  1.00  0.00     0.002 C 
BRANCH  26  27
ATOM     27  C   UNL A   1      36.588  21.475  24.311  1.00  0.00     0.021 C 
BRANCH  27  28
ATOM     28  C   UNL A   1      37.758  22.133  25.052  1.00  0.00     0.116 C 
BRANCH  28  29
ATOM     29  N   UNL A   1      38.487  21.168  25.857  1.00  0.00    -0.352 N 
ATOM     30  C   UNL A   1      39.625  21.337  26.613  1.00  0.00     0.251 C 
ATOM     31  H   UNL A   1      38.112  20.257  25.862  1.00  0.00     0.163 HD
ATOM     32  O   UNL A   1      40.267  20.342  26.945  1.00  0.00    -0.269 OA
BRANCH  30  33
ATOM     33  C   UNL A   1      40.091  22.680  27.053  1.00  0.00     0.039 A 
ATOM     34  C   UNL A   1      39.558  23.815  26.427  1.00  0.00     0.014 A 
ATOM     35  C   UNL A   1      41.132  22.836  27.975  1.00  0.00     0.014 A 
ATOM     36  C   UNL A   1      40.049  25.092  26.735  1.00  0.00     0.010 A 
ATOM     37  C   UNL A   1      41.592  24.117  28.311  1.00  0.00     0.010 A 
ATOM     38  C   UNL A   1      41.069  25.260  27.685  1.00  0.00    -0.014 A 
BRANCH  38  39
ATOM     39  C   UNL A   1      41.587  26.619  28.020  1.00  0.00     0.031 A 
ATOM     40  C   UNL A   1      43.009  27.012  27.698  1.00  0.00     0.074 A 
ATOM     41  C   UNL A   1      40.794  27.502  28.662  1.00  0.00     0.049 A 
ATOM     42  N   UNL A   1      43.624  28.147  27.922  1.00  0.00    -0.248 NA
ATOM     43  C   UNL A   1      43.854  25.993  27.057  1.00  0.00     0.031 C 
ATOM     44  C   UNL A   1      39.422  27.239  29.095  1.00  0.00     0.029 A 
ATOM     45  N   UNL A   1      41.036  28.788  29.085  1.00  0.00    -0.354 N 
ATOM     46  C   UNL A   1      44.932  27.970  27.481  1.00  0.00     0.074 A 
ATOM     47  C   UNL A   1      45.027  26.609  26.999  1.00  0.00     0.031 C 
ATOM     48  C   UNL A   1      38.943  28.326  29.723  1.00  0.00     0.029 A 
ATOM     49  C   UNL A   1      39.978  29.356  29.757  1.00  0.00     0.049 A 
ATOM     50  H   UNL A   1      41.885  29.258  28.922  1.00  0.00     0.167 HD
ATOM     51  C   UNL A   1      45.954  28.862  27.454  1.00  0.00     0.034 A 
ATOM     52  C   UNL A   1      39.850  30.566  30.339  1.00  0.00     0.034 A 
ATOM     53  C   UNL A   1      45.853  30.230  27.892  1.00  0.00     0.049 A 
ATOM     54  C   UNL A   1      40.985  31.552  30.258  1.00  0.00     0.074 A 
ATOM     55  C   UNL A   1      46.809  31.230  27.815  1.00  0.00     0.029 A 
ATOM     56  N   UNL A   1      44.739  30.793  28.492  1.00  0.00    -0.354 N 
ATOM     57  N   UNL A   1      42.156  31.417  29.686  1.00  0.00    -0.248 NA
ATOM     58  C   UNL A   1      40.765  32.872  30.869  1.00  0.00     0.031 C 
ATOM     59  C   UNL A   1      46.279  32.391  28.389  1.00  0.00     0.029 A 
ATOM     60  C   UNL A   1      44.985  32.120  28.802  1.00  0.00     0.049 A 
ATOM     61  H   UNL A   1      43.895  30.318  28.672  1.00  0.00     0.167 HD
ATOM     62  C   UNL A   1      42.799  32.641  29.838  1.00  0.00     0.074 A 
ATOM     63  C   UNL A   1      41.878  33.514  30.535  1.00  0.00     0.031 C 
ATOM     64  C   UNL A   1      44.047  33.003  29.449  1.00  0.00     0.034 A 
BRANCH  51  65
ATOM     65  C   UNL A   1      47.271  28.405  26.877  1.00  0.00     0.023 A 
ATOM     66  C   UNL A   1      48.355  28.152  27.742  1.00  0.00     0.012 A 
ATOM     67  C   UNL A   1      47.415  28.155  25.497  1.00  0.00     0.148 A 
ATOM     68  C   UNL A   1      49.572  27.690  27.241  1.00  0.00     0.002 A 
ATOM     69  C   UNL A   1      48.618  27.654  25.011  1.00  0.00     0.091 A 
ATOM     70  F   UNL A   1      46.379  28.415  24.687  1.00  0.00    -0.205 F 
ATOM     71  C   UNL A   1      49.700  27.433  25.879  1.00  0.00     0.022 A 
BRANCH  69  72
ATOM     72  S   UNL A   1      48.858  27.216  23.285  1.00  0.00     0.127 S 
ATOM     73  O   UNL A   1      50.316  27.127  23.203  1.00  0.00    -0.237 OA
ATOM     74  O   UNL A   1      48.163  25.933  23.191  1.00  0.00    -0.237 OA
ATOM     75  O   UNL A   1      48.251  28.291  22.511  1.00  0.00    -0.744 OA
ENDBRANCH  69  72
ENDBRANCH  51  65
BRANCH  52  76
ATOM     76  C   UNL A   1      38.565  30.940  30.995  1.00  0.00     0.023 A 
ATOM     77  C   UNL A   1      38.404  30.721  32.377  1.00  0.00     0.012 A 
ATOM     78  C   UNL A   1      37.518  31.538  30.267  1.00  0.00     0.148 A 
ATOM     79  C   UNL A   1      37.214  31.065  33.018  1.00  0.00     0.002 A 
ATOM     80  C   UNL A   1      36.356  31.931  30.923  1.00  0.00     0.091 A 
ATOM     81  F   UNL A   1      37.683  31.722  28.950  1.00  0.00    -0.205 F 
ATOM     82  C   UNL A   1      36.195  31.681  32.295  1.00  0.00     0.022 A 
BRANCH  80  83
ATOM     83  S   UNL A   1      35.055  32.853  30.096  1.00  0.00     0.127 S 
ATOM     84  O   UNL A   1      34.156  33.164  31.207  1.00  0.00    -0.237 OA
ATOM     85  O   UNL A   1      35.790  34.001  29.561  1.00  0.00    -0.237 OA
ATOM     86  O   UNL A   1      34.523  31.958  29.081  1.00  0.00    -0.744 OA
ENDBRANCH  80  83
ENDBRANCH  52  76
BRANCH  64  87
ATOM     87  C   UNL A   1      44.493  34.413  29.740  1.00  0.00     0.023 A 
ATOM     88  C   UNL A   1      45.065  34.721  30.992  1.00  0.00     0.012 A 
ATOM     89  C   UNL A   1      44.410  35.416  28.755  1.00  0.00     0.148 A 
ATOM     90  C   UNL A   1      45.517  36.012  31.267  1.00  0.00     0.002 A 
ATOM     91  C   UNL A   1      44.905  36.688  29.021  1.00  0.00     0.091 A 
ATOM     92  F   UNL A   1      43.845  35.112  27.577  1.00  0.00    -0.205 F 
ATOM     93  C   UNL A   1      45.448  36.991  30.280  1.00  0.00     0.022 A 
BRANCH  91  94
ATOM     94  S   UNL A   1      44.941  37.986  27.778  1.00  0.00     0.127 S 
ATOM     95  O   UNL A   1      45.484  39.111  28.536  1.00  0.00    -0.237 OA
ATOM     96  O   UNL A   1      45.851  37.432  26.774  1.00  0.00    -0.237 OA
ATOM     97  O   UNL A   1      43.566  38.141  27.323  1.00  0.00    -0.744 OA
ENDBRANCH  91  94
ENDBRANCH  64  87
ENDBRANCH  38  39
ENDBRANCH  30  33
ENDBRANCH  28  29
ENDBRANCH  27  28
ENDBRANCH  26  27
ENDBRANCH   1  26
TORSDOF 19
ENDMDL
