MODEL 1
REMARK VINA RESULT:     -12.2      0.000      0.000
REMARK SMILES C[C@@H](C(=O)NCCCCCCNC(=O)c1ccc(-c2c3nc(c(-c4cccc(S(=O)(=O)[O-])c4F)c4ccc([nH]4)c(-c4cccc(S(=O)(=O)[O-])c4F)c4nc(c(-c5cccc(S(=O)(=O)[O-])c5F)c5ccc2[nH]5)C=C4)C=C3)cc1)c1ccc(-c2ccn(C(F)F)c(=O)c2)cc1
REMARK SMILES IDX 8 1 7 2 6 3 5 4 3 5 4 6 2 8 1 9 78 10 79 11 93 12 80 13
REMARK SMILES IDX 92 14 81 15 82 16 83 17 91 18 84 19 89 20 85 21 90 22 86 23
REMARK SMILES IDX 87 24 88 25 9 26 10 27 11 28 12 29 13 30 14 32 15 33 16 34
REMARK SMILES IDX 77 35 17 36 76 37 18 38 19 39 20 40 70 41 21 42 75 43 69 44
REMARK SMILES IDX 71 45 22 46 74 47 68 48 67 49 23 51 55 52 35 53 54 54 36 55
REMARK SMILES IDX 39 56 53 57 72 58 37 59 38 60 52 62 73 63 40 64 24 65 25 66
REMARK SMILES IDX 33 67 26 68 28 69 34 70 27 71 29 72 30 73 31 74 32 75 56 76
REMARK SMILES IDX 57 77 65 78 58 79 60 80 66 81 59 82 61 83 62 84 63 85 64 86
REMARK SMILES IDX 41 87 42 88 50 89 43 90 45 91 51 92 44 93 46 94 47 95 48 96
REMARK SMILES IDX 49 97
REMARK H PARENT 5 7 12 31 71 50 39 61
REMARK Flexibility Score: inf
ROOT
ATOM      1  C   UNL A   1      35.044  24.047  24.683  1.00  0.00     0.002 C 
ENDROOT
BRANCH   1   2
ATOM      2  C   UNL A   1      35.048  25.264  25.621  1.00  0.00     0.021 C 
BRANCH   2   3
ATOM      3  C   UNL A   1      34.036  26.352  25.238  1.00  0.00     0.116 C 
BRANCH   3   4
ATOM      4  N   UNL A   1      32.988  26.420  26.237  1.00  0.00    -0.356 N 
ATOM      5  C   UNL A   1      31.638  26.489  26.047  1.00  0.00     0.227 C 
ATOM      6  O   UNL A   1      30.992  27.051  26.934  1.00  0.00    -0.274 OA
ATOM      7  H   UNL A   1      33.289  26.416  27.174  1.00  0.00     0.163 HD
BRANCH   5   8
ATOM      8  C   UNL A   1      31.028  25.889  24.768  1.00  0.00     0.105 C 
ATOM      9  C   UNL A   1      29.531  26.240  24.733  1.00  0.00     0.023 C 
BRANCH   8  10
ATOM     10  C   UNL A   1      31.225  24.381  24.554  1.00  0.00    -0.036 A 
ATOM     11  C   UNL A   1      31.577  23.803  23.327  1.00  0.00     0.005 A 
ATOM     12  C   UNL A   1      31.054  23.512  25.650  1.00  0.00     0.005 A 
ATOM     13  C   UNL A   1      31.870  22.439  23.221  1.00  0.00     0.009 A 
ATOM     14  C   UNL A   1      31.346  22.150  25.549  1.00  0.00     0.009 A 
ATOM     15  C   UNL A   1      31.792  21.612  24.341  1.00  0.00    -0.018 A 
BRANCH  15  16
ATOM     16  C   UNL A   1      32.212  20.202  24.275  1.00  0.00    -0.011 A 
ATOM     17  C   UNL A   1      32.804  19.503  25.397  1.00  0.00     0.027 A 
ATOM     18  C   UNL A   1      32.090  19.570  23.095  1.00  0.00     0.080 A 
ATOM     19  C   UNL A   1      33.255  18.251  25.252  1.00  0.00     0.095 A 
ATOM     20  C   UNL A   1      32.568  18.171  22.924  1.00  0.00     0.255 A 
ATOM     21  N   UNL A   1      33.151  17.593  24.040  1.00  0.00    -0.258 N 
ATOM     22  O   UNL A   1      32.432  17.633  21.830  1.00  0.00    -0.269 OA
BRANCH  21  23
ATOM     23  C   UNL A   1      33.679  16.265  23.883  1.00  0.00     0.451 C 
ATOM     24  F   UNL A   1      34.673  16.232  22.962  1.00  0.00    -0.185 F 
ATOM     25  F   UNL A   1      34.177  15.797  25.054  1.00  0.00    -0.185 F 
ENDBRANCH  21  23
ENDBRANCH  15  16
ENDBRANCH   8  10
ENDBRANCH   5   8
ENDBRANCH   3   4
ENDBRANCH   2   3
ENDBRANCH   1   2
BRANCH   1  26
ATOM     26  C   UNL A   1      34.961  22.694  25.393  1.00  0.00     0.002 C 
BRANCH  26  27
ATOM     27  C   UNL A   1      35.699  21.559  24.683  1.00  0.00     0.021 C 
BRANCH  27  28
ATOM     28  C   UNL A   1      37.205  21.767  24.565  1.00  0.00     0.116 C 
BRANCH  28  29
ATOM     29  N   UNL A   1      37.954  20.681  25.179  1.00  0.00    -0.352 N 
ATOM     30  C   UNL A   1      39.109  20.742  25.916  1.00  0.00     0.251 C 
ATOM     31  H   UNL A   1      37.581  19.780  25.047  1.00  0.00     0.163 HD
ATOM     32  O   UNL A   1      39.726  19.711  26.180  1.00  0.00    -0.269 OA
BRANCH  30  33
ATOM     33  C   UNL A   1      39.615  22.052  26.376  1.00  0.00     0.039 A 
ATOM     34  C   UNL A   1      40.764  22.093  27.169  1.00  0.00     0.014 A 
ATOM     35  C   UNL A   1      38.962  23.234  26.017  1.00  0.00     0.014 A 
ATOM     36  C   UNL A   1      41.290  23.329  27.554  1.00  0.00     0.010 A 
ATOM     37  C   UNL A   1      39.533  24.463  26.335  1.00  0.00     0.010 A 
ATOM     38  C   UNL A   1      40.699  24.524  27.112  1.00  0.00    -0.014 A 
BRANCH  38  39
ATOM     39  C   UNL A   1      41.298  25.843  27.440  1.00  0.00     0.031 A 
ATOM     40  C   UNL A   1      42.715  26.159  27.043  1.00  0.00     0.074 A 
ATOM     41  C   UNL A   1      40.588  26.731  28.165  1.00  0.00     0.049 A 
ATOM     42  N   UNL A   1      43.414  27.238  27.277  1.00  0.00    -0.248 NA
ATOM     43  C   UNL A   1      43.451  25.116  26.309  1.00  0.00     0.031 C 
ATOM     44  C   UNL A   1      39.234  26.513  28.679  1.00  0.00     0.029 A 
ATOM     45  N   UNL A   1      40.915  27.985  28.619  1.00  0.00    -0.354 N 
ATOM     46  C   UNL A   1      44.678  26.996  26.751  1.00  0.00     0.074 A 
ATOM     47  C   UNL A   1      44.660  25.651  26.216  1.00  0.00     0.031 C 
ATOM     48  C   UNL A   1      38.843  27.597  29.367  1.00  0.00     0.029 A 
ATOM     49  C   UNL A   1      39.929  28.572  29.377  1.00  0.00     0.049 A 
ATOM     50  H   UNL A   1      41.774  28.423  28.419  1.00  0.00     0.167 HD
ATOM     51  C   UNL A   1      45.747  27.825  26.692  1.00  0.00     0.034 A 
ATOM     52  C   UNL A   1      39.905  29.757  30.018  1.00  0.00     0.034 A 
ATOM     53  C   UNL A   1      45.750  29.172  27.195  1.00  0.00     0.049 A 
ATOM     54  C   UNL A   1      41.097  30.669  29.914  1.00  0.00     0.074 A 
ATOM     55  C   UNL A   1      46.755  30.120  27.107  1.00  0.00     0.029 A 
ATOM     56  N   UNL A   1      44.706  29.759  27.893  1.00  0.00    -0.354 N 
ATOM     57  N   UNL A   1      42.226  30.482  29.274  1.00  0.00    -0.248 NA
ATOM     58  C   UNL A   1      40.999  31.971  30.590  1.00  0.00     0.031 C 
ATOM     59  C   UNL A   1      46.332  31.268  27.784  1.00  0.00     0.029 A 
ATOM     60  C   UNL A   1      45.048  31.051  28.257  1.00  0.00     0.049 A 
ATOM     61  H   UNL A   1      43.849  29.322  28.100  1.00  0.00     0.167 HD
ATOM     62  C   UNL A   1      42.956  31.653  29.439  1.00  0.00     0.074 A 
ATOM     63  C   UNL A   1      42.132  32.553  30.219  1.00  0.00     0.031 C 
ATOM     64  C   UNL A   1      44.202  31.954  28.993  1.00  0.00     0.034 A 
BRANCH  51  65
ATOM     65  C   UNL A   1      46.997  27.313  26.021  1.00  0.00     0.023 A 
ATOM     66  C   UNL A   1      47.207  27.565  24.649  1.00  0.00     0.012 A 
ATOM     67  C   UNL A   1      47.991  26.642  26.759  1.00  0.00     0.148 A 
ATOM     68  C   UNL A   1      48.369  27.127  24.015  1.00  0.00     0.002 A 
ATOM     69  C   UNL A   1      49.168  26.251  26.132  1.00  0.00     0.091 A 
ATOM     70  F   UNL A   1      47.766  26.394  28.057  1.00  0.00    -0.205 F 
ATOM     71  C   UNL A   1      49.353  26.481  24.758  1.00  0.00     0.022 A 
BRANCH  69  72
ATOM     72  S   UNL A   1      50.532  25.486  27.015  1.00  0.00     0.127 S 
ATOM     73  O   UNL A   1      51.481  25.236  25.931  1.00  0.00    -0.237 OA
ATOM     74  O   UNL A   1      50.929  26.546  27.942  1.00  0.00    -0.237 OA
ATOM     75  O   UNL A   1      49.984  24.295  27.650  1.00  0.00    -0.744 OA
ENDBRANCH  69  72
ENDBRANCH  51  65
BRANCH  52  76
ATOM     76  C   UNL A   1      38.690  30.172  30.775  1.00  0.00     0.023 A 
ATOM     77  C   UNL A   1      38.556  29.809  32.129  1.00  0.00     0.012 A 
ATOM     78  C   UNL A   1      37.677  30.939  30.167  1.00  0.00     0.148 A 
ATOM     79  C   UNL A   1      37.417  30.167  32.853  1.00  0.00     0.002 A 
ATOM     80  C   UNL A   1      36.574  31.342  30.909  1.00  0.00     0.091 A 
ATOM     81  F   UNL A   1      37.820  31.266  28.875  1.00  0.00    -0.205 F 
ATOM     82  C   UNL A   1      36.432  30.941  32.246  1.00  0.00     0.022 A 
BRANCH  80  83
ATOM     83  S   UNL A   1      35.323  32.448  30.248  1.00  0.00     0.127 S 
ATOM     84  O   UNL A   1      34.879  31.724  29.060  1.00  0.00    -0.237 OA
ATOM     85  O   UNL A   1      34.352  32.493  31.342  1.00  0.00    -0.237 OA
ATOM     86  O   UNL A   1      36.004  33.712  30.000  1.00  0.00    -0.744 OA
ENDBRANCH  80  83
ENDBRANCH  52  76
BRANCH  64  87
ATOM     87  C   UNL A   1      44.741  33.327  29.299  1.00  0.00     0.023 A 
ATOM     88  C   UNL A   1      45.397  33.571  30.522  1.00  0.00     0.012 A 
ATOM     89  C   UNL A   1      44.655  34.358  28.343  1.00  0.00     0.148 A 
ATOM     90  C   UNL A   1      45.926  34.831  30.803  1.00  0.00     0.002 A 
ATOM     91  C   UNL A   1      45.232  35.594  28.606  1.00  0.00     0.091 A 
ATOM     92  F   UNL A   1      44.012  34.110  27.192  1.00  0.00    -0.205 F 
ATOM     93  C   UNL A   1      45.854  35.837  29.842  1.00  0.00     0.022 A 
BRANCH  91  94
ATOM     94  S   UNL A   1      45.276  36.917  27.392  1.00  0.00     0.127 S 
ATOM     95  O   UNL A   1      43.852  37.157  27.163  1.00  0.00    -0.237 OA
ATOM     96  O   UNL A   1      45.966  37.982  28.121  1.00  0.00    -0.237 OA
ATOM     97  O   UNL A   1      46.011  36.390  26.250  1.00  0.00    -0.744 OA
ENDBRANCH  91  94
ENDBRANCH  64  87
ENDBRANCH  38  39
ENDBRANCH  30  33
ENDBRANCH  28  29
ENDBRANCH  27  28
ENDBRANCH  26  27
ENDBRANCH   1  26
TORSDOF 19
ENDMDL
MODEL 2
REMARK VINA RESULT:     -11.9      5.516      8.536
REMARK SMILES C[C@@H](C(=O)NCCCCCCNC(=O)c1ccc(-c2c3nc(c(-c4cccc(S(=O)(=O)[O-])c4F)c4ccc([nH]4)c(-c4cccc(S(=O)(=O)[O-])c4F)c4nc(c(-c5cccc(S(=O)(=O)[O-])c5F)c5ccc2[nH]5)C=C4)C=C3)cc1)c1ccc(-c2ccn(C(F)F)c(=O)c2)cc1
REMARK SMILES IDX 8 1 7 2 6 3 5 4 3 5 4 6 2 8 1 9 78 10 79 11 93 12 80 13
REMARK SMILES IDX 92 14 81 15 82 16 83 17 91 18 84 19 89 20 85 21 90 22 86 23
REMARK SMILES IDX 87 24 88 25 9 26 10 27 11 28 12 29 13 30 14 32 15 33 16 34
REMARK SMILES IDX 77 35 17 36 76 37 18 38 19 39 20 40 70 41 21 42 75 43 69 44
REMARK SMILES IDX 71 45 22 46 74 47 68 48 67 49 23 51 55 52 35 53 54 54 36 55
REMARK SMILES IDX 39 56 53 57 72 58 37 59 38 60 52 62 73 63 40 64 24 65 25 66
REMARK SMILES IDX 33 67 26 68 28 69 34 70 27 71 29 72 30 73 31 74 32 75 56 76
REMARK SMILES IDX 57 77 65 78 58 79 60 80 66 81 59 82 61 83 62 84 63 85 64 86
REMARK SMILES IDX 41 87 42 88 50 89 43 90 45 91 51 92 44 93 46 94 47 95 48 96
REMARK SMILES IDX 49 97
REMARK H PARENT 5 7 12 31 71 50 39 61
REMARK Flexibility Score: inf
ROOT
ATOM      1  C   UNL A   1      33.359  26.885  25.713  1.00  0.00     0.002 C 
ENDROOT
BRANCH   1   2
ATOM      2  C   UNL A   1      34.373  25.733  25.776  1.00  0.00     0.021 C 
BRANCH   2   3
ATOM      3  C   UNL A   1      33.739  24.351  25.976  1.00  0.00     0.116 C 
BRANCH   3   4
ATOM      4  N   UNL A   1      34.368  23.390  25.092  1.00  0.00    -0.356 N 
ATOM      5  C   UNL A   1      33.787  22.369  24.395  1.00  0.00     0.227 C 
ATOM      6  O   UNL A   1      34.506  21.398  24.151  1.00  0.00    -0.274 OA
ATOM      7  H   UNL A   1      35.341  23.485  24.979  1.00  0.00     0.163 HD
BRANCH   5   8
ATOM      8  C   UNL A   1      32.310  22.489  23.981  1.00  0.00     0.105 C 
ATOM      9  C   UNL A   1      32.085  21.624  22.729  1.00  0.00     0.023 C 
BRANCH   8  10
ATOM     10  C   UNL A   1      31.773  23.908  23.749  1.00  0.00    -0.036 A 
ATOM     11  C   UNL A   1      32.201  24.750  22.713  1.00  0.00     0.005 A 
ATOM     12  C   UNL A   1      30.783  24.410  24.617  1.00  0.00     0.005 A 
ATOM     13  C   UNL A   1      31.585  25.982  22.473  1.00  0.00     0.009 A 
ATOM     14  C   UNL A   1      30.164  25.639  24.381  1.00  0.00     0.009 A 
ATOM     15  C   UNL A   1      30.536  26.416  23.283  1.00  0.00    -0.018 A 
BRANCH  15  16
ATOM     16  C   UNL A   1      29.798  27.652  22.973  1.00  0.00    -0.011 A 
ATOM     17  C   UNL A   1      30.422  28.813  22.374  1.00  0.00     0.027 A 
ATOM     18  C   UNL A   1      28.502  27.709  23.327  1.00  0.00     0.080 A 
ATOM     19  C   UNL A   1      29.724  29.942  22.203  1.00  0.00     0.095 A 
ATOM     20  C   UNL A   1      27.709  28.951  23.125  1.00  0.00     0.255 A 
ATOM     21  N   UNL A   1      28.395  30.022  22.577  1.00  0.00    -0.258 N 
ATOM     22  O   UNL A   1      26.528  28.956  23.458  1.00  0.00    -0.269 OA
BRANCH  21  23
ATOM     23  C   UNL A   1      27.668  31.254  22.430  1.00  0.00     0.451 C 
ATOM     24  F   UNL A   1      27.387  31.810  23.634  1.00  0.00    -0.185 F 
ATOM     25  F   UNL A   1      28.377  32.155  21.707  1.00  0.00    -0.185 F 
ENDBRANCH  21  23
ENDBRANCH  15  16
ENDBRANCH   8  10
ENDBRANCH   5   8
ENDBRANCH   3   4
ENDBRANCH   2   3
ENDBRANCH   1   2
BRANCH   1  26
ATOM     26  C   UNL A   1      33.671  27.956  24.666  1.00  0.00     0.002 C 
BRANCH  26  27
ATOM     27  C   UNL A   1      32.773  29.191  24.734  1.00  0.00     0.021 C 
BRANCH  27  28
ATOM     28  C   UNL A   1      32.284  29.534  26.136  1.00  0.00     0.116 C 
BRANCH  28  29
ATOM     29  N   UNL A   1      32.050  30.962  26.296  1.00  0.00    -0.352 N 
ATOM     30  C   UNL A   1      32.735  31.865  27.068  1.00  0.00     0.251 C 
ATOM     31  H   UNL A   1      31.297  31.329  25.779  1.00  0.00     0.163 HD
ATOM     32  O   UNL A   1      32.274  32.991  27.253  1.00  0.00    -0.269 OA
BRANCH  30  33
ATOM     33  C   UNL A   1      34.017  31.473  27.688  1.00  0.00     0.039 A 
ATOM     34  C   UNL A   1      34.952  32.464  27.995  1.00  0.00     0.014 A 
ATOM     35  C   UNL A   1      34.291  30.132  27.973  1.00  0.00     0.014 A 
ATOM     36  C   UNL A   1      36.139  32.114  28.642  1.00  0.00     0.010 A 
ATOM     37  C   UNL A   1      35.437  29.797  28.688  1.00  0.00     0.010 A 
ATOM     38  C   UNL A   1      36.376  30.783  29.024  1.00  0.00    -0.014 A 
BRANCH  38  39
ATOM     39  C   UNL A   1      37.594  30.410  29.790  1.00  0.00     0.031 A 
ATOM     40  C   UNL A   1      38.598  29.452  29.208  1.00  0.00     0.074 A 
ATOM     41  C   UNL A   1      37.756  30.876  31.045  1.00  0.00     0.049 A 
ATOM     42  N   UNL A   1      39.694  28.983  29.744  1.00  0.00    -0.248 NA
ATOM     43  C   UNL A   1      38.322  28.932  27.858  1.00  0.00     0.031 C 
ATOM     44  C   UNL A   1      36.815  31.748  31.751  1.00  0.00     0.029 A 
ATOM     45  N   UNL A   1      38.758  30.662  31.959  1.00  0.00    -0.354 N 
ATOM     46  C   UNL A   1      40.222  28.093  28.817  1.00  0.00     0.074 A 
ATOM     47  C   UNL A   1      39.306  28.059  27.697  1.00  0.00     0.031 C 
ATOM     48  C   UNL A   1      37.287  32.001  32.982  1.00  0.00     0.029 A 
ATOM     49  C   UNL A   1      38.544  31.284  33.167  1.00  0.00     0.049 A 
ATOM     50  H   UNL A   1      39.555  30.117  31.767  1.00  0.00     0.167 HD
ATOM     51  C   UNL A   1      41.378  27.389  28.876  1.00  0.00     0.034 A 
ATOM     52  C   UNL A   1      39.270  31.267  34.302  1.00  0.00     0.034 A 
ATOM     53  C   UNL A   1      42.302  27.450  29.976  1.00  0.00     0.049 A 
ATOM     54  C   UNL A   1      40.562  30.498  34.332  1.00  0.00     0.074 A 
ATOM     55  C   UNL A   1      43.540  26.841  30.094  1.00  0.00     0.029 A 
ATOM     56  N   UNL A   1      42.086  28.149  31.154  1.00  0.00    -0.354 N 
ATOM     57  N   UNL A   1      41.123  29.789  33.382  1.00  0.00    -0.248 NA
ATOM     58  C   UNL A   1      41.342  30.555  35.577  1.00  0.00     0.031 C 
ATOM     59  C   UNL A   1      44.056  27.142  31.358  1.00  0.00     0.029 A 
ATOM     60  C   UNL A   1      43.160  27.974  32.012  1.00  0.00     0.049 A 
ATOM     61  H   UNL A   1      41.288  28.689  31.352  1.00  0.00     0.167 HD
ATOM     62  C   UNL A   1      42.334  29.346  33.900  1.00  0.00     0.074 A 
ATOM     63  C   UNL A   1      42.437  29.888  35.240  1.00  0.00     0.031 C 
ATOM     64  C   UNL A   1      43.273  28.555  33.324  1.00  0.00     0.034 A 
BRANCH  51  65
ATOM     65  C   UNL A   1      41.732  26.518  27.697  1.00  0.00     0.023 A 
ATOM     66  C   UNL A   1      42.417  27.076  26.597  1.00  0.00     0.012 A 
ATOM     67  C   UNL A   1      41.447  25.139  27.704  1.00  0.00     0.148 A 
ATOM     68  C   UNL A   1      42.780  26.283  25.509  1.00  0.00     0.002 A 
ATOM     69  C   UNL A   1      41.855  24.346  26.639  1.00  0.00     0.091 A 
ATOM     70  F   UNL A   1      40.779  24.630  28.749  1.00  0.00    -0.205 F 
ATOM     71  C   UNL A   1      42.511  24.918  25.536  1.00  0.00     0.022 A 
BRANCH  69  72
ATOM     72  S   UNL A   1      41.630  22.564  26.612  1.00  0.00     0.127 S 
ATOM     73  O   UNL A   1      42.285  22.203  25.355  1.00  0.00    -0.237 OA
ATOM     74  O   UNL A   1      42.347  22.146  27.816  1.00  0.00    -0.237 OA
ATOM     75  O   UNL A   1      40.191  22.339  26.649  1.00  0.00    -0.744 OA
ENDBRANCH  69  72
ENDBRANCH  51  65
BRANCH  52  76
ATOM     76  C   UNL A   1      38.819  32.047  35.490  1.00  0.00     0.023 A 
ATOM     77  C   UNL A   1      38.971  33.447  35.503  1.00  0.00     0.012 A 
ATOM     78  C   UNL A   1      38.225  31.412  36.597  1.00  0.00     0.148 A 
ATOM     79  C   UNL A   1      38.578  34.196  36.612  1.00  0.00     0.002 A 
ATOM     80  C   UNL A   1      37.781  32.169  37.674  1.00  0.00     0.091 A 
ATOM     81  F   UNL A   1      38.097  30.077  36.569  1.00  0.00    -0.205 F 
ATOM     82  C   UNL A   1      37.974  33.558  37.693  1.00  0.00     0.022 A 
BRANCH  80  83
ATOM     83  S   UNL A   1      36.875  31.449  39.048  1.00  0.00     0.127 S 
ATOM     84  O   UNL A   1      35.701  32.313  39.119  1.00  0.00    -0.237 OA
ATOM     85  O   UNL A   1      36.616  30.093  38.561  1.00  0.00    -0.237 OA
ATOM     86  O   UNL A   1      37.777  31.512  40.191  1.00  0.00    -0.744 OA
ENDBRANCH  80  83
ENDBRANCH  52  76
BRANCH  64  87
ATOM     87  C   UNL A   1      44.518  28.254  34.118  1.00  0.00     0.023 A 
ATOM     88  C   UNL A   1      45.609  29.145  34.083  1.00  0.00     0.012 A 
ATOM     89  C   UNL A   1      44.577  27.120  34.952  1.00  0.00     0.148 A 
ATOM     90  C   UNL A   1      46.754  28.891  34.837  1.00  0.00     0.002 A 
ATOM     91  C   UNL A   1      45.699  26.903  35.742  1.00  0.00     0.091 A 
ATOM     92  F   UNL A   1      43.535  26.276  34.959  1.00  0.00    -0.205 F 
ATOM     93  C   UNL A   1      46.794  27.778  35.674  1.00  0.00     0.022 A 
BRANCH  91  94
ATOM     94  S   UNL A   1      45.800  25.553  36.923  1.00  0.00     0.127 S 
ATOM     95  O   UNL A   1      44.511  25.658  37.605  1.00  0.00    -0.237 OA
ATOM     96  O   UNL A   1      45.936  24.387  36.049  1.00  0.00    -0.237 OA
ATOM     97  O   UNL A   1      46.967  25.830  37.750  1.00  0.00    -0.744 OA
ENDBRANCH  91  94
ENDBRANCH  64  87
ENDBRANCH  38  39
ENDBRANCH  30  33
ENDBRANCH  28  29
ENDBRANCH  27  28
ENDBRANCH  26  27
ENDBRANCH   1  26
TORSDOF 19
ENDMDL
MODEL 3
REMARK VINA RESULT:     -11.7      0.643      7.603
REMARK SMILES C[C@@H](C(=O)NCCCCCCNC(=O)c1ccc(-c2c3nc(c(-c4cccc(S(=O)(=O)[O-])c4F)c4ccc([nH]4)c(-c4cccc(S(=O)(=O)[O-])c4F)c4nc(c(-c5cccc(S(=O)(=O)[O-])c5F)c5ccc2[nH]5)C=C4)C=C3)cc1)c1ccc(-c2ccn(C(F)F)c(=O)c2)cc1
REMARK SMILES IDX 8 1 7 2 6 3 5 4 3 5 4 6 2 8 1 9 78 10 79 11 93 12 80 13
REMARK SMILES IDX 92 14 81 15 82 16 83 17 91 18 84 19 89 20 85 21 90 22 86 23
REMARK SMILES IDX 87 24 88 25 9 26 10 27 11 28 12 29 13 30 14 32 15 33 16 34
REMARK SMILES IDX 77 35 17 36 76 37 18 38 19 39 20 40 70 41 21 42 75 43 69 44
REMARK SMILES IDX 71 45 22 46 74 47 68 48 67 49 23 51 55 52 35 53 54 54 36 55
REMARK SMILES IDX 39 56 53 57 72 58 37 59 38 60 52 62 73 63 40 64 24 65 25 66
REMARK SMILES IDX 33 67 26 68 28 69 34 70 27 71 29 72 30 73 31 74 32 75 56 76
REMARK SMILES IDX 57 77 65 78 58 79 60 80 66 81 59 82 61 83 62 84 63 85 64 86
REMARK SMILES IDX 41 87 42 88 50 89 43 90 45 91 51 92 44 93 46 94 47 95 48 96
REMARK SMILES IDX 49 97
REMARK H PARENT 5 7 12 31 71 50 39 61
REMARK Flexibility Score: inf
ROOT
ATOM      1  C   UNL A   1      34.829  23.803  25.228  1.00  0.00     0.002 C 
ENDROOT
BRANCH   1   2
ATOM      2  C   UNL A   1      34.969  25.308  25.500  1.00  0.00     0.021 C 
BRANCH   2   3
ATOM      3  C   UNL A   1      34.014  26.183  24.679  1.00  0.00     0.116 C 
BRANCH   3   4
ATOM      4  N   UNL A   1      32.949  26.678  25.529  1.00  0.00    -0.356 N 
ATOM      5  C   UNL A   1      31.657  26.964  25.192  1.00  0.00     0.227 C 
ATOM      6  O   UNL A   1      31.096  27.826  25.871  1.00  0.00    -0.274 OA
ATOM      7  H   UNL A   1      33.188  26.828  26.472  1.00  0.00     0.163 HD
BRANCH   5   8
ATOM      8  C   UNL A   1      31.006  26.220  24.013  1.00  0.00     0.105 C 
ATOM      9  C   UNL A   1      29.489  26.467  24.060  1.00  0.00     0.023 C 
BRANCH   8  10
ATOM     10  C   UNL A   1      31.297  24.716  23.903  1.00  0.00    -0.036 A 
ATOM     11  C   UNL A   1      31.848  24.104  22.768  1.00  0.00     0.005 A 
ATOM     12  C   UNL A   1      31.007  23.887  25.004  1.00  0.00     0.005 A 
ATOM     13  C   UNL A   1      32.211  22.754  22.773  1.00  0.00     0.009 A 
ATOM     14  C   UNL A   1      31.368  22.538  25.013  1.00  0.00     0.009 A 
ATOM     15  C   UNL A   1      32.008  21.972  23.910  1.00  0.00    -0.018 A 
BRANCH  15  16
ATOM     16  C   UNL A   1      32.492  20.583  23.973  1.00  0.00    -0.011 A 
ATOM     17  C   UNL A   1      33.364  20.100  25.023  1.00  0.00     0.027 A 
ATOM     18  C   UNL A   1      32.151  19.757  22.969  1.00  0.00     0.080 A 
ATOM     19  C   UNL A   1      33.851  18.855  24.979  1.00  0.00     0.095 A 
ATOM     20  C   UNL A   1      32.668  18.363  22.917  1.00  0.00     0.255 A 
ATOM     21  N   UNL A   1      33.522  17.998  23.945  1.00  0.00    -0.258 N 
ATOM     22  O   UNL A   1      32.326  17.643  21.984  1.00  0.00    -0.269 OA
BRANCH  21  23
ATOM     23  C   UNL A   1      34.086  16.676  23.883  1.00  0.00     0.451 C 
ATOM     24  F   UNL A   1      35.195  16.574  24.656  1.00  0.00    -0.185 F 
ATOM     25  F   UNL A   1      33.194  15.746  24.304  1.00  0.00    -0.185 F 
ENDBRANCH  21  23
ENDBRANCH  15  16
ENDBRANCH   8  10
ENDBRANCH   5   8
ENDBRANCH   3   4
ENDBRANCH   2   3
ENDBRANCH   1   2
BRANCH   1  26
ATOM     26  C   UNL A   1      35.566  23.307  23.982  1.00  0.00     0.002 C 
BRANCH  26  27
ATOM     27  C   UNL A   1      36.284  21.969  24.159  1.00  0.00     0.021 C 
BRANCH  27  28
ATOM     28  C   UNL A   1      36.650  21.640  25.601  1.00  0.00     0.116 C 
BRANCH  28  29
ATOM     29  N   UNL A   1      37.640  20.576  25.681  1.00  0.00    -0.352 N 
ATOM     30  C   UNL A   1      38.984  20.668  25.939  1.00  0.00     0.251 C 
ATOM     31  H   UNL A   1      37.299  19.666  25.527  1.00  0.00     0.163 HD
ATOM     32  O   UNL A   1      39.714  19.695  25.759  1.00  0.00    -0.269 OA
BRANCH  30  33
ATOM     33  C   UNL A   1      39.550  21.946  26.419  1.00  0.00     0.039 A 
ATOM     34  C   UNL A   1      40.579  21.919  27.362  1.00  0.00     0.014 A 
ATOM     35  C   UNL A   1      39.072  23.165  25.930  1.00  0.00     0.014 A 
ATOM     36  C   UNL A   1      41.167  23.118  27.773  1.00  0.00     0.010 A 
ATOM     37  C   UNL A   1      39.713  24.350  26.281  1.00  0.00     0.010 A 
ATOM     38  C   UNL A   1      40.763  24.339  27.211  1.00  0.00    -0.014 A 
BRANCH  38  39
ATOM     39  C   UNL A   1      41.439  25.612  27.573  1.00  0.00     0.031 A 
ATOM     40  C   UNL A   1      40.690  26.694  28.304  1.00  0.00     0.074 A 
ATOM     41  C   UNL A   1      42.709  25.824  27.174  1.00  0.00     0.049 A 
ATOM     42  N   UNL A   1      41.103  27.880  28.666  1.00  0.00    -0.248 NA
ATOM     43  C   UNL A   1      39.286  26.417  28.650  1.00  0.00     0.031 C 
ATOM     44  C   UNL A   1      43.518  24.887  26.390  1.00  0.00     0.029 A 
ATOM     45  N   UNL A   1      43.536  26.906  27.349  1.00  0.00    -0.354 N 
ATOM     46  C   UNL A   1      40.008  28.503  29.253  1.00  0.00     0.074 A 
ATOM     47  C   UNL A   1      38.900  27.576  29.165  1.00  0.00     0.031 C 
ATOM     48  C   UNL A   1      44.724  25.429  26.162  1.00  0.00     0.029 A 
ATOM     49  C   UNL A   1      44.765  26.764  26.748  1.00  0.00     0.049 A 
ATOM     50  H   UNL A   1      43.275  27.707  27.859  1.00  0.00     0.167 HD
ATOM     51  C   UNL A   1      39.936  29.722  29.837  1.00  0.00     0.034 A 
ATOM     52  C   UNL A   1      45.804  27.618  26.666  1.00  0.00     0.034 A 
ATOM     53  C   UNL A   1      41.047  30.627  29.951  1.00  0.00     0.049 A 
ATOM     54  C   UNL A   1      45.707  28.956  27.346  1.00  0.00     0.074 A 
ATOM     55  C   UNL A   1      41.098  31.849  30.599  1.00  0.00     0.029 A 
ATOM     56  N   UNL A   1      42.299  30.419  29.393  1.00  0.00    -0.354 N 
ATOM     57  N   UNL A   1      44.712  29.462  28.034  1.00  0.00    -0.248 NA
ATOM     58  C   UNL A   1      46.887  29.829  27.271  1.00  0.00     0.031 C 
ATOM     59  C   UNL A   1      42.370  32.396  30.402  1.00  0.00     0.029 A 
ATOM     60  C   UNL A   1      43.125  31.496  29.668  1.00  0.00     0.049 A 
ATOM     61  H   UNL A   1      42.562  29.623  28.878  1.00  0.00     0.167 HD
ATOM     62  C   UNL A   1      45.157  30.692  28.503  1.00  0.00     0.074 A 
ATOM     63  C   UNL A   1      46.522  30.845  28.040  1.00  0.00     0.031 C 
ATOM     64  C   UNL A   1      44.495  31.617  29.241  1.00  0.00     0.034 A 
BRANCH  51  65
ATOM     65  C   UNL A   1      38.616  30.137  30.437  1.00  0.00     0.023 A 
ATOM     66  C   UNL A   1      38.312  29.782  31.768  1.00  0.00     0.012 A 
ATOM     67  C   UNL A   1      37.708  30.931  29.711  1.00  0.00     0.148 A 
ATOM     68  C   UNL A   1      37.110  30.180  32.353  1.00  0.00     0.002 A 
ATOM     69  C   UNL A   1      36.535  31.365  30.316  1.00  0.00     0.091 A 
ATOM     70  F   UNL A   1      38.005  31.244  28.441  1.00  0.00    -0.205 F 
ATOM     71  C   UNL A   1      36.229  30.981  31.632  1.00  0.00     0.022 A 
BRANCH  69  72
ATOM     72  S   UNL A   1      35.372  32.467  29.504  1.00  0.00     0.127 S 
ATOM     73  O   UNL A   1      36.225  33.610  29.182  1.00  0.00    -0.237 OA
ATOM     74  O   UNL A   1      34.953  31.673  28.349  1.00  0.00    -0.237 OA
ATOM     75  O   UNL A   1      34.320  32.731  30.476  1.00  0.00    -0.744 OA
ENDBRANCH  69  72
ENDBRANCH  51  65
BRANCH  52  76
ATOM     76  C   UNL A   1      47.050  27.213  25.955  1.00  0.00     0.023 A 
ATOM     77  C   UNL A   1      47.180  27.472  24.577  1.00  0.00     0.012 A 
ATOM     78  C   UNL A   1      48.112  26.589  26.638  1.00  0.00     0.148 A 
ATOM     79  C   UNL A   1      48.327  27.082  23.884  1.00  0.00     0.002 A 
ATOM     80  C   UNL A   1      49.275  26.257  25.955  1.00  0.00     0.091 A 
ATOM     81  F   UNL A   1      47.965  26.343  27.948  1.00  0.00    -0.205 F 
ATOM     82  C   UNL A   1      49.377  26.484  24.574  1.00  0.00     0.022 A 
BRANCH  80  83
ATOM     83  S   UNL A   1      50.727  25.604  26.788  1.00  0.00     0.127 S 
ATOM     84  O   UNL A   1      51.117  26.728  27.635  1.00  0.00    -0.237 OA
ATOM     85  O   UNL A   1      50.172  24.455  27.505  1.00  0.00    -0.237 OA
ATOM     86  O   UNL A   1      51.664  25.254  25.729  1.00  0.00    -0.744 OA
ENDBRANCH  80  83
ENDBRANCH  52  76
BRANCH  64  87
ATOM     87  C   UNL A   1      45.244  32.864  29.635  1.00  0.00     0.023 A 
ATOM     88  C   UNL A   1      46.004  32.886  30.821  1.00  0.00     0.012 A 
ATOM     89  C   UNL A   1      45.244  33.993  28.792  1.00  0.00     0.148 A 
ATOM     90  C   UNL A   1      46.724  34.025  31.179  1.00  0.00     0.002 A 
ATOM     91  C   UNL A   1      46.008  35.104  29.127  1.00  0.00     0.091 A 
ATOM     92  F   UNL A   1      44.501  33.958  27.676  1.00  0.00    -0.205 F 
ATOM     93  C   UNL A   1      46.736  35.128  30.328  1.00  0.00     0.022 A 
BRANCH  91  94
ATOM     94  S   UNL A   1      46.163  36.530  28.046  1.00  0.00     0.127 S 
ATOM     95  O   UNL A   1      44.854  37.163  28.199  1.00  0.00    -0.237 OA
ATOM     96  O   UNL A   1      47.271  37.263  28.660  1.00  0.00    -0.237 OA
ATOM     97  O   UNL A   1      46.449  36.001  26.720  1.00  0.00    -0.744 OA
ENDBRANCH  91  94
ENDBRANCH  64  87
ENDBRANCH  38  39
ENDBRANCH  30  33
ENDBRANCH  28  29
ENDBRANCH  27  28
ENDBRANCH  26  27
ENDBRANCH   1  26
TORSDOF 19
ENDMDL
