MODEL 1
REMARK VINA RESULT:     -12.3      0.000      0.000
REMARK SMILES NS(=O)(=O)c1ccc(-n2nc(C(=O)NCCCCCCNC(=O)c3ccc(-c4c5nc(c(-c6cccc(S(=O)(=O)[O-])c6F)c6ccc([nH]6)c(-c6cccc(S(=O)(=O)[O-])c6F)c6nc(c(-c7cccc(S(=O)(=O)[O-])c7F)c7ccc4[nH]7)C=C6)C=C5)cc3)cc2-c2ccc(Cl)s2)cc1
REMARK SMILES IDX 17 1 16 2 15 3 14 4 12 5 13 6 11 8 9 9 10 10 88 11 87 12
REMARK SMILES IDX 8 13 5 14 6 15 96 16 7 17 95 18 2 19 3 20 4 21 1 22 89 25
REMARK SMILES IDX 90 26 94 27 91 28 92 29 93 30 18 31 19 32 20 33 21 34 22 35
REMARK SMILES IDX 23 37 24 38 25 39 86 40 26 41 85 42 27 43 28 44 29 45 79 46
REMARK SMILES IDX 30 47 84 48 78 49 80 50 31 51 83 52 77 53 76 54 32 56 64 57
REMARK SMILES IDX 44 58 63 59 45 60 48 61 62 62 81 63 46 64 47 65 61 67 82 68
REMARK SMILES IDX 49 69 33 70 34 71 42 72 35 73 37 74 43 75 36 76 38 77 39 78
REMARK SMILES IDX 40 79 41 80 65 81 66 82 74 83 67 84 69 85 75 86 68 87 70 88
REMARK SMILES IDX 71 89 72 90 73 91 50 92 51 93 59 94 52 95 54 96 60 97 53 98
REMARK SMILES IDX 55 99 56 100 57 101 58 102
REMARK H PARENT 14 7 1 23 1 24 21 36 80 55 48 66
REMARK Flexibility Score: inf
ROOT
ATOM      1  C   UNL A   1      35.037  21.610  24.979  1.00  0.00     0.002 C 
ENDROOT
BRANCH   1   2
ATOM      2  C   UNL A   1      33.710  20.874  24.753  1.00  0.00     0.021 C 
BRANCH   2   3
ATOM      3  C   UNL A   1      32.631  21.755  24.127  1.00  0.00     0.116 C 
BRANCH   3   4
ATOM      4  N   UNL A   1      33.030  22.239  22.823  1.00  0.00    -0.351 N 
ATOM      5  C   UNL A   1      33.047  23.482  22.234  1.00  0.00     0.271 C 
ATOM      6  O   UNL A   1      33.505  23.506  21.086  1.00  0.00    -0.267 OA
ATOM      7  H   UNL A   1      33.358  21.525  22.230  1.00  0.00     0.163 HD
BRANCH   5   8
ATOM      8  C   UNL A   1      32.609  24.712  22.934  1.00  0.00     0.151 A 
ATOM      9  N   UNL A   1      31.564  26.587  23.178  1.00  0.00    -0.231 N 
ATOM     10  N   UNL A   1      31.677  25.509  22.366  1.00  0.00    -0.162 NA
ATOM     11  C   UNL A   1      32.369  26.483  24.290  1.00  0.00     0.085 A 
ATOM     12  C   UNL A   1      32.988  25.259  24.182  1.00  0.00     0.066 A 
BRANCH   9  13
ATOM     13  C   UNL A   1      30.692  27.646  22.843  1.00  0.00     0.065 A 
ATOM     14  C   UNL A   1      29.045  29.850  22.500  1.00  0.00     0.082 A 
ATOM     15  C   UNL A   1      30.349  29.883  21.992  1.00  0.00     0.024 A 
ATOM     16  C   UNL A   1      28.542  28.702  23.123  1.00  0.00     0.024 A 
ATOM     17  C   UNL A   1      31.182  28.781  22.182  1.00  0.00     0.030 A 
ATOM     18  C   UNL A   1      29.361  27.583  23.274  1.00  0.00     0.030 A 
BRANCH  14  19
ATOM     19  S   UNL A   1      28.023  31.285  22.357  1.00  0.00     0.238 S 
ATOM     20  O   UNL A   1      27.162  31.377  23.522  1.00  0.00    -0.207 OA
ATOM     21  O   UNL A   1      27.506  31.370  21.018  1.00  0.00    -0.207 OA
BRANCH  19  22
ATOM     22  N   UNL A   1      29.148  32.515  22.511  1.00  0.00    -0.225 NA
ATOM     23  H   UNL A   1      29.977  32.288  21.963  1.00  0.00     0.137 HD
ATOM     24  H   UNL A   1      29.407  32.618  23.492  1.00  0.00     0.137 HD
ENDBRANCH  19  22
ENDBRANCH  14  19
ENDBRANCH   9  13
BRANCH  11  25
ATOM     25  C   UNL A   1      32.441  27.376  25.406  1.00  0.00     0.054 A 
ATOM     26  C   UNL A   1      31.777  27.238  26.610  1.00  0.00     0.024 A 
ATOM     27  S   UNL A   1      33.304  28.854  25.324  1.00  0.00    -0.122 S 
ATOM     28  C   UNL A   1      31.973  28.364  27.464  1.00  0.00     0.033 A 
ATOM     29  C   UNL A   1      32.777  29.301  26.866  1.00  0.00     0.094 A 
ATOM     30  Cl  UNL A   1      33.262  30.805  27.534  1.00  0.00    -0.072 Cl
ENDBRANCH  11  25
ENDBRANCH   5   8
ENDBRANCH   3   4
ENDBRANCH   2   3
ENDBRANCH   1   2
BRANCH   1  31
ATOM     31  C   UNL A   1      34.973  22.828  25.917  1.00  0.00     0.002 C 
BRANCH  31  32
ATOM     32  C   UNL A   1      36.317  23.463  26.305  1.00  0.00     0.021 C 
BRANCH  32  33
ATOM     33  C   UNL A   1      37.486  22.977  25.464  1.00  0.00     0.116 C 
BRANCH  33  34
ATOM     34  N   UNL A   1      38.295  21.983  26.169  1.00  0.00    -0.352 N 
ATOM     35  C   UNL A   1      39.573  22.121  26.668  1.00  0.00     0.251 C 
ATOM     36  H   UNL A   1      37.873  21.104  26.304  1.00  0.00     0.163 HD
ATOM     37  O   UNL A   1      40.259  21.131  26.898  1.00  0.00    -0.269 OA
BRANCH  35  38
ATOM     38  C   UNL A   1      40.098  23.475  26.913  1.00  0.00     0.039 A 
ATOM     39  C   UNL A   1      39.689  24.556  26.132  1.00  0.00     0.014 A 
ATOM     40  C   UNL A   1      40.987  23.659  27.971  1.00  0.00     0.014 A 
ATOM     41  C   UNL A   1      40.118  25.832  26.486  1.00  0.00     0.010 A 
ATOM     42  C   UNL A   1      41.267  24.926  28.418  1.00  0.00     0.010 A 
ATOM     43  C   UNL A   1      40.881  26.017  27.654  1.00  0.00    -0.014 A 
BRANCH  43  44
ATOM     44  C   UNL A   1      41.169  27.366  28.136  1.00  0.00     0.031 A 
ATOM     45  C   UNL A   1      42.442  27.923  27.614  1.00  0.00     0.074 A 
ATOM     46  C   UNL A   1      40.324  28.115  28.878  1.00  0.00     0.049 A 
ATOM     47  N   UNL A   1      43.569  27.978  28.244  1.00  0.00    -0.248 NA
ATOM     48  C   UNL A   1      42.539  28.276  26.191  1.00  0.00     0.031 C 
ATOM     49  C   UNL A   1      38.921  27.839  29.216  1.00  0.00     0.029 A 
ATOM     50  N   UNL A   1      40.516  29.357  29.406  1.00  0.00    -0.354 N 
ATOM     51  C   UNL A   1      44.445  28.631  27.382  1.00  0.00     0.074 A 
ATOM     52  C   UNL A   1      43.836  28.583  26.081  1.00  0.00     0.031 C 
ATOM     53  C   UNL A   1      38.327  28.971  29.653  1.00  0.00     0.029 A 
ATOM     54  C   UNL A   1      39.346  29.987  29.820  1.00  0.00     0.049 A 
ATOM     55  H   UNL A   1      41.404  29.773  29.487  1.00  0.00     0.167 HD
ATOM     56  C   UNL A   1      45.444  29.409  27.883  1.00  0.00     0.034 A 
ATOM     57  C   UNL A   1      39.225  31.262  30.260  1.00  0.00     0.034 A 
ATOM     58  C   UNL A   1      45.565  29.226  29.309  1.00  0.00     0.049 A 
ATOM     59  C   UNL A   1      40.548  31.660  30.780  1.00  0.00     0.074 A 
ATOM     60  C   UNL A   1      45.956  28.221  30.165  1.00  0.00     0.029 A 
ATOM     61  N   UNL A   1      44.821  30.120  30.035  1.00  0.00    -0.354 N 
ATOM     62  N   UNL A   1      41.098  31.113  31.827  1.00  0.00    -0.248 NA
ATOM     63  C   UNL A   1      41.439  32.441  29.937  1.00  0.00     0.031 C 
ATOM     64  C   UNL A   1      45.187  28.410  31.353  1.00  0.00     0.029 A 
ATOM     65  C   UNL A   1      44.396  29.551  31.202  1.00  0.00     0.049 A 
ATOM     66  H   UNL A   1      44.620  31.042  29.755  1.00  0.00     0.167 HD
ATOM     67  C   UNL A   1      42.445  31.076  31.512  1.00  0.00     0.074 A 
ATOM     68  C   UNL A   1      42.612  32.064  30.453  1.00  0.00     0.031 C 
ATOM     69  C   UNL A   1      43.224  30.029  31.911  1.00  0.00     0.034 A 
BRANCH  56  70
ATOM     70  C   UNL A   1      45.990  30.673  27.245  1.00  0.00     0.023 A 
ATOM     71  C   UNL A   1      47.396  30.837  27.256  1.00  0.00     0.012 A 
ATOM     72  C   UNL A   1      45.219  31.814  26.929  1.00  0.00     0.148 A 
ATOM     73  C   UNL A   1      47.996  32.079  27.018  1.00  0.00     0.002 A 
ATOM     74  C   UNL A   1      45.823  33.029  26.622  1.00  0.00     0.091 A 
ATOM     75  F   UNL A   1      43.891  31.778  27.054  1.00  0.00    -0.205 F 
ATOM     76  C   UNL A   1      47.210  33.176  26.696  1.00  0.00     0.022 A 
BRANCH  74  77
ATOM     77  S   UNL A   1      44.858  34.476  26.165  1.00  0.00     0.127 S 
ATOM     78  O   UNL A   1      43.962  33.922  25.153  1.00  0.00    -0.237 OA
ATOM     79  O   UNL A   1      44.223  34.820  27.437  1.00  0.00    -0.237 OA
ATOM     80  O   UNL A   1      45.823  35.460  25.693  1.00  0.00    -0.744 OA
ENDBRANCH  74  77
ENDBRANCH  56  70
BRANCH  57  81
ATOM     81  C   UNL A   1      38.129  32.239  30.080  1.00  0.00     0.023 A 
ATOM     82  C   UNL A   1      37.517  32.375  28.818  1.00  0.00     0.012 A 
ATOM     83  C   UNL A   1      37.474  32.788  31.204  1.00  0.00     0.148 A 
ATOM     84  C   UNL A   1      36.264  32.985  28.686  1.00  0.00     0.002 A 
ATOM     85  C   UNL A   1      36.228  33.392  31.069  1.00  0.00     0.091 A 
ATOM     86  F   UNL A   1      38.032  32.631  32.412  1.00  0.00    -0.205 F 
ATOM     87  C   UNL A   1      35.612  33.478  29.813  1.00  0.00     0.022 A 
BRANCH  85  88
ATOM     88  S   UNL A   1      35.303  34.010  32.481  1.00  0.00     0.127 S 
ATOM     89  O   UNL A   1      34.037  34.401  31.863  1.00  0.00    -0.237 OA
ATOM     90  O   UNL A   1      35.229  32.828  33.334  1.00  0.00    -0.237 OA
ATOM     91  O   UNL A   1      36.082  35.122  33.012  1.00  0.00    -0.744 OA
ENDBRANCH  85  88
ENDBRANCH  57  81
BRANCH  69  92
ATOM     92  C   UNL A   1      42.738  29.200  33.068  1.00  0.00     0.023 A 
ATOM     93  C   UNL A   1      41.756  28.196  32.946  1.00  0.00     0.012 A 
ATOM     94  C   UNL A   1      43.380  29.379  34.304  1.00  0.00     0.148 A 
ATOM     95  C   UNL A   1      41.410  27.403  34.045  1.00  0.00     0.002 A 
ATOM     96  C   UNL A   1      43.069  28.558  35.379  1.00  0.00     0.091 A 
ATOM     97  F   UNL A   1      44.305  30.346  34.401  1.00  0.00    -0.205 F 
ATOM     98  C   UNL A   1      42.076  27.576  35.258  1.00  0.00     0.022 A 
BRANCH  96  99
ATOM     99  S   UNL A   1      43.975  28.662  36.922  1.00  0.00     0.127 S 
ATOM    100  O   UNL A   1      43.520  29.941  37.459  1.00  0.00    -0.237 OA
ATOM    101  O   UNL A   1      43.491  27.486  37.647  1.00  0.00    -0.237 OA
ATOM    102  O   UNL A   1      45.387  28.598  36.565  1.00  0.00    -0.744 OA
ENDBRANCH  96  99
ENDBRANCH  69  92
ENDBRANCH  43  44
ENDBRANCH  35  38
ENDBRANCH  33  34
ENDBRANCH  32  33
ENDBRANCH  31  32
ENDBRANCH   1  31
TORSDOF 20
ENDMDL
MODEL 2
REMARK VINA RESULT:     -11.9      3.473      9.191
REMARK SMILES NS(=O)(=O)c1ccc(-n2nc(C(=O)NCCCCCCNC(=O)c3ccc(-c4c5nc(c(-c6cccc(S(=O)(=O)[O-])c6F)c6ccc([nH]6)c(-c6cccc(S(=O)(=O)[O-])c6F)c6nc(c(-c7cccc(S(=O)(=O)[O-])c7F)c7ccc4[nH]7)C=C6)C=C5)cc3)cc2-c2ccc(Cl)s2)cc1
REMARK SMILES IDX 17 1 16 2 15 3 14 4 12 5 13 6 11 8 9 9 10 10 88 11 87 12
REMARK SMILES IDX 8 13 5 14 6 15 96 16 7 17 95 18 2 19 3 20 4 21 1 22 89 25
REMARK SMILES IDX 90 26 94 27 91 28 92 29 93 30 18 31 19 32 20 33 21 34 22 35
REMARK SMILES IDX 23 37 24 38 25 39 86 40 26 41 85 42 27 43 28 44 29 45 79 46
REMARK SMILES IDX 30 47 84 48 78 49 80 50 31 51 83 52 77 53 76 54 32 56 64 57
REMARK SMILES IDX 44 58 63 59 45 60 48 61 62 62 81 63 46 64 47 65 61 67 82 68
REMARK SMILES IDX 49 69 33 70 34 71 42 72 35 73 37 74 43 75 36 76 38 77 39 78
REMARK SMILES IDX 40 79 41 80 65 81 66 82 74 83 67 84 69 85 75 86 68 87 70 88
REMARK SMILES IDX 71 89 72 90 73 91 50 92 51 93 59 94 52 95 54 96 60 97 53 98
REMARK SMILES IDX 55 99 56 100 57 101 58 102
REMARK H PARENT 14 7 1 23 1 24 21 36 80 55 48 66
REMARK Flexibility Score: inf
ROOT
ATOM      1  C   UNL A   1      31.544  29.786  25.373  1.00  0.00     0.002 C 
ENDROOT
BRANCH   1   2
ATOM      2  C   UNL A   1      31.995  28.321  25.335  1.00  0.00     0.021 C 
BRANCH   2   3
ATOM      3  C   UNL A   1      30.958  27.355  25.906  1.00  0.00     0.116 C 
BRANCH   3   4
ATOM      4  N   UNL A   1      30.124  26.795  24.866  1.00  0.00    -0.351 N 
ATOM      5  C   UNL A   1      30.238  25.699  24.042  1.00  0.00     0.271 C 
ATOM      6  O   UNL A   1      29.278  25.517  23.284  1.00  0.00    -0.267 OA
ATOM      7  H   UNL A   1      29.298  27.308  24.714  1.00  0.00     0.163 HD
BRANCH   5   8
ATOM      8  C   UNL A   1      31.391  24.770  24.092  1.00  0.00     0.151 A 
ATOM      9  N   UNL A   1      32.391  22.859  24.210  1.00  0.00    -0.231 N 
ATOM     10  N   UNL A   1      31.178  23.436  24.041  1.00  0.00    -0.162 NA
ATOM     11  C   UNL A   1      33.398  23.792  24.320  1.00  0.00     0.085 A 
ATOM     12  C   UNL A   1      32.782  25.014  24.174  1.00  0.00     0.066 A 
BRANCH   9  13
ATOM     13  C   UNL A   1      32.514  21.452  24.253  1.00  0.00     0.065 A 
ATOM     14  C   UNL A   1      33.066  18.737  24.192  1.00  0.00     0.082 A 
ATOM     15  C   UNL A   1      33.282  19.453  25.374  1.00  0.00     0.024 A 
ATOM     16  C   UNL A   1      32.519  19.356  23.062  1.00  0.00     0.024 A 
ATOM     17  C   UNL A   1      33.023  20.823  25.397  1.00  0.00     0.030 A 
ATOM     18  C   UNL A   1      32.217  20.717  23.098  1.00  0.00     0.030 A 
BRANCH  14  19
ATOM     19  S   UNL A   1      33.497  17.023  24.127  1.00  0.00     0.238 S 
ATOM     20  O   UNL A   1      34.632  16.781  24.999  1.00  0.00    -0.207 OA
ATOM     21  O   UNL A   1      33.477  16.578  22.760  1.00  0.00    -0.207 OA
BRANCH  19  22
ATOM     22  N   UNL A   1      32.176  16.317  24.875  1.00  0.00    -0.225 NA
ATOM     23  H   UNL A   1      32.119  16.641  25.840  1.00  0.00     0.137 HD
ATOM     24  H   UNL A   1      32.280  15.302  24.863  1.00  0.00     0.137 HD
ENDBRANCH  19  22
ENDBRANCH  14  19
ENDBRANCH   9  13
BRANCH  11  25
ATOM     25  C   UNL A   1      34.806  23.556  24.409  1.00  0.00     0.054 A 
ATOM     26  C   UNL A   1      35.608  23.005  23.428  1.00  0.00     0.024 A 
ATOM     27  S   UNL A   1      35.677  23.830  25.859  1.00  0.00    -0.122 S 
ATOM     28  C   UNL A   1      36.945  22.796  23.881  1.00  0.00     0.033 A 
ATOM     29  C   UNL A   1      37.092  23.201  25.183  1.00  0.00     0.094 A 
ATOM     30  Cl  UNL A   1      38.527  23.124  26.120  1.00  0.00    -0.072 Cl
ENDBRANCH  11  25
ENDBRANCH   5   8
ENDBRANCH   3   4
ENDBRANCH   2   3
ENDBRANCH   1   2
BRANCH   1  31
ATOM     31  C   UNL A   1      31.945  30.574  26.634  1.00  0.00     0.002 C 
BRANCH  31  32
ATOM     32  C   UNL A   1      33.112  30.004  27.454  1.00  0.00     0.021 C 
BRANCH  32  33
ATOM     33  C   UNL A   1      34.421  30.752  27.255  1.00  0.00     0.116 C 
BRANCH  33  34
ATOM     34  N   UNL A   1      34.479  31.978  28.051  1.00  0.00    -0.352 N 
ATOM     35  C   UNL A   1      35.197  32.214  29.204  1.00  0.00     0.251 C 
ATOM     36  H   UNL A   1      33.936  32.730  27.721  1.00  0.00     0.163 HD
ATOM     37  O   UNL A   1      34.878  33.127  29.958  1.00  0.00    -0.269 OA
BRANCH  35  38
ATOM     38  C   UNL A   1      36.345  31.345  29.516  1.00  0.00     0.039 A 
ATOM     39  C   UNL A   1      36.260  29.961  29.368  1.00  0.00     0.014 A 
ATOM     40  C   UNL A   1      37.534  31.944  29.927  1.00  0.00     0.014 A 
ATOM     41  C   UNL A   1      37.411  29.201  29.555  1.00  0.00     0.010 A 
ATOM     42  C   UNL A   1      38.699  31.217  29.942  1.00  0.00     0.010 A 
ATOM     43  C   UNL A   1      38.640  29.838  29.808  1.00  0.00    -0.014 A 
BRANCH  43  44
ATOM     44  C   UNL A   1      39.879  29.065  29.812  1.00  0.00     0.031 A 
ATOM     45  C   UNL A   1      40.434  28.838  31.170  1.00  0.00     0.074 A 
ATOM     46  C   UNL A   1      40.430  28.486  28.721  1.00  0.00     0.049 A 
ATOM     47  N   UNL A   1      41.404  29.489  31.720  1.00  0.00    -0.248 NA
ATOM     48  C   UNL A   1      39.724  27.939  32.092  1.00  0.00     0.031 C 
ATOM     49  C   UNL A   1      39.855  28.354  27.375  1.00  0.00     0.029 A 
ATOM     50  N   UNL A   1      41.594  27.786  28.616  1.00  0.00    -0.354 N 
ATOM     51  C   UNL A   1      41.604  28.886  32.958  1.00  0.00     0.074 A 
ATOM     52  C   UNL A   1      40.421  28.111  33.220  1.00  0.00     0.031 C 
ATOM     53  C   UNL A   1      40.536  27.416  26.680  1.00  0.00     0.029 A 
ATOM     54  C   UNL A   1      41.705  27.036  27.449  1.00  0.00     0.049 A 
ATOM     55  H   UNL A   1      42.296  27.808  29.305  1.00  0.00     0.167 HD
ATOM     56  C   UNL A   1      42.849  28.844  33.507  1.00  0.00     0.034 A 
ATOM     57  C   UNL A   1      42.686  26.156  27.141  1.00  0.00     0.034 A 
ATOM     58  C   UNL A   1      43.759  29.685  32.767  1.00  0.00     0.049 A 
ATOM     59  C   UNL A   1      43.872  26.550  27.928  1.00  0.00     0.074 A 
ATOM     60  C   UNL A   1      43.930  31.033  32.548  1.00  0.00     0.029 A 
ATOM     61  N   UNL A   1      44.427  29.018  31.773  1.00  0.00    -0.354 N 
ATOM     62  N   UNL A   1      44.511  27.671  27.744  1.00  0.00    -0.248 NA
ATOM     63  C   UNL A   1      44.165  25.856  29.171  1.00  0.00     0.031 C 
ATOM     64  C   UNL A   1      44.489  31.140  31.239  1.00  0.00     0.029 A 
ATOM     65  C   UNL A   1      44.689  29.856  30.726  1.00  0.00     0.049 A 
ATOM     66  H   UNL A   1      44.683  28.067  31.808  1.00  0.00     0.167 HD
ATOM     67  C   UNL A   1      44.892  28.047  29.019  1.00  0.00     0.074 A 
ATOM     68  C   UNL A   1      44.829  26.823  29.809  1.00  0.00     0.031 C 
ATOM     69  C   UNL A   1      44.909  29.364  29.380  1.00  0.00     0.034 A 
BRANCH  56  70
ATOM     70  C   UNL A   1      43.403  27.725  34.369  1.00  0.00     0.023 A 
ATOM     71  C   UNL A   1      43.963  28.096  35.615  1.00  0.00     0.012 A 
ATOM     72  C   UNL A   1      43.682  26.418  33.911  1.00  0.00     0.148 A 
ATOM     73  C   UNL A   1      44.796  27.234  36.336  1.00  0.00     0.002 A 
ATOM     74  C   UNL A   1      44.451  25.538  34.667  1.00  0.00     0.091 A 
ATOM     75  F   UNL A   1      43.325  26.051  32.679  1.00  0.00    -0.205 F 
ATOM     76  C   UNL A   1      45.037  25.952  35.865  1.00  0.00     0.022 A 
BRANCH  74  77
ATOM     77  S   UNL A   1      44.770  23.854  34.124  1.00  0.00     0.127 S 
ATOM     78  O   UNL A   1      43.416  23.315  34.034  1.00  0.00    -0.237 OA
ATOM     79  O   UNL A   1      45.436  24.080  32.841  1.00  0.00    -0.237 OA
ATOM     80  O   UNL A   1      45.626  23.266  35.146  1.00  0.00    -0.744 OA
ENDBRANCH  74  77
ENDBRANCH  56  70
BRANCH  57  81
ATOM     81  C   UNL A   1      42.632  24.881  26.393  1.00  0.00     0.023 A 
ATOM     82  C   UNL A   1      43.517  24.666  25.317  1.00  0.00     0.012 A 
ATOM     83  C   UNL A   1      41.953  23.768  26.934  1.00  0.00     0.148 A 
ATOM     84  C   UNL A   1      43.765  23.376  24.834  1.00  0.00     0.002 A 
ATOM     85  C   UNL A   1      42.204  22.487  26.452  1.00  0.00     0.091 A 
ATOM     86  F   UNL A   1      41.138  23.959  27.980  1.00  0.00    -0.205 F 
ATOM     87  C   UNL A   1      43.121  22.285  25.412  1.00  0.00     0.022 A 
BRANCH  85  88
ATOM     88  S   UNL A   1      41.449  21.025  27.176  1.00  0.00     0.127 S 
ATOM     89  O   UNL A   1      42.620  20.202  27.481  1.00  0.00    -0.237 OA
ATOM     90  O   UNL A   1      40.772  21.581  28.343  1.00  0.00    -0.237 OA
ATOM     91  O   UNL A   1      40.579  20.473  26.145  1.00  0.00    -0.744 OA
ENDBRANCH  85  88
ENDBRANCH  57  81
BRANCH  69  92
ATOM     92  C   UNL A   1      44.984  30.386  28.280  1.00  0.00     0.023 A 
ATOM     93  C   UNL A   1      43.856  30.860  27.581  1.00  0.00     0.012 A 
ATOM     94  C   UNL A   1      46.238  30.963  28.022  1.00  0.00     0.148 A 
ATOM     95  C   UNL A   1      43.985  31.875  26.627  1.00  0.00     0.002 A 
ATOM     96  C   UNL A   1      46.355  32.003  27.111  1.00  0.00     0.091 A 
ATOM     97  F   UNL A   1      47.301  30.492  28.691  1.00  0.00    -0.205 F 
ATOM     98  C   UNL A   1      45.233  32.455  26.402  1.00  0.00     0.022 A 
BRANCH  96  99
ATOM     99  S   UNL A   1      47.912  32.859  26.869  1.00  0.00     0.127 S 
ATOM    100  O   UNL A   1      47.576  33.813  25.814  1.00  0.00    -0.237 OA
ATOM    101  O   UNL A   1      48.147  33.457  28.184  1.00  0.00    -0.237 OA
ATOM    102  O   UNL A   1      48.882  31.834  26.502  1.00  0.00    -0.744 OA
ENDBRANCH  96  99
ENDBRANCH  69  92
ENDBRANCH  43  44
ENDBRANCH  35  38
ENDBRANCH  33  34
ENDBRANCH  32  33
ENDBRANCH  31  32
ENDBRANCH   1  31
TORSDOF 20
ENDMDL
MODEL 3
REMARK VINA RESULT:     -11.0      3.742      9.620
REMARK SMILES NS(=O)(=O)c1ccc(-n2nc(C(=O)NCCCCCCNC(=O)c3ccc(-c4c5nc(c(-c6cccc(S(=O)(=O)[O-])c6F)c6ccc([nH]6)c(-c6cccc(S(=O)(=O)[O-])c6F)c6nc(c(-c7cccc(S(=O)(=O)[O-])c7F)c7ccc4[nH]7)C=C6)C=C5)cc3)cc2-c2ccc(Cl)s2)cc1
REMARK SMILES IDX 17 1 16 2 15 3 14 4 12 5 13 6 11 8 9 9 10 10 88 11 87 12
REMARK SMILES IDX 8 13 5 14 6 15 96 16 7 17 95 18 2 19 3 20 4 21 1 22 89 25
REMARK SMILES IDX 90 26 94 27 91 28 92 29 93 30 18 31 19 32 20 33 21 34 22 35
REMARK SMILES IDX 23 37 24 38 25 39 86 40 26 41 85 42 27 43 28 44 29 45 79 46
REMARK SMILES IDX 30 47 84 48 78 49 80 50 31 51 83 52 77 53 76 54 32 56 64 57
REMARK SMILES IDX 44 58 63 59 45 60 48 61 62 62 81 63 46 64 47 65 61 67 82 68
REMARK SMILES IDX 49 69 33 70 34 71 42 72 35 73 37 74 43 75 36 76 38 77 39 78
REMARK SMILES IDX 40 79 41 80 65 81 66 82 74 83 67 84 69 85 75 86 68 87 70 88
REMARK SMILES IDX 71 89 72 90 73 91 50 92 51 93 59 94 52 95 54 96 60 97 53 98
REMARK SMILES IDX 55 99 56 100 57 101 58 102
REMARK H PARENT 14 7 1 23 1 24 21 36 80 55 48 66
REMARK Flexibility Score: inf
ROOT
ATOM      1  C   UNL A   1      32.473  29.799  26.137  1.00  0.00     0.002 C 
ENDROOT
BRANCH   1   2
ATOM      2  C   UNL A   1      32.944  28.345  26.253  1.00  0.00     0.021 C 
BRANCH   2   3
ATOM      3  C   UNL A   1      32.153  27.533  27.276  1.00  0.00     0.116 C 
BRANCH   3   4
ATOM      4  N   UNL A   1      30.956  26.966  26.693  1.00  0.00    -0.351 N 
ATOM      5  C   UNL A   1      30.696  25.817  25.982  1.00  0.00     0.271 C 
ATOM      6  O   UNL A   1      29.509  25.653  25.677  1.00  0.00    -0.267 OA
ATOM      7  H   UNL A   1      30.156  27.522  26.835  1.00  0.00     0.163 HD
BRANCH   5   8
ATOM      8  C   UNL A   1      31.741  24.819  25.654  1.00  0.00     0.151 A 
ATOM      9  N   UNL A   1      32.559  22.852  25.300  1.00  0.00    -0.231 N 
ATOM     10  N   UNL A   1      31.398  23.523  25.481  1.00  0.00    -0.162 NA
ATOM     11  C   UNL A   1      33.649  23.694  25.301  1.00  0.00     0.085 A 
ATOM     12  C   UNL A   1      33.134  24.960  25.454  1.00  0.00     0.066 A 
BRANCH   9  13
ATOM     13  C   UNL A   1      32.556  21.449  25.133  1.00  0.00     0.065 A 
ATOM     14  C   UNL A   1      32.876  18.730  24.701  1.00  0.00     0.082 A 
ATOM     15  C   UNL A   1      33.020  19.239  25.996  1.00  0.00     0.024 A 
ATOM     16  C   UNL A   1      32.514  19.561  23.634  1.00  0.00     0.024 A 
ATOM     17  C   UNL A   1      32.878  20.611  26.209  1.00  0.00     0.030 A 
ATOM     18  C   UNL A   1      32.327  20.925  23.854  1.00  0.00     0.030 A 
BRANCH  14  19
ATOM     19  S   UNL A   1      33.163  17.010  24.410  1.00  0.00     0.238 S 
ATOM     20  O   UNL A   1      33.416  16.800  22.996  1.00  0.00    -0.207 OA
ATOM     21  O   UNL A   1      32.193  16.235  25.134  1.00  0.00    -0.207 OA
BRANCH  19  22
ATOM     22  N   UNL A   1      34.629  16.779  25.184  1.00  0.00    -0.225 NA
ATOM     23  H   UNL A   1      35.340  16.528  24.498  1.00  0.00     0.137 HD
ATOM     24  H   UNL A   1      34.538  16.029  25.869  1.00  0.00     0.137 HD
ENDBRANCH  19  22
ENDBRANCH  14  19
ENDBRANCH   9  13
BRANCH  11  25
ATOM     25  C   UNL A   1      35.016  23.358  25.041  1.00  0.00     0.054 A 
ATOM     26  C   UNL A   1      35.787  23.815  23.990  1.00  0.00     0.024 A 
ATOM     27  S   UNL A   1      35.853  22.196  25.983  1.00  0.00    -0.122 S 
ATOM     28  C   UNL A   1      37.071  23.194  23.955  1.00  0.00     0.033 A 
ATOM     29  C   UNL A   1      37.212  22.297  24.983  1.00  0.00     0.094 A 
ATOM     30  Cl  UNL A   1      38.590  21.329  25.310  1.00  0.00    -0.072 Cl
ENDBRANCH  11  25
ENDBRANCH   5   8
ENDBRANCH   3   4
ENDBRANCH   2   3
ENDBRANCH   1   2
BRANCH   1  31
ATOM     31  C   UNL A   1      33.151  30.798  27.092  1.00  0.00     0.002 C 
BRANCH  31  32
ATOM     32  C   UNL A   1      34.258  30.235  27.997  1.00  0.00     0.021 C 
BRANCH  32  33
ATOM     33  C   UNL A   1      35.663  30.553  27.511  1.00  0.00     0.116 C 
BRANCH  33  34
ATOM     34  N   UNL A   1      36.053  31.928  27.821  1.00  0.00    -0.352 N 
ATOM     35  C   UNL A   1      36.925  32.370  28.795  1.00  0.00     0.251 C 
ATOM     36  H   UNL A   1      35.640  32.627  27.265  1.00  0.00     0.163 HD
ATOM     37  O   UNL A   1      36.880  33.531  29.188  1.00  0.00    -0.269 OA
BRANCH  35  38
ATOM     38  C   UNL A   1      37.901  31.421  29.357  1.00  0.00     0.039 A 
ATOM     39  C   UNL A   1      37.681  30.045  29.299  1.00  0.00     0.014 A 
ATOM     40  C   UNL A   1      39.072  31.931  29.915  1.00  0.00     0.014 A 
ATOM     41  C   UNL A   1      38.693  29.192  29.730  1.00  0.00     0.010 A 
ATOM     42  C   UNL A   1      40.128  31.093  30.176  1.00  0.00     0.010 A 
ATOM     43  C   UNL A   1      39.932  29.721  30.136  1.00  0.00    -0.014 A 
BRANCH  43  44
ATOM     44  C   UNL A   1      41.058  28.829  30.404  1.00  0.00     0.031 A 
ATOM     45  C   UNL A   1      41.409  28.730  31.843  1.00  0.00     0.074 A 
ATOM     46  C   UNL A   1      41.663  28.053  29.477  1.00  0.00     0.049 A 
ATOM     47  N   UNL A   1      42.377  29.344  32.439  1.00  0.00    -0.248 NA
ATOM     48  C   UNL A   1      40.487  28.044  32.759  1.00  0.00     0.031 C 
ATOM     49  C   UNL A   1      41.247  27.802  28.090  1.00  0.00     0.029 A 
ATOM     50  N   UNL A   1      42.737  27.226  29.617  1.00  0.00    -0.354 N 
ATOM     51  C   UNL A   1      42.347  28.895  33.756  1.00  0.00     0.074 A 
ATOM     52  C   UNL A   1      41.056  28.292  33.943  1.00  0.00     0.031 C 
ATOM     53  C   UNL A   1      41.888  26.712  27.613  1.00  0.00     0.029 A 
ATOM     54  C   UNL A   1      42.898  26.319  28.575  1.00  0.00     0.049 A 
ATOM     55  H   UNL A   1      43.347  27.267  30.389  1.00  0.00     0.167 HD
ATOM     56  C   UNL A   1      43.501  28.796  34.471  1.00  0.00     0.034 A 
ATOM     57  C   UNL A   1      43.795  25.307  28.513  1.00  0.00     0.034 A 
ATOM     58  C   UNL A   1      44.591  29.429  33.768  1.00  0.00     0.049 A 
ATOM     59  C   UNL A   1      44.914  25.675  29.402  1.00  0.00     0.074 A 
ATOM     60  C   UNL A   1      44.952  30.710  33.415  1.00  0.00     0.029 A 
ATOM     61  N   UNL A   1      45.290  28.567  32.963  1.00  0.00    -0.354 N 
ATOM     62  N   UNL A   1      45.703  26.687  29.175  1.00  0.00    -0.248 NA
ATOM     63  C   UNL A   1      44.965  25.128  30.748  1.00  0.00     0.031 C 
ATOM     64  C   UNL A   1      45.676  30.579  32.192  1.00  0.00     0.029 A 
ATOM     65  C   UNL A   1      45.779  29.224  31.870  1.00  0.00     0.049 A 
ATOM     66  H   UNL A   1      45.421  27.608  33.147  1.00  0.00     0.167 HD
ATOM     67  C   UNL A   1      45.968  27.190  30.436  1.00  0.00     0.074 A 
ATOM     68  C   UNL A   1      45.659  26.097  31.350  1.00  0.00     0.031 C 
ATOM     69  C   UNL A   1      46.101  28.535  30.635  1.00  0.00     0.034 A 
BRANCH  56  70
ATOM     70  C   UNL A   1      43.804  27.752  35.529  1.00  0.00     0.023 A 
ATOM     71  C   UNL A   1      44.264  28.226  36.781  1.00  0.00     0.012 A 
ATOM     72  C   UNL A   1      43.960  26.370  35.276  1.00  0.00     0.148 A 
ATOM     73  C   UNL A   1      44.892  27.382  37.705  1.00  0.00     0.002 A 
ATOM     74  C   UNL A   1      44.518  25.522  36.228  1.00  0.00     0.091 A 
ATOM     75  F   UNL A   1      43.698  25.880  34.064  1.00  0.00    -0.205 F 
ATOM     76  C   UNL A   1      45.014  26.028  37.431  1.00  0.00     0.022 A 
BRANCH  74  77
ATOM     77  S   UNL A   1      44.673  23.754  35.943  1.00  0.00     0.127 S 
ATOM     78  O   UNL A   1      45.738  23.710  34.945  1.00  0.00    -0.237 OA
ATOM     79  O   UNL A   1      45.048  23.274  37.273  1.00  0.00    -0.237 OA
ATOM     80  O   UNL A   1      43.359  23.310  35.496  1.00  0.00    -0.744 OA
ENDBRANCH  74  77
ENDBRANCH  56  70
BRANCH  57  81
ATOM     81  C   UNL A   1      43.678  23.955  27.922  1.00  0.00     0.023 A 
ATOM     82  C   UNL A   1      42.543  23.167  28.205  1.00  0.00     0.012 A 
ATOM     83  C   UNL A   1      44.502  23.578  26.840  1.00  0.00     0.148 A 
ATOM     84  C   UNL A   1      42.206  22.075  27.398  1.00  0.00     0.002 A 
ATOM     85  C   UNL A   1      44.162  22.492  26.040  1.00  0.00     0.091 A 
ATOM     86  F   UNL A   1      45.561  24.342  26.543  1.00  0.00    -0.205 F 
ATOM     87  C   UNL A   1      43.006  21.747  26.307  1.00  0.00     0.022 A 
BRANCH  85  88
ATOM     88  S   UNL A   1      45.116  22.035  24.586  1.00  0.00     0.127 S 
ATOM     89  O   UNL A   1      44.388  20.862  24.105  1.00  0.00    -0.237 OA
ATOM     90  O   UNL A   1      44.981  23.225  23.751  1.00  0.00    -0.237 OA
ATOM     91  O   UNL A   1      46.463  21.752  25.066  1.00  0.00    -0.744 OA
ENDBRANCH  85  88
ENDBRANCH  57  81
BRANCH  69  92
ATOM     92  C   UNL A   1      46.436  29.386  29.442  1.00  0.00     0.023 A 
ATOM     93  C   UNL A   1      47.729  29.473  28.888  1.00  0.00     0.012 A 
ATOM     94  C   UNL A   1      45.372  30.037  28.796  1.00  0.00     0.148 A 
ATOM     95  C   UNL A   1      47.956  30.217  27.725  1.00  0.00     0.002 A 
ATOM     96  C   UNL A   1      45.591  30.733  27.616  1.00  0.00     0.091 A 
ATOM     97  F   UNL A   1      44.151  29.948  29.344  1.00  0.00    -0.205 F 
ATOM     98  C   UNL A   1      46.884  30.835  27.082  1.00  0.00     0.022 A 
BRANCH  96  99
ATOM     99  S   UNL A   1      44.233  31.447  26.689  1.00  0.00     0.127 S 
ATOM    100  O   UNL A   1      44.924  32.063  25.559  1.00  0.00    -0.237 OA
ATOM    101  O   UNL A   1      43.432  30.270  26.351  1.00  0.00    -0.237 OA
ATOM    102  O   UNL A   1      43.570  32.374  27.599  1.00  0.00    -0.744 OA
ENDBRANCH  96  99
ENDBRANCH  69  92
ENDBRANCH  43  44
ENDBRANCH  35  38
ENDBRANCH  33  34
ENDBRANCH  32  33
ENDBRANCH  31  32
ENDBRANCH   1  31
TORSDOF 20
ENDMDL
