MODEL 1
REMARK VINA RESULT:     -12.3      0.000      0.000
REMARK SMILES O=C(NCCCCCCNC(=O)c1ccc(-c2c3nc(c(-c4cccc(S(=O)(=O)[O-])c4F)c4ccc([nH]4)c(-c4cccc(S(=O)(=O)[O-])c4F)c4nc(c(-c5cccc(S(=O)(=O)[O-])c5F)c5ccc2[nH]5)C=C4)C=C3)cc1)C1=Cc2cc(Cl)c(Cl)c(Cl)c2O[C@@H]1C(F)(F)F
REMARK SMILES IDX 7 1 6 2 5 3 4 4 3 5 1 6 2 7 76 9 77 10 88 11 78 12 87 13
REMARK SMILES IDX 79 14 86 15 80 16 84 17 81 18 82 19 85 20 83 21 89 22 90 23
REMARK SMILES IDX 91 24 92 25 8 26 9 27 10 28 11 29 12 31 13 32 14 33 75 34
REMARK SMILES IDX 15 35 74 36 16 37 17 38 18 39 68 40 19 41 73 42 67 43 69 44
REMARK SMILES IDX 20 45 72 46 66 47 65 48 21 50 53 51 33 52 52 53 34 54 37 55
REMARK SMILES IDX 51 56 70 57 35 58 36 59 50 61 71 62 38 63 22 64 23 65 31 66
REMARK SMILES IDX 24 67 26 68 32 69 25 70 27 71 28 72 29 73 30 74 54 75 55 76
REMARK SMILES IDX 63 77 56 78 58 79 64 80 57 81 59 82 60 83 61 84 62 85 39 86
REMARK SMILES IDX 40 87 48 88 41 89 43 90 49 91 42 92 44 93 45 94 46 95 47 96
REMARK H PARENT 3 8 10 30 69 49 37 60
REMARK Flexibility Score: inf
ROOT
ATOM      1  C   UNL A   1      35.619  20.675  25.221  1.00  0.00     0.002 C 
ENDROOT
BRANCH   1   2
ATOM      2  C   UNL A   1      34.284  20.114  24.717  1.00  0.00     0.002 C 
BRANCH   2   3
ATOM      3  C   UNL A   1      33.065  20.318  25.613  1.00  0.00     0.021 C 
BRANCH   3   4
ATOM      4  C   UNL A   1      32.136  21.470  25.249  1.00  0.00     0.116 C 
BRANCH   4   5
ATOM      5  N   UNL A   1      31.122  21.789  26.239  1.00  0.00    -0.352 N 
ATOM      6  O   UNL A   1      29.678  23.053  27.404  1.00  0.00    -0.270 OA
ATOM      7  C   UNL A   1      30.644  23.005  26.641  1.00  0.00     0.251 C 
ATOM      8  H   UNL A   1      30.719  21.011  26.688  1.00  0.00     0.163 HD
BRANCH   7   9
ATOM      9  C   UNL A   1      31.187  24.294  26.115  1.00  0.00     0.067 C 
ATOM     10  C   UNL A   1      32.366  24.798  26.522  1.00  0.00     0.025 C 
ATOM     11  C   UNL A   1      30.714  24.596  24.712  1.00  0.00     0.314 C 
ATOM     12  C   UNL A   1      33.402  24.680  25.464  1.00  0.00     0.020 A 
ATOM     13  O   UNL A   1      31.740  24.282  23.735  1.00  0.00    -0.474 OA
ATOM     14  C   UNL A   1      34.741  24.663  25.864  1.00  0.00     0.034 A 
ATOM     15  C   UNL A   1      33.051  24.310  24.156  1.00  0.00     0.148 A 
ATOM     16  C   UNL A   1      35.719  24.162  24.999  1.00  0.00     0.062 A 
ATOM     17  C   UNL A   1      34.040  23.834  23.278  1.00  0.00     0.103 A 
ATOM     18  Cl  UNL A   1      37.311  23.988  25.651  1.00  0.00    -0.083 Cl
ATOM     19  C   UNL A   1      35.374  23.726  23.709  1.00  0.00     0.082 A 
ATOM     20  Cl  UNL A   1      33.548  23.261  21.712  1.00  0.00    -0.079 Cl
ATOM     21  Cl  UNL A   1      36.565  22.963  22.704  1.00  0.00    -0.081 Cl
BRANCH  11  22
ATOM     22  C   UNL A   1      30.213  26.040  24.560  1.00  0.00     0.429 C 
ATOM     23  F   UNL A   1      30.145  26.407  23.259  1.00  0.00    -0.167 F 
ATOM     24  F   UNL A   1      28.968  26.193  25.076  1.00  0.00    -0.167 F 
ATOM     25  F   UNL A   1      31.014  26.932  25.191  1.00  0.00    -0.167 F 
ENDBRANCH  11  22
ENDBRANCH   7   9
ENDBRANCH   4   5
ENDBRANCH   3   4
ENDBRANCH   2   3
ENDBRANCH   1   2
BRANCH   1  26
ATOM     26  C   UNL A   1      36.872  19.823  24.988  1.00  0.00     0.021 C 
BRANCH  26  27
ATOM     27  C   UNL A   1      38.209  20.441  25.393  1.00  0.00     0.116 C 
BRANCH  27  28
ATOM     28  N   UNL A   1      39.218  19.452  25.724  1.00  0.00    -0.352 N 
ATOM     29  C   UNL A   1      40.511  19.619  26.158  1.00  0.00     0.251 C 
ATOM     30  H   UNL A   1      38.932  18.515  25.621  1.00  0.00     0.163 HD
ATOM     31  O   UNL A   1      41.240  18.634  26.262  1.00  0.00    -0.269 OA
BRANCH  29  32
ATOM     32  C   UNL A   1      41.045  20.963  26.483  1.00  0.00     0.039 A 
ATOM     33  C   UNL A   1      41.378  21.821  25.430  1.00  0.00     0.014 A 
ATOM     34  C   UNL A   1      41.261  21.371  27.802  1.00  0.00     0.014 A 
ATOM     35  C   UNL A   1      41.881  23.098  25.698  1.00  0.00     0.010 A 
ATOM     36  C   UNL A   1      41.700  22.669  28.070  1.00  0.00     0.010 A 
ATOM     37  C   UNL A   1      42.024  23.544  27.022  1.00  0.00    -0.014 A 
BRANCH  37  38
ATOM     38  C   UNL A   1      42.507  24.919  27.324  1.00  0.00     0.031 A 
ATOM     39  C   UNL A   1      41.595  25.924  27.977  1.00  0.00     0.074 A 
ATOM     40  C   UNL A   1      43.746  25.288  26.942  1.00  0.00     0.049 A 
ATOM     41  N   UNL A   1      41.828  27.174  28.282  1.00  0.00    -0.248 NA
ATOM     42  C   UNL A   1      40.233  25.474  28.312  1.00  0.00     0.031 C 
ATOM     43  C   UNL A   1      44.703  24.433  26.237  1.00  0.00     0.029 A 
ATOM     44  N   UNL A   1      44.405  26.487  27.070  1.00  0.00    -0.354 N 
ATOM     45  C   UNL A   1      40.638  27.671  28.801  1.00  0.00     0.074 A 
ATOM     46  C   UNL A   1      39.676  26.593  28.751  1.00  0.00     0.031 C 
ATOM     47  C   UNL A   1      45.827  25.131  26.000  1.00  0.00     0.029 A 
ATOM     48  C   UNL A   1      45.661  26.489  26.509  1.00  0.00     0.049 A 
ATOM     49  H   UNL A   1      44.015  27.270  27.522  1.00  0.00     0.167 HD
ATOM     50  C   UNL A   1      40.376  28.904  29.297  1.00  0.00     0.034 A 
ATOM     51  C   UNL A   1      46.576  27.474  26.409  1.00  0.00     0.034 A 
ATOM     52  C   UNL A   1      41.349  29.958  29.395  1.00  0.00     0.049 A 
ATOM     53  C   UNL A   1      46.271  28.822  27.007  1.00  0.00     0.074 A 
ATOM     54  C   UNL A   1      41.210  31.206  29.980  1.00  0.00     0.029 A 
ATOM     55  N   UNL A   1      42.638  29.898  28.889  1.00  0.00    -0.354 N 
ATOM     56  N   UNL A   1      45.198  29.216  27.650  1.00  0.00    -0.248 NA
ATOM     57  C   UNL A   1      47.317  29.850  26.899  1.00  0.00     0.031 C 
ATOM     58  C   UNL A   1      42.405  31.909  29.801  1.00  0.00     0.029 A 
ATOM     59  C   UNL A   1      43.300  31.089  29.132  1.00  0.00     0.049 A 
ATOM     60  H   UNL A   1      43.025  29.121  28.424  1.00  0.00     0.167 HD
ATOM     61  C   UNL A   1      45.456  30.521  28.056  1.00  0.00     0.074 A 
ATOM     62  C   UNL A   1      46.793  30.843  27.603  1.00  0.00     0.031 C 
ATOM     63  C   UNL A   1      44.651  31.379  28.729  1.00  0.00     0.034 A 
BRANCH  50  64
ATOM     64  C   UNL A   1      38.989  29.175  29.821  1.00  0.00     0.023 A 
ATOM     65  C   UNL A   1      38.649  28.781  31.132  1.00  0.00     0.012 A 
ATOM     66  C   UNL A   1      38.049  29.885  29.048  1.00  0.00     0.148 A 
ATOM     67  C   UNL A   1      37.386  29.060  31.652  1.00  0.00     0.002 A 
ATOM     68  C   UNL A   1      36.809  30.200  29.591  1.00  0.00     0.091 A 
ATOM     69  F   UNL A   1      38.383  30.236  27.798  1.00  0.00    -0.205 F 
ATOM     70  C   UNL A   1      36.471  29.778  30.887  1.00  0.00     0.022 A 
BRANCH  68  71
ATOM     71  S   UNL A   1      35.590  31.189  28.717  1.00  0.00     0.127 S 
ATOM     72  O   UNL A   1      34.916  30.178  27.904  1.00  0.00    -0.237 OA
ATOM     73  O   UNL A   1      34.783  31.726  29.814  1.00  0.00    -0.237 OA
ATOM     74  O   UNL A   1      36.343  32.189  27.971  1.00  0.00    -0.744 OA
ENDBRANCH  68  71
ENDBRANCH  50  64
BRANCH  51  75
ATOM     75  C   UNL A   1      47.899  27.207  25.775  1.00  0.00     0.023 A 
ATOM     76  C   UNL A   1      48.956  26.719  26.568  1.00  0.00     0.012 A 
ATOM     77  C   UNL A   1      48.114  27.420  24.399  1.00  0.00     0.148 A 
ATOM     78  C   UNL A   1      50.213  26.482  26.012  1.00  0.00     0.002 A 
ATOM     79  C   UNL A   1      49.354  27.132  23.841  1.00  0.00     0.091 A 
ATOM     80  F   UNL A   1      47.101  27.899  23.664  1.00  0.00    -0.205 F 
ATOM     81  C   UNL A   1      50.410  26.679  24.648  1.00  0.00     0.022 A 
BRANCH  79  82
ATOM     82  S   UNL A   1      49.663  27.238  22.074  1.00  0.00     0.127 S 
ATOM     83  O   UNL A   1      48.752  26.224  21.550  1.00  0.00    -0.237 OA
ATOM     84  O   UNL A   1      49.282  28.621  21.782  1.00  0.00    -0.237 OA
ATOM     85  O   UNL A   1      51.084  26.961  21.908  1.00  0.00    -0.744 OA
ENDBRANCH  79  82
ENDBRANCH  51  75
BRANCH  63  86
ATOM     86  C   UNL A   1      45.202  32.742  29.062  1.00  0.00     0.023 A 
ATOM     87  C   UNL A   1      45.878  32.948  30.280  1.00  0.00     0.012 A 
ATOM     88  C   UNL A   1      45.116  33.797  28.131  1.00  0.00     0.148 A 
ATOM     89  C   UNL A   1      46.432  34.193  30.582  1.00  0.00     0.002 A 
ATOM     90  C   UNL A   1      45.713  35.019  28.417  1.00  0.00     0.091 A 
ATOM     91  F   UNL A   1      44.453  33.586  26.985  1.00  0.00    -0.205 F 
ATOM     92  C   UNL A   1      46.360  35.223  29.647  1.00  0.00     0.022 A 
BRANCH  90  93
ATOM     93  S   UNL A   1      45.758  36.369  27.232  1.00  0.00     0.127 S 
ATOM     94  O   UNL A   1      44.336  36.668  27.069  1.00  0.00    -0.237 OA
ATOM     95  O   UNL A   1      46.517  37.391  27.954  1.00  0.00    -0.237 OA
ATOM     96  O   UNL A   1      46.427  35.843  26.050  1.00  0.00    -0.744 OA
ENDBRANCH  90  93
ENDBRANCH  63  86
ENDBRANCH  37  38
ENDBRANCH  29  32
ENDBRANCH  27  28
ENDBRANCH  26  27
ENDBRANCH   1  26
TORSDOF 17
ENDMDL
MODEL 2
REMARK VINA RESULT:     -12.2      2.305      3.026
REMARK SMILES O=C(NCCCCCCNC(=O)c1ccc(-c2c3nc(c(-c4cccc(S(=O)(=O)[O-])c4F)c4ccc([nH]4)c(-c4cccc(S(=O)(=O)[O-])c4F)c4nc(c(-c5cccc(S(=O)(=O)[O-])c5F)c5ccc2[nH]5)C=C4)C=C3)cc1)C1=Cc2cc(Cl)c(Cl)c(Cl)c2O[C@@H]1C(F)(F)F
REMARK SMILES IDX 7 1 6 2 5 3 4 4 3 5 1 6 2 7 76 9 77 10 88 11 78 12 87 13
REMARK SMILES IDX 79 14 86 15 80 16 84 17 81 18 82 19 85 20 83 21 89 22 90 23
REMARK SMILES IDX 91 24 92 25 8 26 9 27 10 28 11 29 12 31 13 32 14 33 75 34
REMARK SMILES IDX 15 35 74 36 16 37 17 38 18 39 68 40 19 41 73 42 67 43 69 44
REMARK SMILES IDX 20 45 72 46 66 47 65 48 21 50 53 51 33 52 52 53 34 54 37 55
REMARK SMILES IDX 51 56 70 57 35 58 36 59 50 61 71 62 38 63 22 64 23 65 31 66
REMARK SMILES IDX 24 67 26 68 32 69 25 70 27 71 28 72 29 73 30 74 54 75 55 76
REMARK SMILES IDX 63 77 56 78 58 79 64 80 57 81 59 82 60 83 61 84 62 85 39 86
REMARK SMILES IDX 40 87 48 88 41 89 43 90 49 91 42 92 44 93 45 94 46 95 47 96
REMARK H PARENT 3 8 10 30 69 49 37 60
REMARK Flexibility Score: inf
ROOT
ATOM      1  C   UNL A   1      36.903  20.766  24.631  1.00  0.00     0.002 C 
ENDROOT
BRANCH   1   2
ATOM      2  C   UNL A   1      35.448  20.446  24.997  1.00  0.00     0.002 C 
BRANCH   2   3
ATOM      3  C   UNL A   1      34.842  21.223  26.165  1.00  0.00     0.021 C 
BRANCH   3   4
ATOM      4  C   UNL A   1      33.336  21.098  26.359  1.00  0.00     0.116 C 
BRANCH   4   5
ATOM      5  N   UNL A   1      32.695  22.232  27.001  1.00  0.00    -0.352 N 
ATOM      6  O   UNL A   1      31.515  24.135  27.166  1.00  0.00    -0.270 OA
ATOM      7  C   UNL A   1      32.131  23.348  26.447  1.00  0.00     0.251 C 
ATOM      8  H   UNL A   1      32.663  22.191  27.984  1.00  0.00     0.163 HD
BRANCH   7   9
ATOM      9  C   UNL A   1      32.149  23.609  24.976  1.00  0.00     0.067 C 
ATOM     10  C   UNL A   1      31.029  23.865  24.276  1.00  0.00     0.025 C 
ATOM     11  C   UNL A   1      33.451  24.215  24.508  1.00  0.00     0.314 C 
ATOM     12  C   UNL A   1      30.955  25.292  23.871  1.00  0.00     0.020 A 
ATOM     13  O   UNL A   1      33.320  25.647  24.307  1.00  0.00    -0.474 OA
ATOM     14  C   UNL A   1      29.691  25.831  23.614  1.00  0.00     0.034 A 
ATOM     15  C   UNL A   1      32.066  26.138  24.021  1.00  0.00     0.148 A 
ATOM     16  C   UNL A   1      29.511  27.217  23.626  1.00  0.00     0.062 A 
ATOM     17  C   UNL A   1      31.888  27.531  24.004  1.00  0.00     0.103 A 
ATOM     18  Cl  UNL A   1      27.882  27.785  23.505  1.00  0.00    -0.083 Cl
ATOM     19  C   UNL A   1      30.602  28.076  23.840  1.00  0.00     0.082 A 
ATOM     20  Cl  UNL A   1      33.264  28.545  24.323  1.00  0.00    -0.079 Cl
ATOM     21  Cl  UNL A   1      30.341  29.784  24.009  1.00  0.00    -0.081 Cl
BRANCH  11  22
ATOM     22  C   UNL A   1      34.007  23.518  23.257  1.00  0.00     0.429 C 
ATOM     23  F   UNL A   1      35.358  23.457  23.282  1.00  0.00    -0.167 F 
ATOM     24  F   UNL A   1      33.558  22.242  23.156  1.00  0.00    -0.167 F 
ATOM     25  F   UNL A   1      33.652  24.152  22.113  1.00  0.00    -0.167 F 
ENDBRANCH  11  22
ENDBRANCH   7   9
ENDBRANCH   4   5
ENDBRANCH   3   4
ENDBRANCH   2   3
ENDBRANCH   1   2
BRANCH   1  26
ATOM     26  C   UNL A   1      37.962  19.717  24.987  1.00  0.00     0.021 C 
BRANCH  26  27
ATOM     27  C   UNL A   1      39.149  20.195  25.822  1.00  0.00     0.116 C 
BRANCH  27  28
ATOM     28  N   UNL A   1      40.217  19.215  25.910  1.00  0.00    -0.352 N 
ATOM     29  C   UNL A   1      41.563  19.391  26.114  1.00  0.00     0.251 C 
ATOM     30  H   UNL A   1      39.931  18.278  25.807  1.00  0.00     0.163 HD
ATOM     31  O   UNL A   1      42.314  18.421  26.030  1.00  0.00    -0.269 OA
BRANCH  29  32
ATOM     32  C   UNL A   1      42.126  20.730  26.414  1.00  0.00     0.039 A 
ATOM     33  C   UNL A   1      42.455  21.570  25.346  1.00  0.00     0.014 A 
ATOM     34  C   UNL A   1      42.374  21.149  27.724  1.00  0.00     0.014 A 
ATOM     35  C   UNL A   1      42.985  22.841  25.590  1.00  0.00     0.010 A 
ATOM     36  C   UNL A   1      42.840  22.441  27.970  1.00  0.00     0.010 A 
ATOM     37  C   UNL A   1      43.160  23.299  26.906  1.00  0.00    -0.014 A 
BRANCH  37  38
ATOM     38  C   UNL A   1      43.672  24.669  27.183  1.00  0.00     0.031 A 
ATOM     39  C   UNL A   1      42.755  25.732  27.727  1.00  0.00     0.074 A 
ATOM     40  C   UNL A   1      44.948  24.977  26.875  1.00  0.00     0.049 A 
ATOM     41  N   UNL A   1      43.014  26.986  27.995  1.00  0.00    -0.248 NA
ATOM     42  C   UNL A   1      41.358  25.345  27.983  1.00  0.00     0.031 C 
ATOM     43  C   UNL A   1      45.919  24.058  26.277  1.00  0.00     0.029 A 
ATOM     44  N   UNL A   1      45.641  26.156  27.000  1.00  0.00    -0.354 N 
ATOM     45  C   UNL A   1      41.810  27.546  28.406  1.00  0.00     0.074 A 
ATOM     46  C   UNL A   1      40.814  26.501  28.333  1.00  0.00     0.031 C 
ATOM     47  C   UNL A   1      47.082  24.706  26.092  1.00  0.00     0.029 A 
ATOM     48  C   UNL A   1      46.933  26.090  26.529  1.00  0.00     0.049 A 
ATOM     49  H   UNL A   1      45.251  26.972  27.389  1.00  0.00     0.167 HD
ATOM     50  C   UNL A   1      41.560  28.809  28.831  1.00  0.00     0.034 A 
ATOM     51  C   UNL A   1      47.889  27.038  26.453  1.00  0.00     0.034 A 
ATOM     52  C   UNL A   1      42.564  29.832  28.953  1.00  0.00     0.049 A 
ATOM     53  C   UNL A   1      47.593  28.420  26.971  1.00  0.00     0.074 A 
ATOM     54  C   UNL A   1      42.432  31.109  29.473  1.00  0.00     0.029 A 
ATOM     55  N   UNL A   1      43.881  29.704  28.543  1.00  0.00    -0.354 N 
ATOM     56  N   UNL A   1      46.494  28.880  27.519  1.00  0.00    -0.248 NA
ATOM     57  C   UNL A   1      48.683  29.406  26.894  1.00  0.00     0.031 C 
ATOM     58  C   UNL A   1      43.662  31.762  29.351  1.00  0.00     0.029 A 
ATOM     59  C   UNL A   1      44.569  30.882  28.782  1.00  0.00     0.049 A 
ATOM     60  H   UNL A   1      44.271  28.895  28.140  1.00  0.00     0.167 HD
ATOM     61  C   UNL A   1      46.772  30.192  27.887  1.00  0.00     0.074 A 
ATOM     62  C   UNL A   1      48.148  30.447  27.518  1.00  0.00     0.031 C 
ATOM     63  C   UNL A   1      45.955  31.107  28.465  1.00  0.00     0.034 A 
BRANCH  50  64
ATOM     64  C   UNL A   1      40.152  29.151  29.242  1.00  0.00     0.023 A 
ATOM     65  C   UNL A   1      39.189  29.443  28.255  1.00  0.00     0.012 A 
ATOM     66  C   UNL A   1      39.762  29.106  30.595  1.00  0.00     0.148 A 
ATOM     67  C   UNL A   1      37.869  29.719  28.610  1.00  0.00     0.002 A 
ATOM     68  C   UNL A   1      38.434  29.336  30.937  1.00  0.00     0.091 A 
ATOM     69  F   UNL A   1      40.695  28.844  31.522  1.00  0.00    -0.205 F 
ATOM     70  C   UNL A   1      37.490  29.654  29.948  1.00  0.00     0.022 A 
BRANCH  68  71
ATOM     71  S   UNL A   1      37.828  29.199  32.623  1.00  0.00     0.127 S 
ATOM     72  O   UNL A   1      36.464  29.707  32.489  1.00  0.00    -0.237 OA
ATOM     73  O   UNL A   1      37.921  27.759  32.868  1.00  0.00    -0.237 OA
ATOM     74  O   UNL A   1      38.720  30.013  33.438  1.00  0.00    -0.744 OA
ENDBRANCH  68  71
ENDBRANCH  50  64
BRANCH  51  75
ATOM     75  C   UNL A   1      49.241  26.697  25.927  1.00  0.00     0.023 A 
ATOM     76  C   UNL A   1      50.112  25.921  26.718  1.00  0.00     0.012 A 
ATOM     77  C   UNL A   1      49.666  27.122  24.653  1.00  0.00     0.148 A 
ATOM     78  C   UNL A   1      51.394  25.605  26.265  1.00  0.00     0.002 A 
ATOM     79  C   UNL A   1      50.924  26.759  24.187  1.00  0.00     0.091 A 
ATOM     80  F   UNL A   1      48.830  27.872  23.922  1.00  0.00    -0.205 F 
ATOM     81  C   UNL A   1      51.797  26.016  24.998  1.00  0.00     0.022 A 
BRANCH  79  82
ATOM     82  S   UNL A   1      51.481  27.138  22.521  1.00  0.00     0.127 S 
ATOM     83  O   UNL A   1      50.329  26.731  21.721  1.00  0.00    -0.237 OA
ATOM     84  O   UNL A   1      51.700  28.583  22.596  1.00  0.00    -0.237 OA
ATOM     85  O   UNL A   1      52.695  26.357  22.327  1.00  0.00    -0.744 OA
ENDBRANCH  79  82
ENDBRANCH  51  75
BRANCH  63  86
ATOM     86  C   UNL A   1      46.533  32.463  28.778  1.00  0.00     0.023 A 
ATOM     87  C   UNL A   1      47.148  32.694  30.023  1.00  0.00     0.012 A 
ATOM     88  C   UNL A   1      46.534  33.484  27.806  1.00  0.00     0.148 A 
ATOM     89  C   UNL A   1      47.726  33.931  30.311  1.00  0.00     0.002 A 
ATOM     90  C   UNL A   1      47.155  34.697  28.081  1.00  0.00     0.091 A 
ATOM     91  F   UNL A   1      45.928  33.251  26.633  1.00  0.00    -0.205 F 
ATOM     92  C   UNL A   1      47.739  34.927  29.337  1.00  0.00     0.022 A 
BRANCH  90  93
ATOM     93  S   UNL A   1      47.310  35.998  26.852  1.00  0.00     0.127 S 
ATOM     94  O   UNL A   1      45.914  36.222  26.478  1.00  0.00    -0.237 OA
ATOM     95  O   UNL A   1      47.916  37.084  27.624  1.00  0.00    -0.237 OA
ATOM     96  O   UNL A   1      48.161  35.459  25.801  1.00  0.00    -0.744 OA
ENDBRANCH  90  93
ENDBRANCH  63  86
ENDBRANCH  37  38
ENDBRANCH  29  32
ENDBRANCH  27  28
ENDBRANCH  26  27
ENDBRANCH   1  26
TORSDOF 17
ENDMDL
MODEL 3
REMARK VINA RESULT:     -12.1      2.137      3.002
REMARK SMILES O=C(NCCCCCCNC(=O)c1ccc(-c2c3nc(c(-c4cccc(S(=O)(=O)[O-])c4F)c4ccc([nH]4)c(-c4cccc(S(=O)(=O)[O-])c4F)c4nc(c(-c5cccc(S(=O)(=O)[O-])c5F)c5ccc2[nH]5)C=C4)C=C3)cc1)C1=Cc2cc(Cl)c(Cl)c(Cl)c2O[C@@H]1C(F)(F)F
REMARK SMILES IDX 7 1 6 2 5 3 4 4 3 5 1 6 2 7 76 9 77 10 88 11 78 12 87 13
REMARK SMILES IDX 79 14 86 15 80 16 84 17 81 18 82 19 85 20 83 21 89 22 90 23
REMARK SMILES IDX 91 24 92 25 8 26 9 27 10 28 11 29 12 31 13 32 14 33 75 34
REMARK SMILES IDX 15 35 74 36 16 37 17 38 18 39 68 40 19 41 73 42 67 43 69 44
REMARK SMILES IDX 20 45 72 46 66 47 65 48 21 50 53 51 33 52 52 53 34 54 37 55
REMARK SMILES IDX 51 56 70 57 35 58 36 59 50 61 71 62 38 63 22 64 23 65 31 66
REMARK SMILES IDX 24 67 26 68 32 69 25 70 27 71 28 72 29 73 30 74 54 75 55 76
REMARK SMILES IDX 63 77 56 78 58 79 64 80 57 81 59 82 60 83 61 84 62 85 39 86
REMARK SMILES IDX 40 87 48 88 41 89 43 90 49 91 42 92 44 93 45 94 46 95 47 96
REMARK H PARENT 3 8 10 30 69 49 37 60
REMARK Flexibility Score: inf
ROOT
ATOM      1  C   UNL A   1      34.351  20.932  24.651  1.00  0.00     0.002 C 
ENDROOT
BRANCH   1   2
ATOM      2  C   UNL A   1      33.043  20.753  25.431  1.00  0.00     0.002 C 
BRANCH   2   3
ATOM      3  C   UNL A   1      32.412  22.013  26.021  1.00  0.00     0.021 C 
BRANCH   3   4
ATOM      4  C   UNL A   1      30.974  22.311  25.612  1.00  0.00     0.116 C 
BRANCH   4   5
ATOM      5  N   UNL A   1      30.351  23.427  26.300  1.00  0.00    -0.352 N 
ATOM      6  O   UNL A   1      29.659  25.535  26.641  1.00  0.00    -0.270 OA
ATOM      7  C   UNL A   1      30.371  24.761  26.002  1.00  0.00     0.251 C 
ATOM      8  H   UNL A   1      29.835  23.186  27.103  1.00  0.00     0.163 HD
BRANCH   7   9
ATOM      9  C   UNL A   1      31.158  25.314  24.858  1.00  0.00     0.067 C 
ATOM     10  C   UNL A   1      30.577  25.728  23.717  1.00  0.00     0.025 C 
ATOM     11  C   UNL A   1      32.441  25.979  25.301  1.00  0.00     0.314 C 
ATOM     12  C   UNL A   1      30.597  27.208  23.601  1.00  0.00     0.020 A 
ATOM     13  O   UNL A   1      32.302  27.424  25.321  1.00  0.00    -0.474 OA
ATOM     14  C   UNL A   1      29.629  27.811  22.793  1.00  0.00     0.034 A 
ATOM     15  C   UNL A   1      31.362  27.985  24.485  1.00  0.00     0.148 A 
ATOM     16  C   UNL A   1      29.338  29.169  22.952  1.00  0.00     0.062 A 
ATOM     17  C   UNL A   1      31.088  29.357  24.623  1.00  0.00     0.103 A 
ATOM     18  Cl  UNL A   1      27.989  29.779  22.059  1.00  0.00    -0.083 Cl
ATOM     19  C   UNL A   1      30.050  29.947  23.881  1.00  0.00     0.082 A 
ATOM     20  Cl  UNL A   1      31.966  30.259  25.822  1.00  0.00    -0.079 Cl
ATOM     21  Cl  UNL A   1      29.577  31.589  24.180  1.00  0.00    -0.081 Cl
BRANCH  11  22
ATOM     22  C   UNL A   1      33.649  25.540  24.460  1.00  0.00     0.429 C 
ATOM     23  F   UNL A   1      33.843  26.361  23.402  1.00  0.00    -0.167 F 
ATOM     24  F   UNL A   1      34.794  25.559  25.186  1.00  0.00    -0.167 F 
ATOM     25  F   UNL A   1      33.510  24.282  23.976  1.00  0.00    -0.167 F 
ENDBRANCH  11  22
ENDBRANCH   7   9
ENDBRANCH   4   5
ENDBRANCH   3   4
ENDBRANCH   2   3
ENDBRANCH   1   2
BRANCH   1  26
ATOM     26  C   UNL A   1      35.621  21.211  25.463  1.00  0.00     0.021 C 
BRANCH  26  27
ATOM     27  C   UNL A   1      36.939  21.234  24.692  1.00  0.00     0.116 C 
BRANCH  27  28
ATOM     28  N   UNL A   1      37.848  20.172  25.083  1.00  0.00    -0.352 N 
ATOM     29  C   UNL A   1      39.105  20.242  25.633  1.00  0.00     0.251 C 
ATOM     30  H   UNL A   1      37.512  19.259  24.930  1.00  0.00     0.163 HD
ATOM     31  O   UNL A   1      39.755  19.208  25.773  1.00  0.00    -0.269 OA
BRANCH  29  32
ATOM     32  C   UNL A   1      39.695  21.540  26.039  1.00  0.00     0.039 A 
ATOM     33  C   UNL A   1      40.887  21.532  26.770  1.00  0.00     0.014 A 
ATOM     34  C   UNL A   1      39.069  22.756  25.751  1.00  0.00     0.014 A 
ATOM     35  C   UNL A   1      41.475  22.737  27.168  1.00  0.00     0.010 A 
ATOM     36  C   UNL A   1      39.690  23.960  26.091  1.00  0.00     0.010 A 
ATOM     37  C   UNL A   1      40.894  23.964  26.811  1.00  0.00    -0.014 A 
BRANCH  37  38
ATOM     38  C   UNL A   1      41.535  25.256  27.180  1.00  0.00     0.031 A 
ATOM     39  C   UNL A   1      40.760  26.307  27.931  1.00  0.00     0.074 A 
ATOM     40  C   UNL A   1      42.795  25.514  26.775  1.00  0.00     0.049 A 
ATOM     41  N   UNL A   1      41.139  27.502  28.304  1.00  0.00    -0.248 NA
ATOM     42  C   UNL A   1      39.368  25.985  28.288  1.00  0.00     0.031 C 
ATOM     43  C   UNL A   1      43.630  24.609  25.982  1.00  0.00     0.029 A 
ATOM     44  N   UNL A   1      43.586  26.623  26.954  1.00  0.00    -0.354 N 
ATOM     45  C   UNL A   1      40.028  28.088  28.899  1.00  0.00     0.074 A 
ATOM     46  C   UNL A   1      38.952  27.125  28.818  1.00  0.00     0.031 C 
ATOM     47  C   UNL A   1      44.815  25.196  25.747  1.00  0.00     0.029 A 
ATOM     48  C   UNL A   1      44.816  26.527  26.346  1.00  0.00     0.049 A 
ATOM     49  H   UNL A   1      43.299  27.411  27.469  1.00  0.00     0.167 HD
ATOM     50  C   UNL A   1      39.918  29.306  29.483  1.00  0.00     0.034 A 
ATOM     51  C   UNL A   1      45.831  27.413  26.273  1.00  0.00     0.034 A 
ATOM     52  C   UNL A   1      41.005  30.240  29.609  1.00  0.00     0.049 A 
ATOM     53  C   UNL A   1      45.694  28.742  26.967  1.00  0.00     0.074 A 
ATOM     54  C   UNL A   1      41.022  31.453  30.276  1.00  0.00     0.029 A 
ATOM     55  N   UNL A   1      42.262  30.075  29.051  1.00  0.00    -0.354 N 
ATOM     56  N   UNL A   1      44.692  29.205  27.674  1.00  0.00    -0.248 NA
ATOM     57  C   UNL A   1      46.843  29.656  26.883  1.00  0.00     0.031 C 
ATOM     58  C   UNL A   1      42.282  32.034  30.097  1.00  0.00     0.029 A 
ATOM     59  C   UNL A   1      43.059  31.169  29.343  1.00  0.00     0.049 A 
ATOM     60  H   UNL A   1      42.548  29.294  28.524  1.00  0.00     0.167 HD
ATOM     61  C   UNL A   1      45.104  30.445  28.151  1.00  0.00     0.074 A 
ATOM     62  C   UNL A   1      46.454  30.651  27.669  1.00  0.00     0.031 C 
ATOM     63  C   UNL A   1      44.421  31.338  28.908  1.00  0.00     0.034 A 
BRANCH  50  64
ATOM     64  C   UNL A   1      38.587  29.689  30.075  1.00  0.00     0.023 A 
ATOM     65  C   UNL A   1      38.286  29.328  31.404  1.00  0.00     0.012 A 
ATOM     66  C   UNL A   1      37.668  30.469  29.346  1.00  0.00     0.148 A 
ATOM     67  C   UNL A   1      37.078  29.710  31.987  1.00  0.00     0.002 A 
ATOM     68  C   UNL A   1      36.487  30.884  29.950  1.00  0.00     0.091 A 
ATOM     69  F   UNL A   1      37.963  30.788  28.078  1.00  0.00    -0.205 F 
ATOM     70  C   UNL A   1      36.185  30.497  31.265  1.00  0.00     0.022 A 
BRANCH  68  71
ATOM     71  S   UNL A   1      35.307  31.965  29.133  1.00  0.00     0.127 S 
ATOM     72  O   UNL A   1      34.625  31.034  28.235  1.00  0.00    -0.237 OA
ATOM     73  O   UNL A   1      34.493  32.438  30.253  1.00  0.00    -0.237 OA
ATOM     74  O   UNL A   1      36.096  32.999  28.476  1.00  0.00    -0.744 OA
ENDBRANCH  68  71
ENDBRANCH  50  64
BRANCH  51  75
ATOM     75  C   UNL A   1      47.095  27.048  25.574  1.00  0.00     0.023 A 
ATOM     76  C   UNL A   1      48.029  26.219  26.227  1.00  0.00     0.012 A 
ATOM     77  C   UNL A   1      47.374  27.501  24.270  1.00  0.00     0.148 A 
ATOM     78  C   UNL A   1      49.233  25.878  25.610  1.00  0.00     0.002 A 
ATOM     79  C   UNL A   1      48.552  27.115  23.641  1.00  0.00     0.091 A 
ATOM     80  F   UNL A   1      46.481  28.301  23.670  1.00  0.00    -0.205 F 
ATOM     81  C   UNL A   1      49.491  26.318  24.315  1.00  0.00     0.022 A 
BRANCH  79  82
ATOM     82  S   UNL A   1      48.913  27.531  21.930  1.00  0.00     0.127 S 
ATOM     83  O   UNL A   1      50.371  27.599  21.940  1.00  0.00    -0.237 OA
ATOM     84  O   UNL A   1      48.353  26.384  21.214  1.00  0.00    -0.237 OA
ATOM     85  O   UNL A   1      48.221  28.790  21.680  1.00  0.00    -0.744 OA
ENDBRANCH  79  82
ENDBRANCH  51  75
BRANCH  63  86
ATOM     86  C   UNL A   1      45.128  32.608  29.305  1.00  0.00     0.023 A 
ATOM     87  C   UNL A   1      45.904  32.642  30.479  1.00  0.00     0.012 A 
ATOM     88  C   UNL A   1      45.086  33.743  28.470  1.00  0.00     0.148 A 
ATOM     89  C   UNL A   1      46.601  33.798  30.836  1.00  0.00     0.002 A 
ATOM     90  C   UNL A   1      45.822  34.874  28.806  1.00  0.00     0.091 A 
ATOM     91  F   UNL A   1      44.327  33.697  27.365  1.00  0.00    -0.205 F 
ATOM     92  C   UNL A   1      46.569  34.907  29.995  1.00  0.00     0.022 A 
BRANCH  90  93
ATOM     93  S   UNL A   1      45.922  36.311  27.733  1.00  0.00     0.127 S 
ATOM     94  O   UNL A   1      46.492  35.734  26.516  1.00  0.00    -0.237 OA
ATOM     95  O   UNL A   1      44.518  36.711  27.618  1.00  0.00    -0.237 OA
ATOM     96  O   UNL A   1      46.768  37.272  28.426  1.00  0.00    -0.744 OA
ENDBRANCH  90  93
ENDBRANCH  63  86
ENDBRANCH  37  38
ENDBRANCH  29  32
ENDBRANCH  27  28
ENDBRANCH  26  27
ENDBRANCH   1  26
TORSDOF 17
ENDMDL
