MODEL 1
REMARK VINA RESULT:     -10.9      0.000      0.000
REMARK SMILES O=C(CNc1nc(-c2ccccc2)c(-c2ccccc2)s1)NCCCCCCNC(=O)c1ccc(-c2c3nc(c(-c4cccc(S(=O)(=O)[O-])c4F)c4ccc([nH]4)c(-c4cccc(S(=O)(=O)[O-])c4F)c4nc(c(-c5cccc(S(=O)(=O)[O-])c5F)c5ccc2[nH]5)C=C4)C=C3)cc1
REMARK SMILES IDX 25 1 24 2 23 3 22 4 1 5 2 6 3 8 4 9 5 11 6 12 21 13 7 14
REMARK SMILES IDX 14 15 8 16 9 17 13 18 10 19 12 20 11 21 15 22 16 23 20 24
REMARK SMILES IDX 17 25 19 26 18 27 26 28 27 29 28 30 29 31 30 32 31 34 32 35
REMARK SMILES IDX 33 36 94 37 34 38 93 39 35 40 36 41 37 42 87 43 38 44 92 45
REMARK SMILES IDX 86 46 88 47 39 48 91 49 85 50 84 51 40 53 72 54 52 55 71 56
REMARK SMILES IDX 53 57 56 58 70 59 89 60 54 61 55 62 69 64 90 65 57 66 41 67
REMARK SMILES IDX 42 68 50 69 43 70 45 71 51 72 44 73 46 74 47 75 48 76 49 77
REMARK SMILES IDX 73 78 74 79 82 80 75 81 77 82 83 83 76 84 78 85 79 86 80 87
REMARK SMILES IDX 81 88 58 89 59 90 67 91 60 92 62 93 68 94 61 95 63 96 64 97
REMARK SMILES IDX 65 98 66 99
REMARK H PARENT 22 7 4 10 29 33 88 52 56 63
REMARK Flexibility Score: inf
ROOT
ATOM      1  C   UNL A   1      32.851  29.298  27.490  1.00  0.00     0.002 C 
ENDROOT
BRANCH   1   2
ATOM      2  C   UNL A   1      33.411  28.184  26.594  1.00  0.00     0.021 C 
BRANCH   2   3
ATOM      3  C   UNL A   1      32.368  27.197  26.067  1.00  0.00     0.116 C 
BRANCH   3   4
ATOM      4  N   UNL A   1      32.402  27.107  24.622  1.00  0.00    -0.355 N 
ATOM      5  O   UNL A   1      30.163  27.488  24.226  1.00  0.00    -0.273 OA
ATOM      6  C   UNL A   1      31.295  27.264  23.810  1.00  0.00     0.239 C 
ATOM      7  H   UNL A   1      33.268  26.920  24.191  1.00  0.00     0.163 HD
BRANCH   6   8
ATOM      8  C   UNL A   1      31.612  27.085  22.316  1.00  0.00     0.215 C 
BRANCH   8   9
ATOM      9  N   UNL A   1      31.496  25.676  21.958  1.00  0.00    -0.352 N 
ATOM     10  H   UNL A   1      30.924  25.421  21.199  1.00  0.00     0.163 HD
BRANCH   9  11
ATOM     11  C   UNL A   1      32.150  24.717  22.634  1.00  0.00     0.184 A 
ATOM     12  N   UNL A   1      33.409  24.755  22.999  1.00  0.00    -0.220 NA
ATOM     13  S   UNL A   1      31.309  23.276  23.053  1.00  0.00    -0.096 S 
ATOM     14  C   UNL A   1      33.759  23.566  23.623  1.00  0.00     0.091 A 
ATOM     15  C   UNL A   1      32.753  22.615  23.701  1.00  0.00     0.064 A 
BRANCH  14  16
ATOM     16  C   UNL A   1      35.087  23.372  24.185  1.00  0.00     0.002 A 
ATOM     17  C   UNL A   1      36.009  22.509  23.579  1.00  0.00     0.010 A 
ATOM     18  C   UNL A   1      35.421  23.996  25.393  1.00  0.00     0.010 A 
ATOM     19  C   UNL A   1      37.234  22.243  24.195  1.00  0.00     0.001 A 
ATOM     20  C   UNL A   1      36.644  23.726  26.010  1.00  0.00     0.001 A 
ATOM     21  C   UNL A   1      37.547  22.843  25.414  1.00  0.00     0.000 A 
ENDBRANCH  14  16
BRANCH  15  22
ATOM     22  C   UNL A   1      32.748  21.261  24.252  1.00  0.00    -0.006 A 
ATOM     23  C   UNL A   1      32.446  20.163  23.435  1.00  0.00     0.009 A 
ATOM     24  C   UNL A   1      33.096  21.036  25.591  1.00  0.00     0.009 A 
ATOM     25  C   UNL A   1      32.493  18.865  23.947  1.00  0.00     0.001 A 
ATOM     26  C   UNL A   1      33.145  19.738  26.101  1.00  0.00     0.001 A 
ATOM     27  C   UNL A   1      32.844  18.653  25.279  1.00  0.00     0.000 A 
ENDBRANCH  15  22
ENDBRANCH   9  11
ENDBRANCH   8   9
ENDBRANCH   6   8
ENDBRANCH   3   4
ENDBRANCH   2   3
ENDBRANCH   1   2
BRANCH   1  28
ATOM     28  C   UNL A   1      33.609  30.629  27.445  1.00  0.00     0.002 C 
BRANCH  28  29
ATOM     29  C   UNL A   1      32.735  31.884  27.501  1.00  0.00     0.021 C 
BRANCH  29  30
ATOM     30  C   UNL A   1      33.442  33.184  27.129  1.00  0.00     0.116 C 
BRANCH  30  31
ATOM     31  N   UNL A   1      32.865  34.346  27.794  1.00  0.00    -0.352 N 
ATOM     32  C   UNL A   1      33.186  34.893  29.012  1.00  0.00     0.251 C 
ATOM     33  H   UNL A   1      32.144  34.801  27.301  1.00  0.00     0.163 HD
ATOM     34  O   UNL A   1      32.485  35.782  29.491  1.00  0.00    -0.269 OA
BRANCH  32  35
ATOM     35  C   UNL A   1      34.365  34.397  29.757  1.00  0.00     0.039 A 
ATOM     36  C   UNL A   1      34.170  33.695  30.951  1.00  0.00     0.014 A 
ATOM     37  C   UNL A   1      35.658  34.615  29.276  1.00  0.00     0.014 A 
ATOM     38  C   UNL A   1      35.271  33.157  31.626  1.00  0.00     0.010 A 
ATOM     39  C   UNL A   1      36.743  34.016  29.910  1.00  0.00     0.010 A 
ATOM     40  C   UNL A   1      36.564  33.284  31.095  1.00  0.00    -0.014 A 
BRANCH  40  41
ATOM     41  C   UNL A   1      37.745  32.663  31.751  1.00  0.00     0.031 A 
ATOM     42  C   UNL A   1      38.448  31.504  31.092  1.00  0.00     0.074 A 
ATOM     43  C   UNL A   1      38.123  33.069  32.980  1.00  0.00     0.049 A 
ATOM     44  N   UNL A   1      39.418  30.759  31.552  1.00  0.00    -0.248 NA
ATOM     45  C   UNL A   1      37.979  31.114  29.751  1.00  0.00     0.031 C 
ATOM     46  C   UNL A   1      37.484  34.135  33.755  1.00  0.00     0.029 A 
ATOM     47  N   UNL A   1      39.113  32.606  33.813  1.00  0.00    -0.354 N 
ATOM     48  C   UNL A   1      39.643  29.786  30.585  1.00  0.00     0.074 A 
ATOM     49  C   UNL A   1      38.693  30.021  29.520  1.00  0.00     0.031 C 
ATOM     50  C   UNL A   1      38.091  34.239  34.948  1.00  0.00     0.029 A 
ATOM     51  C   UNL A   1      39.137  33.226  35.042  1.00  0.00     0.049 A 
ATOM     52  H   UNL A   1      39.746  31.898  33.555  1.00  0.00     0.167 HD
ATOM     53  C   UNL A   1      40.568  28.798  30.575  1.00  0.00     0.034 A 
ATOM     54  C   UNL A   1      39.901  32.992  36.128  1.00  0.00     0.034 A 
ATOM     55  C   UNL A   1      41.548  28.601  31.608  1.00  0.00     0.049 A 
ATOM     56  C   UNL A   1      40.950  31.911  36.067  1.00  0.00     0.074 A 
ATOM     57  C   UNL A   1      42.590  27.690  31.639  1.00  0.00     0.029 A 
ATOM     58  N   UNL A   1      41.605  29.316  32.793  1.00  0.00    -0.354 N 
ATOM     59  N   UNL A   1      41.249  31.105  35.078  1.00  0.00    -0.248 NA
ATOM     60  C   UNL A   1      41.790  31.730  37.261  1.00  0.00     0.031 C 
ATOM     61  C   UNL A   1      43.260  27.835  32.857  1.00  0.00     0.029 A 
ATOM     62  C   UNL A   1      42.658  28.862  33.566  1.00  0.00     0.049 A 
ATOM     63  H   UNL A   1      40.988  30.040  33.046  1.00  0.00     0.167 HD
ATOM     64  C   UNL A   1      42.341  30.361  35.510  1.00  0.00     0.074 A 
ATOM     65  C   UNL A   1      42.659  30.818  36.845  1.00  0.00     0.031 C 
ATOM     66  C   UNL A   1      43.011  29.377  34.863  1.00  0.00     0.034 A 
BRANCH  53  67
ATOM     67  C   UNL A   1      40.610  27.875  29.386  1.00  0.00     0.023 A 
ATOM     68  C   UNL A   1      39.701  26.801  29.304  1.00  0.00     0.012 A 
ATOM     69  C   UNL A   1      41.480  28.130  28.307  1.00  0.00     0.148 A 
ATOM     70  C   UNL A   1      39.671  25.981  28.177  1.00  0.00     0.002 A 
ATOM     71  C   UNL A   1      41.413  27.336  27.168  1.00  0.00     0.091 A 
ATOM     72  F   UNL A   1      42.348  29.146  28.413  1.00  0.00    -0.205 F 
ATOM     73  C   UNL A   1      40.517  26.256  27.105  1.00  0.00     0.022 A 
BRANCH  71  74
ATOM     74  S   UNL A   1      42.396  27.659  25.700  1.00  0.00     0.127 S 
ATOM     75  O   UNL A   1      41.993  26.557  24.827  1.00  0.00    -0.237 OA
ATOM     76  O   UNL A   1      41.908  28.974  25.287  1.00  0.00    -0.237 OA
ATOM     77  O   UNL A   1      43.788  27.631  26.130  1.00  0.00    -0.744 OA
ENDBRANCH  71  74
ENDBRANCH  53  67
BRANCH  54  78
ATOM     78  C   UNL A   1      39.744  33.822  37.358  1.00  0.00     0.023 A 
ATOM     79  C   UNL A   1      40.350  35.093  37.417  1.00  0.00     0.012 A 
ATOM     80  C   UNL A   1      39.014  33.360  38.469  1.00  0.00     0.148 A 
ATOM     81  C   UNL A   1      40.275  35.866  38.576  1.00  0.00     0.002 A 
ATOM     82  C   UNL A   1      38.894  34.160  39.599  1.00  0.00     0.091 A 
ATOM     83  F   UNL A   1      38.454  32.144  38.402  1.00  0.00    -0.205 F 
ATOM     84  C   UNL A   1      39.541  35.403  39.664  1.00  0.00     0.022 A 
BRANCH  82  85
ATOM     85  S   UNL A   1      37.860  33.697  40.994  1.00  0.00     0.127 S 
ATOM     86  O   UNL A   1      38.601  32.572  41.556  1.00  0.00    -0.237 OA
ATOM     87  O   UNL A   1      37.881  34.916  41.806  1.00  0.00    -0.237 OA
ATOM     88  O   UNL A   1      36.557  33.382  40.426  1.00  0.00    -0.744 OA
ENDBRANCH  82  85
ENDBRANCH  54  78
BRANCH  66  89
ATOM     89  C   UNL A   1      44.206  28.767  35.546  1.00  0.00     0.023 A 
ATOM     90  C   UNL A   1      45.494  29.288  35.317  1.00  0.00     0.012 A 
ATOM     91  C   UNL A   1      44.034  27.737  36.492  1.00  0.00     0.148 A 
ATOM     92  C   UNL A   1      46.597  28.772  35.999  1.00  0.00     0.002 A 
ATOM     93  C   UNL A   1      45.127  27.265  37.206  1.00  0.00     0.091 A 
ATOM     94  F   UNL A   1      42.800  27.244  36.682  1.00  0.00    -0.205 F 
ATOM     95  C   UNL A   1      46.412  27.773  36.952  1.00  0.00     0.022 A 
BRANCH  93  96
ATOM     96  S   UNL A   1      44.970  26.054  38.524  1.00  0.00     0.127 S 
ATOM     97  O   UNL A   1      44.513  24.874  37.791  1.00  0.00    -0.237 OA
ATOM     98  O   UNL A   1      46.340  25.967  39.029  1.00  0.00    -0.237 OA
ATOM     99  O   UNL A   1      44.009  26.610  39.469  1.00  0.00    -0.744 OA
ENDBRANCH  93  96
ENDBRANCH  66  89
ENDBRANCH  40  41
ENDBRANCH  32  35
ENDBRANCH  30  31
ENDBRANCH  29  30
ENDBRANCH  28  29
ENDBRANCH   1  28
TORSDOF 20
ENDMDL
MODEL 2
REMARK VINA RESULT:     -10.7      5.372      9.360
REMARK SMILES O=C(CNc1nc(-c2ccccc2)c(-c2ccccc2)s1)NCCCCCCNC(=O)c1ccc(-c2c3nc(c(-c4cccc(S(=O)(=O)[O-])c4F)c4ccc([nH]4)c(-c4cccc(S(=O)(=O)[O-])c4F)c4nc(c(-c5cccc(S(=O)(=O)[O-])c5F)c5ccc2[nH]5)C=C4)C=C3)cc1
REMARK SMILES IDX 25 1 24 2 23 3 22 4 1 5 2 6 3 8 4 9 5 11 6 12 21 13 7 14
REMARK SMILES IDX 14 15 8 16 9 17 13 18 10 19 12 20 11 21 15 22 16 23 20 24
REMARK SMILES IDX 17 25 19 26 18 27 26 28 27 29 28 30 29 31 30 32 31 34 32 35
REMARK SMILES IDX 33 36 94 37 34 38 93 39 35 40 36 41 37 42 87 43 38 44 92 45
REMARK SMILES IDX 86 46 88 47 39 48 91 49 85 50 84 51 40 53 72 54 52 55 71 56
REMARK SMILES IDX 53 57 56 58 70 59 89 60 54 61 55 62 69 64 90 65 57 66 41 67
REMARK SMILES IDX 42 68 50 69 43 70 45 71 51 72 44 73 46 74 47 75 48 76 49 77
REMARK SMILES IDX 73 78 74 79 82 80 75 81 77 82 83 83 76 84 78 85 79 86 80 87
REMARK SMILES IDX 81 88 58 89 59 90 67 91 60 92 62 93 68 94 61 95 63 96 64 97
REMARK SMILES IDX 65 98 66 99
REMARK H PARENT 22 7 4 10 29 33 88 52 56 63
REMARK Flexibility Score: inf
ROOT
ATOM      1  C   UNL A   1      36.151  22.200  24.456  1.00  0.00     0.002 C 
ENDROOT
BRANCH   1   2
ATOM      2  C   UNL A   1      36.274  20.758  24.966  1.00  0.00     0.021 C 
BRANCH   2   3
ATOM      3  C   UNL A   1      34.965  19.968  24.986  1.00  0.00     0.116 C 
BRANCH   3   4
ATOM      4  N   UNL A   1      33.816  20.842  25.105  1.00  0.00    -0.355 N 
ATOM      5  O   UNL A   1      32.173  19.229  24.972  1.00  0.00    -0.273 OA
ATOM      6  C   UNL A   1      32.505  20.404  25.094  1.00  0.00     0.239 C 
ATOM      7  H   UNL A   1      33.979  21.808  25.200  1.00  0.00     0.163 HD
BRANCH   6   8
ATOM      8  C   UNL A   1      31.485  21.549  25.206  1.00  0.00     0.215 C 
BRANCH   8   9
ATOM      9  N   UNL A   1      31.744  22.536  24.163  1.00  0.00    -0.352 N 
ATOM     10  H   UNL A   1      31.997  22.225  23.264  1.00  0.00     0.163 HD
BRANCH   9  11
ATOM     11  C   UNL A   1      31.643  23.855  24.394  1.00  0.00     0.184 A 
ATOM     12  N   UNL A   1      30.915  24.703  23.708  1.00  0.00    -0.220 NA
ATOM     13  S   UNL A   1      32.560  24.546  25.674  1.00  0.00    -0.096 S 
ATOM     14  C   UNL A   1      31.104  25.990  24.190  1.00  0.00     0.091 A 
ATOM     15  C   UNL A   1      32.009  26.108  25.234  1.00  0.00     0.064 A 
BRANCH  14  16
ATOM     16  C   UNL A   1      30.360  27.116  23.645  1.00  0.00     0.002 A 
ATOM     17  C   UNL A   1      28.964  27.175  23.744  1.00  0.00     0.010 A 
ATOM     18  C   UNL A   1      31.044  28.116  22.943  1.00  0.00     0.010 A 
ATOM     19  C   UNL A   1      28.258  28.202  23.112  1.00  0.00     0.001 A 
ATOM     20  C   UNL A   1      30.336  29.139  22.308  1.00  0.00     0.001 A 
ATOM     21  C   UNL A   1      28.942  29.176  22.387  1.00  0.00     0.000 A 
ENDBRANCH  14  16
BRANCH  15  22
ATOM     22  C   UNL A   1      32.480  27.279  25.972  1.00  0.00    -0.006 A 
ATOM     23  C   UNL A   1      33.837  27.627  25.961  1.00  0.00     0.009 A 
ATOM     24  C   UNL A   1      31.574  28.100  26.657  1.00  0.00     0.009 A 
ATOM     25  C   UNL A   1      34.280  28.775  26.621  1.00  0.00     0.001 A 
ATOM     26  C   UNL A   1      32.017  29.249  27.315  1.00  0.00     0.001 A 
ATOM     27  C   UNL A   1      33.369  29.585  27.296  1.00  0.00     0.000 A 
ENDBRANCH  15  22
ENDBRANCH   9  11
ENDBRANCH   8   9
ENDBRANCH   6   8
ENDBRANCH   3   4
ENDBRANCH   2   3
ENDBRANCH   1   2
BRANCH   1  28
ATOM     28  C   UNL A   1      36.404  23.296  25.497  1.00  0.00     0.002 C 
BRANCH  28  29
ATOM     29  C   UNL A   1      37.864  23.724  25.657  1.00  0.00     0.021 C 
BRANCH  29  30
ATOM     30  C   UNL A   1      38.627  23.022  26.777  1.00  0.00     0.116 C 
BRANCH  30  31
ATOM     31  N   UNL A   1      39.798  22.303  26.292  1.00  0.00    -0.352 N 
ATOM     32  C   UNL A   1      41.080  22.762  26.108  1.00  0.00     0.251 C 
ATOM     33  H   UNL A   1      39.650  21.357  26.065  1.00  0.00     0.163 HD
ATOM     34  O   UNL A   1      41.909  22.057  25.536  1.00  0.00    -0.269 OA
BRANCH  32  35
ATOM     35  C   UNL A   1      41.455  24.114  26.578  1.00  0.00     0.039 A 
ATOM     36  C   UNL A   1      41.395  25.188  25.683  1.00  0.00     0.014 A 
ATOM     37  C   UNL A   1      41.857  24.326  27.898  1.00  0.00     0.014 A 
ATOM     38  C   UNL A   1      41.675  26.482  26.133  1.00  0.00     0.010 A 
ATOM     39  C   UNL A   1      42.064  25.623  28.360  1.00  0.00     0.010 A 
ATOM     40  C   UNL A   1      41.980  26.716  27.483  1.00  0.00    -0.014 A 
BRANCH  40  41
ATOM     41  C   UNL A   1      42.214  28.087  28.008  1.00  0.00     0.031 A 
ATOM     42  C   UNL A   1      43.615  28.636  28.079  1.00  0.00     0.074 A 
ATOM     43  C   UNL A   1      41.186  28.798  28.516  1.00  0.00     0.049 A 
ATOM     44  N   UNL A   1      44.037  29.756  28.605  1.00  0.00    -0.248 NA
ATOM     45  C   UNL A   1      44.689  27.803  27.509  1.00  0.00     0.031 C 
ATOM     46  C   UNL A   1      39.791  28.352  28.569  1.00  0.00     0.029 A 
ATOM     47  N   UNL A   1      41.160  30.031  29.121  1.00  0.00    -0.354 N 
ATOM     48  C   UNL A   1      45.421  29.742  28.475  1.00  0.00     0.074 A 
ATOM     49  C   UNL A   1      45.772  28.492  27.838  1.00  0.00     0.031 C 
ATOM     50  C   UNL A   1      39.051  29.292  29.178  1.00  0.00     0.029 A 
ATOM     51  C   UNL A   1      39.917  30.390  29.593  1.00  0.00     0.049 A 
ATOM     52  H   UNL A   1      41.956  30.604  29.209  1.00  0.00     0.167 HD
ATOM     53  C   UNL A   1      46.316  30.691  28.834  1.00  0.00     0.034 A 
ATOM     54  C   UNL A   1      39.525  31.471  30.297  1.00  0.00     0.034 A 
ATOM     55  C   UNL A   1      45.960  31.957  29.415  1.00  0.00     0.049 A 
ATOM     56  C   UNL A   1      40.541  32.528  30.644  1.00  0.00     0.074 A 
ATOM     57  C   UNL A   1      46.787  33.023  29.720  1.00  0.00     0.029 A 
ATOM     58  N   UNL A   1      44.677  32.325  29.785  1.00  0.00    -0.354 N 
ATOM     59  N   UNL A   1      41.822  32.565  30.369  1.00  0.00    -0.248 NA
ATOM     60  C   UNL A   1      40.052  33.711  31.369  1.00  0.00     0.031 C 
ATOM     61  C   UNL A   1      46.009  34.027  30.302  1.00  0.00     0.029 A 
ATOM     62  C   UNL A   1      44.691  33.600  30.324  1.00  0.00     0.049 A 
ATOM     63  H   UNL A   1      43.875  31.764  29.679  1.00  0.00     0.167 HD
ATOM     64  C   UNL A   1      42.278  33.790  30.840  1.00  0.00     0.074 A 
ATOM     65  C   UNL A   1      41.136  34.474  31.406  1.00  0.00     0.031 C 
ATOM     66  C   UNL A   1      43.534  34.299  30.816  1.00  0.00     0.034 A 
BRANCH  53  67
ATOM     67  C   UNL A   1      47.775  30.431  28.566  1.00  0.00     0.023 A 
ATOM     68  C   UNL A   1      48.360  30.897  27.372  1.00  0.00     0.012 A 
ATOM     69  C   UNL A   1      48.586  29.815  29.540  1.00  0.00     0.148 A 
ATOM     70  C   UNL A   1      49.725  30.736  27.139  1.00  0.00     0.002 A 
ATOM     71  C   UNL A   1      49.954  29.698  29.321  1.00  0.00     0.091 A 
ATOM     72  F   UNL A   1      48.006  29.363  30.662  1.00  0.00    -0.205 F 
ATOM     73  C   UNL A   1      50.523  30.148  28.118  1.00  0.00     0.022 A 
BRANCH  71  74
ATOM     74  S   UNL A   1      51.081  29.036  30.552  1.00  0.00     0.127 S 
ATOM     75  O   UNL A   1      52.381  29.307  29.938  1.00  0.00    -0.237 OA
ATOM     76  O   UNL A   1      50.776  29.860  31.722  1.00  0.00    -0.237 OA
ATOM     77  O   UNL A   1      50.745  27.626  30.695  1.00  0.00    -0.744 OA
ENDBRANCH  71  74
ENDBRANCH  53  67
BRANCH  54  78
ATOM     78  C   UNL A   1      38.095  31.642  30.686  1.00  0.00     0.023 A 
ATOM     79  C   UNL A   1      37.620  31.034  31.865  1.00  0.00     0.012 A 
ATOM     80  C   UNL A   1      37.202  32.388  29.894  1.00  0.00     0.148 A 
ATOM     81  C   UNL A   1      36.274  31.122  32.222  1.00  0.00     0.002 A 
ATOM     82  C   UNL A   1      35.874  32.521  30.286  1.00  0.00     0.091 A 
ATOM     83  F   UNL A   1      37.665  32.950  28.769  1.00  0.00    -0.205 F 
ATOM     84  C   UNL A   1      35.403  31.872  31.437  1.00  0.00     0.022 A 
BRANCH  82  85
ATOM     85  S   UNL A   1      34.717  33.574  29.404  1.00  0.00     0.127 S 
ATOM     86  O   UNL A   1      33.792  33.959  30.466  1.00  0.00    -0.237 OA
ATOM     87  O   UNL A   1      35.588  34.650  28.926  1.00  0.00    -0.237 OA
ATOM     88  O   UNL A   1      34.162  32.742  28.345  1.00  0.00    -0.744 OA
ENDBRANCH  82  85
ENDBRANCH  54  78
BRANCH  66  89
ATOM     89  C   UNL A   1      43.744  35.691  31.349  1.00  0.00     0.023 A 
ATOM     90  C   UNL A   1      44.051  35.888  32.709  1.00  0.00     0.012 A 
ATOM     91  C   UNL A   1      43.731  36.797  30.475  1.00  0.00     0.148 A 
ATOM     92  C   UNL A   1      44.315  37.169  33.196  1.00  0.00     0.002 A 
ATOM     93  C   UNL A   1      44.047  38.060  30.955  1.00  0.00     0.091 A 
ATOM     94  F   UNL A   1      43.419  36.588  29.187  1.00  0.00    -0.205 F 
ATOM     95  C   UNL A   1      44.327  38.251  32.318  1.00  0.00     0.022 A 
BRANCH  93  96
ATOM     96  S   UNL A   1      44.188  39.493  29.881  1.00  0.00     0.127 S 
ATOM     97  O   UNL A   1      42.913  39.456  29.165  1.00  0.00    -0.237 OA
ATOM     98  O   UNL A   1      44.317  40.588  30.842  1.00  0.00    -0.237 OA
ATOM     99  O   UNL A   1      45.370  39.265  29.058  1.00  0.00    -0.744 OA
ENDBRANCH  93  96
ENDBRANCH  66  89
ENDBRANCH  40  41
ENDBRANCH  32  35
ENDBRANCH  30  31
ENDBRANCH  29  30
ENDBRANCH  28  29
ENDBRANCH   1  28
TORSDOF 20
ENDMDL
MODEL 3
REMARK VINA RESULT:     -10.6      3.306      8.349
REMARK SMILES O=C(CNc1nc(-c2ccccc2)c(-c2ccccc2)s1)NCCCCCCNC(=O)c1ccc(-c2c3nc(c(-c4cccc(S(=O)(=O)[O-])c4F)c4ccc([nH]4)c(-c4cccc(S(=O)(=O)[O-])c4F)c4nc(c(-c5cccc(S(=O)(=O)[O-])c5F)c5ccc2[nH]5)C=C4)C=C3)cc1
REMARK SMILES IDX 25 1 24 2 23 3 22 4 1 5 2 6 3 8 4 9 5 11 6 12 21 13 7 14
REMARK SMILES IDX 14 15 8 16 9 17 13 18 10 19 12 20 11 21 15 22 16 23 20 24
REMARK SMILES IDX 17 25 19 26 18 27 26 28 27 29 28 30 29 31 30 32 31 34 32 35
REMARK SMILES IDX 33 36 94 37 34 38 93 39 35 40 36 41 37 42 87 43 38 44 92 45
REMARK SMILES IDX 86 46 88 47 39 48 91 49 85 50 84 51 40 53 72 54 52 55 71 56
REMARK SMILES IDX 53 57 56 58 70 59 89 60 54 61 55 62 69 64 90 65 57 66 41 67
REMARK SMILES IDX 42 68 50 69 43 70 45 71 51 72 44 73 46 74 47 75 48 76 49 77
REMARK SMILES IDX 73 78 74 79 82 80 75 81 77 82 83 83 76 84 78 85 79 86 80 87
REMARK SMILES IDX 81 88 58 89 59 90 67 91 60 92 62 93 68 94 61 95 63 96 64 97
REMARK SMILES IDX 65 98 66 99
REMARK H PARENT 22 7 4 10 29 33 88 52 56 63
REMARK Flexibility Score: inf
ROOT
ATOM      1  C   UNL A   1      31.946  29.903  25.850  1.00  0.00     0.002 C 
ENDROOT
BRANCH   1   2
ATOM      2  C   UNL A   1      31.235  28.890  24.942  1.00  0.00     0.021 C 
BRANCH   2   3
ATOM      3  C   UNL A   1      31.484  29.082  23.446  1.00  0.00     0.116 C 
BRANCH   3   4
ATOM      4  N   UNL A   1      31.238  27.864  22.703  1.00  0.00    -0.355 N 
ATOM      5  O   UNL A   1      33.431  27.333  22.225  1.00  0.00    -0.273 OA
ATOM      6  C   UNL A   1      32.233  27.078  22.152  1.00  0.00     0.239 C 
ATOM      7  H   UNL A   1      30.304  27.577  22.583  1.00  0.00     0.163 HD
BRANCH   6   8
ATOM      8  C   UNL A   1      31.687  25.859  21.389  1.00  0.00     0.215 C 
BRANCH   8   9
ATOM      9  N   UNL A   1      32.766  24.909  21.150  1.00  0.00    -0.352 N 
ATOM     10  H   UNL A   1      33.198  24.890  20.265  1.00  0.00     0.163 HD
BRANCH   9  11
ATOM     11  C   UNL A   1      33.189  24.061  22.101  1.00  0.00     0.184 A 
ATOM     12  N   UNL A   1      34.350  24.107  22.711  1.00  0.00    -0.220 NA
ATOM     13  S   UNL A   1      32.165  22.763  22.573  1.00  0.00    -0.096 S 
ATOM     14  C   UNL A   1      34.468  23.039  23.588  1.00  0.00     0.091 A 
ATOM     15  C   UNL A   1      33.390  22.166  23.613  1.00  0.00     0.064 A 
BRANCH  14  16
ATOM     16  C   UNL A   1      35.637  22.889  24.442  1.00  0.00     0.002 A 
ATOM     17  C   UNL A   1      35.988  23.882  25.366  1.00  0.00     0.010 A 
ATOM     18  C   UNL A   1      36.467  21.773  24.282  1.00  0.00     0.010 A 
ATOM     19  C   UNL A   1      37.177  23.777  26.091  1.00  0.00     0.001 A 
ATOM     20  C   UNL A   1      37.657  21.672  25.005  1.00  0.00     0.001 A 
ATOM     21  C   UNL A   1      38.015  22.679  25.904  1.00  0.00     0.000 A 
ENDBRANCH  14  16
BRANCH  15  22
ATOM     22  C   UNL A   1      33.162  20.938  24.373  1.00  0.00    -0.006 A 
ATOM     23  C   UNL A   1      32.936  19.724  23.710  1.00  0.00     0.009 A 
ATOM     24  C   UNL A   1      33.220  20.947  25.773  1.00  0.00     0.009 A 
ATOM     25  C   UNL A   1      32.771  18.541  24.433  1.00  0.00     0.001 A 
ATOM     26  C   UNL A   1      33.058  19.763  26.496  1.00  0.00     0.001 A 
ATOM     27  C   UNL A   1      32.834  18.562  25.826  1.00  0.00     0.000 A 
ENDBRANCH  15  22
ENDBRANCH   9  11
ENDBRANCH   8   9
ENDBRANCH   6   8
ENDBRANCH   3   4
ENDBRANCH   2   3
ENDBRANCH   1   2
BRANCH   1  28
ATOM     28  C   UNL A   1      32.295  29.404  27.257  1.00  0.00     0.002 C 
BRANCH  28  29
ATOM     29  C   UNL A   1      33.750  28.977  27.459  1.00  0.00     0.021 C 
BRANCH  29  30
ATOM     30  C   UNL A   1      34.775  30.106  27.384  1.00  0.00     0.116 C 
BRANCH  30  31
ATOM     31  N   UNL A   1      34.403  31.255  28.199  1.00  0.00    -0.352 N 
ATOM     32  C   UNL A   1      35.015  31.753  29.324  1.00  0.00     0.251 C 
ATOM     33  H   UNL A   1      33.600  31.742  27.903  1.00  0.00     0.163 HD
ATOM     34  O   UNL A   1      34.471  32.639  29.980  1.00  0.00    -0.269 OA
BRANCH  32  35
ATOM     35  C   UNL A   1      36.321  31.207  29.756  1.00  0.00     0.039 A 
ATOM     36  C   UNL A   1      36.347  30.145  30.666  1.00  0.00     0.014 A 
ATOM     37  C   UNL A   1      37.515  31.733  29.260  1.00  0.00     0.014 A 
ATOM     38  C   UNL A   1      37.571  29.571  31.027  1.00  0.00     0.010 A 
ATOM     39  C   UNL A   1      38.725  31.114  29.564  1.00  0.00     0.010 A 
ATOM     40  C   UNL A   1      38.768  30.028  30.454  1.00  0.00    -0.014 A 
BRANCH  40  41
ATOM     41  C   UNL A   1      40.077  29.394  30.761  1.00  0.00     0.031 A 
ATOM     42  C   UNL A   1      40.969  29.987  31.821  1.00  0.00     0.074 A 
ATOM     43  C   UNL A   1      40.511  28.353  30.022  1.00  0.00     0.049 A 
ATOM     44  N   UNL A   1      42.187  29.651  32.157  1.00  0.00    -0.248 NA
ATOM     45  C   UNL A   1      40.431  31.125  32.587  1.00  0.00     0.031 C 
ATOM     46  C   UNL A   1      39.772  27.728  28.921  1.00  0.00     0.029 A 
ATOM     47  N   UNL A   1      41.697  27.659  30.057  1.00  0.00    -0.354 N 
ATOM     48  C   UNL A   1      42.579  30.562  33.131  1.00  0.00     0.074 A 
ATOM     49  C   UNL A   1      41.477  31.478  33.321  1.00  0.00     0.031 C 
ATOM     50  C   UNL A   1      40.523  26.752  28.384  1.00  0.00     0.029 A 
ATOM     51  C   UNL A   1      41.808  26.703  29.073  1.00  0.00     0.049 A 
ATOM     52  H   UNL A   1      42.400  27.830  30.724  1.00  0.00     0.167 HD
ATOM     53  C   UNL A   1      43.742  30.618  33.821  1.00  0.00     0.034 A 
ATOM     54  C   UNL A   1      42.836  25.892  28.749  1.00  0.00     0.034 A 
ATOM     55  C   UNL A   1      44.814  29.672  33.671  1.00  0.00     0.049 A 
ATOM     56  C   UNL A   1      44.102  25.953  29.564  1.00  0.00     0.074 A 
ATOM     57  C   UNL A   1      45.990  29.587  34.395  1.00  0.00     0.029 A 
ATOM     58  N   UNL A   1      44.847  28.653  32.732  1.00  0.00    -0.354 N 
ATOM     59  N   UNL A   1      44.389  26.720  30.588  1.00  0.00    -0.248 NA
ATOM     60  C   UNL A   1      45.174  25.013  29.202  1.00  0.00     0.031 C 
ATOM     61  C   UNL A   1      46.748  28.535  33.876  1.00  0.00     0.029 A 
ATOM     62  C   UNL A   1      46.027  27.941  32.853  1.00  0.00     0.049 A 
ATOM     63  H   UNL A   1      44.136  28.465  32.078  1.00  0.00     0.167 HD
ATOM     64  C   UNL A   1      45.648  26.320  31.022  1.00  0.00     0.074 A 
ATOM     65  C   UNL A   1      46.065  25.236  30.159  1.00  0.00     0.031 C 
ATOM     66  C   UNL A   1      46.397  26.815  32.036  1.00  0.00     0.034 A 
BRANCH  53  67
ATOM     67  C   UNL A   1      43.911  31.709  34.845  1.00  0.00     0.023 A 
ATOM     68  C   UNL A   1      44.367  32.980  34.441  1.00  0.00     0.012 A 
ATOM     69  C   UNL A   1      43.522  31.506  36.184  1.00  0.00     0.148 A 
ATOM     70  C   UNL A   1      44.457  34.026  35.359  1.00  0.00     0.002 A 
ATOM     71  C   UNL A   1      43.570  32.565  37.082  1.00  0.00     0.091 A 
ATOM     72  F   UNL A   1      43.106  30.284  36.549  1.00  0.00    -0.205 F 
ATOM     73  C   UNL A   1      44.046  33.822  36.674  1.00  0.00     0.022 A 
BRANCH  71  74
ATOM     74  S   UNL A   1      42.984  32.432  38.774  1.00  0.00     0.127 S 
ATOM     75  O   UNL A   1      44.057  31.656  39.397  1.00  0.00    -0.237 OA
ATOM     76  O   UNL A   1      42.925  33.833  39.190  1.00  0.00    -0.237 OA
ATOM     77  O   UNL A   1      41.694  31.760  38.705  1.00  0.00    -0.744 OA
ENDBRANCH  71  74
ENDBRANCH  53  67
BRANCH  54  78
ATOM     78  C   UNL A   1      42.706  24.915  27.629  1.00  0.00     0.023 A 
ATOM     79  C   UNL A   1      43.050  25.310  26.321  1.00  0.00     0.012 A 
ATOM     80  C   UNL A   1      42.232  23.608  27.847  1.00  0.00     0.148 A 
ATOM     81  C   UNL A   1      42.878  24.440  25.244  1.00  0.00     0.002 A 
ATOM     82  C   UNL A   1      42.119  22.726  26.778  1.00  0.00     0.091 A 
ATOM     83  F   UNL A   1      41.897  23.251  29.094  1.00  0.00    -0.205 F 
ATOM     84  C   UNL A   1      42.420  23.146  25.474  1.00  0.00     0.022 A 
BRANCH  82  85
ATOM     85  S   UNL A   1      41.661  21.003  27.002  1.00  0.00     0.127 S 
ATOM     86  O   UNL A   1      42.729  20.520  27.873  1.00  0.00    -0.237 OA
ATOM     87  O   UNL A   1      40.349  21.118  27.641  1.00  0.00    -0.237 OA
ATOM     88  O   UNL A   1      41.623  20.432  25.663  1.00  0.00    -0.744 OA
ENDBRANCH  82  85
ENDBRANCH  54  78
BRANCH  66  89
ATOM     89  C   UNL A   1      47.717  26.154  32.331  1.00  0.00     0.023 A 
ATOM     90  C   UNL A   1      48.892  26.607  31.701  1.00  0.00     0.012 A 
ATOM     91  C   UNL A   1      47.802  25.142  33.309  1.00  0.00     0.148 A 
ATOM     92  C   UNL A   1      50.128  26.044  32.021  1.00  0.00     0.002 A 
ATOM     93  C   UNL A   1      49.040  24.624  33.661  1.00  0.00     0.091 A 
ATOM     94  F   UNL A   1      46.668  24.714  33.884  1.00  0.00    -0.205 F 
ATOM     95  C   UNL A   1      50.204  25.065  33.008  1.00  0.00     0.022 A 
BRANCH  93  96
ATOM     96  S   UNL A   1      49.247  23.436  34.992  1.00  0.00     0.127 S 
ATOM     97  O   UNL A   1      48.475  22.297  34.498  1.00  0.00    -0.237 OA
ATOM     98  O   UNL A   1      50.696  23.233  35.003  1.00  0.00    -0.237 OA
ATOM     99  O   UNL A   1      48.716  24.076  36.189  1.00  0.00    -0.744 OA
ENDBRANCH  93  96
ENDBRANCH  66  89
ENDBRANCH  40  41
ENDBRANCH  32  35
ENDBRANCH  30  31
ENDBRANCH  29  30
ENDBRANCH  28  29
ENDBRANCH   1  28
TORSDOF 20
ENDMDL
