MODEL 1
REMARK VINA RESULT:     -11.8      0.000      0.000
REMARK SMILES C[C@@H](C(=O)NCCCCCCNC(=O)c1ccc(-c2c3nc(c(-c4cccc(S(=O)(=O)[O-])c4F)c4ccc([nH]4)c(-c4cccc(S(=O)(=O)[O-])c4F)c4nc(c(-c5cccc(S(=O)(=O)[O-])c5F)c5ccc2[nH]5)C=C4)C=C3)cc1)c1ccc(Cc2cccs2)cc1F
REMARK SMILES IDX 8 1 7 2 6 3 5 4 3 5 4 6 2 8 1 9 78 10 79 11 89 12 80 13
REMARK SMILES IDX 88 14 90 15 81 16 82 17 83 18 84 19 87 20 85 21 86 22 9 23
REMARK SMILES IDX 10 24 11 25 12 26 13 27 14 29 15 30 16 31 77 32 17 33 76 34
REMARK SMILES IDX 18 35 19 36 20 37 70 38 21 39 75 40 69 41 71 42 22 43 74 44
REMARK SMILES IDX 68 45 67 46 23 48 55 49 35 50 54 51 36 52 39 53 53 54 72 55
REMARK SMILES IDX 37 56 38 57 52 59 73 60 40 61 24 62 25 63 33 64 26 65 28 66
REMARK SMILES IDX 34 67 27 68 29 69 30 70 31 71 32 72 56 73 57 74 65 75 58 76
REMARK SMILES IDX 60 77 66 78 59 79 61 80 62 81 63 82 64 83 41 84 42 85 50 86
REMARK SMILES IDX 43 87 45 88 51 89 44 90 46 91 47 92 48 93 49 94
REMARK H PARENT 5 7 12 28 71 47 39 58
REMARK Flexibility Score: inf
ROOT
ATOM      1  C   UNL A   1      32.099  29.622  26.948  1.00  0.00     0.002 C 
ENDROOT
BRANCH   1   2
ATOM      2  C   UNL A   1      31.955  28.129  26.621  1.00  0.00     0.021 C 
BRANCH   2   3
ATOM      3  C   UNL A   1      33.164  27.541  25.883  1.00  0.00     0.116 C 
BRANCH   3   4
ATOM      4  N   UNL A   1      33.171  26.100  26.028  1.00  0.00    -0.356 N 
ATOM      5  C   UNL A   1      32.666  25.143  25.196  1.00  0.00     0.227 C 
ATOM      6  O   UNL A   1      32.499  24.018  25.676  1.00  0.00    -0.274 OA
ATOM      7  H   UNL A   1      33.602  25.761  26.846  1.00  0.00     0.163 HD
BRANCH   5   8
ATOM      8  C   UNL A   1      32.361  25.486  23.724  1.00  0.00     0.108 C 
ATOM      9  C   UNL A   1      33.588  26.117  23.050  1.00  0.00     0.023 C 
BRANCH   8  10
ATOM     10  C   UNL A   1      31.106  26.353  23.607  1.00  0.00    -0.000 A 
ATOM     11  C   UNL A   1      29.839  25.915  24.017  1.00  0.00     0.008 A 
ATOM     12  C   UNL A   1      31.195  27.637  23.052  1.00  0.00     0.127 A 
ATOM     13  C   UNL A   1      28.711  26.721  23.854  1.00  0.00     0.004 A 
ATOM     14  C   UNL A   1      30.063  28.431  22.844  1.00  0.00     0.043 A 
ATOM     15  F   UNL A   1      32.392  28.130  22.702  1.00  0.00    -0.207 F 
ATOM     16  C   UNL A   1      28.798  27.970  23.228  1.00  0.00    -0.040 A 
BRANCH  16  17
ATOM     17  C   UNL A   1      27.553  28.798  22.996  1.00  0.00     0.082 C 
BRANCH  17  18
ATOM     18  C   UNL A   1      27.819  30.262  22.736  1.00  0.00     0.009 A 
ATOM     19  C   UNL A   1      27.952  31.302  23.641  1.00  0.00     0.016 A 
ATOM     20  S   UNL A   1      28.062  30.818  21.129  1.00  0.00    -0.149 S 
ATOM     21  C   UNL A   1      28.235  32.549  23.014  1.00  0.00     0.012 A 
ATOM     22  C   UNL A   1      28.333  32.424  21.649  1.00  0.00     0.065 A 
ENDBRANCH  17  18
ENDBRANCH  16  17
ENDBRANCH   8  10
ENDBRANCH   5   8
ENDBRANCH   3   4
ENDBRANCH   2   3
ENDBRANCH   1   2
BRANCH   1  23
ATOM     23  C   UNL A   1      31.379  30.561  25.976  1.00  0.00     0.002 C 
BRANCH  23  24
ATOM     24  C   UNL A   1      31.284  32.013  26.448  1.00  0.00     0.021 C 
BRANCH  24  25
ATOM     25  C   UNL A   1      32.615  32.614  26.884  1.00  0.00     0.116 C 
BRANCH  25  26
ATOM     26  N   UNL A   1      32.440  33.917  27.511  1.00  0.00    -0.352 N 
ATOM     27  C   UNL A   1      33.129  34.458  28.568  1.00  0.00     0.251 C 
ATOM     28  H   UNL A   1      31.734  34.485  27.126  1.00  0.00     0.163 HD
ATOM     29  O   UNL A   1      32.724  35.478  29.118  1.00  0.00    -0.269 OA
BRANCH  27  30
ATOM     30  C   UNL A   1      34.356  33.789  29.043  1.00  0.00     0.039 A 
ATOM     31  C   UNL A   1      35.598  34.368  28.776  1.00  0.00     0.014 A 
ATOM     32  C   UNL A   1      34.267  32.606  29.782  1.00  0.00     0.014 A 
ATOM     33  C   UNL A   1      36.755  33.788  29.302  1.00  0.00     0.010 A 
ATOM     34  C   UNL A   1      35.410  32.076  30.369  1.00  0.00     0.010 A 
ATOM     35  C   UNL A   1      36.666  32.656  30.129  1.00  0.00    -0.014 A 
BRANCH  35  36
ATOM     36  C   UNL A   1      37.866  32.055  30.762  1.00  0.00     0.031 A 
ATOM     37  C   UNL A   1      38.639  30.989  30.040  1.00  0.00     0.074 A 
ATOM     38  C   UNL A   1      38.183  32.375  32.032  1.00  0.00     0.049 A 
ATOM     39  N   UNL A   1      39.631  30.254  30.469  1.00  0.00    -0.248 NA
ATOM     40  C   UNL A   1      38.216  30.682  28.663  1.00  0.00     0.031 C 
ATOM     41  C   UNL A   1      37.458  33.335  32.868  1.00  0.00     0.029 A 
ATOM     42  N   UNL A   1      39.168  31.892  32.857  1.00  0.00    -0.354 N 
ATOM     43  C   UNL A   1      39.918  29.366  29.438  1.00  0.00     0.074 A 
ATOM     44  C   UNL A   1      38.974  29.635  28.376  1.00  0.00     0.031 C 
ATOM     45  C   UNL A   1      38.010  33.356  34.091  1.00  0.00     0.029 A 
ATOM     46  C   UNL A   1      39.102  32.387  34.139  1.00  0.00     0.049 A 
ATOM     47  H   UNL A   1      39.857  31.254  32.561  1.00  0.00     0.167 HD
ATOM     48  C   UNL A   1      40.892  28.428  29.373  1.00  0.00     0.034 A 
ATOM     49  C   UNL A   1      39.816  32.076  35.239  1.00  0.00     0.034 A 
ATOM     50  C   UNL A   1      41.849  28.193  30.419  1.00  0.00     0.049 A 
ATOM     51  C   UNL A   1      40.922  31.063  35.134  1.00  0.00     0.074 A 
ATOM     52  C   UNL A   1      42.942  27.345  30.409  1.00  0.00     0.029 A 
ATOM     53  N   UNL A   1      41.819  28.792  31.668  1.00  0.00    -0.354 N 
ATOM     54  N   UNL A   1      41.289  30.352  34.096  1.00  0.00    -0.248 NA
ATOM     55  C   UNL A   1      41.736  30.834  36.336  1.00  0.00     0.031 C 
ATOM     56  C   UNL A   1      43.550  27.403  31.667  1.00  0.00     0.029 A 
ATOM     57  C   UNL A   1      42.860  28.319  32.446  1.00  0.00     0.049 A 
ATOM     58  H   UNL A   1      41.153  29.458  31.959  1.00  0.00     0.167 HD
ATOM     59  C   UNL A   1      42.394  29.616  34.507  1.00  0.00     0.074 A 
ATOM     60  C   UNL A   1      42.645  29.978  35.887  1.00  0.00     0.031 C 
ATOM     61  C   UNL A   1      43.130  28.720  33.804  1.00  0.00     0.034 A 
BRANCH  48  62
ATOM     62  C   UNL A   1      40.983  27.606  28.113  1.00  0.00     0.023 A 
ATOM     63  C   UNL A   1      41.650  28.122  26.983  1.00  0.00     0.012 A 
ATOM     64  C   UNL A   1      40.432  26.311  28.055  1.00  0.00     0.148 A 
ATOM     65  C   UNL A   1      41.718  27.388  25.800  1.00  0.00     0.002 A 
ATOM     66  C   UNL A   1      40.550  25.564  26.889  1.00  0.00     0.091 A 
ATOM     67  F   UNL A   1      39.782  25.842  29.130  1.00  0.00    -0.205 F 
ATOM     68  C   UNL A   1      41.177  26.107  25.756  1.00  0.00     0.022 A 
BRANCH  66  69
ATOM     69  S   UNL A   1      39.959  23.872  26.765  1.00  0.00     0.127 S 
ATOM     70  O   UNL A   1      39.756  23.526  28.171  1.00  0.00    -0.237 OA
ATOM     71  O   UNL A   1      38.726  24.032  25.993  1.00  0.00    -0.237 OA
ATOM     72  O   UNL A   1      41.010  23.133  26.080  1.00  0.00    -0.744 OA
ENDBRANCH  66  69
ENDBRANCH  48  62
BRANCH  49  73
ATOM     73  C   UNL A   1      39.518  32.771  36.522  1.00  0.00     0.023 A 
ATOM     74  C   UNL A   1      40.128  34.009  36.804  1.00  0.00     0.012 A 
ATOM     75  C   UNL A   1      38.578  32.243  37.430  1.00  0.00     0.148 A 
ATOM     76  C   UNL A   1      39.821  34.700  37.977  1.00  0.00     0.002 A 
ATOM     77  C   UNL A   1      38.235  32.963  38.567  1.00  0.00     0.091 A 
ATOM     78  F   UNL A   1      38.015  31.062  37.141  1.00  0.00    -0.205 F 
ATOM     79  C   UNL A   1      38.867  34.184  38.852  1.00  0.00     0.022 A 
BRANCH  77  80
ATOM     80  S   UNL A   1      36.918  32.449  39.675  1.00  0.00     0.127 S 
ATOM     81  O   UNL A   1      37.373  31.124  40.086  1.00  0.00    -0.237 OA
ATOM     82  O   UNL A   1      36.986  33.476  40.715  1.00  0.00    -0.237 OA
ATOM     83  O   UNL A   1      35.697  32.477  38.880  1.00  0.00    -0.744 OA
ENDBRANCH  77  80
ENDBRANCH  49  73
BRANCH  61  84
ATOM     84  C   UNL A   1      44.312  28.083  34.486  1.00  0.00     0.023 A 
ATOM     85  C   UNL A   1      45.555  28.746  34.509  1.00  0.00     0.012 A 
ATOM     86  C   UNL A   1      44.155  26.880  35.202  1.00  0.00     0.148 A 
ATOM     87  C   UNL A   1      46.628  28.210  35.221  1.00  0.00     0.002 A 
ATOM     88  C   UNL A   1      45.212  26.379  35.950  1.00  0.00     0.091 A 
ATOM     89  F   UNL A   1      42.968  26.259  35.151  1.00  0.00    -0.205 F 
ATOM     90  C   UNL A   1      46.452  27.037  35.953  1.00  0.00     0.022 A 
BRANCH  88  91
ATOM     91  S   UNL A   1      45.050  24.934  37.005  1.00  0.00     0.127 S 
ATOM     92  O   UNL A   1      44.944  23.858  36.020  1.00  0.00    -0.237 OA
ATOM     93  O   UNL A   1      46.308  24.955  37.752  1.00  0.00    -0.237 OA
ATOM     94  O   UNL A   1      43.859  25.154  37.813  1.00  0.00    -0.744 OA
ENDBRANCH  88  91
ENDBRANCH  61  84
ENDBRANCH  35  36
ENDBRANCH  27  30
ENDBRANCH  25  26
ENDBRANCH  24  25
ENDBRANCH  23  24
ENDBRANCH   1  23
TORSDOF 19
ENDMDL
MODEL 2
REMARK VINA RESULT:     -11.7      3.771      9.329
REMARK SMILES C[C@@H](C(=O)NCCCCCCNC(=O)c1ccc(-c2c3nc(c(-c4cccc(S(=O)(=O)[O-])c4F)c4ccc([nH]4)c(-c4cccc(S(=O)(=O)[O-])c4F)c4nc(c(-c5cccc(S(=O)(=O)[O-])c5F)c5ccc2[nH]5)C=C4)C=C3)cc1)c1ccc(Cc2cccs2)cc1F
REMARK SMILES IDX 8 1 7 2 6 3 5 4 3 5 4 6 2 8 1 9 78 10 79 11 89 12 80 13
REMARK SMILES IDX 88 14 90 15 81 16 82 17 83 18 84 19 87 20 85 21 86 22 9 23
REMARK SMILES IDX 10 24 11 25 12 26 13 27 14 29 15 30 16 31 77 32 17 33 76 34
REMARK SMILES IDX 18 35 19 36 20 37 70 38 21 39 75 40 69 41 71 42 22 43 74 44
REMARK SMILES IDX 68 45 67 46 23 48 55 49 35 50 54 51 36 52 39 53 53 54 72 55
REMARK SMILES IDX 37 56 38 57 52 59 73 60 40 61 24 62 25 63 33 64 26 65 28 66
REMARK SMILES IDX 34 67 27 68 29 69 30 70 31 71 32 72 56 73 57 74 65 75 58 76
REMARK SMILES IDX 60 77 66 78 59 79 61 80 62 81 63 82 64 83 41 84 42 85 50 86
REMARK SMILES IDX 43 87 45 88 51 89 44 90 46 91 47 92 48 93 49 94
REMARK H PARENT 5 7 12 28 71 47 39 58
REMARK Flexibility Score: inf
ROOT
ATOM      1  C   UNL A   1      31.166  27.853  24.251  1.00  0.00     0.002 C 
ENDROOT
BRANCH   1   2
ATOM      2  C   UNL A   1      30.033  26.909  23.823  1.00  0.00     0.021 C 
BRANCH   2   3
ATOM      3  C   UNL A   1      30.466  25.443  23.703  1.00  0.00     0.116 C 
BRANCH   3   4
ATOM      4  N   UNL A   1      31.401  25.298  22.606  1.00  0.00    -0.356 N 
ATOM      5  C   UNL A   1      32.716  24.933  22.630  1.00  0.00     0.227 C 
ATOM      6  O   UNL A   1      33.385  25.193  21.626  1.00  0.00    -0.274 OA
ATOM      7  H   UNL A   1      31.034  25.491  21.712  1.00  0.00     0.163 HD
BRANCH   5   8
ATOM      8  C   UNL A   1      33.291  24.207  23.862  1.00  0.00     0.108 C 
ATOM      9  C   UNL A   1      34.780  24.538  24.037  1.00  0.00     0.023 C 
BRANCH   8  10
ATOM     10  C   UNL A   1      33.020  22.703  23.794  1.00  0.00    -0.000 A 
ATOM     11  C   UNL A   1      32.661  22.048  22.609  1.00  0.00     0.008 A 
ATOM     12  C   UNL A   1      33.108  21.926  24.958  1.00  0.00     0.127 A 
ATOM     13  C   UNL A   1      32.381  20.681  22.598  1.00  0.00     0.004 A 
ATOM     14  C   UNL A   1      32.783  20.566  24.963  1.00  0.00     0.043 A 
ATOM     15  F   UNL A   1      33.509  22.489  26.107  1.00  0.00    -0.207 F 
ATOM     16  C   UNL A   1      32.396  19.930  23.778  1.00  0.00    -0.040 A 
BRANCH  16  17
ATOM     17  C   UNL A   1      32.018  18.465  23.757  1.00  0.00     0.082 C 
BRANCH  17  18
ATOM     18  C   UNL A   1      33.089  17.538  24.283  1.00  0.00     0.009 A 
ATOM     19  C   UNL A   1      34.454  17.554  24.049  1.00  0.00     0.016 A 
ATOM     20  S   UNL A   1      32.674  16.283  25.380  1.00  0.00    -0.149 S 
ATOM     21  C   UNL A   1      35.150  16.531  24.754  1.00  0.00     0.012 A 
ATOM     22  C   UNL A   1      34.301  15.775  25.526  1.00  0.00     0.065 A 
ENDBRANCH  17  18
ENDBRANCH  16  17
ENDBRANCH   8  10
ENDBRANCH   5   8
ENDBRANCH   3   4
ENDBRANCH   2   3
ENDBRANCH   1   2
BRANCH   1  23
ATOM     23  C   UNL A   1      31.850  27.474  25.568  1.00  0.00     0.002 C 
BRANCH  23  24
ATOM     24  C   UNL A   1      33.376  27.579  25.544  1.00  0.00     0.021 C 
BRANCH  24  25
ATOM     25  C   UNL A   1      33.975  28.201  26.800  1.00  0.00     0.116 C 
BRANCH  25  26
ATOM     26  N   UNL A   1      33.803  29.647  26.823  1.00  0.00    -0.352 N 
ATOM     27  C   UNL A   1      34.555  30.589  27.480  1.00  0.00     0.251 C 
ATOM     28  H   UNL A   1      33.047  29.995  26.296  1.00  0.00     0.163 HD
ATOM     29  O   UNL A   1      34.158  31.747  27.574  1.00  0.00    -0.269 OA
BRANCH  27  30
ATOM     30  C   UNL A   1      35.841  30.188  28.084  1.00  0.00     0.039 A 
ATOM     31  C   UNL A   1      35.852  29.631  29.364  1.00  0.00     0.014 A 
ATOM     32  C   UNL A   1      37.029  30.337  27.363  1.00  0.00     0.014 A 
ATOM     33  C   UNL A   1      37.053  29.166  29.902  1.00  0.00     0.010 A 
ATOM     34  C   UNL A   1      38.209  29.803  27.868  1.00  0.00     0.010 A 
ATOM     35  C   UNL A   1      38.235  29.220  29.145  1.00  0.00    -0.014 A 
BRANCH  35  36
ATOM     36  C   UNL A   1      39.516  28.671  29.656  1.00  0.00     0.031 A 
ATOM     37  C   UNL A   1      40.249  29.384  30.758  1.00  0.00     0.074 A 
ATOM     38  C   UNL A   1      40.081  27.611  29.045  1.00  0.00     0.049 A 
ATOM     39  N   UNL A   1      41.434  29.141  31.253  1.00  0.00    -0.248 NA
ATOM     40  C   UNL A   1      39.573  30.546  31.358  1.00  0.00     0.031 C 
ATOM     41  C   UNL A   1      39.507  26.886  27.910  1.00  0.00     0.029 A 
ATOM     42  N   UNL A   1      41.286  26.990  29.264  1.00  0.00    -0.354 N 
ATOM     43  C   UNL A   1      41.668  30.146  32.184  1.00  0.00     0.074 A 
ATOM     44  C   UNL A   1      40.514  31.018  32.161  1.00  0.00     0.031 C 
ATOM     45  C   UNL A   1      40.367  25.932  27.519  1.00  0.00     0.029 A 
ATOM     46  C   UNL A   1      41.566  26.001  28.350  1.00  0.00     0.049 A 
ATOM     47  H   UNL A   1      41.890  27.228  30.004  1.00  0.00     0.167 HD
ATOM     48  C   UNL A   1      42.736  30.316  32.998  1.00  0.00     0.034 A 
ATOM     49  C   UNL A   1      42.675  25.254  28.177  1.00  0.00     0.034 A 
ATOM     50  C   UNL A   1      43.861  29.423  33.041  1.00  0.00     0.049 A 
ATOM     51  C   UNL A   1      43.832  25.428  29.121  1.00  0.00     0.074 A 
ATOM     52  C   UNL A   1      44.941  29.442  33.905  1.00  0.00     0.029 A 
ATOM     53  N   UNL A   1      44.063  28.363  32.170  1.00  0.00    -0.354 N 
ATOM     54  N   UNL A   1      43.966  26.278  30.109  1.00  0.00    -0.248 NA
ATOM     55  C   UNL A   1      44.976  24.520  28.952  1.00  0.00     0.031 C 
ATOM     56  C   UNL A   1      45.816  28.416  33.532  1.00  0.00     0.029 A 
ATOM     57  C   UNL A   1      45.259  27.732  32.462  1.00  0.00     0.049 A 
ATOM     58  H   UNL A   1      43.445  28.098  31.450  1.00  0.00     0.167 HD
ATOM     59  C   UNL A   1      45.190  25.988  30.701  1.00  0.00     0.074 A 
ATOM     60  C   UNL A   1      45.754  24.875  29.966  1.00  0.00     0.031 C 
ATOM     61  C   UNL A   1      45.790  26.594  31.754  1.00  0.00     0.034 A 
BRANCH  48  62
ATOM     62  C   UNL A   1      42.719  31.500  33.930  1.00  0.00     0.023 A 
ATOM     63  C   UNL A   1      43.271  32.730  33.516  1.00  0.00     0.012 A 
ATOM     64  C   UNL A   1      42.132  31.404  35.207  1.00  0.00     0.148 A 
ATOM     65  C   UNL A   1      43.290  33.827  34.375  1.00  0.00     0.002 A 
ATOM     66  C   UNL A   1      42.107  32.518  36.038  1.00  0.00     0.091 A 
ATOM     67  F   UNL A   1      41.630  30.224  35.595  1.00  0.00    -0.205 F 
ATOM     68  C   UNL A   1      42.700  33.724  35.632  1.00  0.00     0.022 A 
BRANCH  66  69
ATOM     69  S   UNL A   1      41.295  32.506  37.641  1.00  0.00     0.127 S 
ATOM     70  O   UNL A   1      42.128  31.564  38.387  1.00  0.00    -0.237 OA
ATOM     71  O   UNL A   1      41.425  33.902  38.063  1.00  0.00    -0.237 OA
ATOM     72  O   UNL A   1      39.927  32.075  37.391  1.00  0.00    -0.744 OA
ENDBRANCH  66  69
ENDBRANCH  48  62
BRANCH  49  73
ATOM     73  C   UNL A   1      42.711  24.248  27.080  1.00  0.00     0.023 A 
ATOM     74  C   UNL A   1      43.427  24.526  25.899  1.00  0.00     0.012 A 
ATOM     75  C   UNL A   1      42.098  22.988  27.233  1.00  0.00     0.148 A 
ATOM     76  C   UNL A   1      43.516  23.574  24.883  1.00  0.00     0.002 A 
ATOM     77  C   UNL A   1      42.239  22.025  26.242  1.00  0.00     0.091 A 
ATOM     78  F   UNL A   1      41.419  22.748  28.363  1.00  0.00    -0.205 F 
ATOM     79  C   UNL A   1      42.933  22.321  25.058  1.00  0.00     0.022 A 
BRANCH  77  80
ATOM     80  S   UNL A   1      41.646  20.341  26.440  1.00  0.00     0.127 S 
ATOM     81  O   UNL A   1      42.180  19.987  27.752  1.00  0.00    -0.237 OA
ATOM     82  O   UNL A   1      40.195  20.528  26.393  1.00  0.00    -0.237 OA
ATOM     83  O   UNL A   1      42.193  19.593  25.315  1.00  0.00    -0.744 OA
ENDBRANCH  77  80
ENDBRANCH  49  73
BRANCH  61  84
ATOM     84  C   UNL A   1      47.116  26.053  32.222  1.00  0.00     0.023 A 
ATOM     85  C   UNL A   1      48.316  26.585  31.712  1.00  0.00     0.012 A 
ATOM     86  C   UNL A   1      47.166  25.095  33.255  1.00  0.00     0.148 A 
ATOM     87  C   UNL A   1      49.547  26.159  32.211  1.00  0.00     0.002 A 
ATOM     88  C   UNL A   1      48.393  24.713  33.782  1.00  0.00     0.091 A 
ATOM     89  F   UNL A   1      46.012  24.591  33.713  1.00  0.00    -0.205 F 
ATOM     90  C   UNL A   1      49.584  25.236  33.255  1.00  0.00     0.022 A 
BRANCH  88  91
ATOM     91  S   UNL A   1      48.536  23.612  35.194  1.00  0.00     0.127 S 
ATOM     92  O   UNL A   1      47.773  24.333  36.213  1.00  0.00    -0.237 OA
ATOM     93  O   UNL A   1      47.895  22.393  34.701  1.00  0.00    -0.237 OA
ATOM     94  O   UNL A   1      49.962  23.482  35.463  1.00  0.00    -0.744 OA
ENDBRANCH  88  91
ENDBRANCH  61  84
ENDBRANCH  35  36
ENDBRANCH  27  30
ENDBRANCH  25  26
ENDBRANCH  24  25
ENDBRANCH  23  24
ENDBRANCH   1  23
TORSDOF 19
ENDMDL
MODEL 3
REMARK VINA RESULT:     -11.5      0.598      7.483
REMARK SMILES C[C@@H](C(=O)NCCCCCCNC(=O)c1ccc(-c2c3nc(c(-c4cccc(S(=O)(=O)[O-])c4F)c4ccc([nH]4)c(-c4cccc(S(=O)(=O)[O-])c4F)c4nc(c(-c5cccc(S(=O)(=O)[O-])c5F)c5ccc2[nH]5)C=C4)C=C3)cc1)c1ccc(Cc2cccs2)cc1F
REMARK SMILES IDX 8 1 7 2 6 3 5 4 3 5 4 6 2 8 1 9 78 10 79 11 89 12 80 13
REMARK SMILES IDX 88 14 90 15 81 16 82 17 83 18 84 19 87 20 85 21 86 22 9 23
REMARK SMILES IDX 10 24 11 25 12 26 13 27 14 29 15 30 16 31 77 32 17 33 76 34
REMARK SMILES IDX 18 35 19 36 20 37 70 38 21 39 75 40 69 41 71 42 22 43 74 44
REMARK SMILES IDX 68 45 67 46 23 48 55 49 35 50 54 51 36 52 39 53 53 54 72 55
REMARK SMILES IDX 37 56 38 57 52 59 73 60 40 61 24 62 25 63 33 64 26 65 28 66
REMARK SMILES IDX 34 67 27 68 29 69 30 70 31 71 32 72 56 73 57 74 65 75 58 76
REMARK SMILES IDX 60 77 66 78 59 79 61 80 62 81 63 82 64 83 41 84 42 85 50 86
REMARK SMILES IDX 43 87 45 88 51 89 44 90 46 91 47 92 48 93 49 94
REMARK H PARENT 5 7 12 28 71 47 39 58
REMARK Flexibility Score: inf
ROOT
ATOM      1  C   UNL A   1      32.036  29.498  27.053  1.00  0.00     0.002 C 
ENDROOT
BRANCH   1   2
ATOM      2  C   UNL A   1      31.867  28.014  26.695  1.00  0.00     0.021 C 
BRANCH   2   3
ATOM      3  C   UNL A   1      33.117  27.386  26.068  1.00  0.00     0.116 C 
BRANCH   3   4
ATOM      4  N   UNL A   1      33.026  25.942  26.138  1.00  0.00    -0.356 N 
ATOM      5  C   UNL A   1      32.520  25.060  25.228  1.00  0.00     0.227 C 
ATOM      6  O   UNL A   1      32.253  23.927  25.638  1.00  0.00    -0.274 OA
ATOM      7  H   UNL A   1      33.380  25.538  26.963  1.00  0.00     0.163 HD
BRANCH   5   8
ATOM      8  C   UNL A   1      32.333  25.492  23.759  1.00  0.00     0.108 C 
ATOM      9  C   UNL A   1      33.622  26.124  23.214  1.00  0.00     0.023 C 
BRANCH   8  10
ATOM     10  C   UNL A   1      31.112  26.399  23.600  1.00  0.00    -0.000 A 
ATOM     11  C   UNL A   1      29.833  26.036  24.042  1.00  0.00     0.008 A 
ATOM     12  C   UNL A   1      31.247  27.645  22.971  1.00  0.00     0.127 A 
ATOM     13  C   UNL A   1      28.736  26.875  23.840  1.00  0.00     0.004 A 
ATOM     14  C   UNL A   1      30.145  28.469  22.724  1.00  0.00     0.043 A 
ATOM     15  F   UNL A   1      32.459  28.070  22.586  1.00  0.00    -0.207 F 
ATOM     16  C   UNL A   1      28.866  28.081  23.143  1.00  0.00    -0.040 A 
BRANCH  16  17
ATOM     17  C   UNL A   1      27.652  28.942  22.870  1.00  0.00     0.082 C 
BRANCH  17  18
ATOM     18  C   UNL A   1      27.961  30.408  22.671  1.00  0.00     0.009 A 
ATOM     19  C   UNL A   1      28.265  31.375  23.614  1.00  0.00     0.016 A 
ATOM     20  S   UNL A   1      28.025  31.063  21.084  1.00  0.00    -0.149 S 
ATOM     21  C   UNL A   1      28.532  32.649  23.036  1.00  0.00     0.012 A 
ATOM     22  C   UNL A   1      28.447  32.615  21.665  1.00  0.00     0.065 A 
ENDBRANCH  17  18
ENDBRANCH  16  17
ENDBRANCH   8  10
ENDBRANCH   5   8
ENDBRANCH   3   4
ENDBRANCH   2   3
ENDBRANCH   1   2
BRANCH   1  23
ATOM     23  C   UNL A   1      31.454  30.473  26.026  1.00  0.00     0.002 C 
BRANCH  23  24
ATOM     24  C   UNL A   1      31.370  31.924  26.504  1.00  0.00     0.021 C 
BRANCH  24  25
ATOM     25  C   UNL A   1      32.606  32.403  27.255  1.00  0.00     0.116 C 
BRANCH  25  26
ATOM     26  N   UNL A   1      32.548  33.832  27.537  1.00  0.00    -0.352 N 
ATOM     27  C   UNL A   1      33.220  34.543  28.498  1.00  0.00     0.251 C 
ATOM     28  H   UNL A   1      31.945  34.356  26.960  1.00  0.00     0.163 HD
ATOM     29  O   UNL A   1      32.906  35.704  28.748  1.00  0.00    -0.269 OA
BRANCH  27  30
ATOM     30  C   UNL A   1      34.320  33.891  29.237  1.00  0.00     0.039 A 
ATOM     31  C   UNL A   1      34.017  32.989  30.259  1.00  0.00     0.014 A 
ATOM     32  C   UNL A   1      35.648  34.153  28.890  1.00  0.00     0.014 A 
ATOM     33  C   UNL A   1      35.050  32.302  30.898  1.00  0.00     0.010 A 
ATOM     34  C   UNL A   1      36.668  33.410  29.473  1.00  0.00     0.010 A 
ATOM     35  C   UNL A   1      36.381  32.483  30.488  1.00  0.00    -0.014 A 
BRANCH  35  36
ATOM     36  C   UNL A   1      37.498  31.718  31.096  1.00  0.00     0.031 A 
ATOM     37  C   UNL A   1      37.899  31.982  32.519  1.00  0.00     0.074 A 
ATOM     38  C   UNL A   1      38.230  30.883  30.333  1.00  0.00     0.049 A 
ATOM     39  N   UNL A   1      38.920  31.516  33.190  1.00  0.00    -0.248 NA
ATOM     40  C   UNL A   1      37.061  32.924  33.279  1.00  0.00     0.031 C 
ATOM     41  C   UNL A   1      37.991  30.607  28.914  1.00  0.00     0.029 A 
ATOM     42  N   UNL A   1      39.351  30.148  30.631  1.00  0.00    -0.354 N 
ATOM     43  C   UNL A   1      38.877  32.144  34.429  1.00  0.00     0.074 A 
ATOM     44  C   UNL A   1      37.747  33.047  34.405  1.00  0.00     0.031 C 
ATOM     45  C   UNL A   1      38.947  29.781  28.461  1.00  0.00     0.029 A 
ATOM     46  C   UNL A   1      39.886  29.498  29.544  1.00  0.00     0.049 A 
ATOM     47  H   UNL A   1      39.735  30.092  31.536  1.00  0.00     0.167 HD
ATOM     48  C   UNL A   1      39.690  31.969  35.497  1.00  0.00     0.034 A 
ATOM     49  C   UNL A   1      41.020  28.779  29.420  1.00  0.00     0.034 A 
ATOM     50  C   UNL A   1      40.788  31.042  35.526  1.00  0.00     0.049 A 
ATOM     51  C   UNL A   1      41.886  28.561  30.630  1.00  0.00     0.074 A 
ATOM     52  C   UNL A   1      41.604  30.709  36.591  1.00  0.00     0.029 A 
ATOM     53  N   UNL A   1      41.237  30.315  34.434  1.00  0.00    -0.354 N 
ATOM     54  N   UNL A   1      41.735  29.030  31.844  1.00  0.00    -0.248 NA
ATOM     55  C   UNL A   1      43.057  27.688  30.466  1.00  0.00     0.031 C 
ATOM     56  C   UNL A   1      42.571  29.808  36.134  1.00  0.00     0.029 A 
ATOM     57  C   UNL A   1      42.331  29.549  34.793  1.00  0.00     0.049 A 
ATOM     58  H   UNL A   1      40.835  30.340  33.535  1.00  0.00     0.167 HD
ATOM     59  C   UNL A   1      42.769  28.486  32.597  1.00  0.00     0.074 A 
ATOM     60  C   UNL A   1      43.534  27.640  31.703  1.00  0.00     0.031 C 
ATOM     61  C   UNL A   1      43.058  28.674  33.908  1.00  0.00     0.034 A 
BRANCH  48  62
ATOM     62  C   UNL A   1      39.400  32.782  36.733  1.00  0.00     0.023 A 
ATOM     63  C   UNL A   1      40.065  34.009  36.941  1.00  0.00     0.012 A 
ATOM     64  C   UNL A   1      38.449  32.346  37.676  1.00  0.00     0.148 A 
ATOM     65  C   UNL A   1      39.830  34.759  38.092  1.00  0.00     0.002 A 
ATOM     66  C   UNL A   1      38.182  33.125  38.795  1.00  0.00     0.091 A 
ATOM     67  F   UNL A   1      37.841  31.168  37.476  1.00  0.00    -0.205 F 
ATOM     68  C   UNL A   1      38.883  34.322  39.014  1.00  0.00     0.022 A 
BRANCH  66  69
ATOM     69  S   UNL A   1      36.919  32.687  39.994  1.00  0.00     0.127 S 
ATOM     70  O   UNL A   1      35.717  32.661  39.162  1.00  0.00    -0.237 OA
ATOM     71  O   UNL A   1      37.371  31.372  40.454  1.00  0.00    -0.237 OA
ATOM     72  O   UNL A   1      36.957  33.728  41.012  1.00  0.00    -0.744 OA
ENDBRANCH  66  69
ENDBRANCH  48  62
BRANCH  49  73
ATOM     73  C   UNL A   1      41.367  28.187  28.099  1.00  0.00     0.023 A 
ATOM     74  C   UNL A   1      41.877  29.010  27.076  1.00  0.00     0.012 A 
ATOM     75  C   UNL A   1      41.260  26.800  27.877  1.00  0.00     0.148 A 
ATOM     76  C   UNL A   1      42.258  28.465  25.850  1.00  0.00     0.002 A 
ATOM     77  C   UNL A   1      41.693  26.255  26.675  1.00  0.00     0.091 A 
ATOM     78  F   UNL A   1      40.767  26.038  28.863  1.00  0.00    -0.205 F 
ATOM     79  C   UNL A   1      42.177  27.088  25.653  1.00  0.00     0.022 A 
BRANCH  77  80
ATOM     80  S   UNL A   1      41.760  24.484  26.384  1.00  0.00     0.127 S 
ATOM     81  O   UNL A   1      42.418  24.419  25.082  1.00  0.00    -0.237 OA
ATOM     82  O   UNL A   1      42.574  24.027  27.511  1.00  0.00    -0.237 OA
ATOM     83  O   UNL A   1      40.378  24.025  26.414  1.00  0.00    -0.744 OA
ENDBRANCH  77  80
ENDBRANCH  49  73
BRANCH  61  84
ATOM     84  C   UNL A   1      44.229  27.926  34.490  1.00  0.00     0.023 A 
ATOM     85  C   UNL A   1      45.496  28.537  34.554  1.00  0.00     0.012 A 
ATOM     86  C   UNL A   1      44.039  26.660  35.078  1.00  0.00     0.148 A 
ATOM     87  C   UNL A   1      46.562  27.891  35.180  1.00  0.00     0.002 A 
ATOM     88  C   UNL A   1      45.091  26.045  35.745  1.00  0.00     0.091 A 
ATOM     89  F   UNL A   1      42.829  26.090  34.990  1.00  0.00    -0.205 F 
ATOM     90  C   UNL A   1      46.356  26.653  35.788  1.00  0.00     0.022 A 
BRANCH  88  91
ATOM     91  S   UNL A   1      44.895  24.502  36.645  1.00  0.00     0.127 S 
ATOM     92  O   UNL A   1      44.071  24.923  37.778  1.00  0.00    -0.237 OA
ATOM     93  O   UNL A   1      44.203  23.662  35.668  1.00  0.00    -0.237 OA
ATOM     94  O   UNL A   1      46.239  24.058  36.986  1.00  0.00    -0.744 OA
ENDBRANCH  88  91
ENDBRANCH  61  84
ENDBRANCH  35  36
ENDBRANCH  27  30
ENDBRANCH  25  26
ENDBRANCH  24  25
ENDBRANCH  23  24
ENDBRANCH   1  23
TORSDOF 19
ENDMDL
