MODEL 1
REMARK VINA RESULT:     -11.7      0.000      0.000
REMARK SMILES C[C@@H]1[C@H](C(=O)NCCCCCCNC(=O)c2ccc(-c3c4nc(c(-c5cccc(S(=O)(=O)[O-])c5F)c5ccc([nH]5)c(-c5cccc(S(=O)(=O)[O-])c5F)c5nc(c(-c6cccc(S(=O)(=O)[O-])c6F)c6ccc3[nH]6)C=C5)C=C4)cc2)CCN1S(=O)(=O)c1cc(F)cc(F)c1
REMARK SMILES IDX 10 1 9 2 8 3 7 4 6 5 4 6 5 7 3 9 1 10 2 11 81 12 79 13 80 14
REMARK SMILES IDX 82 15 83 16 84 17 85 18 86 19 92 20 87 21 90 22 88 23 89 24
REMARK SMILES IDX 91 25 11 26 12 27 13 28 14 29 15 31 16 32 17 33 78 34 18 35
REMARK SMILES IDX 77 36 19 37 20 38 21 39 71 40 22 41 76 42 70 43 72 44 23 45
REMARK SMILES IDX 75 46 69 47 68 48 24 50 56 51 36 52 55 53 37 54 40 55 54 56
REMARK SMILES IDX 73 57 38 58 39 59 53 61 74 62 41 63 25 64 26 65 34 66 27 67
REMARK SMILES IDX 29 68 35 69 28 70 30 71 31 72 32 73 33 74 57 75 58 76 66 77
REMARK SMILES IDX 59 78 61 79 67 80 60 81 62 82 63 83 64 84 65 85 42 86 43 87
REMARK SMILES IDX 51 88 44 89 46 90 52 91 45 92 47 93 48 94 49 95 50 96
REMARK H PARENT 6 8 13 30 72 49 40 60
REMARK Flexibility Score: inf
ROOT
ATOM      1  C   UNL A   1      31.443  30.790  26.277  1.00  0.00     0.002 C 
ENDROOT
BRANCH   1   2
ATOM      2  C   UNL A   1      32.823  30.205  25.976  1.00  0.00     0.002 C 
BRANCH   2   3
ATOM      3  C   UNL A   1      32.826  28.861  25.251  1.00  0.00     0.021 C 
BRANCH   3   4
ATOM      4  C   UNL A   1      32.353  28.883  23.792  1.00  0.00     0.116 C 
BRANCH   4   5
ATOM      5  N   UNL A   1      31.001  28.357  23.666  1.00  0.00    -0.356 N 
ATOM      6  C   UNL A   1      30.472  27.114  23.568  1.00  0.00     0.224 C 
ATOM      7  O   UNL A   1      29.251  27.071  23.364  1.00  0.00    -0.275 OA
ATOM      8  H   UNL A   1      30.316  29.064  23.649  1.00  0.00     0.163 HD
BRANCH   6   9
ATOM      9  C   UNL A   1      31.232  25.794  23.669  1.00  0.00     0.098 C 
ATOM     10  C   UNL A   1      30.932  25.652  26.216  1.00  0.00     0.026 C 
ATOM     11  C   UNL A   1      31.820  25.369  25.027  1.00  0.00     0.082 C 
ATOM     12  N   UNL A   1      32.204  23.919  24.840  1.00  0.00    -0.194 NA
ATOM     13  C   UNL A   1      30.604  24.532  23.125  1.00  0.00     0.032 C 
ATOM     14  C   UNL A   1      31.639  23.483  23.508  1.00  0.00     0.104 C 
BRANCH  12  15
ATOM     15  S   UNL A   1      32.014  22.700  26.015  1.00  0.00     0.243 S 
ATOM     16  O   UNL A   1      32.682  23.167  27.214  1.00  0.00    -0.207 OA
ATOM     17  O   UNL A   1      30.603  22.378  26.033  1.00  0.00    -0.207 OA
BRANCH  15  18
ATOM     18  C   UNL A   1      32.831  21.207  25.524  1.00  0.00     0.088 A 
ATOM     19  C   UNL A   1      34.234  21.257  25.501  1.00  0.00     0.061 A 
ATOM     20  C   UNL A   1      32.173  20.055  25.104  1.00  0.00     0.061 A 
ATOM     21  C   UNL A   1      34.952  20.182  24.992  1.00  0.00     0.127 A 
ATOM     22  C   UNL A   1      32.918  19.014  24.550  1.00  0.00     0.127 A 
ATOM     23  F   UNL A   1      36.289  20.233  24.973  1.00  0.00    -0.207 F 
ATOM     24  C   UNL A   1      34.304  19.067  24.484  1.00  0.00     0.078 A 
ATOM     25  F   UNL A   1      32.276  17.952  24.047  1.00  0.00    -0.207 F 
ENDBRANCH  15  18
ENDBRANCH  12  15
ENDBRANCH   6   9
ENDBRANCH   4   5
ENDBRANCH   3   4
ENDBRANCH   2   3
ENDBRANCH   1   2
BRANCH   1  26
ATOM     26  C   UNL A   1      31.401  32.280  26.637  1.00  0.00     0.021 C 
BRANCH  26  27
ATOM     27  C   UNL A   1      32.721  32.900  27.098  1.00  0.00     0.116 C 
BRANCH  27  28
ATOM     28  N   UNL A   1      32.550  34.246  27.618  1.00  0.00    -0.352 N 
ATOM     29  C   UNL A   1      33.119  34.854  28.707  1.00  0.00     0.251 C 
ATOM     30  H   UNL A   1      31.927  34.811  27.106  1.00  0.00     0.163 HD
ATOM     31  O   UNL A   1      32.690  35.945  29.077  1.00  0.00    -0.269 OA
BRANCH  29  32
ATOM     32  C   UNL A   1      34.232  34.215  29.444  1.00  0.00     0.039 A 
ATOM     33  C   UNL A   1      35.541  34.438  29.003  1.00  0.00     0.014 A 
ATOM     34  C   UNL A   1      33.999  33.351  30.519  1.00  0.00     0.014 A 
ATOM     35  C   UNL A   1      36.614  33.827  29.659  1.00  0.00     0.010 A 
ATOM     36  C   UNL A   1      35.074  32.786  31.207  1.00  0.00     0.010 A 
ATOM     37  C   UNL A   1      36.390  33.007  30.776  1.00  0.00    -0.014 A 
BRANCH  37  38
ATOM     38  C   UNL A   1      37.525  32.367  31.491  1.00  0.00     0.031 A 
ATOM     39  C   UNL A   1      38.284  31.233  30.856  1.00  0.00     0.074 A 
ATOM     40  C   UNL A   1      37.836  32.767  32.740  1.00  0.00     0.049 A 
ATOM     41  N   UNL A   1      39.296  30.552  31.330  1.00  0.00    -0.248 NA
ATOM     42  C   UNL A   1      37.835  30.790  29.527  1.00  0.00     0.031 C 
ATOM     43  C   UNL A   1      37.126  33.800  33.496  1.00  0.00     0.029 A 
ATOM     44  N   UNL A   1      38.814  32.336  33.601  1.00  0.00    -0.354 N 
ATOM     45  C   UNL A   1      39.585  29.584  30.376  1.00  0.00     0.074 A 
ATOM     46  C   UNL A   1      38.622  29.746  29.306  1.00  0.00     0.031 C 
ATOM     47  C   UNL A   1      37.693  33.925  34.707  1.00  0.00     0.029 A 
ATOM     48  C   UNL A   1      38.797  32.976  34.819  1.00  0.00     0.049 A 
ATOM     49  H   UNL A   1      39.466  31.637  33.369  1.00  0.00     0.167 HD
ATOM     50  C   UNL A   1      40.580  28.665  30.370  1.00  0.00     0.034 A 
ATOM     51  C   UNL A   1      39.586  32.820  35.900  1.00  0.00     0.034 A 
ATOM     52  C   UNL A   1      41.573  28.543  31.404  1.00  0.00     0.049 A 
ATOM     53  C   UNL A   1      40.725  31.837  35.842  1.00  0.00     0.074 A 
ATOM     54  C   UNL A   1      42.678  27.712  31.443  1.00  0.00     0.029 A 
ATOM     55  N   UNL A   1      41.580  29.274  32.582  1.00  0.00    -0.354 N 
ATOM     56  N   UNL A   1      41.088  31.054  34.856  1.00  0.00    -0.248 NA
ATOM     57  C   UNL A   1      41.585  31.744  37.031  1.00  0.00     0.031 C 
ATOM     58  C   UNL A   1      43.352  27.938  32.649  1.00  0.00     0.029 A 
ATOM     59  C   UNL A   1      42.668  28.912  33.357  1.00  0.00     0.049 A 
ATOM     60  H   UNL A   1      40.910  29.951  32.830  1.00  0.00     0.167 HD
ATOM     61  C   UNL A   1      42.235  30.399  35.291  1.00  0.00     0.074 A 
ATOM     62  C   UNL A   1      42.519  30.895  36.622  1.00  0.00     0.031 C 
ATOM     63  C   UNL A   1      42.973  29.456  34.655  1.00  0.00     0.034 A 
BRANCH  50  64
ATOM     64  C   UNL A   1      40.695  27.769  29.166  1.00  0.00     0.023 A 
ATOM     65  C   UNL A   1      39.893  26.613  29.092  1.00  0.00     0.012 A 
ATOM     66  C   UNL A   1      41.544  28.092  28.088  1.00  0.00     0.148 A 
ATOM     67  C   UNL A   1      39.952  25.775  27.980  1.00  0.00     0.002 A 
ATOM     68  C   UNL A   1      41.571  27.270  26.966  1.00  0.00     0.091 A 
ATOM     69  F   UNL A   1      42.318  29.183  28.186  1.00  0.00    -0.205 F 
ATOM     70  C   UNL A   1      40.784  26.108  26.915  1.00  0.00     0.022 A 
BRANCH  68  71
ATOM     71  S   UNL A   1      42.561  27.652  25.516  1.00  0.00     0.127 S 
ATOM     72  O   UNL A   1      42.302  26.491  24.666  1.00  0.00    -0.237 OA
ATOM     73  O   UNL A   1      41.957  28.899  25.045  1.00  0.00    -0.237 OA
ATOM     74  O   UNL A   1      43.930  27.791  25.995  1.00  0.00    -0.744 OA
ENDBRANCH  68  71
ENDBRANCH  50  64
BRANCH  51  75
ATOM     75  C   UNL A   1      39.384  33.688  37.094  1.00  0.00     0.023 A 
ATOM     76  C   UNL A   1      39.827  35.025  37.052  1.00  0.00     0.012 A 
ATOM     77  C   UNL A   1      38.725  33.220  38.246  1.00  0.00     0.148 A 
ATOM     78  C   UNL A   1      39.638  35.872  38.145  1.00  0.00     0.002 A 
ATOM     79  C   UNL A   1      38.495  34.083  39.311  1.00  0.00     0.091 A 
ATOM     80  F   UNL A   1      38.327  31.939  38.276  1.00  0.00    -0.205 F 
ATOM     81  C   UNL A   1      38.963  35.405  39.268  1.00  0.00     0.022 A 
BRANCH  79  82
ATOM     82  S   UNL A   1      37.515  33.597  40.738  1.00  0.00     0.127 S 
ATOM     83  O   UNL A   1      36.273  33.152  40.111  1.00  0.00    -0.237 OA
ATOM     84  O   UNL A   1      38.328  32.528  41.322  1.00  0.00    -0.237 OA
ATOM     85  O   UNL A   1      37.424  34.792  41.566  1.00  0.00    -0.744 OA
ENDBRANCH  79  82
ENDBRANCH  51  75
BRANCH  63  86
ATOM     86  C   UNL A   1      44.170  28.902  35.379  1.00  0.00     0.023 A 
ATOM     87  C   UNL A   1      45.427  29.513  35.205  1.00  0.00     0.012 A 
ATOM     88  C   UNL A   1      44.041  27.832  36.286  1.00  0.00     0.148 A 
ATOM     89  C   UNL A   1      46.543  29.053  35.904  1.00  0.00     0.002 A 
ATOM     90  C   UNL A   1      45.149  27.404  37.009  1.00  0.00     0.091 A 
ATOM     91  F   UNL A   1      42.841  27.246  36.421  1.00  0.00    -0.205 F 
ATOM     92  C   UNL A   1      46.401  28.007  36.813  1.00  0.00     0.022 A 
BRANCH  90  93
ATOM     93  S   UNL A   1      45.032  26.122  38.262  1.00  0.00     0.127 S 
ATOM     94  O   UNL A   1      44.039  26.684  39.174  1.00  0.00    -0.237 OA
ATOM     95  O   UNL A   1      44.570  24.966  37.492  1.00  0.00    -0.237 OA
ATOM     96  O   UNL A   1      46.378  25.979  38.804  1.00  0.00    -0.744 OA
ENDBRANCH  90  93
ENDBRANCH  63  86
ENDBRANCH  37  38
ENDBRANCH  29  32
ENDBRANCH  27  28
ENDBRANCH  26  27
ENDBRANCH   1  26
TORSDOF 18
ENDMDL
MODEL 2
REMARK VINA RESULT:     -11.7      5.862      9.096
REMARK SMILES C[C@@H]1[C@H](C(=O)NCCCCCCNC(=O)c2ccc(-c3c4nc(c(-c5cccc(S(=O)(=O)[O-])c5F)c5ccc([nH]5)c(-c5cccc(S(=O)(=O)[O-])c5F)c5nc(c(-c6cccc(S(=O)(=O)[O-])c6F)c6ccc3[nH]6)C=C5)C=C4)cc2)CCN1S(=O)(=O)c1cc(F)cc(F)c1
REMARK SMILES IDX 10 1 9 2 8 3 7 4 6 5 4 6 5 7 3 9 1 10 2 11 81 12 79 13 80 14
REMARK SMILES IDX 82 15 83 16 84 17 85 18 86 19 92 20 87 21 90 22 88 23 89 24
REMARK SMILES IDX 91 25 11 26 12 27 13 28 14 29 15 31 16 32 17 33 78 34 18 35
REMARK SMILES IDX 77 36 19 37 20 38 21 39 71 40 22 41 76 42 70 43 72 44 23 45
REMARK SMILES IDX 75 46 69 47 68 48 24 50 56 51 36 52 55 53 37 54 40 55 54 56
REMARK SMILES IDX 73 57 38 58 39 59 53 61 74 62 41 63 25 64 26 65 34 66 27 67
REMARK SMILES IDX 29 68 35 69 28 70 30 71 31 72 32 73 33 74 57 75 58 76 66 77
REMARK SMILES IDX 59 78 61 79 67 80 60 81 62 82 63 83 64 84 65 85 42 86 43 87
REMARK SMILES IDX 51 88 44 89 46 90 52 91 45 92 47 93 48 94 49 95 50 96
REMARK H PARENT 6 8 13 30 72 49 40 60
REMARK Flexibility Score: inf
ROOT
ATOM      1  C   UNL A   1      35.627  20.557  25.083  1.00  0.00     0.002 C 
ENDROOT
BRANCH   1   2
ATOM      2  C   UNL A   1      34.350  20.853  25.870  1.00  0.00     0.002 C 
BRANCH   2   3
ATOM      3  C   UNL A   1      33.105  20.097  25.414  1.00  0.00     0.021 C 
BRANCH   3   4
ATOM      4  C   UNL A   1      31.890  20.961  25.051  1.00  0.00     0.116 C 
BRANCH   4   5
ATOM      5  N   UNL A   1      31.637  21.972  26.067  1.00  0.00    -0.356 N 
ATOM      6  C   UNL A   1      32.042  23.251  26.255  1.00  0.00     0.224 C 
ATOM      7  O   UNL A   1      31.689  23.768  27.324  1.00  0.00    -0.275 OA
ATOM      8  H   UNL A   1      31.035  21.655  26.779  1.00  0.00     0.163 HD
BRANCH   6   9
ATOM      9  C   UNL A   1      32.885  24.086  25.295  1.00  0.00     0.098 C 
ATOM     10  C   UNL A   1      30.954  24.379  23.627  1.00  0.00     0.026 C 
ATOM     11  C   UNL A   1      32.443  24.215  23.826  1.00  0.00     0.082 C 
ATOM     12  N   UNL A   1      33.295  25.332  23.268  1.00  0.00    -0.194 NA
ATOM     13  C   UNL A   1      33.287  25.488  25.687  1.00  0.00     0.032 C 
ATOM     14  C   UNL A   1      34.018  25.961  24.437  1.00  0.00     0.104 C 
BRANCH  12  15
ATOM     15  S   UNL A   1      32.751  26.519  22.173  1.00  0.00     0.243 S 
ATOM     16  O   UNL A   1      33.921  27.261  21.745  1.00  0.00    -0.207 OA
ATOM     17  O   UNL A   1      31.922  25.827  21.211  1.00  0.00    -0.207 OA
BRANCH  15  18
ATOM     18  C   UNL A   1      31.676  27.680  22.972  1.00  0.00     0.088 A 
ATOM     19  C   UNL A   1      30.377  27.771  22.449  1.00  0.00     0.061 A 
ATOM     20  C   UNL A   1      32.067  28.526  24.006  1.00  0.00     0.061 A 
ATOM     21  C   UNL A   1      29.514  28.753  22.918  1.00  0.00     0.127 A 
ATOM     22  C   UNL A   1      31.196  29.534  24.419  1.00  0.00     0.127 A 
ATOM     23  F   UNL A   1      28.276  28.836  22.417  1.00  0.00    -0.207 F 
ATOM     24  C   UNL A   1      29.923  29.661  23.881  1.00  0.00     0.078 A 
ATOM     25  F   UNL A   1      31.613  30.416  25.338  1.00  0.00    -0.207 F 
ENDBRANCH  15  18
ENDBRANCH  12  15
ENDBRANCH   6   9
ENDBRANCH   4   5
ENDBRANCH   3   4
ENDBRANCH   2   3
ENDBRANCH   1   2
BRANCH   1  26
ATOM     26  C   UNL A   1      36.274  21.748  24.366  1.00  0.00     0.021 C 
BRANCH  26  27
ATOM     27  C   UNL A   1      37.499  22.360  25.046  1.00  0.00     0.116 C 
BRANCH  27  28
ATOM     28  N   UNL A   1      38.293  21.371  25.753  1.00  0.00    -0.352 N 
ATOM     29  C   UNL A   1      39.446  21.516  26.481  1.00  0.00     0.251 C 
ATOM     30  H   UNL A   1      37.948  20.451  25.703  1.00  0.00     0.163 HD
ATOM     31  O   UNL A   1      40.058  20.513  26.842  1.00  0.00    -0.269 OA
BRANCH  29  32
ATOM     32  C   UNL A   1      39.967  22.857  26.830  1.00  0.00     0.039 A 
ATOM     33  C   UNL A   1      40.853  22.971  27.907  1.00  0.00     0.014 A 
ATOM     34  C   UNL A   1      39.544  24.006  26.155  1.00  0.00     0.014 A 
ATOM     35  C   UNL A   1      41.341  24.226  28.282  1.00  0.00     0.010 A 
ATOM     36  C   UNL A   1      40.075  25.252  26.494  1.00  0.00     0.010 A 
ATOM     37  C   UNL A   1      40.968  25.376  27.569  1.00  0.00    -0.014 A 
BRANCH  37  38
ATOM     38  C   UNL A   1      41.495  26.712  27.948  1.00  0.00     0.031 A 
ATOM     39  C   UNL A   1      42.924  27.081  27.652  1.00  0.00     0.074 A 
ATOM     40  C   UNL A   1      40.704  27.575  28.616  1.00  0.00     0.049 A 
ATOM     41  N   UNL A   1      43.558  28.195  27.912  1.00  0.00    -0.248 NA
ATOM     42  C   UNL A   1      43.755  26.058  26.998  1.00  0.00     0.031 C 
ATOM     43  C   UNL A   1      39.327  27.307  29.035  1.00  0.00     0.029 A 
ATOM     44  N   UNL A   1      40.952  28.843  29.081  1.00  0.00    -0.354 N 
ATOM     45  C   UNL A   1      44.865  27.999  27.485  1.00  0.00     0.074 A 
ATOM     46  C   UNL A   1      44.943  26.647  26.973  1.00  0.00     0.031 C 
ATOM     47  C   UNL A   1      38.851  28.377  29.691  1.00  0.00     0.029 A 
ATOM     48  C   UNL A   1      39.889  29.403  29.751  1.00  0.00     0.049 A 
ATOM     49  H   UNL A   1      41.809  29.307  28.946  1.00  0.00     0.167 HD
ATOM     50  C   UNL A   1      45.900  28.873  27.484  1.00  0.00     0.034 A 
ATOM     51  C   UNL A   1      39.763  30.607  30.342  1.00  0.00     0.034 A 
ATOM     52  C   UNL A   1      45.808  30.235  27.937  1.00  0.00     0.049 A 
ATOM     53  C   UNL A   1      40.908  31.583  30.270  1.00  0.00     0.074 A 
ATOM     54  C   UNL A   1      46.770  31.227  27.885  1.00  0.00     0.029 A 
ATOM     55  N   UNL A   1      44.685  30.798  28.524  1.00  0.00    -0.354 N 
ATOM     56  N   UNL A   1      42.080  31.438  29.701  1.00  0.00    -0.248 NA
ATOM     57  C   UNL A   1      40.698  32.901  30.885  1.00  0.00     0.031 C 
ATOM     58  C   UNL A   1      46.230  32.390  28.447  1.00  0.00     0.029 A 
ATOM     59  C   UNL A   1      44.931  32.122  28.844  1.00  0.00     0.049 A 
ATOM     60  H   UNL A   1      43.838  30.325  28.690  1.00  0.00     0.167 HD
ATOM     61  C   UNL A   1      42.736  32.653  29.863  1.00  0.00     0.074 A 
ATOM     62  C   UNL A   1      41.820  33.531  30.563  1.00  0.00     0.031 C 
ATOM     63  C   UNL A   1      43.991  33.003  29.487  1.00  0.00     0.034 A 
BRANCH  50  64
ATOM     64  C   UNL A   1      47.207  28.406  26.900  1.00  0.00     0.023 A 
ATOM     65  C   UNL A   1      48.297  28.168  27.761  1.00  0.00     0.012 A 
ATOM     66  C   UNL A   1      47.346  28.148  25.522  1.00  0.00     0.148 A 
ATOM     67  C   UNL A   1      49.514  27.709  27.259  1.00  0.00     0.002 A 
ATOM     68  C   UNL A   1      48.551  27.656  25.033  1.00  0.00     0.091 A 
ATOM     69  F   UNL A   1      46.306  28.403  24.714  1.00  0.00    -0.205 F 
ATOM     70  C   UNL A   1      49.637  27.444  25.898  1.00  0.00     0.022 A 
BRANCH  68  71
ATOM     71  S   UNL A   1      48.786  27.222  23.305  1.00  0.00     0.127 S 
ATOM     72  O   UNL A   1      48.072  25.949  23.220  1.00  0.00    -0.237 OA
ATOM     73  O   UNL A   1      48.134  28.334  22.612  1.00  0.00    -0.237 OA
ATOM     74  O   UNL A   1      50.227  27.151  23.107  1.00  0.00    -0.744 OA
ENDBRANCH  68  71
ENDBRANCH  50  64
BRANCH  51  75
ATOM     75  C   UNL A   1      38.467  30.992  30.967  1.00  0.00     0.023 A 
ATOM     76  C   UNL A   1      38.275  30.760  32.343  1.00  0.00     0.012 A 
ATOM     77  C   UNL A   1      37.447  31.621  30.227  1.00  0.00     0.148 A 
ATOM     78  C   UNL A   1      37.080  31.124  32.966  1.00  0.00     0.002 A 
ATOM     79  C   UNL A   1      36.281  32.027  30.865  1.00  0.00     0.091 A 
ATOM     80  F   UNL A   1      37.640  31.817  28.915  1.00  0.00    -0.205 F 
ATOM     81  C   UNL A   1      36.089  31.768  32.230  1.00  0.00     0.022 A 
BRANCH  79  82
ATOM     82  S   UNL A   1      35.015  32.981  30.017  1.00  0.00     0.127 S 
ATOM     83  O   UNL A   1      34.504  32.011  29.052  1.00  0.00    -0.237 OA
ATOM     84  O   UNL A   1      34.093  33.311  31.106  1.00  0.00    -0.237 OA
ATOM     85  O   UNL A   1      35.711  34.133  29.460  1.00  0.00    -0.744 OA
ENDBRANCH  79  82
ENDBRANCH  51  75
BRANCH  63  86
ATOM     86  C   UNL A   1      44.451  34.399  29.808  1.00  0.00     0.023 A 
ATOM     87  C   UNL A   1      45.138  34.639  31.014  1.00  0.00     0.012 A 
ATOM     88  C   UNL A   1      44.275  35.452  28.891  1.00  0.00     0.148 A 
ATOM     89  C   UNL A   1      45.622  35.912  31.314  1.00  0.00     0.002 A 
ATOM     90  C   UNL A   1      44.795  36.710  29.178  1.00  0.00     0.091 A 
ATOM     91  F   UNL A   1      43.598  35.211  27.758  1.00  0.00    -0.205 F 
ATOM     92  C   UNL A   1      45.460  36.944  30.391  1.00  0.00     0.022 A 
BRANCH  90  93
ATOM     93  S   UNL A   1      44.706  38.069  28.005  1.00  0.00     0.127 S 
ATOM     94  O   UNL A   1      45.377  37.502  26.838  1.00  0.00    -0.237 OA
ATOM     95  O   UNL A   1      43.263  38.258  27.848  1.00  0.00    -0.237 OA
ATOM     96  O   UNL A   1      45.388  39.186  28.646  1.00  0.00    -0.744 OA
ENDBRANCH  90  93
ENDBRANCH  63  86
ENDBRANCH  37  38
ENDBRANCH  29  32
ENDBRANCH  27  28
ENDBRANCH  26  27
ENDBRANCH   1  26
TORSDOF 18
ENDMDL
MODEL 3
REMARK VINA RESULT:     -11.6      5.775      8.919
REMARK SMILES C[C@@H]1[C@H](C(=O)NCCCCCCNC(=O)c2ccc(-c3c4nc(c(-c5cccc(S(=O)(=O)[O-])c5F)c5ccc([nH]5)c(-c5cccc(S(=O)(=O)[O-])c5F)c5nc(c(-c6cccc(S(=O)(=O)[O-])c6F)c6ccc3[nH]6)C=C5)C=C4)cc2)CCN1S(=O)(=O)c1cc(F)cc(F)c1
REMARK SMILES IDX 10 1 9 2 8 3 7 4 6 5 4 6 5 7 3 9 1 10 2 11 81 12 79 13 80 14
REMARK SMILES IDX 82 15 83 16 84 17 85 18 86 19 92 20 87 21 90 22 88 23 89 24
REMARK SMILES IDX 91 25 11 26 12 27 13 28 14 29 15 31 16 32 17 33 78 34 18 35
REMARK SMILES IDX 77 36 19 37 20 38 21 39 71 40 22 41 76 42 70 43 72 44 23 45
REMARK SMILES IDX 75 46 69 47 68 48 24 50 56 51 36 52 55 53 37 54 40 55 54 56
REMARK SMILES IDX 73 57 38 58 39 59 53 61 74 62 41 63 25 64 26 65 34 66 27 67
REMARK SMILES IDX 29 68 35 69 28 70 30 71 31 72 32 73 33 74 57 75 58 76 66 77
REMARK SMILES IDX 59 78 61 79 67 80 60 81 62 82 63 83 64 84 65 85 42 86 43 87
REMARK SMILES IDX 51 88 44 89 46 90 52 91 45 92 47 93 48 94 49 95 50 96
REMARK H PARENT 6 8 13 30 72 49 40 60
REMARK Flexibility Score: inf
ROOT
ATOM      1  C   UNL A   1      35.217  21.640  25.809  1.00  0.00     0.002 C 
ENDROOT
BRANCH   1   2
ATOM      2  C   UNL A   1      34.372  20.687  24.965  1.00  0.00     0.002 C 
BRANCH   2   3
ATOM      3  C   UNL A   1      33.057  20.237  25.595  1.00  0.00     0.021 C 
BRANCH   3   4
ATOM      4  C   UNL A   1      31.801  20.993  25.142  1.00  0.00     0.116 C 
BRANCH   4   5
ATOM      5  N   UNL A   1      31.458  22.056  26.076  1.00  0.00    -0.356 N 
ATOM      6  C   UNL A   1      31.819  23.354  26.211  1.00  0.00     0.224 C 
ATOM      7  O   UNL A   1      31.384  23.924  27.222  1.00  0.00    -0.275 OA
ATOM      8  H   UNL A   1      30.816  21.766  26.765  1.00  0.00     0.163 HD
BRANCH   6   9
ATOM      9  C   UNL A   1      32.706  24.153  25.260  1.00  0.00     0.098 C 
ATOM     10  C   UNL A   1      30.802  24.537  23.579  1.00  0.00     0.026 C 
ATOM     11  C   UNL A   1      32.280  24.305  23.788  1.00  0.00     0.082 C 
ATOM     12  N   UNL A   1      33.185  25.385  23.239  1.00  0.00    -0.194 NA
ATOM     13  C   UNL A   1      33.167  25.535  25.658  1.00  0.00     0.032 C 
ATOM     14  C   UNL A   1      33.927  25.977  24.415  1.00  0.00     0.104 C 
BRANCH  12  15
ATOM     15  S   UNL A   1      32.703  26.598  22.144  1.00  0.00     0.243 S 
ATOM     16  O   UNL A   1      33.901  27.321  21.766  1.00  0.00    -0.207 OA
ATOM     17  O   UNL A   1      31.892  25.936  21.145  1.00  0.00    -0.207 OA
BRANCH  15  18
ATOM     18  C   UNL A   1      31.626  27.770  22.924  1.00  0.00     0.088 A 
ATOM     19  C   UNL A   1      30.357  27.916  22.342  1.00  0.00     0.061 A 
ATOM     20  C   UNL A   1      31.991  28.575  23.999  1.00  0.00     0.061 A 
ATOM     21  C   UNL A   1      29.502  28.911  22.798  1.00  0.00     0.127 A 
ATOM     22  C   UNL A   1      31.132  29.599  24.398  1.00  0.00     0.127 A 
ATOM     23  F   UNL A   1      28.292  29.046  22.241  1.00  0.00    -0.207 F 
ATOM     24  C   UNL A   1      29.891  29.780  23.805  1.00  0.00     0.078 A 
ATOM     25  F   UNL A   1      31.530  30.443  25.360  1.00  0.00    -0.207 F 
ENDBRANCH  15  18
ENDBRANCH  12  15
ENDBRANCH   6   9
ENDBRANCH   4   5
ENDBRANCH   3   4
ENDBRANCH   2   3
ENDBRANCH   1   2
BRANCH   1  26
ATOM     26  C   UNL A   1      35.930  22.768  25.054  1.00  0.00     0.021 C 
BRANCH  26  27
ATOM     27  C   UNL A   1      37.113  23.419  25.772  1.00  0.00     0.116 C 
BRANCH  27  28
ATOM     28  N   UNL A   1      38.244  22.519  25.905  1.00  0.00    -0.352 N 
ATOM     29  C   UNL A   1      39.541  22.772  26.273  1.00  0.00     0.251 C 
ATOM     30  H   UNL A   1      38.050  21.576  25.700  1.00  0.00     0.163 HD
ATOM     31  O   UNL A   1      40.387  21.891  26.139  1.00  0.00    -0.269 OA
BRANCH  29  32
ATOM     32  C   UNL A   1      39.936  24.091  26.820  1.00  0.00     0.039 A 
ATOM     33  C   UNL A   1      39.917  24.272  28.207  1.00  0.00     0.014 A 
ATOM     34  C   UNL A   1      40.259  25.164  25.983  1.00  0.00     0.014 A 
ATOM     35  C   UNL A   1      40.256  25.512  28.755  1.00  0.00     0.010 A 
ATOM     36  C   UNL A   1      40.652  26.385  26.533  1.00  0.00     0.010 A 
ATOM     37  C   UNL A   1      40.641  26.576  27.923  1.00  0.00    -0.014 A 
BRANCH  37  38
ATOM     38  C   UNL A   1      41.020  27.893  28.497  1.00  0.00     0.031 A 
ATOM     39  C   UNL A   1      42.469  28.253  28.687  1.00  0.00     0.074 A 
ATOM     40  C   UNL A   1      40.057  28.744  28.906  1.00  0.00     0.049 A 
ATOM     41  N   UNL A   1      42.988  29.351  29.175  1.00  0.00    -0.248 NA
ATOM     42  C   UNL A   1      43.465  27.242  28.299  1.00  0.00     0.031 C 
ATOM     43  C   UNL A   1      38.619  28.479  28.852  1.00  0.00     0.029 A 
ATOM     44  N   UNL A   1      40.145  29.992  29.468  1.00  0.00    -0.354 N 
ATOM     45  C   UNL A   1      44.363  29.153  29.183  1.00  0.00     0.074 A 
ATOM     46  C   UNL A   1      44.599  27.817  28.676  1.00  0.00     0.031 C 
ATOM     47  C   UNL A   1      37.959  29.533  29.357  1.00  0.00     0.029 A 
ATOM     48  C   UNL A   1      38.925  30.543  29.782  1.00  0.00     0.049 A 
ATOM     49  H   UNL A   1      41.001  30.451  29.632  1.00  0.00     0.167 HD
ATOM     50  C   UNL A   1      45.344  30.014  29.543  1.00  0.00     0.034 A 
ATOM     51  C   UNL A   1      38.617  31.730  30.342  1.00  0.00     0.034 A 
ATOM     52  C   UNL A   1      45.113  31.362  29.989  1.00  0.00     0.049 A 
ATOM     53  C   UNL A   1      39.725  32.693  30.674  1.00  0.00     0.074 A 
ATOM     54  C   UNL A   1      46.042  32.343  30.283  1.00  0.00     0.029 A 
ATOM     55  N   UNL A   1      43.862  31.919  30.205  1.00  0.00    -0.354 N 
ATOM     56  N   UNL A   1      41.018  32.552  30.506  1.00  0.00    -0.248 NA
ATOM     57  C   UNL A   1      39.331  33.994  31.235  1.00  0.00     0.031 C 
ATOM     58  C   UNL A   1      45.353  33.494  30.681  1.00  0.00     0.029 A 
ATOM     59  C   UNL A   1      43.994  33.229  30.632  1.00  0.00     0.049 A 
ATOM     60  H   UNL A   1      43.006  31.451  30.074  1.00  0.00     0.167 HD
ATOM     61  C   UNL A   1      41.589  33.754  30.912  1.00  0.00     0.074 A 
ATOM     62  C   UNL A   1      40.498  34.620  31.310  1.00  0.00     0.031 C 
ATOM     63  C   UNL A   1      42.899  34.101  30.969  1.00  0.00     0.034 A 
BRANCH  50  64
ATOM     64  C   UNL A   1      46.769  29.550  29.393  1.00  0.00     0.023 A 
ATOM     65  C   UNL A   1      47.431  28.997  30.507  1.00  0.00     0.012 A 
ATOM     66  C   UNL A   1      47.432  29.605  28.151  1.00  0.00     0.148 A 
ATOM     67  C   UNL A   1      48.741  28.532  30.399  1.00  0.00     0.002 A 
ATOM     68  C   UNL A   1      48.726  29.106  28.042  1.00  0.00     0.091 A 
ATOM     69  F   UNL A   1      46.795  30.156  27.108  1.00  0.00    -0.205 F 
ATOM     70  C   UNL A   1      49.383  28.578  29.165  1.00  0.00     0.022 A 
BRANCH  68  71
ATOM     71  S   UNL A   1      49.612  29.061  26.479  1.00  0.00     0.127 S 
ATOM     72  O   UNL A   1      48.570  28.608  25.560  1.00  0.00    -0.237 OA
ATOM     73  O   UNL A   1      50.013  30.457  26.306  1.00  0.00    -0.237 OA
ATOM     74  O   UNL A   1      50.721  28.137  26.680  1.00  0.00    -0.744 OA
ENDBRANCH  68  71
ENDBRANCH  50  64
BRANCH  51  75
ATOM     75  C   UNL A   1      37.190  32.110  30.532  1.00  0.00     0.023 A 
ATOM     76  C   UNL A   1      36.573  31.859  31.773  1.00  0.00     0.012 A 
ATOM     77  C   UNL A   1      36.455  32.753  29.518  1.00  0.00     0.148 A 
ATOM     78  C   UNL A   1      35.242  32.218  31.992  1.00  0.00     0.002 A 
ATOM     79  C   UNL A   1      35.146  33.154  29.760  1.00  0.00     0.091 A 
ATOM     80  F   UNL A   1      37.052  32.968  28.336  1.00  0.00    -0.205 F 
ATOM     81  C   UNL A   1      34.533  32.876  30.992  1.00  0.00     0.022 A 
BRANCH  79  82
ATOM     82  S   UNL A   1      34.211  34.125  28.571  1.00  0.00     0.127 S 
ATOM     83  O   UNL A   1      35.083  35.279  28.374  1.00  0.00    -0.237 OA
ATOM     84  O   UNL A   1      34.125  33.215  27.427  1.00  0.00    -0.237 OA
ATOM     85  O   UNL A   1      32.931  34.391  29.214  1.00  0.00    -0.744 OA
ENDBRANCH  79  82
ENDBRANCH  51  75
BRANCH  63  86
ATOM     86  C   UNL A   1      43.234  35.480  31.469  1.00  0.00     0.023 A 
ATOM     87  C   UNL A   1      43.365  35.699  32.854  1.00  0.00     0.012 A 
ATOM     88  C   UNL A   1      43.492  36.535  30.573  1.00  0.00     0.148 A 
ATOM     89  C   UNL A   1      43.726  36.955  33.342  1.00  0.00     0.002 A 
ATOM     90  C   UNL A   1      43.890  37.773  31.064  1.00  0.00     0.091 A 
ATOM     91  F   UNL A   1      43.339  36.314  29.259  1.00  0.00    -0.205 F 
ATOM     92  C   UNL A   1      43.999  37.987  32.448  1.00  0.00     0.022 A 
BRANCH  90  93
ATOM     93  S   UNL A   1      44.345  39.129  29.977  1.00  0.00     0.127 S 
ATOM     94  O   UNL A   1      43.057  39.484  29.385  1.00  0.00    -0.237 OA
ATOM     95  O   UNL A   1      44.881  40.120  30.912  1.00  0.00    -0.237 OA
ATOM     96  O   UNL A   1      45.333  38.580  29.056  1.00  0.00    -0.744 OA
ENDBRANCH  90  93
ENDBRANCH  63  86
ENDBRANCH  37  38
ENDBRANCH  29  32
ENDBRANCH  27  28
ENDBRANCH  26  27
ENDBRANCH   1  26
TORSDOF 18
ENDMDL
