MODEL 1
REMARK VINA RESULT:      -8.3      0.000      0.000
REMARK SMILES COc1cc([C@H]2CC(c3ccc(S(C)(=O)=O)cc3)=NN2c2ccc(C(=O)NCCCCCCNC(=O)c3ccc(-c4c5nc(c(-c6cccc(S(=O)(=O)[O-])c6F)c6ccc([nH]6)c(-c6cccc(S(=O)(=O)[O-])c6F)c6nc(c(-c7cccc(S(=O)(=O)[O-])c7F)c7ccc4[nH]7)C=C6)C=C5)cc3)cc2)cc(OC)c1OC
REMARK SMILES IDX 30 1 29 2 28 3 27 4 25 5 26 6 24 8 21 9 22 10 101 11 23 12
REMARK SMILES IDX 100 13 20 14 6 15 7 16 8 17 19 18 5 19 3 20 4 21 106 22
REMARK SMILES IDX 103 23 102 24 2 25 1 26 107 27 108 28 104 29 105 30 9 31
REMARK SMILES IDX 10 32 18 33 11 34 17 35 12 36 13 37 14 38 15 39 16 40 31 41
REMARK SMILES IDX 32 42 33 43 34 44 35 45 36 47 37 48 38 49 99 50 39 51 98 52
REMARK SMILES IDX 40 53 41 54 42 55 92 56 43 57 97 58 91 59 93 60 44 61 96 62
REMARK SMILES IDX 90 63 89 64 45 66 77 67 57 68 76 69 58 70 61 71 75 72 94 73
REMARK SMILES IDX 59 74 60 75 74 77 95 78 62 79 46 80 47 81 55 82 48 83 50 84
REMARK SMILES IDX 56 85 49 86 51 87 52 88 53 89 54 90 78 91 79 92 87 93 80 94
REMARK SMILES IDX 82 95 88 96 81 97 83 98 84 99 85 100 86 101 63 102 64 103
REMARK SMILES IDX 72 104 65 105 67 106 73 107 66 108 68 109 69 110 70 111
REMARK SMILES IDX 71 112
REMARK H PARENT 27 7 34 46 93 65 61 76
REMARK Flexibility Score: inf
ROOT
ATOM      1  C   UNL A   1      41.301  30.029  33.410  1.00  0.00     0.002 C 
ENDROOT
BRANCH   1   2
ATOM      2  C   UNL A   1      42.800  30.075  33.738  1.00  0.00     0.021 C 
BRANCH   2   3
ATOM      3  C   UNL A   1      43.586  31.008  32.814  1.00  0.00     0.116 C 
BRANCH   3   4
ATOM      4  N   UNL A   1      44.956  30.547  32.704  1.00  0.00    -0.352 N 
ATOM      5  C   UNL A   1      45.518  29.477  32.060  1.00  0.00     0.251 C 
ATOM      6  O   UNL A   1      46.734  29.319  32.175  1.00  0.00    -0.269 OA
ATOM      7  H   UNL A   1      45.606  31.109  33.184  1.00  0.00     0.163 HD
BRANCH   5   8
ATOM      8  C   UNL A   1      44.744  28.554  31.185  1.00  0.00     0.039 A 
ATOM      9  C   UNL A   1      43.394  26.617  29.637  1.00  0.00     0.060 A 
ATOM     10  C   UNL A   1      43.726  26.361  30.970  1.00  0.00     0.029 A 
ATOM     11  C   UNL A   1      43.687  27.873  29.107  1.00  0.00     0.029 A 
ATOM     12  C   UNL A   1      44.411  27.308  31.732  1.00  0.00     0.016 A 
ATOM     13  C   UNL A   1      44.317  28.849  29.888  1.00  0.00     0.016 A 
BRANCH   9  14
ATOM     14  N   UNL A   1      42.765  25.640  28.888  1.00  0.00    -0.257 N 
ATOM     15  C   UNL A   1      41.364  25.241  29.035  1.00  0.00     0.144 C 
ATOM     16  C   UNL A   1      41.270  24.043  28.067  1.00  0.00     0.091 C 
ATOM     17  C   UNL A   1      42.709  23.934  27.638  1.00  0.00     0.071 C 
ATOM     18  N   UNL A   1      43.514  24.833  28.105  1.00  0.00    -0.176 NA
BRANCH  15  19
ATOM     19  C   UNL A   1      40.449  26.415  28.712  1.00  0.00    -0.015 A 
ATOM     20  C   UNL A   1      38.738  28.025  29.401  1.00  0.00     0.164 A 
ATOM     21  C   UNL A   1      39.479  26.849  29.629  1.00  0.00     0.056 A 
ATOM     22  C   UNL A   1      38.958  28.817  28.257  1.00  0.00     0.203 A 
ATOM     23  C   UNL A   1      39.925  28.376  27.331  1.00  0.00     0.164 A 
ATOM     24  C   UNL A   1      40.643  27.189  27.562  1.00  0.00     0.056 A 
BRANCH  20  25
ATOM     25  O   UNL A   1      37.904  28.444  30.408  1.00  0.00    -0.493 OA
ATOM     26  C   UNL A   1      38.362  28.029  31.698  1.00  0.00     0.278 C 
ENDBRANCH  20  25
BRANCH  22  27
ATOM     27  O   UNL A   1      38.331  29.994  27.954  1.00  0.00    -0.490 OA
ATOM     28  C   UNL A   1      36.954  30.026  27.623  1.00  0.00     0.278 C 
ENDBRANCH  22  27
BRANCH  23  29
ATOM     29  O   UNL A   1      40.297  28.967  26.146  1.00  0.00    -0.493 OA
ATOM     30  C   UNL A   1      41.662  28.900  25.762  1.00  0.00     0.278 C 
ENDBRANCH  23  29
ENDBRANCH  15  19
BRANCH  17  31
ATOM     31  C   UNL A   1      43.197  22.852  26.773  1.00  0.00    -0.002 A 
ATOM     32  C   UNL A   1      42.444  21.674  26.703  1.00  0.00     0.011 A 
ATOM     33  C   UNL A   1      44.423  22.958  26.117  1.00  0.00     0.011 A 
ATOM     34  C   UNL A   1      42.911  20.593  25.956  1.00  0.00     0.021 A 
ATOM     35  C   UNL A   1      44.907  21.866  25.389  1.00  0.00     0.021 A 
ATOM     36  C   UNL A   1      44.150  20.689  25.316  1.00  0.00     0.067 A 
BRANCH  36  37
ATOM     37  S   UNL A   1      44.763  19.294  24.398  1.00  0.00     0.175 S 
ATOM     38  C   UNL A   1      46.510  19.291  24.704  1.00  0.00     0.163 C 
ATOM     39  O   UNL A   1      44.192  18.106  25.009  1.00  0.00    -0.224 OA
ATOM     40  O   UNL A   1      44.571  19.572  22.991  1.00  0.00    -0.224 OA
ENDBRANCH  36  37
ENDBRANCH  17  31
ENDBRANCH   9  14
ENDBRANCH   5   8
ENDBRANCH   3   4
ENDBRANCH   2   3
ENDBRANCH   1   2
BRANCH   1  41
ATOM     41  C   UNL A   1      40.465  31.119  34.093  1.00  0.00     0.002 C 
BRANCH  41  42
ATOM     42  C   UNL A   1      39.019  31.222  33.601  1.00  0.00     0.021 C 
BRANCH  42  43
ATOM     43  C   UNL A   1      38.882  31.599  32.130  1.00  0.00     0.116 C 
BRANCH  43  44
ATOM     44  N   UNL A   1      37.961  32.712  31.948  1.00  0.00    -0.352 N 
ATOM     45  C   UNL A   1      38.224  33.988  31.515  1.00  0.00     0.251 C 
ATOM     46  H   UNL A   1      37.020  32.523  32.164  1.00  0.00     0.163 HD
ATOM     47  O   UNL A   1      37.379  34.868  31.640  1.00  0.00    -0.269 OA
BRANCH  45  48
ATOM     48  C   UNL A   1      39.535  34.296  30.906  1.00  0.00     0.039 A 
ATOM     49  C   UNL A   1      40.689  34.203  31.687  1.00  0.00     0.014 A 
ATOM     50  C   UNL A   1      39.618  34.688  29.566  1.00  0.00     0.014 A 
ATOM     51  C   UNL A   1      41.935  34.458  31.112  1.00  0.00     0.010 A 
ATOM     52  C   UNL A   1      40.865  34.877  28.979  1.00  0.00     0.010 A 
ATOM     53  C   UNL A   1      42.035  34.775  29.747  1.00  0.00    -0.014 A 
BRANCH  53  54
ATOM     54  C   UNL A   1      43.351  35.010  29.100  1.00  0.00     0.031 A 
ATOM     55  C   UNL A   1      44.241  33.846  28.760  1.00  0.00     0.074 A 
ATOM     56  C   UNL A   1      43.783  36.272  28.910  1.00  0.00     0.049 A 
ATOM     57  N   UNL A   1      45.453  33.850  28.271  1.00  0.00    -0.248 NA
ATOM     58  C   UNL A   1      43.712  32.499  29.036  1.00  0.00     0.031 C 
ATOM     59  C   UNL A   1      43.043  37.483  29.270  1.00  0.00     0.029 A 
ATOM     60  N   UNL A   1      44.964  36.744  28.396  1.00  0.00    -0.354 N 
ATOM     61  C   UNL A   1      45.846  32.519  28.216  1.00  0.00     0.074 A 
ATOM     62  C   UNL A   1      44.755  31.734  28.752  1.00  0.00     0.031 C 
ATOM     63  C   UNL A   1      43.788  38.559  28.970  1.00  0.00     0.029 A 
ATOM     64  C   UNL A   1      45.067  38.117  28.421  1.00  0.00     0.049 A 
ATOM     65  H   UNL A   1      45.672  36.158  28.043  1.00  0.00     0.167 HD
ATOM     66  C   UNL A   1      46.998  31.993  27.737  1.00  0.00     0.034 A 
ATOM     67  C   UNL A   1      46.078  38.925  28.050  1.00  0.00     0.034 A 
ATOM     68  C   UNL A   1      48.057  32.773  27.156  1.00  0.00     0.049 A 
ATOM     69  C   UNL A   1      47.325  38.315  27.469  1.00  0.00     0.074 A 
ATOM     70  C   UNL A   1      49.222  32.330  26.557  1.00  0.00     0.029 A 
ATOM     71  N   UNL A   1      48.080  34.158  27.102  1.00  0.00    -0.354 N 
ATOM     72  N   UNL A   1      47.612  37.051  27.277  1.00  0.00    -0.248 NA
ATOM     73  C   UNL A   1      48.372  39.243  27.016  1.00  0.00     0.031 C 
ATOM     74  C   UNL A   1      49.958  33.449  26.153  1.00  0.00     0.029 A 
ATOM     75  C   UNL A   1      49.241  34.588  26.484  1.00  0.00     0.049 A 
ATOM     76  H   UNL A   1      47.374  34.748  27.452  1.00  0.00     0.167 HD
ATOM     77  C   UNL A   1      48.852  37.031  26.649  1.00  0.00     0.074 A 
ATOM     78  C   UNL A   1      49.254  38.412  26.476  1.00  0.00     0.031 C 
ATOM     79  C   UNL A   1      49.599  35.966  26.265  1.00  0.00     0.034 A 
BRANCH  66  80
ATOM     80  C   UNL A   1      47.149  30.494  27.764  1.00  0.00     0.023 A 
ATOM     81  C   UNL A   1      47.692  29.872  28.906  1.00  0.00     0.012 A 
ATOM     82  C   UNL A   1      46.703  29.698  26.690  1.00  0.00     0.148 A 
ATOM     83  C   UNL A   1      47.822  28.486  28.968  1.00  0.00     0.002 A 
ATOM     84  C   UNL A   1      46.796  28.314  26.776  1.00  0.00     0.091 A 
ATOM     85  F   UNL A   1      46.209  30.307  25.603  1.00  0.00    -0.205 F 
ATOM     86  C   UNL A   1      47.365  27.707  27.909  1.00  0.00     0.022 A 
BRANCH  84  87
ATOM     87  S   UNL A   1      46.164  27.220  25.498  1.00  0.00     0.127 S 
ATOM     88  O   UNL A   1      44.825  27.766  25.279  1.00  0.00    -0.237 OA
ATOM     89  O   UNL A   1      47.103  27.452  24.401  1.00  0.00    -0.237 OA
ATOM     90  O   UNL A   1      46.211  25.879  26.061  1.00  0.00    -0.744 OA
ENDBRANCH  84  87
ENDBRANCH  66  80
BRANCH  67  91
ATOM     91  C   UNL A   1      45.921  40.405  28.148  1.00  0.00     0.023 A 
ATOM     92  C   UNL A   1      46.195  41.045  29.372  1.00  0.00     0.012 A 
ATOM     93  C   UNL A   1      45.541  41.180  27.036  1.00  0.00     0.148 A 
ATOM     94  C   UNL A   1      46.062  42.429  29.496  1.00  0.00     0.002 A 
ATOM     95  C   UNL A   1      45.463  42.564  27.152  1.00  0.00     0.091 A 
ATOM     96  F   UNL A   1      45.273  40.551  25.883  1.00  0.00    -0.205 F 
ATOM     97  C   UNL A   1      45.707  43.189  28.384  1.00  0.00     0.022 A 
BRANCH  95  98
ATOM     98  S   UNL A   1      45.142  43.629  25.740  1.00  0.00     0.127 S 
ATOM     99  O   UNL A   1      45.187  44.956  26.349  1.00  0.00    -0.237 OA
ATOM    100  O   UNL A   1      46.269  43.317  24.861  1.00  0.00    -0.237 OA
ATOM    101  O   UNL A   1      43.847  43.213  25.220  1.00  0.00    -0.744 OA
ENDBRANCH  95  98
ENDBRANCH  67  91
BRANCH  79 102
ATOM    102  C   UNL A   1      50.914  36.241  25.585  1.00  0.00     0.023 A 
ATOM    103  C   UNL A   1      50.969  36.332  24.181  1.00  0.00     0.012 A 
ATOM    104  C   UNL A   1      52.075  36.494  26.343  1.00  0.00     0.148 A 
ATOM    105  C   UNL A   1      52.167  36.643  23.539  1.00  0.00     0.002 A 
ATOM    106  C   UNL A   1      53.254  36.850  25.698  1.00  0.00     0.091 A 
ATOM    107  F   UNL A   1      52.006  36.383  27.677  1.00  0.00    -0.205 F 
ATOM    108  C   UNL A   1      53.304  36.915  24.296  1.00  0.00     0.022 A 
BRANCH 106 109
ATOM    109  S   UNL A   1      54.739  37.310  26.597  1.00  0.00     0.127 S 
ATOM    110  O   UNL A   1      54.260  38.425  27.412  1.00  0.00    -0.237 OA
ATOM    111  O   UNL A   1      55.039  36.090  27.348  1.00  0.00    -0.237 OA
ATOM    112  O   UNL A   1      55.729  37.653  25.585  1.00  0.00    -0.744 OA
ENDBRANCH 106 109
ENDBRANCH  79 102
ENDBRANCH  53  54
ENDBRANCH  45  48
ENDBRANCH  43  44
ENDBRANCH  42  43
ENDBRANCH  41  42
ENDBRANCH   1  41
TORSDOF 23
ENDMDL
MODEL 2
REMARK VINA RESULT:      -7.9      4.112      9.733
REMARK SMILES COc1cc([C@H]2CC(c3ccc(S(C)(=O)=O)cc3)=NN2c2ccc(C(=O)NCCCCCCNC(=O)c3ccc(-c4c5nc(c(-c6cccc(S(=O)(=O)[O-])c6F)c6ccc([nH]6)c(-c6cccc(S(=O)(=O)[O-])c6F)c6nc(c(-c7cccc(S(=O)(=O)[O-])c7F)c7ccc4[nH]7)C=C6)C=C5)cc3)cc2)cc(OC)c1OC
REMARK SMILES IDX 30 1 29 2 28 3 27 4 25 5 26 6 24 8 21 9 22 10 101 11 23 12
REMARK SMILES IDX 100 13 20 14 6 15 7 16 8 17 19 18 5 19 3 20 4 21 106 22
REMARK SMILES IDX 103 23 102 24 2 25 1 26 107 27 108 28 104 29 105 30 9 31
REMARK SMILES IDX 10 32 18 33 11 34 17 35 12 36 13 37 14 38 15 39 16 40 31 41
REMARK SMILES IDX 32 42 33 43 34 44 35 45 36 47 37 48 38 49 99 50 39 51 98 52
REMARK SMILES IDX 40 53 41 54 42 55 92 56 43 57 97 58 91 59 93 60 44 61 96 62
REMARK SMILES IDX 90 63 89 64 45 66 77 67 57 68 76 69 58 70 61 71 75 72 94 73
REMARK SMILES IDX 59 74 60 75 74 77 95 78 62 79 46 80 47 81 55 82 48 83 50 84
REMARK SMILES IDX 56 85 49 86 51 87 52 88 53 89 54 90 78 91 79 92 87 93 80 94
REMARK SMILES IDX 82 95 88 96 81 97 83 98 84 99 85 100 86 101 63 102 64 103
REMARK SMILES IDX 72 104 65 105 67 106 73 107 66 108 68 109 69 110 70 111
REMARK SMILES IDX 71 112
REMARK H PARENT 27 7 34 46 93 65 61 76
REMARK Flexibility Score: inf
ROOT
ATOM      1  C   UNL A   1      49.110  35.274  26.159  1.00  0.00     0.002 C 
ENDROOT
BRANCH   1   2
ATOM      2  C   UNL A   1      47.758  35.019  25.475  1.00  0.00     0.021 C 
BRANCH   2   3
ATOM      3  C   UNL A   1      46.888  34.012  26.229  1.00  0.00     0.116 C 
BRANCH   3   4
ATOM      4  N   UNL A   1      45.715  34.679  26.757  1.00  0.00    -0.352 N 
ATOM      5  C   UNL A   1      44.605  34.211  27.407  1.00  0.00     0.251 C 
ATOM      6  O   UNL A   1      43.738  35.031  27.715  1.00  0.00    -0.269 OA
ATOM      7  H   UNL A   1      45.716  35.654  26.622  1.00  0.00     0.163 HD
BRANCH   5   8
ATOM      8  C   UNL A   1      44.438  32.789  27.815  1.00  0.00     0.039 A 
ATOM      9  C   UNL A   1      43.936  30.078  28.425  1.00  0.00     0.060 A 
ATOM     10  C   UNL A   1      43.768  30.560  27.124  1.00  0.00     0.029 A 
ATOM     11  C   UNL A   1      44.417  30.950  29.402  1.00  0.00     0.029 A 
ATOM     12  C   UNL A   1      43.996  31.903  26.824  1.00  0.00     0.016 A 
ATOM     13  C   UNL A   1      44.708  32.283  29.089  1.00  0.00     0.016 A 
BRANCH   9  14
ATOM     14  N   UNL A   1      43.649  28.756  28.708  1.00  0.00    -0.257 N 
ATOM     15  C   UNL A   1      43.345  28.229  30.040  1.00  0.00     0.144 C 
ATOM     16  C   UNL A   1      43.261  26.712  29.772  1.00  0.00     0.091 C 
ATOM     17  C   UNL A   1      43.656  26.676  28.319  1.00  0.00     0.071 C 
ATOM     18  N   UNL A   1      43.862  27.822  27.755  1.00  0.00    -0.176 NA
BRANCH  15  19
ATOM     19  C   UNL A   1      42.072  28.869  30.577  1.00  0.00    -0.015 A 
ATOM     20  C   UNL A   1      39.692  29.389  30.336  1.00  0.00     0.164 A 
ATOM     21  C   UNL A   1      40.912  28.940  29.792  1.00  0.00     0.056 A 
ATOM     22  C   UNL A   1      39.590  29.762  31.690  1.00  0.00     0.203 A 
ATOM     23  C   UNL A   1      40.757  29.700  32.478  1.00  0.00     0.164 A 
ATOM     24  C   UNL A   1      41.972  29.269  31.916  1.00  0.00     0.056 A 
BRANCH  20  25
ATOM     25  O   UNL A   1      38.581  29.305  29.534  1.00  0.00    -0.493 OA
ATOM     26  C   UNL A   1      38.333  30.521  28.822  1.00  0.00     0.278 C 
ENDBRANCH  20  25
BRANCH  22  27
ATOM     27  O   UNL A   1      38.454  30.171  32.334  1.00  0.00    -0.490 OA
ATOM     28  C   UNL A   1      37.622  29.244  33.008  1.00  0.00     0.278 C 
ENDBRANCH  22  27
BRANCH  23  29
ATOM     29  O   UNL A   1      40.904  30.026  33.805  1.00  0.00    -0.493 OA
ATOM     30  C   UNL A   1      41.092  28.973  34.739  1.00  0.00     0.278 C 
ENDBRANCH  23  29
ENDBRANCH  15  19
BRANCH  17  31
ATOM     31  C   UNL A   1      43.843  25.420  27.581  1.00  0.00    -0.002 A 
ATOM     32  C   UNL A   1      44.856  24.551  28.003  1.00  0.00     0.011 A 
ATOM     33  C   UNL A   1      43.096  25.146  26.435  1.00  0.00     0.011 A 
ATOM     34  C   UNL A   1      45.118  23.386  27.283  1.00  0.00     0.021 A 
ATOM     35  C   UNL A   1      43.375  23.992  25.696  1.00  0.00     0.021 A 
ATOM     36  C   UNL A   1      44.387  23.121  26.122  1.00  0.00     0.067 A 
BRANCH  36  37
ATOM     37  S   UNL A   1      44.751  21.656  25.182  1.00  0.00     0.175 S 
ATOM     38  C   UNL A   1      44.842  22.214  23.501  1.00  0.00     0.163 C 
ATOM     39  O   UNL A   1      46.075  21.215  25.588  1.00  0.00    -0.224 OA
ATOM     40  O   UNL A   1      43.610  20.771  25.283  1.00  0.00    -0.224 OA
ENDBRANCH  36  37
ENDBRANCH  17  31
ENDBRANCH   9  14
ENDBRANCH   5   8
ENDBRANCH   3   4
ENDBRANCH   2   3
ENDBRANCH   1   2
BRANCH   1  41
ATOM     41  C   UNL A   1      50.065  36.176  25.368  1.00  0.00     0.002 C 
BRANCH  41  42
ATOM     42  C   UNL A   1      50.525  37.434  26.111  1.00  0.00     0.021 C 
BRANCH  42  43
ATOM     43  C   UNL A   1      50.838  37.210  27.587  1.00  0.00     0.116 C 
BRANCH  43  44
ATOM     44  N   UNL A   1      50.288  38.274  28.415  1.00  0.00    -0.352 N 
ATOM     45  C   UNL A   1      49.317  38.199  29.382  1.00  0.00     0.251 C 
ATOM     46  H   UNL A   1      50.666  39.169  28.261  1.00  0.00     0.163 HD
ATOM     47  O   UNL A   1      48.805  39.224  29.822  1.00  0.00    -0.269 OA
BRANCH  45  48
ATOM     48  C   UNL A   1      48.887  36.878  29.884  1.00  0.00     0.039 A 
ATOM     49  C   UNL A   1      47.646  36.369  29.489  1.00  0.00     0.014 A 
ATOM     50  C   UNL A   1      49.704  36.149  30.752  1.00  0.00     0.014 A 
ATOM     51  C   UNL A   1      47.245  35.107  29.929  1.00  0.00     0.010 A 
ATOM     52  C   UNL A   1      49.332  34.865  31.137  1.00  0.00     0.010 A 
ATOM     53  C   UNL A   1      48.095  34.335  30.739  1.00  0.00    -0.014 A 
BRANCH  53  54
ATOM     54  C   UNL A   1      47.712  32.972  31.187  1.00  0.00     0.031 A 
ATOM     55  C   UNL A   1      47.976  31.786  30.300  1.00  0.00     0.074 A 
ATOM     56  C   UNL A   1      47.040  32.816  32.344  1.00  0.00     0.049 A 
ATOM     57  N   UNL A   1      47.643  30.534  30.476  1.00  0.00    -0.248 NA
ATOM     58  C   UNL A   1      48.680  32.045  29.032  1.00  0.00     0.031 C 
ATOM     59  C   UNL A   1      46.657  33.899  33.252  1.00  0.00     0.029 A 
ATOM     60  N   UNL A   1      46.531  31.689  32.938  1.00  0.00    -0.354 N 
ATOM     61  C   UNL A   1      48.059  29.865  29.331  1.00  0.00     0.074 A 
ATOM     62  C   UNL A   1      48.640  30.855  28.452  1.00  0.00     0.031 C 
ATOM     63  C   UNL A   1      45.971  33.385  34.285  1.00  0.00     0.029 A 
ATOM     64  C   UNL A   1      45.843  31.941  34.103  1.00  0.00     0.049 A 
ATOM     65  H   UNL A   1      46.648  30.784  32.567  1.00  0.00     0.167 HD
ATOM     66  C   UNL A   1      47.989  28.542  29.049  1.00  0.00     0.034 A 
ATOM     67  C   UNL A   1      45.179  31.107  34.925  1.00  0.00     0.034 A 
ATOM     68  C   UNL A   1      47.458  27.555  29.950  1.00  0.00     0.049 A 
ATOM     69  C   UNL A   1      45.165  29.634  34.616  1.00  0.00     0.074 A 
ATOM     70  C   UNL A   1      47.428  26.181  29.798  1.00  0.00     0.029 A 
ATOM     71  N   UNL A   1      46.863  27.837  31.169  1.00  0.00    -0.354 N 
ATOM     72  N   UNL A   1      45.706  28.999  33.604  1.00  0.00    -0.248 NA
ATOM     73  C   UNL A   1      44.485  28.757  35.580  1.00  0.00     0.031 C 
ATOM     74  C   UNL A   1      46.801  25.632  30.922  1.00  0.00     0.029 A 
ATOM     75  C   UNL A   1      46.458  26.664  31.781  1.00  0.00     0.049 A 
ATOM     76  H   UNL A   1      46.747  28.739  31.546  1.00  0.00     0.167 HD
ATOM     77  C   UNL A   1      45.465  27.649  33.828  1.00  0.00     0.074 A 
ATOM     78  C   UNL A   1      44.745  27.555  35.081  1.00  0.00     0.031 C 
ATOM     79  C   UNL A   1      45.795  26.583  33.057  1.00  0.00     0.034 A 
BRANCH  66  80
ATOM     80  C   UNL A   1      48.557  28.076  27.735  1.00  0.00     0.023 A 
ATOM     81  C   UNL A   1      49.912  27.694  27.661  1.00  0.00     0.012 A 
ATOM     82  C   UNL A   1      47.744  27.961  26.590  1.00  0.00     0.148 A 
ATOM     83  C   UNL A   1      50.459  27.236  26.463  1.00  0.00     0.002 A 
ATOM     84  C   UNL A   1      48.286  27.465  25.409  1.00  0.00     0.091 A 
ATOM     85  F   UNL A   1      46.464  28.351  26.671  1.00  0.00    -0.205 F 
ATOM     86  C   UNL A   1      49.644  27.113  25.341  1.00  0.00     0.022 A 
BRANCH  84  87
ATOM     87  S   UNL A   1      47.300  27.194  23.932  1.00  0.00     0.127 S 
ATOM     88  O   UNL A   1      46.320  26.218  24.406  1.00  0.00    -0.237 OA
ATOM     89  O   UNL A   1      46.756  28.528  23.674  1.00  0.00    -0.237 OA
ATOM     90  O   UNL A   1      48.225  26.711  22.917  1.00  0.00    -0.744 OA
ENDBRANCH  84  87
ENDBRANCH  66  80
BRANCH  67  91
ATOM     91  C   UNL A   1      44.536  31.638  36.161  1.00  0.00     0.023 A 
ATOM     92  C   UNL A   1      45.261  31.634  37.369  1.00  0.00     0.012 A 
ATOM     93  C   UNL A   1      43.236  32.177  36.142  1.00  0.00     0.148 A 
ATOM     94  C   UNL A   1      44.690  32.128  38.542  1.00  0.00     0.002 A 
ATOM     95  C   UNL A   1      42.693  32.718  37.303  1.00  0.00     0.091 A 
ATOM     96  F   UNL A   1      42.557  32.162  34.986  1.00  0.00    -0.205 F 
ATOM     97  C   UNL A   1      43.412  32.680  38.507  1.00  0.00     0.022 A 
BRANCH  95  98
ATOM     98  S   UNL A   1      41.109  33.566  37.318  1.00  0.00     0.127 S 
ATOM     99  O   UNL A   1      40.927  33.835  38.743  1.00  0.00    -0.237 OA
ATOM    100  O   UNL A   1      41.387  34.747  36.500  1.00  0.00    -0.237 OA
ATOM    101  O   UNL A   1      40.160  32.637  36.722  1.00  0.00    -0.744 OA
ENDBRANCH  95  98
ENDBRANCH  67  91
BRANCH  79 102
ATOM    102  C   UNL A   1      45.418  25.213  33.556  1.00  0.00     0.023 A 
ATOM    103  C   UNL A   1      44.197  24.636  33.156  1.00  0.00     0.012 A 
ATOM    104  C   UNL A   1      46.311  24.467  34.350  1.00  0.00     0.148 A 
ATOM    105  C   UNL A   1      43.859  23.346  33.562  1.00  0.00     0.002 A 
ATOM    106  C   UNL A   1      45.987  23.165  34.712  1.00  0.00     0.091 A 
ATOM    107  F   UNL A   1      47.458  25.043  34.737  1.00  0.00    -0.205 F 
ATOM    108  C   UNL A   1      44.757  22.606  34.327  1.00  0.00     0.022 A 
BRANCH 106 109
ATOM    109  S   UNL A   1      47.125  22.107  35.615  1.00  0.00     0.127 S 
ATOM    110  O   UNL A   1      46.258  20.992  35.991  1.00  0.00    -0.237 OA
ATOM    111  O   UNL A   1      48.125  21.785  34.596  1.00  0.00    -0.237 OA
ATOM    112  O   UNL A   1      47.627  22.911  36.720  1.00  0.00    -0.744 OA
ENDBRANCH 106 109
ENDBRANCH  79 102
ENDBRANCH  53  54
ENDBRANCH  45  48
ENDBRANCH  43  44
ENDBRANCH  42  43
ENDBRANCH  41  42
ENDBRANCH   1  41
TORSDOF 23
ENDMDL
MODEL 3
REMARK VINA RESULT:      -7.8      5.009     11.117
REMARK SMILES COc1cc([C@H]2CC(c3ccc(S(C)(=O)=O)cc3)=NN2c2ccc(C(=O)NCCCCCCNC(=O)c3ccc(-c4c5nc(c(-c6cccc(S(=O)(=O)[O-])c6F)c6ccc([nH]6)c(-c6cccc(S(=O)(=O)[O-])c6F)c6nc(c(-c7cccc(S(=O)(=O)[O-])c7F)c7ccc4[nH]7)C=C6)C=C5)cc3)cc2)cc(OC)c1OC
REMARK SMILES IDX 30 1 29 2 28 3 27 4 25 5 26 6 24 8 21 9 22 10 101 11 23 12
REMARK SMILES IDX 100 13 20 14 6 15 7 16 8 17 19 18 5 19 3 20 4 21 106 22
REMARK SMILES IDX 103 23 102 24 2 25 1 26 107 27 108 28 104 29 105 30 9 31
REMARK SMILES IDX 10 32 18 33 11 34 17 35 12 36 13 37 14 38 15 39 16 40 31 41
REMARK SMILES IDX 32 42 33 43 34 44 35 45 36 47 37 48 38 49 99 50 39 51 98 52
REMARK SMILES IDX 40 53 41 54 42 55 92 56 43 57 97 58 91 59 93 60 44 61 96 62
REMARK SMILES IDX 90 63 89 64 45 66 77 67 57 68 76 69 58 70 61 71 75 72 94 73
REMARK SMILES IDX 59 74 60 75 74 77 95 78 62 79 46 80 47 81 55 82 48 83 50 84
REMARK SMILES IDX 56 85 49 86 51 87 52 88 53 89 54 90 78 91 79 92 87 93 80 94
REMARK SMILES IDX 82 95 88 96 81 97 83 98 84 99 85 100 86 101 63 102 64 103
REMARK SMILES IDX 72 104 65 105 67 106 73 107 66 108 68 109 69 110 70 111
REMARK SMILES IDX 71 112
REMARK H PARENT 27 7 34 46 93 65 61 76
REMARK Flexibility Score: inf
ROOT
ATOM      1  C   UNL A   1      43.041  38.152  26.678  1.00  0.00     0.002 C 
ENDROOT
BRANCH   1   2
ATOM      2  C   UNL A   1      42.128  36.977  27.059  1.00  0.00     0.021 C 
BRANCH   2   3
ATOM      3  C   UNL A   1      42.895  35.674  27.287  1.00  0.00     0.116 C 
BRANCH   3   4
ATOM      4  N   UNL A   1      43.672  35.351  26.106  1.00  0.00    -0.352 N 
ATOM      5  C   UNL A   1      44.533  34.325  25.823  1.00  0.00     0.251 C 
ATOM      6  O   UNL A   1      45.083  34.332  24.721  1.00  0.00    -0.269 OA
ATOM      7  H   UNL A   1      43.559  35.992  25.368  1.00  0.00     0.163 HD
BRANCH   5   8
ATOM      8  C   UNL A   1      44.772  33.183  26.748  1.00  0.00     0.039 A 
ATOM      9  C   UNL A   1      45.323  31.182  28.663  1.00  0.00     0.060 A 
ATOM     10  C   UNL A   1      44.942  32.466  29.061  1.00  0.00     0.029 A 
ATOM     11  C   UNL A   1      45.364  30.893  27.299  1.00  0.00     0.029 A 
ATOM     12  C   UNL A   1      44.689  33.462  28.118  1.00  0.00     0.016 A 
ATOM     13  C   UNL A   1      45.048  31.872  26.350  1.00  0.00     0.016 A 
BRANCH   9  14
ATOM     14  N   UNL A   1      45.622  30.229  29.617  1.00  0.00    -0.257 N 
ATOM     15  C   UNL A   1      44.635  29.433  30.348  1.00  0.00     0.144 C 
ATOM     16  C   UNL A   1      45.520  28.669  31.354  1.00  0.00     0.091 C 
ATOM     17  C   UNL A   1      46.860  29.289  31.054  1.00  0.00     0.071 C 
ATOM     18  N   UNL A   1      46.887  30.146  30.085  1.00  0.00    -0.176 NA
BRANCH  15  19
ATOM     19  C   UNL A   1      43.845  28.561  29.380  1.00  0.00    -0.015 A 
ATOM     20  C   UNL A   1      43.716  26.625  27.887  1.00  0.00     0.164 A 
ATOM     21  C   UNL A   1      44.469  27.529  28.663  1.00  0.00     0.056 A 
ATOM     22  C   UNL A   1      42.313  26.712  27.821  1.00  0.00     0.203 A 
ATOM     23  C   UNL A   1      41.686  27.755  28.534  1.00  0.00     0.164 A 
ATOM     24  C   UNL A   1      42.451  28.662  29.287  1.00  0.00     0.056 A 
BRANCH  20  25
ATOM     25  O   UNL A   1      44.393  25.572  27.323  1.00  0.00    -0.493 OA
ATOM     26  C   UNL A   1      44.957  25.907  26.053  1.00  0.00     0.278 C 
ENDBRANCH  20  25
BRANCH  22  27
ATOM     27  O   UNL A   1      41.480  25.868  27.138  1.00  0.00    -0.490 OA
ATOM     28  C   UNL A   1      41.173  26.091  25.773  1.00  0.00     0.278 C 
ENDBRANCH  22  27
BRANCH  23  29
ATOM     29  O   UNL A   1      40.344  28.047  28.605  1.00  0.00    -0.493 OA
ATOM     30  C   UNL A   1      39.496  27.143  29.297  1.00  0.00     0.278 C 
ENDBRANCH  23  29
ENDBRANCH  15  19
BRANCH  17  31
ATOM     31  C   UNL A   1      48.066  28.981  31.832  1.00  0.00    -0.002 A 
ATOM     32  C   UNL A   1      47.938  28.135  32.941  1.00  0.00     0.011 A 
ATOM     33  C   UNL A   1      49.285  29.590  31.533  1.00  0.00     0.011 A 
ATOM     34  C   UNL A   1      49.043  27.880  33.752  1.00  0.00     0.021 A 
ATOM     35  C   UNL A   1      50.388  29.357  32.361  1.00  0.00     0.021 A 
ATOM     36  C   UNL A   1      50.260  28.507  33.468  1.00  0.00     0.067 A 
BRANCH  36  37
ATOM     37  S   UNL A   1      51.656  28.213  34.529  1.00  0.00     0.175 S 
ATOM     38  C   UNL A   1      52.722  29.605  34.260  1.00  0.00     0.163 C 
ATOM     39  O   UNL A   1      51.165  28.272  35.895  1.00  0.00    -0.224 OA
ATOM     40  O   UNL A   1      52.345  27.039  34.036  1.00  0.00    -0.224 OA
ENDBRANCH  36  37
ENDBRANCH  17  31
ENDBRANCH   9  14
ENDBRANCH   5   8
ENDBRANCH   3   4
ENDBRANCH   2   3
ENDBRANCH   1   2
BRANCH   1  41
ATOM     41  C   UNL A   1      42.614  39.506  27.256  1.00  0.00     0.002 C 
BRANCH  41  42
ATOM     42  C   UNL A   1      41.824  39.426  28.565  1.00  0.00     0.021 C 
BRANCH  42  43
ATOM     43  C   UNL A   1      42.218  40.474  29.601  1.00  0.00     0.116 C 
BRANCH  43  44
ATOM     44  N   UNL A   1      43.617  40.854  29.469  1.00  0.00    -0.352 N 
ATOM     45  C   UNL A   1      44.734  40.215  29.946  1.00  0.00     0.251 C 
ATOM     46  H   UNL A   1      43.786  41.684  28.967  1.00  0.00     0.163 HD
ATOM     47  O   UNL A   1      45.819  40.787  29.949  1.00  0.00    -0.269 OA
BRANCH  45  48
ATOM     48  C   UNL A   1      44.619  38.835  30.464  1.00  0.00     0.039 A 
ATOM     49  C   UNL A   1      44.050  38.625  31.723  1.00  0.00     0.014 A 
ATOM     50  C   UNL A   1      45.084  37.754  29.710  1.00  0.00     0.014 A 
ATOM     51  C   UNL A   1      43.905  37.323  32.207  1.00  0.00     0.010 A 
ATOM     52  C   UNL A   1      44.880  36.456  30.164  1.00  0.00     0.010 A 
ATOM     53  C   UNL A   1      44.298  36.227  31.421  1.00  0.00    -0.014 A 
BRANCH  53  54
ATOM     54  C   UNL A   1      44.117  34.831  31.893  1.00  0.00     0.031 A 
ATOM     55  C   UNL A   1      42.866  34.073  31.540  1.00  0.00     0.074 A 
ATOM     56  C   UNL A   1      45.030  34.283  32.718  1.00  0.00     0.049 A 
ATOM     57  N   UNL A   1      42.487  32.882  31.923  1.00  0.00    -0.248 NA
ATOM     58  C   UNL A   1      41.897  34.757  30.665  1.00  0.00     0.031 C 
ATOM     59  C   UNL A   1      46.245  34.947  33.194  1.00  0.00     0.029 A 
ATOM     60  N   UNL A   1      45.062  33.054  33.328  1.00  0.00    -0.354 N 
ATOM     61  C   UNL A   1      41.227  32.688  31.372  1.00  0.00     0.074 A 
ATOM     62  C   UNL A   1      40.889  33.897  30.654  1.00  0.00     0.031 C 
ATOM     63  C   UNL A   1      46.901  34.120  34.025  1.00  0.00     0.029 A 
ATOM     64  C   UNL A   1      46.143  32.879  34.161  1.00  0.00     0.049 A 
ATOM     65  H   UNL A   1      44.376  32.363  33.184  1.00  0.00     0.167 HD
ATOM     66  C   UNL A   1      40.433  31.592  31.434  1.00  0.00     0.034 A 
ATOM     67  C   UNL A   1      46.481  31.841  34.950  1.00  0.00     0.034 A 
ATOM     68  C   UNL A   1      40.797  30.373  32.104  1.00  0.00     0.049 A 
ATOM     69  C   UNL A   1      45.610  30.614  34.956  1.00  0.00     0.074 A 
ATOM     70  C   UNL A   1      40.106  29.176  32.146  1.00  0.00     0.029 A 
ATOM     71  N   UNL A   1      41.951  30.197  32.851  1.00  0.00    -0.354 N 
ATOM     72  N   UNL A   1      44.498  30.390  34.299  1.00  0.00    -0.248 NA
ATOM     73  C   UNL A   1      46.058  29.482  35.779  1.00  0.00     0.031 C 
ATOM     74  C   UNL A   1      40.836  28.278  32.931  1.00  0.00     0.029 A 
ATOM     75  C   UNL A   1      41.991  28.911  33.363  1.00  0.00     0.049 A 
ATOM     76  H   UNL A   1      42.640  30.884  32.996  1.00  0.00     0.167 HD
ATOM     77  C   UNL A   1      44.133  29.083  34.599  1.00  0.00     0.074 A 
ATOM     78  C   UNL A   1      45.153  28.558  35.483  1.00  0.00     0.031 C 
ATOM     79  C   UNL A   1      43.044  28.384  34.193  1.00  0.00     0.034 A 
BRANCH  66  80
ATOM     80  C   UNL A   1      39.116  31.640  30.705  1.00  0.00     0.023 A 
ATOM     81  C   UNL A   1      38.997  31.018  29.445  1.00  0.00     0.012 A 
ATOM     82  C   UNL A   1      37.984  32.246  31.285  1.00  0.00     0.148 A 
ATOM     83  C   UNL A   1      37.784  31.026  28.759  1.00  0.00     0.002 A 
ATOM     84  C   UNL A   1      36.767  32.214  30.613  1.00  0.00     0.091 A 
ATOM     85  F   UNL A   1      38.120  32.853  32.472  1.00  0.00    -0.205 F 
ATOM     86  C   UNL A   1      36.669  31.614  29.346  1.00  0.00     0.022 A 
BRANCH  84  87
ATOM     87  S   UNL A   1      35.254  32.875  31.320  1.00  0.00     0.127 S 
ATOM     88  O   UNL A   1      35.165  32.130  32.575  1.00  0.00    -0.237 OA
ATOM     89  O   UNL A   1      35.580  34.293  31.476  1.00  0.00    -0.237 OA
ATOM     90  O   UNL A   1      34.205  32.598  30.350  1.00  0.00    -0.744 OA
ENDBRANCH  84  87
ENDBRANCH  66  80
BRANCH  67  91
ATOM     91  C   UNL A   1      47.744  31.889  35.740  1.00  0.00     0.023 A 
ATOM     92  C   UNL A   1      48.961  31.556  35.113  1.00  0.00     0.012 A 
ATOM     93  C   UNL A   1      47.754  32.296  37.088  1.00  0.00     0.148 A 
ATOM     94  C   UNL A   1      50.161  31.597  35.824  1.00  0.00     0.002 A 
ATOM     95  C   UNL A   1      48.961  32.387  37.775  1.00  0.00     0.091 A 
ATOM     96  F   UNL A   1      46.586  32.599  37.671  1.00  0.00    -0.205 F 
ATOM     97  C   UNL A   1      50.163  32.022  37.150  1.00  0.00     0.022 A 
BRANCH  95  98
ATOM     98  S   UNL A   1      49.070  33.050  39.441  1.00  0.00     0.127 S 
ATOM     99  O   UNL A   1      48.207  32.136  40.185  1.00  0.00    -0.237 OA
ATOM    100  O   UNL A   1      50.498  32.920  39.729  1.00  0.00    -0.237 OA
ATOM    101  O   UNL A   1      48.603  34.427  39.347  1.00  0.00    -0.744 OA
ENDBRANCH  95  98
ENDBRANCH  67  91
BRANCH  79 102
ATOM    102  C   UNL A   1      42.907  26.962  34.666  1.00  0.00     0.023 A 
ATOM    103  C   UNL A   1      41.923  26.634  35.619  1.00  0.00     0.012 A 
ATOM    104  C   UNL A   1      43.695  25.938  34.103  1.00  0.00     0.148 A 
ATOM    105  C   UNL A   1      41.744  25.312  36.025  1.00  0.00     0.002 A 
ATOM    106  C   UNL A   1      43.479  24.618  34.478  1.00  0.00     0.091 A 
ATOM    107  F   UNL A   1      44.639  26.275  33.213  1.00  0.00    -0.205 F 
ATOM    108  C   UNL A   1      42.511  24.304  35.446  1.00  0.00     0.022 A 
BRANCH 106 109
ATOM    109  S   UNL A   1      44.354  23.247  33.714  1.00  0.00     0.127 S 
ATOM    110  O   UNL A   1      43.774  23.236  32.372  1.00  0.00    -0.237 OA
ATOM    111  O   UNL A   1      45.746  23.694  33.774  1.00  0.00    -0.237 OA
ATOM    112  O   UNL A   1      44.061  22.079  34.533  1.00  0.00    -0.744 OA
ENDBRANCH 106 109
ENDBRANCH  79 102
ENDBRANCH  53  54
ENDBRANCH  45  48
ENDBRANCH  43  44
ENDBRANCH  42  43
ENDBRANCH  41  42
ENDBRANCH   1  41
TORSDOF 23
ENDMDL
