MODEL 1
REMARK VINA RESULT:     -13.2      0.000      0.000
REMARK SMILES O=C(NCCCCCCNC(=O)[C@H](c1c[nH]c2ccc(Cl)cc12)[NH+]1CCN(c2cccc(Cl)c2)CC1)c1ccc(-c2c3nc(c(-c4cccc(S(=O)(=O)[O-])c4F)c4ccc([nH]4)c(-c4cccc(S(=O)(=O)[O-])c4F)c4nc(c(-c5cccc(S(=O)(=O)[O-])c5F)c5ccc2[nH]5)C=C4)C=C3)cc1
REMARK SMILES IDX 6 1 5 2 4 3 3 4 1 5 2 6 37 8 38 9 99 10 39 11 98 12 40 13
REMARK SMILES IDX 41 14 42 15 92 16 43 17 97 18 91 19 93 20 44 21 96 22 90 23
REMARK SMILES IDX 89 24 45 26 77 27 57 28 76 29 58 30 61 31 75 32 94 33 59 34
REMARK SMILES IDX 60 35 74 37 95 38 62 39 46 40 47 41 55 42 48 43 50 44 56 45
REMARK SMILES IDX 49 46 51 47 52 48 53 49 54 50 78 51 79 52 87 53 80 54 82 55
REMARK SMILES IDX 88 56 81 57 83 58 84 59 85 60 86 61 63 62 64 63 72 64 65 65
REMARK SMILES IDX 67 66 73 67 66 68 68 69 69 70 70 71 71 72 7 73 8 74 9 75
REMARK SMILES IDX 10 76 11 77 12 79 13 80 24 81 25 82 36 83 26 85 35 86 27 87
REMARK SMILES IDX 28 88 29 89 34 90 30 91 32 92 31 93 33 94 14 95 15 96 23 97
REMARK SMILES IDX 16 98 17 99 22 100 18 102 20 103 19 104 21 105
REMARK H PARENT 3 7 93 25 61 36 10 78 24 84 16 101
REMARK Flexibility Score: inf
ROOT
ATOM      1  C   UNL A   1      31.334  30.770  25.818  1.00  0.00     0.002 C 
ENDROOT
BRANCH   1   2
ATOM      2  C   UNL A   1      31.397  32.211  26.325  1.00  0.00     0.021 C 
BRANCH   2   3
ATOM      3  C   UNL A   1      32.586  32.554  27.210  1.00  0.00     0.116 C 
BRANCH   3   4
ATOM      4  N   UNL A   1      32.611  33.944  27.628  1.00  0.00    -0.352 N 
ATOM      5  O   UNL A   1      33.289  35.732  28.815  1.00  0.00    -0.269 OA
ATOM      6  C   UNL A   1      33.486  34.569  28.488  1.00  0.00     0.251 C 
ATOM      7  H   UNL A   1      31.908  34.516  27.245  1.00  0.00     0.163 HD
BRANCH   6   8
ATOM      8  C   UNL A   1      34.643  33.819  29.033  1.00  0.00     0.039 A 
ATOM      9  C   UNL A   1      35.954  34.206  28.741  1.00  0.00     0.014 A 
ATOM     10  C   UNL A   1      34.407  32.722  29.867  1.00  0.00     0.014 A 
ATOM     11  C   UNL A   1      37.023  33.435  29.187  1.00  0.00     0.010 A 
ATOM     12  C   UNL A   1      35.486  31.992  30.378  1.00  0.00     0.010 A 
ATOM     13  C   UNL A   1      36.801  32.335  30.031  1.00  0.00    -0.014 A 
BRANCH  13  14
ATOM     14  C   UNL A   1      37.963  31.646  30.648  1.00  0.00     0.031 A 
ATOM     15  C   UNL A   1      38.737  30.590  29.913  1.00  0.00     0.074 A 
ATOM     16  C   UNL A   1      38.289  31.971  31.915  1.00  0.00     0.049 A 
ATOM     17  N   UNL A   1      39.770  29.900  30.323  1.00  0.00    -0.248 NA
ATOM     18  C   UNL A   1      38.297  30.254  28.549  1.00  0.00     0.031 C 
ATOM     19  C   UNL A   1      37.566  32.940  32.745  1.00  0.00     0.029 A 
ATOM     20  N   UNL A   1      39.293  31.520  32.733  1.00  0.00    -0.354 N 
ATOM     21  C   UNL A   1      40.080  29.021  29.293  1.00  0.00     0.074 A 
ATOM     22  C   UNL A   1      39.127  29.267  28.231  1.00  0.00     0.031 C 
ATOM     23  C   UNL A   1      38.150  33.013  33.949  1.00  0.00     0.029 A 
ATOM     24  C   UNL A   1      39.258  32.067  33.995  1.00  0.00     0.049 A 
ATOM     25  H   UNL A   1      39.971  30.868  32.445  1.00  0.00     0.167 HD
ATOM     26  C   UNL A   1      41.076  28.105  29.239  1.00  0.00     0.034 A 
ATOM     27  C   UNL A   1      40.014  31.816  35.080  1.00  0.00     0.034 A 
ATOM     28  C   UNL A   1      42.048  27.903  30.283  1.00  0.00     0.049 A 
ATOM     29  C   UNL A   1      41.127  30.815  34.971  1.00  0.00     0.074 A 
ATOM     30  C   UNL A   1      43.159  27.077  30.272  1.00  0.00     0.029 A 
ATOM     31  N   UNL A   1      42.019  28.515  31.526  1.00  0.00    -0.354 N 
ATOM     32  N   UNL A   1      41.512  30.122  33.927  1.00  0.00    -0.248 NA
ATOM     33  C   UNL A   1      41.926  30.578  36.181  1.00  0.00     0.031 C 
ATOM     34  C   UNL A   1      43.786  27.169  31.519  1.00  0.00     0.029 A 
ATOM     35  C   UNL A   1      43.075  28.065  32.300  1.00  0.00     0.049 A 
ATOM     36  H   UNL A   1      41.346  29.172  31.815  1.00  0.00     0.167 HD
ATOM     37  C   UNL A   1      42.605  29.378  34.348  1.00  0.00     0.074 A 
ATOM     38  C   UNL A   1      42.846  29.734  35.732  1.00  0.00     0.031 C 
ATOM     39  C   UNL A   1      43.327  28.460  33.661  1.00  0.00     0.034 A 
BRANCH  26  40
ATOM     40  C   UNL A   1      41.214  27.267  27.994  1.00  0.00     0.023 A 
ATOM     41  C   UNL A   1      41.881  27.796  26.872  1.00  0.00     0.012 A 
ATOM     42  C   UNL A   1      40.800  25.919  27.984  1.00  0.00     0.148 A 
ATOM     43  C   UNL A   1      42.126  27.000  25.752  1.00  0.00     0.002 A 
ATOM     44  C   UNL A   1      41.078  25.123  26.879  1.00  0.00     0.091 A 
ATOM     45  F   UNL A   1      40.156  25.442  29.057  1.00  0.00    -0.205 F 
ATOM     46  C   UNL A   1      41.736  25.662  25.761  1.00  0.00     0.022 A 
BRANCH  44  47
ATOM     47  S   UNL A   1      40.685  23.371  26.816  1.00  0.00     0.127 S 
ATOM     48  O   UNL A   1      39.245  23.402  26.557  1.00  0.00    -0.237 OA
ATOM     49  O   UNL A   1      41.496  22.913  25.689  1.00  0.00    -0.237 OA
ATOM     50  O   UNL A   1      41.072  22.823  28.109  1.00  0.00    -0.744 OA
ENDBRANCH  44  47
ENDBRANCH  26  40
BRANCH  27  51
ATOM     51  C   UNL A   1      39.752  32.546  36.351  1.00  0.00     0.023 A 
ATOM     52  C   UNL A   1      40.490  33.706  36.653  1.00  0.00     0.012 A 
ATOM     53  C   UNL A   1      38.752  32.117  37.245  1.00  0.00     0.148 A 
ATOM     54  C   UNL A   1      40.256  34.408  37.836  1.00  0.00     0.002 A 
ATOM     55  C   UNL A   1      38.482  32.856  38.390  1.00  0.00     0.091 A 
ATOM     56  F   UNL A   1      38.073  30.998  36.955  1.00  0.00    -0.205 F 
ATOM     57  C   UNL A   1      39.244  33.992  38.698  1.00  0.00     0.022 A 
BRANCH  55  58
ATOM     58  S   UNL A   1      37.094  32.461  39.461  1.00  0.00     0.127 S 
ATOM     59  O   UNL A   1      37.403  31.091  39.861  1.00  0.00    -0.237 OA
ATOM     60  O   UNL A   1      37.227  33.458  40.523  1.00  0.00    -0.237 OA
ATOM     61  O   UNL A   1      35.911  32.637  38.628  1.00  0.00    -0.744 OA
ENDBRANCH  55  58
ENDBRANCH  27  51
BRANCH  39  62
ATOM     62  C   UNL A   1      44.448  27.776  34.396  1.00  0.00     0.023 A 
ATOM     63  C   UNL A   1      45.725  28.371  34.417  1.00  0.00     0.012 A 
ATOM     64  C   UNL A   1      44.228  26.581  35.109  1.00  0.00     0.148 A 
ATOM     65  C   UNL A   1      46.775  27.772  35.110  1.00  0.00     0.002 A 
ATOM     66  C   UNL A   1      45.268  26.014  35.835  1.00  0.00     0.091 A 
ATOM     67  F   UNL A   1      43.011  26.021  35.059  1.00  0.00    -0.205 F 
ATOM     68  C   UNL A   1      46.544  26.601  35.827  1.00  0.00     0.022 A 
BRANCH  66  69
ATOM     69  S   UNL A   1      45.042  24.555  36.858  1.00  0.00     0.127 S 
ATOM     70  O   UNL A   1      44.574  23.574  35.881  1.00  0.00    -0.237 OA
ATOM     71  O   UNL A   1      46.395  24.316  37.363  1.00  0.00    -0.237 OA
ATOM     72  O   UNL A   1      44.075  24.930  37.881  1.00  0.00    -0.744 OA
ENDBRANCH  66  69
ENDBRANCH  39  62
ENDBRANCH  13  14
ENDBRANCH   6   8
ENDBRANCH   3   4
ENDBRANCH   2   3
ENDBRANCH   1   2
BRANCH   1  73
ATOM     73  C   UNL A   1      31.778  29.683  26.800  1.00  0.00     0.002 C 
BRANCH  73  74
ATOM     74  C   UNL A   1      33.090  28.956  26.488  1.00  0.00     0.021 C 
BRANCH  74  75
ATOM     75  C   UNL A   1      33.060  27.431  26.539  1.00  0.00     0.116 C 
BRANCH  75  76
ATOM     76  N   UNL A   1      31.729  26.868  26.416  1.00  0.00    -0.351 N 
ATOM     77  C   UNL A   1      31.147  26.226  25.353  1.00  0.00     0.283 C 
ATOM     78  H   UNL A   1      31.160  26.961  27.213  1.00  0.00     0.163 HD
ATOM     79  O   UNL A   1      30.085  25.640  25.590  1.00  0.00    -0.268 OA
BRANCH  77  80
ATOM     80  C   UNL A   1      31.824  26.256  23.950  1.00  0.00     0.307 C 
BRANCH  80  81
ATOM     81  N   UNL A   1      31.408  25.182  23.013  1.00  0.00    -0.318 N 
ATOM     82  C   UNL A   1      32.529  24.672  22.204  1.00  0.00     0.284 C 
ATOM     83  C   UNL A   1      30.629  24.051  23.529  1.00  0.00     0.284 C 
ATOM     84  H   UNL A   1      30.738  25.699  22.443  1.00  0.00     0.349 HD
ATOM     85  C   UNL A   1      33.445  23.683  22.952  1.00  0.00     0.178 C 
ATOM     86  C   UNL A   1      31.410  22.926  24.242  1.00  0.00     0.178 C 
ATOM     87  N   UNL A   1      32.673  22.588  23.556  1.00  0.00    -0.360 N 
BRANCH  87  88
ATOM     88  C   UNL A   1      33.334  21.430  23.956  1.00  0.00     0.038 A 
ATOM     89  C   UNL A   1      34.623  21.507  24.505  1.00  0.00     0.026 A 
ATOM     90  C   UNL A   1      32.752  20.157  23.859  1.00  0.00     0.046 A 
ATOM     91  C   UNL A   1      35.301  20.368  24.953  1.00  0.00     0.004 A 
ATOM     92  C   UNL A   1      33.436  19.015  24.284  1.00  0.00     0.043 A 
ATOM     93  C   UNL A   1      34.706  19.115  24.842  1.00  0.00     0.020 A 
ATOM     94  Cl  UNL A   1      32.703  17.468  24.101  1.00  0.00    -0.084 Cl
ENDBRANCH  87  88
ENDBRANCH  80  81
BRANCH  80  95
ATOM     95  C   UNL A   1      31.512  27.567  23.241  1.00  0.00     0.044 A 
ATOM     96  C   UNL A   1      32.434  28.438  22.680  1.00  0.00     0.094 A 
ATOM     97  C   UNL A   1      30.222  28.171  23.047  1.00  0.00     0.011 A 
ATOM     98  N   UNL A   1      31.770  29.511  22.163  1.00  0.00    -0.361 N 
ATOM     99  C   UNL A   1      30.420  29.382  22.378  1.00  0.00     0.046 A 
ATOM    100  C   UNL A   1      28.901  27.807  23.388  1.00  0.00     0.031 A 
ATOM    101  H   UNL A   1      32.198  30.270  21.704  1.00  0.00     0.166 HD
ATOM    102  C   UNL A   1      29.374  30.247  22.034  1.00  0.00     0.028 A 
ATOM    103  C   UNL A   1      27.848  28.665  23.050  1.00  0.00     0.041 A 
ATOM    104  C   UNL A   1      28.077  29.866  22.384  1.00  0.00     0.022 A 
ATOM    105  Cl  UNL A   1      26.235  28.226  23.468  1.00  0.00    -0.084 Cl
ENDBRANCH  80  95
ENDBRANCH  77  80
ENDBRANCH  75  76
ENDBRANCH  74  75
ENDBRANCH  73  74
ENDBRANCH   1  73
TORSDOF 19
ENDMDL
MODEL 2
REMARK VINA RESULT:     -12.8      5.340     11.104
REMARK SMILES O=C(NCCCCCCNC(=O)[C@H](c1c[nH]c2ccc(Cl)cc12)[NH+]1CCN(c2cccc(Cl)c2)CC1)c1ccc(-c2c3nc(c(-c4cccc(S(=O)(=O)[O-])c4F)c4ccc([nH]4)c(-c4cccc(S(=O)(=O)[O-])c4F)c4nc(c(-c5cccc(S(=O)(=O)[O-])c5F)c5ccc2[nH]5)C=C4)C=C3)cc1
REMARK SMILES IDX 6 1 5 2 4 3 3 4 1 5 2 6 37 8 38 9 99 10 39 11 98 12 40 13
REMARK SMILES IDX 41 14 42 15 92 16 43 17 97 18 91 19 93 20 44 21 96 22 90 23
REMARK SMILES IDX 89 24 45 26 77 27 57 28 76 29 58 30 61 31 75 32 94 33 59 34
REMARK SMILES IDX 60 35 74 37 95 38 62 39 46 40 47 41 55 42 48 43 50 44 56 45
REMARK SMILES IDX 49 46 51 47 52 48 53 49 54 50 78 51 79 52 87 53 80 54 82 55
REMARK SMILES IDX 88 56 81 57 83 58 84 59 85 60 86 61 63 62 64 63 72 64 65 65
REMARK SMILES IDX 67 66 73 67 66 68 68 69 69 70 70 71 71 72 7 73 8 74 9 75
REMARK SMILES IDX 10 76 11 77 12 79 13 80 24 81 25 82 36 83 26 85 35 86 27 87
REMARK SMILES IDX 28 88 29 89 34 90 30 91 32 92 31 93 33 94 14 95 15 96 23 97
REMARK SMILES IDX 16 98 17 99 22 100 18 102 20 103 19 104 21 105
REMARK H PARENT 3 7 93 25 61 36 10 78 24 84 16 101
REMARK Flexibility Score: inf
ROOT
ATOM      1  C   UNL A   1      36.688  20.511  24.823  1.00  0.00     0.002 C 
ENDROOT
BRANCH   1   2
ATOM      2  C   UNL A   1      37.823  19.521  25.087  1.00  0.00     0.021 C 
BRANCH   2   3
ATOM      3  C   UNL A   1      39.028  20.075  25.834  1.00  0.00     0.116 C 
BRANCH   3   4
ATOM      4  N   UNL A   1      40.137  19.142  25.909  1.00  0.00    -0.352 N 
ATOM      5  O   UNL A   1      42.290  18.500  26.046  1.00  0.00    -0.269 OA
ATOM      6  C   UNL A   1      41.471  19.406  26.125  1.00  0.00     0.251 C 
ATOM      7  H   UNL A   1      39.905  18.193  25.789  1.00  0.00     0.163 HD
BRANCH   6   8
ATOM      8  C   UNL A   1      41.908  20.791  26.423  1.00  0.00     0.039 A 
ATOM      9  C   UNL A   1      42.088  21.725  25.398  1.00  0.00     0.014 A 
ATOM     10  C   UNL A   1      42.123  21.163  27.753  1.00  0.00     0.014 A 
ATOM     11  C   UNL A   1      42.586  22.991  25.690  1.00  0.00     0.010 A 
ATOM     12  C   UNL A   1      42.552  22.461  28.052  1.00  0.00     0.010 A 
ATOM     13  C   UNL A   1      42.800  23.380  27.021  1.00  0.00    -0.014 A 
BRANCH  13  14
ATOM     14  C   UNL A   1      43.147  24.792  27.320  1.00  0.00     0.031 A 
ATOM     15  C   UNL A   1      42.155  25.737  27.935  1.00  0.00     0.074 A 
ATOM     16  C   UNL A   1      44.381  25.221  26.989  1.00  0.00     0.049 A 
ATOM     17  N   UNL A   1      42.313  26.997  28.248  1.00  0.00    -0.248 NA
ATOM     18  C   UNL A   1      40.812  25.212  28.229  1.00  0.00     0.031 C 
ATOM     19  C   UNL A   1      45.405  24.404  26.329  1.00  0.00     0.029 A 
ATOM     20  N   UNL A   1      44.983  26.444  27.141  1.00  0.00    -0.354 N 
ATOM     21  C   UNL A   1      41.087  27.430  28.736  1.00  0.00     0.074 A 
ATOM     22  C   UNL A   1      40.190  26.295  28.682  1.00  0.00     0.031 C 
ATOM     23  C   UNL A   1      46.506  25.144  26.139  1.00  0.00     0.029 A 
ATOM     24  C   UNL A   1      46.254  26.498  26.618  1.00  0.00     0.049 A 
ATOM     25  H   UNL A   1      44.548  27.209  27.582  1.00  0.00     0.167 HD
ATOM     26  C   UNL A   1      40.749  28.659  29.196  1.00  0.00     0.034 A 
ATOM     27  C   UNL A   1      47.114  27.528  26.508  1.00  0.00     0.034 A 
ATOM     28  C   UNL A   1      41.664  29.768  29.289  1.00  0.00     0.049 A 
ATOM     29  C   UNL A   1      46.715  28.866  27.057  1.00  0.00     0.074 A 
ATOM     30  C   UNL A   1      41.444  31.017  29.844  1.00  0.00     0.029 A 
ATOM     31  N   UNL A   1      42.962  29.771  28.803  1.00  0.00    -0.354 N 
ATOM     32  N   UNL A   1      45.610  29.206  27.674  1.00  0.00    -0.248 NA
ATOM     33  C   UNL A   1      47.688  29.957  26.916  1.00  0.00     0.031 C 
ATOM     34  C   UNL A   1      42.599  31.785  29.669  1.00  0.00     0.029 A 
ATOM     35  C   UNL A   1      43.545  31.008  29.021  1.00  0.00     0.049 A 
ATOM     36  H   UNL A   1      43.403  29.007  28.367  1.00  0.00     0.167 HD
ATOM     37  C   UNL A   1      45.759  30.545  28.008  1.00  0.00     0.074 A 
ATOM     38  C   UNL A   1      47.077  30.944  27.559  1.00  0.00     0.031 C 
ATOM     39  C   UNL A   1      44.873  31.379  28.606  1.00  0.00     0.034 A 
BRANCH  26  40
ATOM     40  C   UNL A   1      39.341  28.881  29.685  1.00  0.00     0.023 A 
ATOM     41  C   UNL A   1      39.003  28.534  31.007  1.00  0.00     0.012 A 
ATOM     42  C   UNL A   1      38.396  29.548  28.879  1.00  0.00     0.148 A 
ATOM     43  C   UNL A   1      37.742  28.839  31.520  1.00  0.00     0.002 A 
ATOM     44  C   UNL A   1      37.153  29.879  29.408  1.00  0.00     0.091 A 
ATOM     45  F   UNL A   1      38.735  29.856  27.620  1.00  0.00    -0.205 F 
ATOM     46  C   UNL A   1      36.823  29.521  30.726  1.00  0.00     0.022 A 
BRANCH  44  47
ATOM     47  S   UNL A   1      35.925  30.820  28.495  1.00  0.00     0.127 S 
ATOM     48  O   UNL A   1      34.923  31.077  29.530  1.00  0.00    -0.237 OA
ATOM     49  O   UNL A   1      36.686  31.997  28.079  1.00  0.00    -0.237 OA
ATOM     50  O   UNL A   1      35.486  29.960  27.404  1.00  0.00    -0.744 OA
ENDBRANCH  44  47
ENDBRANCH  26  40
BRANCH  27  51
ATOM     51  C   UNL A   1      48.444  27.318  25.872  1.00  0.00     0.023 A 
ATOM     52  C   UNL A   1      49.533  26.896  26.658  1.00  0.00     0.012 A 
ATOM     53  C   UNL A   1      48.627  27.501  24.487  1.00  0.00     0.148 A 
ATOM     54  C   UNL A   1      50.787  26.689  26.081  1.00  0.00     0.002 A 
ATOM     55  C   UNL A   1      49.862  27.231  23.910  1.00  0.00     0.091 A 
ATOM     56  F   UNL A   1      47.587  27.924  23.756  1.00  0.00    -0.205 F 
ATOM     57  C   UNL A   1      50.948  26.842  24.706  1.00  0.00     0.022 A 
BRANCH  55  58
ATOM     58  S   UNL A   1      50.095  27.263  22.129  1.00  0.00     0.127 S 
ATOM     59  O   UNL A   1      49.013  26.399  21.668  1.00  0.00    -0.237 OA
ATOM     60  O   UNL A   1      49.926  28.682  21.818  1.00  0.00    -0.237 OA
ATOM     61  O   UNL A   1      51.450  26.768  21.916  1.00  0.00    -0.744 OA
ENDBRANCH  55  58
ENDBRANCH  27  51
BRANCH  39  62
ATOM     62  C   UNL A   1      45.302  32.806  28.811  1.00  0.00     0.023 A 
ATOM     63  C   UNL A   1      45.001  33.766  27.825  1.00  0.00     0.012 A 
ATOM     64  C   UNL A   1      45.947  33.209  29.996  1.00  0.00     0.148 A 
ATOM     65  C   UNL A   1      45.364  35.100  27.999  1.00  0.00     0.002 A 
ATOM     66  C   UNL A   1      46.266  34.548  30.183  1.00  0.00     0.091 A 
ATOM     67  F   UNL A   1      46.242  32.276  30.913  1.00  0.00    -0.205 F 
ATOM     68  C   UNL A   1      45.986  35.492  29.182  1.00  0.00     0.022 A 
BRANCH  66  69
ATOM     69  S   UNL A   1      46.988  35.160  31.710  1.00  0.00     0.127 S 
ATOM     70  O   UNL A   1      45.989  34.756  32.697  1.00  0.00    -0.237 OA
ATOM     71  O   UNL A   1      48.249  34.420  31.777  1.00  0.00    -0.237 OA
ATOM     72  O   UNL A   1      47.143  36.598  31.530  1.00  0.00    -0.744 OA
ENDBRANCH  66  69
ENDBRANCH  39  62
ENDBRANCH  13  14
ENDBRANCH   6   8
ENDBRANCH   3   4
ENDBRANCH   2   3
ENDBRANCH   1   2
BRANCH   1  73
ATOM     73  C   UNL A   1      37.069  21.811  24.112  1.00  0.00     0.002 C 
BRANCH  73  74
ATOM     74  C   UNL A   1      36.929  23.110  24.914  1.00  0.00     0.021 C 
BRANCH  74  75
ATOM     75  C   UNL A   1      35.749  24.011  24.560  1.00  0.00     0.116 C 
BRANCH  75  76
ATOM     76  N   UNL A   1      34.953  23.523  23.451  1.00  0.00    -0.351 N 
ATOM     77  C   UNL A   1      33.614  23.230  23.398  1.00  0.00     0.283 C 
ATOM     78  H   UNL A   1      35.446  23.382  22.611  1.00  0.00     0.163 HD
ATOM     79  O   UNL A   1      33.142  23.053  22.269  1.00  0.00    -0.268 OA
BRANCH  77  80
ATOM     80  C   UNL A   1      32.776  23.141  24.709  1.00  0.00     0.307 C 
BRANCH  80  81
ATOM     81  N   UNL A   1      31.311  23.315  24.549  1.00  0.00    -0.318 N 
ATOM     82  C   UNL A   1      30.711  24.092  25.648  1.00  0.00     0.284 C 
ATOM     83  C   UNL A   1      30.790  23.807  23.268  1.00  0.00     0.284 C 
ATOM     84  H   UNL A   1      31.016  22.339  24.573  1.00  0.00     0.349 HD
ATOM     85  C   UNL A   1      30.919  25.615  25.529  1.00  0.00     0.178 C 
ATOM     86  C   UNL A   1      30.852  25.330  23.021  1.00  0.00     0.178 C 
ATOM     87  N   UNL A   1      30.488  26.115  24.216  1.00  0.00    -0.360 N 
BRANCH  87  88
ATOM     88  C   UNL A   1      30.263  27.478  24.048  1.00  0.00     0.038 A 
ATOM     89  C   UNL A   1      31.073  28.414  24.711  1.00  0.00     0.026 A 
ATOM     90  C   UNL A   1      29.258  27.980  23.208  1.00  0.00     0.046 A 
ATOM     91  C   UNL A   1      30.901  29.791  24.535  1.00  0.00     0.004 A 
ATOM     92  C   UNL A   1      29.069  29.356  23.049  1.00  0.00     0.043 A 
ATOM     93  C   UNL A   1      29.894  30.266  23.701  1.00  0.00     0.020 A 
ATOM     94  Cl  UNL A   1      27.791  29.927  22.046  1.00  0.00    -0.084 Cl
ENDBRANCH  87  88
ENDBRANCH  80  81
BRANCH  80  95
ATOM     95  C   UNL A   1      32.961  21.777  25.361  1.00  0.00     0.044 A 
ATOM     96  C   UNL A   1      33.343  21.538  26.673  1.00  0.00     0.094 A 
ATOM     97  C   UNL A   1      32.813  20.487  24.747  1.00  0.00     0.011 A 
ATOM     98  N   UNL A   1      33.424  20.192  26.871  1.00  0.00    -0.361 N 
ATOM     99  C   UNL A   1      33.114  19.522  25.713  1.00  0.00     0.046 A 
ATOM    100  C   UNL A   1      32.462  20.044  23.453  1.00  0.00     0.031 A 
ATOM    101  H   UNL A   1      33.670  19.762  27.723  1.00  0.00     0.166 HD
ATOM    102  C   UNL A   1      33.084  18.146  25.458  1.00  0.00     0.028 A 
ATOM    103  C   UNL A   1      32.430  18.671  23.186  1.00  0.00     0.041 A 
ATOM    104  C   UNL A   1      32.736  17.734  24.169  1.00  0.00     0.022 A 
ATOM    105  Cl  UNL A   1      32.006  18.128  21.606  1.00  0.00    -0.084 Cl
ENDBRANCH  80  95
ENDBRANCH  77  80
ENDBRANCH  75  76
ENDBRANCH  74  75
ENDBRANCH  73  74
ENDBRANCH   1  73
TORSDOF 19
ENDMDL
MODEL 3
REMARK VINA RESULT:     -12.7      5.932     11.569
REMARK SMILES O=C(NCCCCCCNC(=O)[C@H](c1c[nH]c2ccc(Cl)cc12)[NH+]1CCN(c2cccc(Cl)c2)CC1)c1ccc(-c2c3nc(c(-c4cccc(S(=O)(=O)[O-])c4F)c4ccc([nH]4)c(-c4cccc(S(=O)(=O)[O-])c4F)c4nc(c(-c5cccc(S(=O)(=O)[O-])c5F)c5ccc2[nH]5)C=C4)C=C3)cc1
REMARK SMILES IDX 6 1 5 2 4 3 3 4 1 5 2 6 37 8 38 9 99 10 39 11 98 12 40 13
REMARK SMILES IDX 41 14 42 15 92 16 43 17 97 18 91 19 93 20 44 21 96 22 90 23
REMARK SMILES IDX 89 24 45 26 77 27 57 28 76 29 58 30 61 31 75 32 94 33 59 34
REMARK SMILES IDX 60 35 74 37 95 38 62 39 46 40 47 41 55 42 48 43 50 44 56 45
REMARK SMILES IDX 49 46 51 47 52 48 53 49 54 50 78 51 79 52 87 53 80 54 82 55
REMARK SMILES IDX 88 56 81 57 83 58 84 59 85 60 86 61 63 62 64 63 72 64 65 65
REMARK SMILES IDX 67 66 73 67 66 68 68 69 69 70 70 71 71 72 7 73 8 74 9 75
REMARK SMILES IDX 10 76 11 77 12 79 13 80 24 81 25 82 36 83 26 85 35 86 27 87
REMARK SMILES IDX 28 88 29 89 34 90 30 91 32 92 31 93 33 94 14 95 15 96 23 97
REMARK SMILES IDX 16 98 17 99 22 100 18 102 20 103 19 104 21 105
REMARK H PARENT 3 7 93 25 61 36 10 78 24 84 16 101
REMARK Flexibility Score: inf
ROOT
ATOM      1  C   UNL A   1      37.054  20.555  25.002  1.00  0.00     0.002 C 
ENDROOT
BRANCH   1   2
ATOM      2  C   UNL A   1      38.243  19.594  25.007  1.00  0.00     0.021 C 
BRANCH   2   3
ATOM      3  C   UNL A   1      39.477  20.067  25.761  1.00  0.00     0.116 C 
BRANCH   3   4
ATOM      4  N   UNL A   1      40.521  19.062  25.845  1.00  0.00    -0.352 N 
ATOM      5  O   UNL A   1      42.624  18.276  25.995  1.00  0.00    -0.269 OA
ATOM      6  C   UNL A   1      41.868  19.236  26.067  1.00  0.00     0.251 C 
ATOM      7  H   UNL A   1      40.225  18.130  25.728  1.00  0.00     0.163 HD
BRANCH   6   8
ATOM      8  C   UNL A   1      42.396  20.590  26.362  1.00  0.00     0.039 A 
ATOM      9  C   UNL A   1      42.851  21.424  25.336  1.00  0.00     0.014 A 
ATOM     10  C   UNL A   1      42.418  21.035  27.687  1.00  0.00     0.014 A 
ATOM     11  C   UNL A   1      43.427  22.653  25.643  1.00  0.00     0.010 A 
ATOM     12  C   UNL A   1      42.929  22.303  27.986  1.00  0.00     0.010 A 
ATOM     13  C   UNL A   1      43.449  23.115  26.968  1.00  0.00    -0.014 A 
BRANCH  13  14
ATOM     14  C   UNL A   1      43.892  24.505  27.246  1.00  0.00     0.031 A 
ATOM     15  C   UNL A   1      42.948  25.543  27.782  1.00  0.00     0.074 A 
ATOM     16  C   UNL A   1      45.172  24.825  26.971  1.00  0.00     0.049 A 
ATOM     17  N   UNL A   1      43.190  26.796  28.069  1.00  0.00    -0.248 NA
ATOM     18  C   UNL A   1      41.554  25.134  28.017  1.00  0.00     0.031 C 
ATOM     19  C   UNL A   1      46.159  23.911  26.389  1.00  0.00     0.029 A 
ATOM     20  N   UNL A   1      45.860  26.002  27.122  1.00  0.00    -0.354 N 
ATOM     21  C   UNL A   1      41.978  27.339  28.478  1.00  0.00     0.074 A 
ATOM     22  C   UNL A   1      40.998  26.276  28.407  1.00  0.00     0.031 C 
ATOM     23  C   UNL A   1      47.325  24.556  26.239  1.00  0.00     0.029 A 
ATOM     24  C   UNL A   1      47.157  25.939  26.667  1.00  0.00     0.049 A 
ATOM     25  H   UNL A   1      45.465  26.811  27.518  1.00  0.00     0.167 HD
ATOM     26  C   UNL A   1      41.717  28.604  28.886  1.00  0.00     0.034 A 
ATOM     27  C   UNL A   1      48.101  26.895  26.576  1.00  0.00     0.034 A 
ATOM     28  C   UNL A   1      42.711  29.640  28.998  1.00  0.00     0.049 A 
ATOM     29  C   UNL A   1      47.782  28.277  27.065  1.00  0.00     0.074 A 
ATOM     30  C   UNL A   1      42.563  30.919  29.506  1.00  0.00     0.029 A 
ATOM     31  N   UNL A   1      44.028  29.527  28.583  1.00  0.00    -0.354 N 
ATOM     32  N   UNL A   1      46.677  28.722  27.613  1.00  0.00    -0.248 NA
ATOM     33  C   UNL A   1      48.845  29.284  26.947  1.00  0.00     0.031 C 
ATOM     34  C   UNL A   1      43.783  31.589  29.373  1.00  0.00     0.029 A 
ATOM     35  C   UNL A   1      44.697  30.721  28.798  1.00  0.00     0.049 A 
ATOM     36  H   UNL A   1      44.429  28.718  28.192  1.00  0.00     0.167 HD
ATOM     37  C   UNL A   1      46.915  30.055  27.918  1.00  0.00     0.074 A 
ATOM     38  C   UNL A   1      48.283  30.335  27.530  1.00  0.00     0.031 C 
ATOM     39  C   UNL A   1      46.070  30.973  28.445  1.00  0.00     0.034 A 
BRANCH  26  40
ATOM     40  C   UNL A   1      40.308  28.950  29.292  1.00  0.00     0.023 A 
ATOM     41  C   UNL A   1      39.347  29.224  28.300  1.00  0.00     0.012 A 
ATOM     42  C   UNL A   1      39.910  28.877  30.643  1.00  0.00     0.148 A 
ATOM     43  C   UNL A   1      38.010  29.430  28.645  1.00  0.00     0.002 A 
ATOM     44  C   UNL A   1      38.570  29.049  30.975  1.00  0.00     0.091 A 
ATOM     45  F   UNL A   1      40.843  28.629  31.571  1.00  0.00    -0.205 F 
ATOM     46  C   UNL A   1      37.621  29.330  29.979  1.00  0.00     0.022 A 
BRANCH  44  47
ATOM     47  S   UNL A   1      37.951  28.870  32.652  1.00  0.00     0.127 S 
ATOM     48  O   UNL A   1      36.584  29.374  32.517  1.00  0.00    -0.237 OA
ATOM     49  O   UNL A   1      38.049  27.426  32.864  1.00  0.00    -0.237 OA
ATOM     50  O   UNL A   1      38.828  29.671  33.495  1.00  0.00    -0.744 OA
ENDBRANCH  44  47
ENDBRANCH  26  40
BRANCH  27  51
ATOM     51  C   UNL A   1      49.441  26.562  26.017  1.00  0.00     0.023 A 
ATOM     52  C   UNL A   1      50.319  25.746  26.755  1.00  0.00     0.012 A 
ATOM     53  C   UNL A   1      49.836  27.021  24.746  1.00  0.00     0.148 A 
ATOM     54  C   UNL A   1      51.577  25.417  26.249  1.00  0.00     0.002 A 
ATOM     55  C   UNL A   1      51.064  26.638  24.221  1.00  0.00     0.091 A 
ATOM     56  F   UNL A   1      48.998  27.816  24.065  1.00  0.00    -0.205 F 
ATOM     57  C   UNL A   1      51.945  25.851  24.977  1.00  0.00     0.022 A 
BRANCH  55  58
ATOM     58  S   UNL A   1      51.533  27.036  22.533  1.00  0.00     0.127 S 
ATOM     59  O   UNL A   1      51.817  28.466  22.628  1.00  0.00    -0.237 OA
ATOM     60  O   UNL A   1      52.706  26.188  22.327  1.00  0.00    -0.237 OA
ATOM     61  O   UNL A   1      50.381  26.662  21.723  1.00  0.00    -0.744 OA
ENDBRANCH  55  58
ENDBRANCH  27  51
BRANCH  39  62
ATOM     62  C   UNL A   1      46.599  32.369  28.634  1.00  0.00     0.023 A 
ATOM     63  C   UNL A   1      47.158  32.733  29.874  1.00  0.00     0.012 A 
ATOM     64  C   UNL A   1      46.598  33.297  27.574  1.00  0.00     0.148 A 
ATOM     65  C   UNL A   1      47.679  34.011  30.069  1.00  0.00     0.002 A 
ATOM     66  C   UNL A   1      47.159  34.553  27.762  1.00  0.00     0.091 A 
ATOM     67  F   UNL A   1      46.043  32.936  26.408  1.00  0.00    -0.205 F 
ATOM     68  C   UNL A   1      47.689  34.916  29.011  1.00  0.00     0.022 A 
BRANCH  66  69
ATOM     69  S   UNL A   1      47.296  35.754  26.433  1.00  0.00     0.127 S 
ATOM     70  O   UNL A   1      47.852  36.911  27.131  1.00  0.00    -0.237 OA
ATOM     71  O   UNL A   1      48.221  35.094  25.511  1.00  0.00    -0.237 OA
ATOM     72  O   UNL A   1      45.947  35.928  25.911  1.00  0.00    -0.744 OA
ENDBRANCH  66  69
ENDBRANCH  39  62
ENDBRANCH  13  14
ENDBRANCH   6   8
ENDBRANCH   3   4
ENDBRANCH   2   3
ENDBRANCH   1   2
BRANCH   1  73
ATOM     73  C   UNL A   1      37.370  22.028  24.732  1.00  0.00     0.002 C 
BRANCH  73  74
ATOM     74  C   UNL A   1      36.541  23.069  25.494  1.00  0.00     0.021 C 
BRANCH  74  75
ATOM     75  C   UNL A   1      35.780  24.090  24.651  1.00  0.00     0.116 C 
BRANCH  75  76
ATOM     76  N   UNL A   1      35.067  23.509  23.531  1.00  0.00    -0.351 N 
ATOM     77  C   UNL A   1      33.745  23.158  23.423  1.00  0.00     0.283 C 
ATOM     78  H   UNL A   1      35.612  23.343  22.729  1.00  0.00     0.163 HD
ATOM     79  O   UNL A   1      33.344  22.900  22.283  1.00  0.00    -0.268 OA
BRANCH  77  80
ATOM     80  C   UNL A   1      32.840  23.106  24.691  1.00  0.00     0.307 C 
BRANCH  80  81
ATOM     81  N   UNL A   1      31.390  23.321  24.454  1.00  0.00    -0.318 N 
ATOM     82  C   UNL A   1      30.740  24.049  25.557  1.00  0.00     0.284 C 
ATOM     83  C   UNL A   1      30.956  23.892  23.173  1.00  0.00     0.284 C 
ATOM     84  H   UNL A   1      31.077  22.351  24.407  1.00  0.00     0.349 HD
ATOM     85  C   UNL A   1      30.982  25.572  25.534  1.00  0.00     0.178 C 
ATOM     86  C   UNL A   1      31.061  25.424  23.015  1.00  0.00     0.178 C 
ATOM     87  N   UNL A   1      30.640  26.151  24.228  1.00  0.00    -0.360 N 
BRANCH  87  88
ATOM     88  C   UNL A   1      30.450  27.526  24.123  1.00  0.00     0.038 A 
ATOM     89  C   UNL A   1      29.556  28.045  23.173  1.00  0.00     0.026 A 
ATOM     90  C   UNL A   1      31.105  28.444  24.956  1.00  0.00     0.046 A 
ATOM     91  C   UNL A   1      29.311  29.418  23.066  1.00  0.00     0.004 A 
ATOM     92  C   UNL A   1      30.881  29.819  24.836  1.00  0.00     0.043 A 
ATOM     93  C   UNL A   1      29.977  30.311  23.900  1.00  0.00     0.020 A 
ATOM     94  Cl  UNL A   1      31.744  30.913  25.847  1.00  0.00    -0.084 Cl
ENDBRANCH  87  88
ENDBRANCH  80  81
BRANCH  80  95
ATOM     95  C   UNL A   1      32.952  21.745  25.363  1.00  0.00     0.044 A 
ATOM     96  C   UNL A   1      33.260  21.509  26.695  1.00  0.00     0.094 A 
ATOM     97  C   UNL A   1      32.797  20.453  24.754  1.00  0.00     0.011 A 
ATOM     98  N   UNL A   1      33.291  20.163  26.910  1.00  0.00    -0.361 N 
ATOM     99  C   UNL A   1      33.020  19.490  25.743  1.00  0.00     0.046 A 
ATOM    100  C   UNL A   1      32.498  20.007  23.448  1.00  0.00     0.031 A 
ATOM    101  H   UNL A   1      33.482  19.735  27.776  1.00  0.00     0.166 HD
ATOM    102  C   UNL A   1      32.963  18.112  25.500  1.00  0.00     0.028 A 
ATOM    103  C   UNL A   1      32.439  18.632  23.193  1.00  0.00     0.041 A 
ATOM    104  C   UNL A   1      32.667  17.698  24.199  1.00  0.00     0.022 A 
ATOM    105  Cl  UNL A   1      32.079  18.085  21.599  1.00  0.00    -0.084 Cl
ENDBRANCH  80  95
ENDBRANCH  77  80
ENDBRANCH  75  76
ENDBRANCH  74  75
ENDBRANCH  73  74
ENDBRANCH   1  73
TORSDOF 19
ENDMDL
