MODEL 1
REMARK VINA RESULT:     -12.4      0.000      0.000
REMARK SMILES CC[C@@H](C)c1ccccc1NC(=O)[C@@H]1[C@@H](C(=O)NCCCCCCNC(=O)c2ccc(-c3c4nc(c(-c5cccc(S(=O)(=O)[O-])c5F)c5ccc([nH]5)c(-c5cccc(S(=O)(=O)[O-])c5F)c5nc(c(-c6cccc(S(=O)(=O)[O-])c6F)c6ccc3[nH]6)C=C5)C=C4)cc2)[C@@H]2C=C[C@H]1C2
REMARK SMILES IDX 21 1 20 2 19 3 18 4 16 5 17 6 15 8 14 9 94 10 91 11 93 12
REMARK SMILES IDX 95 13 92 14 12 15 11 16 13 18 10 19 5 20 6 21 7 22 9 23 8 24
REMARK SMILES IDX 3 25 4 26 2 27 1 28 22 29 23 30 24 31 25 32 26 33 27 35
REMARK SMILES IDX 28 36 29 37 90 38 30 39 89 40 31 41 32 42 33 43 83 44 34 45
REMARK SMILES IDX 88 46 82 47 84 48 35 49 87 50 81 51 80 52 36 54 68 55 48 56
REMARK SMILES IDX 67 57 49 58 52 59 66 60 85 61 50 62 51 63 65 65 86 66 53 67
REMARK SMILES IDX 37 68 38 69 46 70 39 71 41 72 47 73 40 74 42 75 43 76 44 77
REMARK SMILES IDX 45 78 69 79 70 80 78 81 71 82 73 83 79 84 72 85 74 86 75 87
REMARK SMILES IDX 76 88 77 89 54 90 55 91 63 92 56 93 58 94 64 95 57 96 59 97
REMARK SMILES IDX 60 98 61 99 62 100
REMARK H PARENT 18 7 11 17 25 34 84 53 52 64
REMARK Flexibility Score: inf
ROOT
ATOM      1  C   UNL A   1      29.885  27.922  23.671  1.00  0.00     0.002 C 
ENDROOT
BRANCH   1   2
ATOM      2  C   UNL A   1      29.178  26.563  23.643  1.00  0.00     0.021 C 
BRANCH   2   3
ATOM      3  C   UNL A   1      30.059  25.351  23.937  1.00  0.00     0.116 C 
BRANCH   3   4
ATOM      4  N   UNL A   1      29.948  24.882  25.307  1.00  0.00    -0.356 N 
ATOM      5  C   UNL A   1      30.875  24.261  26.091  1.00  0.00     0.224 C 
ATOM      6  O   UNL A   1      30.588  24.052  27.268  1.00  0.00    -0.275 OA
ATOM      7  H   UNL A   1      29.073  25.035  25.732  1.00  0.00     0.163 HD
BRANCH   5   8
ATOM      8  C   UNL A   1      32.182  23.813  25.450  1.00  0.00     0.098 C 
ATOM      9  C   UNL A   1      33.220  23.277  26.467  1.00  0.00     0.099 C 
ATOM     10  C   UNL A   1      34.394  24.291  26.336  1.00  0.00     0.025 C 
ATOM     11  C   UNL A   1      32.939  25.016  24.808  1.00  0.00     0.025 C 
ATOM     12  C   UNL A   1      35.048  24.098  24.992  1.00  0.00    -0.027 C 
ATOM     13  C   UNL A   1      33.648  25.597  26.033  1.00  0.00     0.017 C 
ATOM     14  C   UNL A   1      34.176  24.537  24.072  1.00  0.00    -0.027 C 
BRANCH   9  15
ATOM     15  C   UNL A   1      33.735  21.838  26.531  1.00  0.00     0.228 C 
ATOM     16  N   UNL A   1      33.619  20.788  25.686  1.00  0.00    -0.326 N 
ATOM     17  H   UNL A   1      33.924  19.970  26.141  1.00  0.00     0.169 HD
ATOM     18  O   UNL A   1      34.337  21.532  27.582  1.00  0.00    -0.274 OA
BRANCH  16  19
ATOM     19  C   UNL A   1      33.210  20.467  24.378  1.00  0.00     0.044 A 
ATOM     20  C   UNL A   1      33.036  19.123  23.951  1.00  0.00    -0.022 A 
ATOM     21  C   UNL A   1      32.233  18.924  22.791  1.00  0.00     0.006 A 
ATOM     22  C   UNL A   1      31.756  19.976  22.013  1.00  0.00     0.000 A 
ATOM     23  C   UNL A   1      32.946  21.464  23.445  1.00  0.00     0.026 A 
ATOM     24  C   UNL A   1      32.186  21.250  22.298  1.00  0.00     0.002 A 
BRANCH  20  25
ATOM     25  C   UNL A   1      33.843  17.878  24.427  1.00  0.00     0.018 C 
ATOM     26  C   UNL A   1      34.279  16.954  23.270  1.00  0.00     0.013 C 
BRANCH  25  27
ATOM     27  C   UNL A   1      33.299  17.031  25.601  1.00  0.00     0.005 C 
ATOM     28  C   UNL A   1      32.790  15.641  25.232  1.00  0.00     0.004 C 
ENDBRANCH  25  27
ENDBRANCH  20  25
ENDBRANCH  16  19
ENDBRANCH   9  15
ENDBRANCH   5   8
ENDBRANCH   3   4
ENDBRANCH   2   3
ENDBRANCH   1   2
BRANCH   1  29
ATOM     29  C   UNL A   1      31.027  28.060  24.681  1.00  0.00     0.002 C 
BRANCH  29  30
ATOM     30  C   UNL A   1      32.124  29.056  24.307  1.00  0.00     0.021 C 
BRANCH  30  31
ATOM     31  C   UNL A   1      33.011  29.508  25.462  1.00  0.00     0.116 C 
BRANCH  31  32
ATOM     32  N   UNL A   1      32.635  30.815  25.975  1.00  0.00    -0.352 N 
ATOM     33  C   UNL A   1      33.185  31.546  26.999  1.00  0.00     0.251 C 
ATOM     34  H   UNL A   1      31.871  31.240  25.521  1.00  0.00     0.163 HD
ATOM     35  O   UNL A   1      32.619  32.562  27.390  1.00  0.00    -0.269 OA
BRANCH  33  36
ATOM     36  C   UNL A   1      34.444  31.106  27.640  1.00  0.00     0.039 A 
ATOM     37  C   UNL A   1      35.397  32.071  27.975  1.00  0.00     0.014 A 
ATOM     38  C   UNL A   1      34.698  29.755  27.897  1.00  0.00     0.014 A 
ATOM     39  C   UNL A   1      36.581  31.686  28.610  1.00  0.00     0.010 A 
ATOM     40  C   UNL A   1      35.843  29.382  28.601  1.00  0.00     0.010 A 
ATOM     41  C   UNL A   1      36.800  30.342  28.957  1.00  0.00    -0.014 A 
BRANCH  41  42
ATOM     42  C   UNL A   1      38.020  29.943  29.708  1.00  0.00     0.031 A 
ATOM     43  C   UNL A   1      38.273  30.458  31.100  1.00  0.00     0.074 A 
ATOM     44  C   UNL A   1      38.936  29.155  29.108  1.00  0.00     0.049 A 
ATOM     45  N   UNL A   1      39.272  30.198  31.904  1.00  0.00    -0.248 NA
ATOM     46  C   UNL A   1      37.292  31.406  31.654  1.00  0.00     0.031 C 
ATOM     47  C   UNL A   1      38.854  28.664  27.731  1.00  0.00     0.029 A 
ATOM     48  N   UNL A   1      40.120  28.641  29.573  1.00  0.00    -0.354 N 
ATOM     49  C   UNL A   1      39.057  30.967  33.042  1.00  0.00     0.074 A 
ATOM     50  C   UNL A   1      37.853  31.734  32.809  1.00  0.00     0.031 C 
ATOM     51  C   UNL A   1      39.931  27.907  27.468  1.00  0.00     0.029 A 
ATOM     52  C   UNL A   1      40.792  27.879  28.647  1.00  0.00     0.049 A 
ATOM     53  H   UNL A   1      40.457  28.803  30.484  1.00  0.00     0.167 HD
ATOM     54  C   UNL A   1      39.777  31.007  34.190  1.00  0.00     0.034 A 
ATOM     55  C   UNL A   1      41.969  27.228  28.734  1.00  0.00     0.034 A 
ATOM     56  C   UNL A   1      40.953  30.217  34.433  1.00  0.00     0.049 A 
ATOM     57  C   UNL A   1      42.722  27.251  30.036  1.00  0.00     0.074 A 
ATOM     58  C   UNL A   1      41.701  30.121  35.594  1.00  0.00     0.029 A 
ATOM     59  N   UNL A   1      41.563  29.396  33.497  1.00  0.00    -0.354 N 
ATOM     60  N   UNL A   1      42.409  27.848  31.160  1.00  0.00    -0.248 NA
ATOM     61  C   UNL A   1      43.969  26.475  30.094  1.00  0.00     0.031 C 
ATOM     62  C   UNL A   1      42.779  29.262  35.351  1.00  0.00     0.029 A 
ATOM     63  C   UNL A   1      42.685  28.798  34.050  1.00  0.00     0.049 A 
ATOM     64  H   UNL A   1      41.246  29.256  32.576  1.00  0.00     0.167 HD
ATOM     65  C   UNL A   1      43.401  27.496  32.067  1.00  0.00     0.074 A 
ATOM     66  C   UNL A   1      44.308  26.609  31.369  1.00  0.00     0.031 C 
ATOM     67  C   UNL A   1      43.558  27.884  33.358  1.00  0.00     0.034 A 
BRANCH  54  68
ATOM     68  C   UNL A   1      39.279  31.904  35.297  1.00  0.00     0.023 A 
ATOM     69  C   UNL A   1      38.333  31.411  36.219  1.00  0.00     0.012 A 
ATOM     70  C   UNL A   1      39.789  33.206  35.461  1.00  0.00     0.148 A 
ATOM     71  C   UNL A   1      37.875  32.212  37.265  1.00  0.00     0.002 A 
ATOM     72  C   UNL A   1      39.363  33.981  36.535  1.00  0.00     0.091 A 
ATOM     73  F   UNL A   1      40.673  33.667  34.565  1.00  0.00    -0.205 F 
ATOM     74  C   UNL A   1      38.398  33.490  37.429  1.00  0.00     0.022 A 
BRANCH  72  75
ATOM     75  S   UNL A   1      40.032  35.612  36.881  1.00  0.00     0.127 S 
ATOM     76  O   UNL A   1      39.355  35.950  38.132  1.00  0.00    -0.237 OA
ATOM     77  O   UNL A   1      41.462  35.336  37.017  1.00  0.00    -0.237 OA
ATOM     78  O   UNL A   1      39.680  36.443  35.735  1.00  0.00    -0.744 OA
ENDBRANCH  72  75
ENDBRANCH  54  68
BRANCH  55  79
ATOM     79  C   UNL A   1      42.471  26.439  27.573  1.00  0.00     0.023 A 
ATOM     80  C   UNL A   1      43.313  27.053  26.628  1.00  0.00     0.012 A 
ATOM     81  C   UNL A   1      42.139  25.079  27.417  1.00  0.00     0.148 A 
ATOM     82  C   UNL A   1      43.788  26.338  25.528  1.00  0.00     0.002 A 
ATOM     83  C   UNL A   1      42.663  24.357  26.352  1.00  0.00     0.091 A 
ATOM     84  F   UNL A   1      41.326  24.516  28.324  1.00  0.00    -0.205 F 
ATOM     85  C   UNL A   1      43.472  24.989  25.395  1.00  0.00     0.022 A 
BRANCH  83  86
ATOM     86  S   UNL A   1      42.418  22.586  26.178  1.00  0.00     0.127 S 
ATOM     87  O   UNL A   1      43.061  22.074  27.384  1.00  0.00    -0.237 OA
ATOM     88  O   UNL A   1      40.958  22.484  26.166  1.00  0.00    -0.237 OA
ATOM     89  O   UNL A   1      43.053  22.223  24.917  1.00  0.00    -0.744 OA
ENDBRANCH  83  86
ENDBRANCH  55  79
BRANCH  67  90
ATOM     90  C   UNL A   1      44.738  27.328  34.112  1.00  0.00     0.023 A 
ATOM     91  C   UNL A   1      45.964  28.024  34.110  1.00  0.00     0.012 A 
ATOM     92  C   UNL A   1      44.620  26.142  34.862  1.00  0.00     0.148 A 
ATOM     93  C   UNL A   1      47.065  27.524  34.805  1.00  0.00     0.002 A 
ATOM     94  C   UNL A   1      45.705  25.678  35.596  1.00  0.00     0.091 A 
ATOM     95  F   UNL A   1      43.452  25.482  34.838  1.00  0.00    -0.205 F 
ATOM     96  C   UNL A   1      46.933  26.359  35.556  1.00  0.00     0.022 A 
BRANCH  94  97
ATOM     97  S   UNL A   1      45.598  24.240  36.667  1.00  0.00     0.127 S 
ATOM     98  O   UNL A   1      46.996  24.046  37.047  1.00  0.00    -0.237 OA
ATOM     99  O   UNL A   1      44.734  24.720  37.747  1.00  0.00    -0.237 OA
ATOM    100  O   UNL A   1      45.015  23.180  35.856  1.00  0.00    -0.744 OA
ENDBRANCH  94  97
ENDBRANCH  67  90
ENDBRANCH  41  42
ENDBRANCH  33  36
ENDBRANCH  31  32
ENDBRANCH  30  31
ENDBRANCH  29  30
ENDBRANCH   1  29
TORSDOF 20
ENDMDL
MODEL 2
REMARK VINA RESULT:     -12.4      5.317      8.881
REMARK SMILES CC[C@@H](C)c1ccccc1NC(=O)[C@@H]1[C@@H](C(=O)NCCCCCCNC(=O)c2ccc(-c3c4nc(c(-c5cccc(S(=O)(=O)[O-])c5F)c5ccc([nH]5)c(-c5cccc(S(=O)(=O)[O-])c5F)c5nc(c(-c6cccc(S(=O)(=O)[O-])c6F)c6ccc3[nH]6)C=C5)C=C4)cc2)[C@@H]2C=C[C@H]1C2
REMARK SMILES IDX 21 1 20 2 19 3 18 4 16 5 17 6 15 8 14 9 94 10 91 11 93 12
REMARK SMILES IDX 95 13 92 14 12 15 11 16 13 18 10 19 5 20 6 21 7 22 9 23 8 24
REMARK SMILES IDX 3 25 4 26 2 27 1 28 22 29 23 30 24 31 25 32 26 33 27 35
REMARK SMILES IDX 28 36 29 37 90 38 30 39 89 40 31 41 32 42 33 43 83 44 34 45
REMARK SMILES IDX 88 46 82 47 84 48 35 49 87 50 81 51 80 52 36 54 68 55 48 56
REMARK SMILES IDX 67 57 49 58 52 59 66 60 85 61 50 62 51 63 65 65 86 66 53 67
REMARK SMILES IDX 37 68 38 69 46 70 39 71 41 72 47 73 40 74 42 75 43 76 44 77
REMARK SMILES IDX 45 78 69 79 70 80 78 81 71 82 73 83 79 84 72 85 74 86 75 87
REMARK SMILES IDX 76 88 77 89 54 90 55 91 63 92 56 93 58 94 64 95 57 96 59 97
REMARK SMILES IDX 60 98 61 99 62 100
REMARK H PARENT 18 7 11 17 25 34 84 53 52 64
REMARK Flexibility Score: inf
ROOT
ATOM      1  C   UNL A   1      36.833  21.488  24.427  1.00  0.00     0.002 C 
ENDROOT
BRANCH   1   2
ATOM      2  C   UNL A   1      37.404  22.660  25.232  1.00  0.00     0.021 C 
BRANCH   2   3
ATOM      3  C   UNL A   1      36.375  23.594  25.864  1.00  0.00     0.116 C 
BRANCH   3   4
ATOM      4  N   UNL A   1      35.614  22.969  26.932  1.00  0.00    -0.356 N 
ATOM      5  C   UNL A   1      34.284  22.680  26.998  1.00  0.00     0.224 C 
ATOM      6  O   UNL A   1      33.878  22.043  27.968  1.00  0.00    -0.275 OA
ATOM      7  H   UNL A   1      36.138  22.715  27.726  1.00  0.00     0.163 HD
BRANCH   5   8
ATOM      8  C   UNL A   1      33.372  23.213  25.900  1.00  0.00     0.098 C 
ATOM      9  C   UNL A   1      31.867  22.963  26.166  1.00  0.00     0.099 C 
ATOM     10  C   UNL A   1      31.455  22.026  24.993  1.00  0.00     0.025 C 
ATOM     11  C   UNL A   1      33.601  22.453  24.556  1.00  0.00     0.025 C 
ATOM     12  C   UNL A   1      31.485  22.818  23.712  1.00  0.00    -0.027 C 
ATOM     13  C   UNL A   1      32.737  21.210  24.778  1.00  0.00     0.017 C 
ATOM     14  C   UNL A   1      32.774  23.073  23.446  1.00  0.00    -0.027 C 
BRANCH   9  15
ATOM     15  C   UNL A   1      30.818  24.049  26.402  1.00  0.00     0.228 C 
ATOM     16  N   UNL A   1      30.686  25.310  25.930  1.00  0.00    -0.326 N 
ATOM     17  H   UNL A   1      29.985  25.777  26.440  1.00  0.00     0.169 HD
ATOM     18  O   UNL A   1      29.926  23.762  27.230  1.00  0.00    -0.274 OA
BRANCH  16  19
ATOM     19  C   UNL A   1      31.209  26.182  24.957  1.00  0.00     0.044 A 
ATOM     20  C   UNL A   1      32.417  26.902  25.160  1.00  0.00    -0.022 A 
ATOM     21  C   UNL A   1      33.064  27.399  23.992  1.00  0.00     0.006 A 
ATOM     22  C   UNL A   1      32.494  27.330  22.724  1.00  0.00     0.000 A 
ATOM     23  C   UNL A   1      30.564  26.366  23.739  1.00  0.00     0.026 A 
ATOM     24  C   UNL A   1      31.198  26.883  22.612  1.00  0.00     0.002 A 
BRANCH  20  25
ATOM     25  C   UNL A   1      32.962  27.450  26.512  1.00  0.00     0.018 C 
ATOM     26  C   UNL A   1      31.871  28.090  27.397  1.00  0.00     0.013 C 
BRANCH  25  27
ATOM     27  C   UNL A   1      34.227  28.341  26.509  1.00  0.00     0.005 C 
ATOM     28  C   UNL A   1      34.129  29.628  27.324  1.00  0.00     0.004 C 
ENDBRANCH  25  27
ENDBRANCH  20  25
ENDBRANCH  16  19
ENDBRANCH   9  15
ENDBRANCH   5   8
ENDBRANCH   3   4
ENDBRANCH   2   3
ENDBRANCH   1   2
BRANCH   1  29
ATOM     29  C   UNL A   1      37.081  20.094  25.011  1.00  0.00     0.002 C 
BRANCH  29  30
ATOM     30  C   UNL A   1      38.517  19.579  24.904  1.00  0.00     0.021 C 
BRANCH  30  31
ATOM     31  C   UNL A   1      39.384  19.819  26.135  1.00  0.00     0.116 C 
BRANCH  31  32
ATOM     32  N   UNL A   1      40.586  19.001  26.137  1.00  0.00    -0.352 N 
ATOM     33  C   UNL A   1      41.905  19.380  26.177  1.00  0.00     0.251 C 
ATOM     34  H   UNL A   1      40.431  18.029  26.104  1.00  0.00     0.163 HD
ATOM     35  O   UNL A   1      42.783  18.541  26.004  1.00  0.00    -0.269 OA
BRANCH  33  36
ATOM     36  C   UNL A   1      42.270  20.796  26.410  1.00  0.00     0.039 A 
ATOM     37  C   UNL A   1      42.537  21.211  27.717  1.00  0.00     0.014 A 
ATOM     38  C   UNL A   1      42.333  21.716  25.359  1.00  0.00     0.014 A 
ATOM     39  C   UNL A   1      42.914  22.534  27.961  1.00  0.00     0.010 A 
ATOM     40  C   UNL A   1      42.785  23.013  25.593  1.00  0.00     0.010 A 
ATOM     41  C   UNL A   1      43.072  23.439  26.898  1.00  0.00    -0.014 A 
BRANCH  41  42
ATOM     42  C   UNL A   1      43.554  24.824  27.146  1.00  0.00     0.031 A 
ATOM     43  C   UNL A   1      42.622  25.883  27.670  1.00  0.00     0.074 A 
ATOM     44  C   UNL A   1      44.829  25.143  26.842  1.00  0.00     0.049 A 
ATOM     45  N   UNL A   1      42.878  27.133  27.960  1.00  0.00    -0.248 NA
ATOM     46  C   UNL A   1      41.215  25.500  27.872  1.00  0.00     0.031 C 
ATOM     47  C   UNL A   1      45.807  24.233  26.242  1.00  0.00     0.029 A 
ATOM     48  N   UNL A   1      45.516  26.322  26.981  1.00  0.00    -0.354 N 
ATOM     49  C   UNL A   1      41.666  27.691  28.351  1.00  0.00     0.074 A 
ATOM     50  C   UNL A   1      40.666  26.654  28.223  1.00  0.00     0.031 C 
ATOM     51  C   UNL A   1      46.971  24.880  26.081  1.00  0.00     0.029 A 
ATOM     52  C   UNL A   1      46.817  26.257  26.540  1.00  0.00     0.049 A 
ATOM     53  H   UNL A   1      45.115  27.138  27.359  1.00  0.00     0.167 HD
ATOM     54  C   UNL A   1      41.413  28.943  28.806  1.00  0.00     0.034 A 
ATOM     55  C   UNL A   1      47.780  27.199  26.510  1.00  0.00     0.034 A 
ATOM     56  C   UNL A   1      42.416  29.961  28.966  1.00  0.00     0.049 A 
ATOM     57  C   UNL A   1      47.486  28.565  27.067  1.00  0.00     0.074 A 
ATOM     58  C   UNL A   1      42.276  31.230  29.501  1.00  0.00     0.029 A 
ATOM     59  N   UNL A   1      43.741  29.835  28.581  1.00  0.00    -0.354 N 
ATOM     60  N   UNL A   1      46.374  29.020  27.593  1.00  0.00    -0.248 NA
ATOM     61  C   UNL A   1      48.590  29.535  27.064  1.00  0.00     0.031 C 
ATOM     62  C   UNL A   1      43.512  31.881  29.415  1.00  0.00     0.029 A 
ATOM     63  C   UNL A   1      44.429  31.007  28.856  1.00  0.00     0.049 A 
ATOM     64  H   UNL A   1      44.138  29.032  28.173  1.00  0.00     0.167 HD
ATOM     65  C   UNL A   1      46.653  30.315  28.012  1.00  0.00     0.074 A 
ATOM     66  C   UNL A   1      48.047  30.561  27.705  1.00  0.00     0.031 C 
ATOM     67  C   UNL A   1      45.827  31.226  28.585  1.00  0.00     0.034 A 
BRANCH  54  68
ATOM     68  C   UNL A   1      39.997  29.266  29.214  1.00  0.00     0.023 A 
ATOM     69  C   UNL A   1      39.034  29.548  28.223  1.00  0.00     0.012 A 
ATOM     70  C   UNL A   1      39.605  29.232  30.566  1.00  0.00     0.148 A 
ATOM     71  C   UNL A   1      37.713  29.826  28.572  1.00  0.00     0.002 A 
ATOM     72  C   UNL A   1      38.276  29.464  30.902  1.00  0.00     0.091 A 
ATOM     73  F   UNL A   1      40.536  28.982  31.497  1.00  0.00    -0.205 F 
ATOM     74  C   UNL A   1      37.332  29.773  29.909  1.00  0.00     0.022 A 
BRANCH  72  75
ATOM     75  S   UNL A   1      37.665  29.342  32.588  1.00  0.00     0.127 S 
ATOM     76  O   UNL A   1      36.303  29.853  32.446  1.00  0.00    -0.237 OA
ATOM     77  O   UNL A   1      37.754  27.905  32.844  1.00  0.00    -0.237 OA
ATOM     78  O   UNL A   1      38.559  30.161  33.399  1.00  0.00    -0.744 OA
ENDBRANCH  72  75
ENDBRANCH  54  68
BRANCH  55  79
ATOM     79  C   UNL A   1      49.138  26.859  25.998  1.00  0.00     0.023 A 
ATOM     80  C   UNL A   1      50.015  26.107  26.803  1.00  0.00     0.012 A 
ATOM     81  C   UNL A   1      49.554  27.253  24.712  1.00  0.00     0.148 A 
ATOM     82  C   UNL A   1      51.295  25.784  26.350  1.00  0.00     0.002 A 
ATOM     83  C   UNL A   1      50.808  26.878  24.245  1.00  0.00     0.091 A 
ATOM     84  F   UNL A   1      48.707  27.977  23.966  1.00  0.00    -0.205 F 
ATOM     85  C   UNL A   1      51.688  26.160  25.069  1.00  0.00     0.022 A 
BRANCH  83  86
ATOM     86  S   UNL A   1      51.343  27.202  22.561  1.00  0.00     0.127 S 
ATOM     87  O   UNL A   1      50.242  26.641  21.783  1.00  0.00    -0.237 OA
ATOM     88  O   UNL A   1      51.425  28.663  22.548  1.00  0.00    -0.237 OA
ATOM     89  O   UNL A   1      52.627  26.529  22.420  1.00  0.00    -0.744 OA
ENDBRANCH  83  86
ENDBRANCH  55  79
BRANCH  67  90
ATOM     90  C   UNL A   1      46.414  32.566  28.946  1.00  0.00     0.023 A 
ATOM     91  C   UNL A   1      46.942  32.778  30.235  1.00  0.00     0.012 A 
ATOM     92  C   UNL A   1      46.487  33.600  27.992  1.00  0.00     0.148 A 
ATOM     93  C   UNL A   1      47.492  34.011  30.584  1.00  0.00     0.002 A 
ATOM     94  C   UNL A   1      47.085  34.809  28.329  1.00  0.00     0.091 A 
ATOM     95  F   UNL A   1      45.963  33.389  26.775  1.00  0.00    -0.205 F 
ATOM     96  C   UNL A   1      47.573  35.022  29.629  1.00  0.00     0.022 A 
BRANCH  94  97
ATOM     97  S   UNL A   1      47.320  36.131  27.136  1.00  0.00     0.127 S 
ATOM     98  O   UNL A   1      47.393  37.306  28.003  1.00  0.00    -0.237 OA
ATOM     99  O   UNL A   1      48.587  35.760  26.506  1.00  0.00    -0.237 OA
ATOM    100  O   UNL A   1      46.167  36.077  26.248  1.00  0.00    -0.744 OA
ENDBRANCH  94  97
ENDBRANCH  67  90
ENDBRANCH  41  42
ENDBRANCH  33  36
ENDBRANCH  31  32
ENDBRANCH  30  31
ENDBRANCH  29  30
ENDBRANCH   1  29
TORSDOF 20
ENDMDL
MODEL 3
REMARK VINA RESULT:     -12.2      2.596      8.051
REMARK SMILES CC[C@@H](C)c1ccccc1NC(=O)[C@@H]1[C@@H](C(=O)NCCCCCCNC(=O)c2ccc(-c3c4nc(c(-c5cccc(S(=O)(=O)[O-])c5F)c5ccc([nH]5)c(-c5cccc(S(=O)(=O)[O-])c5F)c5nc(c(-c6cccc(S(=O)(=O)[O-])c6F)c6ccc3[nH]6)C=C5)C=C4)cc2)[C@@H]2C=C[C@H]1C2
REMARK SMILES IDX 21 1 20 2 19 3 18 4 16 5 17 6 15 8 14 9 94 10 91 11 93 12
REMARK SMILES IDX 95 13 92 14 12 15 11 16 13 18 10 19 5 20 6 21 7 22 9 23 8 24
REMARK SMILES IDX 3 25 4 26 2 27 1 28 22 29 23 30 24 31 25 32 26 33 27 35
REMARK SMILES IDX 28 36 29 37 90 38 30 39 89 40 31 41 32 42 33 43 83 44 34 45
REMARK SMILES IDX 88 46 82 47 84 48 35 49 87 50 81 51 80 52 36 54 68 55 48 56
REMARK SMILES IDX 67 57 49 58 52 59 66 60 85 61 50 62 51 63 65 65 86 66 53 67
REMARK SMILES IDX 37 68 38 69 46 70 39 71 41 72 47 73 40 74 42 75 43 76 44 77
REMARK SMILES IDX 45 78 69 79 70 80 78 81 71 82 73 83 79 84 72 85 74 86 75 87
REMARK SMILES IDX 76 88 77 89 54 90 55 91 63 92 56 93 58 94 64 95 57 96 59 97
REMARK SMILES IDX 60 98 61 99 62 100
REMARK H PARENT 18 7 11 17 25 34 84 53 52 64
REMARK Flexibility Score: inf
ROOT
ATOM      1  C   UNL A   1      32.896  30.186  26.635  1.00  0.00     0.002 C 
ENDROOT
BRANCH   1   2
ATOM      2  C   UNL A   1      32.811  28.687  26.941  1.00  0.00     0.021 C 
BRANCH   2   3
ATOM      3  C   UNL A   1      33.907  27.821  26.324  1.00  0.00     0.116 C 
BRANCH   3   4
ATOM      4  N   UNL A   1      34.039  28.002  24.889  1.00  0.00    -0.356 N 
ATOM      5  C   UNL A   1      33.281  27.495  23.875  1.00  0.00     0.224 C 
ATOM      6  O   UNL A   1      33.518  27.877  22.731  1.00  0.00    -0.275 OA
ATOM      7  H   UNL A   1      34.787  28.577  24.606  1.00  0.00     0.163 HD
BRANCH   5   8
ATOM      8  C   UNL A   1      32.230  26.445  24.212  1.00  0.00     0.098 C 
ATOM      9  C   UNL A   1      32.807  25.015  24.360  1.00  0.00     0.099 C 
ATOM     10  C   UNL A   1      32.109  24.236  23.207  1.00  0.00     0.025 C 
ATOM     11  C   UNL A   1      31.210  26.271  23.044  1.00  0.00     0.025 C 
ATOM     12  C   UNL A   1      30.647  24.089  23.542  1.00  0.00    -0.027 C 
ATOM     13  C   UNL A   1      31.981  25.319  22.128  1.00  0.00     0.017 C 
ATOM     14  C   UNL A   1      30.104  25.311  23.441  1.00  0.00    -0.027 C 
BRANCH   9  15
ATOM     15  C   UNL A   1      32.823  24.197  25.652  1.00  0.00     0.228 C 
ATOM     16  N   UNL A   1      32.983  22.876  25.894  1.00  0.00    -0.326 N 
ATOM     17  H   UNL A   1      32.756  22.688  26.833  1.00  0.00     0.169 HD
ATOM     18  O   UNL A   1      32.594  24.843  26.697  1.00  0.00    -0.274 OA
BRANCH  16  19
ATOM     19  C   UNL A   1      33.364  21.678  25.261  1.00  0.00     0.044 A 
ATOM     20  C   UNL A   1      34.718  21.392  24.942  1.00  0.00    -0.022 A 
ATOM     21  C   UNL A   1      35.041  20.024  24.709  1.00  0.00     0.006 A 
ATOM     22  C   UNL A   1      34.077  19.021  24.644  1.00  0.00     0.000 A 
ATOM     23  C   UNL A   1      32.421  20.711  24.931  1.00  0.00     0.026 A 
ATOM     24  C   UNL A   1      32.751  19.383  24.674  1.00  0.00     0.002 A 
BRANCH  20  25
ATOM     25  C   UNL A   1      35.821  22.416  24.540  1.00  0.00     0.018 C 
ATOM     26  C   UNL A   1      35.636  22.988  23.119  1.00  0.00     0.013 C 
BRANCH  25  27
ATOM     27  C   UNL A   1      37.307  22.054  24.773  1.00  0.00     0.005 C 
ATOM     28  C   UNL A   1      37.935  22.625  26.042  1.00  0.00     0.004 C 
ENDBRANCH  25  27
ENDBRANCH  20  25
ENDBRANCH  16  19
ENDBRANCH   9  15
ENDBRANCH   5   8
ENDBRANCH   3   4
ENDBRANCH   2   3
ENDBRANCH   1   2
BRANCH   1  29
ATOM     29  C   UNL A   1      31.579  30.863  26.246  1.00  0.00     0.002 C 
BRANCH  29  30
ATOM     30  C   UNL A   1      31.443  32.329  26.660  1.00  0.00     0.021 C 
BRANCH  30  31
ATOM     31  C   UNL A   1      32.697  32.952  27.261  1.00  0.00     0.116 C 
BRANCH  31  32
ATOM     32  N   UNL A   1      32.492  34.330  27.673  1.00  0.00    -0.352 N 
ATOM     33  C   UNL A   1      33.089  35.041  28.685  1.00  0.00     0.251 C 
ATOM     34  H   UNL A   1      31.824  34.830  27.150  1.00  0.00     0.163 HD
ATOM     35  O   UNL A   1      32.659  36.151  28.981  1.00  0.00    -0.269 OA
BRANCH  33  36
ATOM     36  C   UNL A   1      34.233  34.468  29.428  1.00  0.00     0.039 A 
ATOM     37  C   UNL A   1      33.989  33.835  30.650  1.00  0.00     0.014 A 
ATOM     38  C   UNL A   1      35.541  34.564  28.941  1.00  0.00     0.014 A 
ATOM     39  C   UNL A   1      35.047  33.258  31.356  1.00  0.00     0.010 A 
ATOM     40  C   UNL A   1      36.582  33.919  29.608  1.00  0.00     0.010 A 
ATOM     41  C   UNL A   1      36.348  33.267  30.826  1.00  0.00    -0.014 A 
BRANCH  41  42
ATOM     42  C   UNL A   1      37.460  32.580  31.535  1.00  0.00     0.031 A 
ATOM     43  C   UNL A   1      38.185  31.426  30.898  1.00  0.00     0.074 A 
ATOM     44  C   UNL A   1      37.781  32.964  32.788  1.00  0.00     0.049 A 
ATOM     45  N   UNL A   1      39.187  30.725  31.364  1.00  0.00    -0.248 NA
ATOM     46  C   UNL A   1      37.711  30.981  29.577  1.00  0.00     0.031 C 
ATOM     47  C   UNL A   1      37.094  34.007  33.553  1.00  0.00     0.029 A 
ATOM     48  N   UNL A   1      38.753  32.512  33.644  1.00  0.00    -0.354 N 
ATOM     49  C   UNL A   1      39.445  29.745  30.412  1.00  0.00     0.074 A 
ATOM     50  C   UNL A   1      38.468  29.916  29.359  1.00  0.00     0.031 C 
ATOM     51  C   UNL A   1      37.678  34.127  34.756  1.00  0.00     0.029 A 
ATOM     52  C   UNL A   1      38.761  33.154  34.859  1.00  0.00     0.049 A 
ATOM     53  H   UNL A   1      39.386  31.794  33.409  1.00  0.00     0.167 HD
ATOM     54  C   UNL A   1      40.425  28.809  30.399  1.00  0.00     0.034 A 
ATOM     55  C   UNL A   1      39.551  32.982  35.937  1.00  0.00     0.034 A 
ATOM     56  C   UNL A   1      41.417  28.664  31.430  1.00  0.00     0.049 A 
ATOM     57  C   UNL A   1      40.662  31.970  35.876  1.00  0.00     0.074 A 
ATOM     58  C   UNL A   1      42.503  27.806  31.467  1.00  0.00     0.029 A 
ATOM     59  N   UNL A   1      41.441  29.386  32.614  1.00  0.00    -0.354 N 
ATOM     60  N   UNL A   1      40.995  31.170  34.893  1.00  0.00    -0.248 NA
ATOM     61  C   UNL A   1      41.530  31.866  37.057  1.00  0.00     0.031 C 
ATOM     62  C   UNL A   1      43.167  27.990  32.684  1.00  0.00     0.029 A 
ATOM     63  C   UNL A   1      42.514  28.985  33.393  1.00  0.00     0.049 A 
ATOM     64  H   UNL A   1      40.791  30.081  32.864  1.00  0.00     0.167 HD
ATOM     65  C   UNL A   1      42.130  30.491  35.323  1.00  0.00     0.074 A 
ATOM     66  C   UNL A   1      42.442  30.997  36.643  1.00  0.00     0.031 C 
ATOM     67  C   UNL A   1      42.841  29.524  34.689  1.00  0.00     0.034 A 
BRANCH  54  68
ATOM     68  C   UNL A   1      40.505  27.896  29.201  1.00  0.00     0.023 A 
ATOM     69  C   UNL A   1      39.641  26.784  29.115  1.00  0.00     0.012 A 
ATOM     70  C   UNL A   1      41.385  28.168  28.136  1.00  0.00     0.148 A 
ATOM     71  C   UNL A   1      39.677  25.938  28.007  1.00  0.00     0.002 A 
ATOM     72  C   UNL A   1      41.382  27.347  27.014  1.00  0.00     0.091 A 
ATOM     73  F   UNL A   1      42.213  29.217  28.242  1.00  0.00    -0.205 F 
ATOM     74  C   UNL A   1      40.539  26.226  26.953  1.00  0.00     0.022 A 
BRANCH  72  75
ATOM     75  S   UNL A   1      42.398  27.675  25.568  1.00  0.00     0.127 S 
ATOM     76  O   UNL A   1      43.735  27.738  26.155  1.00  0.00    -0.237 OA
ATOM     77  O   UNL A   1      42.148  26.493  24.743  1.00  0.00    -0.237 OA
ATOM     78  O   UNL A   1      41.903  28.926  25.005  1.00  0.00    -0.744 OA
ENDBRANCH  72  75
ENDBRANCH  54  68
BRANCH  55  79
ATOM     79  C   UNL A   1      39.365  33.842  37.141  1.00  0.00     0.023 A 
ATOM     80  C   UNL A   1      39.793  35.182  37.111  1.00  0.00     0.012 A 
ATOM     81  C   UNL A   1      38.744  33.345  38.303  1.00  0.00     0.148 A 
ATOM     82  C   UNL A   1      39.640  36.004  38.228  1.00  0.00     0.002 A 
ATOM     83  C   UNL A   1      38.541  34.185  39.392  1.00  0.00     0.091 A 
ATOM     84  F   UNL A   1      38.353  32.063  38.316  1.00  0.00    -0.205 F 
ATOM     85  C   UNL A   1      39.005  35.509  39.364  1.00  0.00     0.022 A 
BRANCH  83  86
ATOM     86  S   UNL A   1      37.614  33.672  40.842  1.00  0.00     0.127 S 
ATOM     87  O   UNL A   1      37.355  34.950  41.500  1.00  0.00    -0.237 OA
ATOM     88  O   UNL A   1      36.440  33.039  40.240  1.00  0.00    -0.237 OA
ATOM     89  O   UNL A   1      38.487  32.753  41.562  1.00  0.00    -0.744 OA
ENDBRANCH  83  86
ENDBRANCH  55  79
BRANCH  67  90
ATOM     90  C   UNL A   1      44.046  28.968  35.402  1.00  0.00     0.023 A 
ATOM     91  C   UNL A   1      45.313  29.550  35.200  1.00  0.00     0.012 A 
ATOM     92  C   UNL A   1      43.915  27.899  36.310  1.00  0.00     0.148 A 
ATOM     93  C   UNL A   1      46.438  29.049  35.855  1.00  0.00     0.002 A 
ATOM     94  C   UNL A   1      45.030  27.439  37.000  1.00  0.00     0.091 A 
ATOM     95  F   UNL A   1      42.705  27.344  36.477  1.00  0.00    -0.205 F 
ATOM     96  C   UNL A   1      46.295  28.002  36.762  1.00  0.00     0.022 A 
BRANCH  94  97
ATOM     97  S   UNL A   1      44.923  26.161  38.258  1.00  0.00     0.127 S 
ATOM     98  O   UNL A   1      43.801  26.633  39.067  1.00  0.00    -0.237 OA
ATOM     99  O   UNL A   1      44.641  24.965  37.463  1.00  0.00    -0.237 OA
ATOM    100  O   UNL A   1      46.217  26.149  38.926  1.00  0.00    -0.744 OA
ENDBRANCH  94  97
ENDBRANCH  67  90
ENDBRANCH  41  42
ENDBRANCH  33  36
ENDBRANCH  31  32
ENDBRANCH  30  31
ENDBRANCH  29  30
ENDBRANCH   1  29
TORSDOF 20
ENDMDL
