MODEL 1
REMARK VINA RESULT:     -11.2      0.000      0.000
REMARK SMILES Cc1cccc(CN(C)c2ccc(C(=O)NCCCCCCNC(=O)c3ccc(-c4c5nc(c(-c6cccc(S(=O)(=O)[O-])c6F)c6ccc([nH]6)c(-c6cccc(S(=O)(=O)[O-])c6F)c6nc(c(-c7cccc(S(=O)(=O)[O-])c7F)c7ccc4[nH]7)C=C6)C=C5)cc3)cc2N)n1
REMARK SMILES IDX 19 1 18 2 17 3 16 4 14 5 15 6 13 8 10 9 11 10 90 11 12 12
REMARK SMILES IDX 89 13 8 14 9 15 7 16 6 17 1 18 2 19 3 20 92 21 4 22 5 23
REMARK SMILES IDX 91 24 20 27 21 28 22 29 23 30 24 31 25 33 26 34 27 35 88 36
REMARK SMILES IDX 28 37 87 38 29 39 30 40 31 41 81 42 32 43 86 44 80 45 82 46
REMARK SMILES IDX 33 47 85 48 79 49 78 50 34 52 66 53 46 54 65 55 47 56 50 57
REMARK SMILES IDX 64 58 83 59 48 60 49 61 63 63 84 64 51 65 35 66 36 67 44 68
REMARK SMILES IDX 37 69 39 70 45 71 38 72 40 73 41 74 42 75 43 76 67 77 68 78
REMARK SMILES IDX 76 79 69 80 71 81 77 82 70 83 72 84 73 85 74 86 75 87 52 88
REMARK SMILES IDX 53 89 61 90 54 91 56 92 62 93 55 94 57 95 58 96 59 97 60 98
REMARK H PARENT 16 7 91 25 91 26 23 32 82 51 50 62
REMARK Flexibility Score: inf
ROOT
ATOM      1  C   UNL A   1      36.096  20.767  25.531  1.00  0.00     0.002 C 
ENDROOT
BRANCH   1   2
ATOM      2  C   UNL A   1      34.752  20.828  24.797  1.00  0.00     0.021 C 
BRANCH   2   3
ATOM      3  C   UNL A   1      33.644  20.104  25.571  1.00  0.00     0.116 C 
BRANCH   3   4
ATOM      4  N   UNL A   1      33.379  20.796  26.823  1.00  0.00    -0.352 N 
ATOM      5  C   UNL A   1      32.916  22.056  27.124  1.00  0.00     0.251 C 
ATOM      6  O   UNL A   1      32.832  22.356  28.317  1.00  0.00    -0.269 OA
ATOM      7  H   UNL A   1      33.572  20.250  27.619  1.00  0.00     0.163 HD
BRANCH   5   8
ATOM      8  C   UNL A   1      32.440  23.024  26.096  1.00  0.00     0.041 A 
ATOM      9  C   UNL A   1      31.674  24.698  23.895  1.00  0.00     0.060 A 
ATOM     10  C   UNL A   1      30.987  23.510  24.210  1.00  0.00     0.029 A 
ATOM     11  C   UNL A   1      32.865  24.865  24.619  1.00  0.00     0.056 A 
ATOM     12  C   UNL A   1      31.401  22.651  25.247  1.00  0.00     0.016 A 
ATOM     13  C   UNL A   1      33.053  24.233  25.848  1.00  0.00     0.041 A 
BRANCH   9  14
ATOM     14  N   UNL A   1      31.181  25.659  23.012  1.00  0.00    -0.367 N 
ATOM     15  C   UNL A   1      31.894  25.988  21.779  1.00  0.00     0.144 C 
BRANCH  14  16
ATOM     16  C   UNL A   1      29.910  26.438  23.167  1.00  0.00     0.172 C 
BRANCH  16  17
ATOM     17  C   UNL A   1      29.937  27.891  23.646  1.00  0.00     0.060 A 
ATOM     18  C   UNL A   1      32.110  30.047  25.686  1.00  0.00     0.067 C 
ATOM     19  C   UNL A   1      31.008  29.625  24.762  1.00  0.00     0.038 A 
ATOM     20  C   UNL A   1      30.195  30.580  24.155  1.00  0.00     0.023 A 
ATOM     21  N   UNL A   1      30.875  28.291  24.543  1.00  0.00    -0.256 NA
ATOM     22  C   UNL A   1      29.179  30.153  23.313  1.00  0.00     0.004 A 
ATOM     23  C   UNL A   1      29.029  28.793  23.073  1.00  0.00     0.026 A 
ENDBRANCH  16  17
ENDBRANCH  14  16
ENDBRANCH   9  14
BRANCH  11  24
ATOM     24  N   UNL A   1      34.045  25.327  24.018  1.00  0.00    -0.397 N 
ATOM     25  H   UNL A   1      33.998  25.904  23.221  1.00  0.00     0.156 HD
ATOM     26  H   UNL A   1      34.921  25.073  24.391  1.00  0.00     0.156 HD
ENDBRANCH  11  24
ENDBRANCH   5   8
ENDBRANCH   3   4
ENDBRANCH   2   3
ENDBRANCH   1   2
BRANCH   1  27
ATOM     27  C   UNL A   1      37.317  20.782  24.603  1.00  0.00     0.002 C 
BRANCH  27  28
ATOM     28  C   UNL A   1      38.320  19.651  24.851  1.00  0.00     0.021 C 
BRANCH  28  29
ATOM     29  C   UNL A   1      39.178  19.853  26.093  1.00  0.00     0.116 C 
BRANCH  29  30
ATOM     30  N   UNL A   1      40.408  19.074  26.020  1.00  0.00    -0.352 N 
ATOM     31  C   UNL A   1      41.710  19.515  26.033  1.00  0.00     0.251 C 
ATOM     32  H   UNL A   1      40.290  18.099  25.952  1.00  0.00     0.163 HD
ATOM     33  O   UNL A   1      42.624  18.769  25.714  1.00  0.00    -0.269 OA
BRANCH  31  34
ATOM     34  C   UNL A   1      41.982  20.911  26.433  1.00  0.00     0.039 A 
ATOM     35  C   UNL A   1      42.257  21.200  27.771  1.00  0.00     0.014 A 
ATOM     36  C   UNL A   1      41.986  21.924  25.470  1.00  0.00     0.014 A 
ATOM     37  C   UNL A   1      42.603  22.504  28.133  1.00  0.00     0.010 A 
ATOM     38  C   UNL A   1      42.405  23.200  25.819  1.00  0.00     0.010 A 
ATOM     39  C   UNL A   1      42.714  23.504  27.154  1.00  0.00    -0.014 A 
BRANCH  39  40
ATOM     40  C   UNL A   1      43.161  24.880  27.491  1.00  0.00     0.031 A 
ATOM     41  C   UNL A   1      42.194  25.850  28.111  1.00  0.00     0.074 A 
ATOM     42  C   UNL A   1      44.395  25.285  27.133  1.00  0.00     0.049 A 
ATOM     43  N   UNL A   1      42.352  27.123  28.364  1.00  0.00    -0.248 NA
ATOM     44  C   UNL A   1      40.862  25.330  28.463  1.00  0.00     0.031 C 
ATOM     45  C   UNL A   1      45.399  24.455  26.464  1.00  0.00     0.029 A 
ATOM     46  N   UNL A   1      45.003  26.511  27.249  1.00  0.00    -0.354 N 
ATOM     47  C   UNL A   1      41.134  27.563  28.865  1.00  0.00     0.074 A 
ATOM     48  C   UNL A   1      40.235  26.431  28.850  1.00  0.00     0.031 C 
ATOM     49  C   UNL A   1      46.494  25.195  26.226  1.00  0.00     0.029 A 
ATOM     50  C   UNL A   1      46.257  26.560  26.685  1.00  0.00     0.049 A 
ATOM     51  H   UNL A   1      44.581  27.282  27.693  1.00  0.00     0.167 HD
ATOM     52  C   UNL A   1      40.800  28.794  29.320  1.00  0.00     0.034 A 
ATOM     53  C   UNL A   1      47.111  27.591  26.535  1.00  0.00     0.034 A 
ATOM     54  C   UNL A   1      41.709  29.906  29.366  1.00  0.00     0.049 A 
ATOM     55  C   UNL A   1      46.722  28.944  27.066  1.00  0.00     0.074 A 
ATOM     56  C   UNL A   1      41.495  31.169  29.889  1.00  0.00     0.029 A 
ATOM     57  N   UNL A   1      43.000  29.895  28.863  1.00  0.00    -0.354 N 
ATOM     58  N   UNL A   1      45.616  29.307  27.671  1.00  0.00    -0.248 NA
ATOM     59  C   UNL A   1      47.709  30.025  26.925  1.00  0.00     0.031 C 
ATOM     60  C   UNL A   1      42.645  31.933  29.667  1.00  0.00     0.029 A 
ATOM     61  C   UNL A   1      43.591  31.133  29.046  1.00  0.00     0.049 A 
ATOM     62  H   UNL A   1      43.434  29.120  28.437  1.00  0.00     0.167 HD
ATOM     63  C   UNL A   1      45.790  30.641  28.017  1.00  0.00     0.074 A 
ATOM     64  C   UNL A   1      47.114  31.020  27.568  1.00  0.00     0.031 C 
ATOM     65  C   UNL A   1      44.929  31.481  28.643  1.00  0.00     0.034 A 
BRANCH  52  66
ATOM     66  C   UNL A   1      39.400  28.995  29.840  1.00  0.00     0.023 A 
ATOM     67  C   UNL A   1      39.078  28.595  31.154  1.00  0.00     0.012 A 
ATOM     68  C   UNL A   1      38.422  29.631  29.053  1.00  0.00     0.148 A 
ATOM     69  C   UNL A   1      37.794  28.790  31.661  1.00  0.00     0.002 A 
ATOM     70  C   UNL A   1      37.159  29.868  29.582  1.00  0.00     0.091 A 
ATOM     71  F   UNL A   1      38.741  29.986  27.800  1.00  0.00    -0.205 F 
ATOM     72  C   UNL A   1      36.839  29.436  30.880  1.00  0.00     0.022 A 
BRANCH  70  73
ATOM     73  S   UNL A   1      35.885  30.764  28.688  1.00  0.00     0.127 S 
ATOM     74  O   UNL A   1      36.672  31.786  27.999  1.00  0.00    -0.237 OA
ATOM     75  O   UNL A   1      35.336  29.725  27.815  1.00  0.00    -0.237 OA
ATOM     76  O   UNL A   1      34.960  31.262  29.696  1.00  0.00    -0.744 OA
ENDBRANCH  70  73
ENDBRANCH  52  66
BRANCH  53  77
ATOM     77  C   UNL A   1      48.436  27.376  25.890  1.00  0.00     0.023 A 
ATOM     78  C   UNL A   1      49.532  26.971  26.676  1.00  0.00     0.012 A 
ATOM     79  C   UNL A   1      48.611  27.547  24.503  1.00  0.00     0.148 A 
ATOM     80  C   UNL A   1      50.788  26.777  26.098  1.00  0.00     0.002 A 
ATOM     81  C   UNL A   1      49.850  27.296  23.924  1.00  0.00     0.091 A 
ATOM     82  F   UNL A   1      47.557  27.939  23.773  1.00  0.00    -0.205 F 
ATOM     83  C   UNL A   1      50.944  26.930  24.723  1.00  0.00     0.022 A 
BRANCH  81  84
ATOM     84  S   UNL A   1      50.110  27.344  22.148  1.00  0.00     0.127 S 
ATOM     85  O   UNL A   1      51.476  26.842  22.032  1.00  0.00    -0.237 OA
ATOM     86  O   UNL A   1      49.073  26.430  21.667  1.00  0.00    -0.237 OA
ATOM     87  O   UNL A   1      49.915  28.733  21.756  1.00  0.00    -0.744 OA
ENDBRANCH  81  84
ENDBRANCH  53  77
BRANCH  65  88
ATOM     88  C   UNL A   1      45.397  32.883  28.933  1.00  0.00     0.023 A 
ATOM     89  C   UNL A   1      46.132  33.154  30.103  1.00  0.00     0.012 A 
ATOM     90  C   UNL A   1      45.187  33.910  27.992  1.00  0.00     0.148 A 
ATOM     91  C   UNL A   1      46.629  34.434  30.345  1.00  0.00     0.002 A 
ATOM     92  C   UNL A   1      45.730  35.169  28.215  1.00  0.00     0.091 A 
ATOM     93  F   UNL A   1      44.470  33.633  26.893  1.00  0.00    -0.205 F 
ATOM     94  C   UNL A   1      46.440  35.436  29.396  1.00  0.00     0.022 A 
BRANCH  92  95
ATOM     95  S   UNL A   1      45.626  36.493  27.005  1.00  0.00     0.127 S 
ATOM     96  O   UNL A   1      46.267  35.883  25.841  1.00  0.00    -0.237 OA
ATOM     97  O   UNL A   1      44.182  36.682  26.879  1.00  0.00    -0.237 OA
ATOM     98  O   UNL A   1      46.338  37.625  27.584  1.00  0.00    -0.744 OA
ENDBRANCH  92  95
ENDBRANCH  65  88
ENDBRANCH  39  40
ENDBRANCH  31  34
ENDBRANCH  29  30
ENDBRANCH  28  29
ENDBRANCH  27  28
ENDBRANCH   1  27
TORSDOF 20
ENDMDL
MODEL 2
REMARK VINA RESULT:     -10.9      2.814      8.133
REMARK SMILES Cc1cccc(CN(C)c2ccc(C(=O)NCCCCCCNC(=O)c3ccc(-c4c5nc(c(-c6cccc(S(=O)(=O)[O-])c6F)c6ccc([nH]6)c(-c6cccc(S(=O)(=O)[O-])c6F)c6nc(c(-c7cccc(S(=O)(=O)[O-])c7F)c7ccc4[nH]7)C=C6)C=C5)cc3)cc2N)n1
REMARK SMILES IDX 19 1 18 2 17 3 16 4 14 5 15 6 13 8 10 9 11 10 90 11 12 12
REMARK SMILES IDX 89 13 8 14 9 15 7 16 6 17 1 18 2 19 3 20 92 21 4 22 5 23
REMARK SMILES IDX 91 24 20 27 21 28 22 29 23 30 24 31 25 33 26 34 27 35 88 36
REMARK SMILES IDX 28 37 87 38 29 39 30 40 31 41 81 42 32 43 86 44 80 45 82 46
REMARK SMILES IDX 33 47 85 48 79 49 78 50 34 52 66 53 46 54 65 55 47 56 50 57
REMARK SMILES IDX 64 58 83 59 48 60 49 61 63 63 84 64 51 65 35 66 36 67 44 68
REMARK SMILES IDX 37 69 39 70 45 71 38 72 40 73 41 74 42 75 43 76 67 77 68 78
REMARK SMILES IDX 76 79 69 80 71 81 77 82 70 83 72 84 73 85 74 86 75 87 52 88
REMARK SMILES IDX 53 89 61 90 54 91 56 92 62 93 55 94 57 95 58 96 59 97 60 98
REMARK H PARENT 16 7 91 25 91 26 23 32 82 51 50 62
REMARK Flexibility Score: inf
ROOT
ATOM      1  C   UNL A   1      36.374  23.854  25.138  1.00  0.00     0.002 C 
ENDROOT
BRANCH   1   2
ATOM      2  C   UNL A   1      35.894  22.541  24.509  1.00  0.00     0.021 C 
BRANCH   2   3
ATOM      3  C   UNL A   1      34.748  21.909  25.308  1.00  0.00     0.116 C 
BRANCH   3   4
ATOM      4  N   UNL A   1      33.839  21.215  24.409  1.00  0.00    -0.352 N 
ATOM      5  C   UNL A   1      32.753  21.622  23.668  1.00  0.00     0.251 C 
ATOM      6  O   UNL A   1      32.160  20.760  23.016  1.00  0.00    -0.269 OA
ATOM      7  H   UNL A   1      34.042  20.257  24.310  1.00  0.00     0.163 HD
BRANCH   5   8
ATOM      8  C   UNL A   1      32.322  23.044  23.554  1.00  0.00     0.041 A 
ATOM      9  C   UNL A   1      31.256  25.674  23.131  1.00  0.00     0.060 A 
ATOM     10  C   UNL A   1      30.667  24.760  24.027  1.00  0.00     0.029 A 
ATOM     11  C   UNL A   1      32.265  25.109  22.336  1.00  0.00     0.056 A 
ATOM     12  C   UNL A   1      31.147  23.445  24.186  1.00  0.00     0.016 A 
ATOM     13  C   UNL A   1      32.953  23.969  22.752  1.00  0.00     0.041 A 
BRANCH   9  14
ATOM     14  N   UNL A   1      30.930  27.030  23.094  1.00  0.00    -0.367 N 
ATOM     15  C   UNL A   1      29.537  27.473  23.119  1.00  0.00     0.144 C 
BRANCH  14  16
ATOM     16  C   UNL A   1      31.897  28.175  23.051  1.00  0.00     0.172 C 
BRANCH  16  17
ATOM     17  C   UNL A   1      32.526  28.716  24.335  1.00  0.00     0.060 A 
ATOM     18  C   UNL A   1      31.782  31.285  26.861  1.00  0.00     0.067 C 
ATOM     19  C   UNL A   1      32.441  30.122  26.184  1.00  0.00     0.038 A 
ATOM     20  C   UNL A   1      33.434  29.396  26.840  1.00  0.00     0.023 A 
ATOM     21  N   UNL A   1      32.002  29.816  24.935  1.00  0.00    -0.256 NA
ATOM     22  C   UNL A   1      34.028  28.331  26.179  1.00  0.00     0.004 A 
ATOM     23  C   UNL A   1      33.590  28.000  24.902  1.00  0.00     0.026 A 
ENDBRANCH  16  17
ENDBRANCH  14  16
ENDBRANCH   9  14
BRANCH  11  24
ATOM     24  N   UNL A   1      32.379  25.388  20.966  1.00  0.00    -0.397 N 
ATOM     25  H   UNL A   1      31.772  24.953  20.323  1.00  0.00     0.156 HD
ATOM     26  H   UNL A   1      33.064  26.019  20.646  1.00  0.00     0.156 HD
ENDBRANCH  11  24
ENDBRANCH   5   8
ENDBRANCH   3   4
ENDBRANCH   2   3
ENDBRANCH   1   2
BRANCH   1  27
ATOM     27  C   UNL A   1      37.594  23.699  26.055  1.00  0.00     0.002 C 
BRANCH  27  28
ATOM     28  C   UNL A   1      38.454  22.465  25.771  1.00  0.00     0.021 C 
BRANCH  28  29
ATOM     29  C   UNL A   1      39.576  22.253  26.779  1.00  0.00     0.116 C 
BRANCH  29  30
ATOM     30  N   UNL A   1      40.839  21.962  26.112  1.00  0.00    -0.352 N 
ATOM     31  C   UNL A   1      41.873  22.817  25.813  1.00  0.00     0.251 C 
ATOM     32  H   UNL A   1      40.970  21.025  25.839  1.00  0.00     0.163 HD
ATOM     33  O   UNL A   1      42.753  22.482  25.034  1.00  0.00    -0.269 OA
BRANCH  31  34
ATOM     34  C   UNL A   1      41.895  24.152  26.445  1.00  0.00     0.039 A 
ATOM     35  C   UNL A   1      42.165  24.260  27.810  1.00  0.00     0.014 A 
ATOM     36  C   UNL A   1      41.673  25.294  25.670  1.00  0.00     0.014 A 
ATOM     37  C   UNL A   1      42.275  25.526  28.388  1.00  0.00     0.010 A 
ATOM     38  C   UNL A   1      41.859  26.550  26.230  1.00  0.00     0.010 A 
ATOM     39  C   UNL A   1      42.158  26.679  27.596  1.00  0.00    -0.014 A 
BRANCH  39  40
ATOM     40  C   UNL A   1      42.353  28.038  28.160  1.00  0.00     0.031 A 
ATOM     41  C   UNL A   1      43.744  28.559  28.397  1.00  0.00     0.074 A 
ATOM     42  C   UNL A   1      41.283  28.752  28.564  1.00  0.00     0.049 A 
ATOM     43  N   UNL A   1      44.122  29.661  28.991  1.00  0.00    -0.248 NA
ATOM     44  C   UNL A   1      44.858  27.714  27.935  1.00  0.00     0.031 C 
ATOM     45  C   UNL A   1      39.887  28.324  28.449  1.00  0.00     0.029 A 
ATOM     46  N   UNL A   1      41.205  29.973  29.187  1.00  0.00    -0.354 N 
ATOM     47  C   UNL A   1      45.510  29.623  29.010  1.00  0.00     0.074 A 
ATOM     48  C   UNL A   1      45.909  28.375  28.400  1.00  0.00     0.031 C 
ATOM     49  C   UNL A   1      39.093  29.263  28.986  1.00  0.00     0.029 A 
ATOM     50  C   UNL A   1      39.922  30.339  29.521  1.00  0.00     0.049 A 
ATOM     51  H   UNL A   1      41.993  30.532  29.376  1.00  0.00     0.167 HD
ATOM     52  C   UNL A   1      46.377  30.555  29.474  1.00  0.00     0.034 A 
ATOM     53  C   UNL A   1      39.465  31.410  30.200  1.00  0.00     0.034 A 
ATOM     54  C   UNL A   1      45.974  31.810  30.047  1.00  0.00     0.049 A 
ATOM     55  C   UNL A   1      40.448  32.440  30.687  1.00  0.00     0.074 A 
ATOM     56  C   UNL A   1      46.774  32.858  30.466  1.00  0.00     0.029 A 
ATOM     57  N   UNL A   1      44.662  32.184  30.293  1.00  0.00    -0.354 N 
ATOM     58  N   UNL A   1      41.753  32.456  30.566  1.00  0.00    -0.248 NA
ATOM     59  C   UNL A   1      39.896  33.615  31.376  1.00  0.00     0.031 C 
ATOM     60  C   UNL A   1      45.946  33.851  31.000  1.00  0.00     0.029 A 
ATOM     61  C   UNL A   1      44.629  33.439  30.874  1.00  0.00     0.049 A 
ATOM     62  H   UNL A   1      43.871  31.636  30.085  1.00  0.00     0.167 HD
ATOM     63  C   UNL A   1      42.174  33.657  31.125  1.00  0.00     0.074 A 
ATOM     64  C   UNL A   1      40.983  34.349  31.573  1.00  0.00     0.031 C 
ATOM     65  C   UNL A   1      43.433  34.140  31.264  1.00  0.00     0.034 A 
BRANCH  52  66
ATOM     66  C   UNL A   1      47.850  30.268  29.346  1.00  0.00     0.023 A 
ATOM     67  C   UNL A   1      48.550  29.702  30.432  1.00  0.00     0.012 A 
ATOM     68  C   UNL A   1      48.529  30.503  28.135  1.00  0.00     0.148 A 
ATOM     69  C   UNL A   1      49.908  29.410  30.328  1.00  0.00     0.002 A 
ATOM     70  C   UNL A   1      49.872  30.163  28.022  1.00  0.00     0.091 A 
ATOM     71  F   UNL A   1      47.853  31.059  27.120  1.00  0.00    -0.205 F 
ATOM     72  C   UNL A   1      50.566  29.631  29.121  1.00  0.00     0.022 A 
BRANCH  70  73
ATOM     73  S   UNL A   1      50.788  30.330  26.487  1.00  0.00     0.127 S 
ATOM     74  O   UNL A   1      52.154  30.051  26.927  1.00  0.00    -0.237 OA
ATOM     75  O   UNL A   1      50.189  29.283  25.658  1.00  0.00    -0.237 OA
ATOM     76  O   UNL A   1      50.547  31.687  26.019  1.00  0.00    -0.744 OA
ENDBRANCH  70  73
ENDBRANCH  52  66
BRANCH  53  77
ATOM     77  C   UNL A   1      38.002  31.585  30.422  1.00  0.00     0.023 A 
ATOM     78  C   UNL A   1      37.398  31.002  31.552  1.00  0.00     0.012 A 
ATOM     79  C   UNL A   1      37.213  32.341  29.534  1.00  0.00     0.148 A 
ATOM     80  C   UNL A   1      36.027  31.137  31.776  1.00  0.00     0.002 A 
ATOM     81  C   UNL A   1      35.859  32.521  29.792  1.00  0.00     0.091 A 
ATOM     82  F   UNL A   1      37.804  32.882  28.460  1.00  0.00    -0.205 F 
ATOM     83  C   UNL A   1      35.260  31.904  30.902  1.00  0.00     0.022 A 
BRANCH  81  84
ATOM     84  S   UNL A   1      34.822  33.595  28.793  1.00  0.00     0.127 S 
ATOM     85  O   UNL A   1      34.796  32.885  27.517  1.00  0.00    -0.237 OA
ATOM     86  O   UNL A   1      33.562  33.574  29.538  1.00  0.00    -0.237 OA
ATOM     87  O   UNL A   1      35.489  34.890  28.780  1.00  0.00    -0.744 OA
ENDBRANCH  81  84
ENDBRANCH  53  77
BRANCH  65  88
ATOM     88  C   UNL A   1      43.600  35.505  31.879  1.00  0.00     0.023 A 
ATOM     89  C   UNL A   1      43.681  35.645  33.278  1.00  0.00     0.012 A 
ATOM     90  C   UNL A   1      43.775  36.637  31.058  1.00  0.00     0.148 A 
ATOM     91  C   UNL A   1      43.906  36.895  33.851  1.00  0.00     0.002 A 
ATOM     92  C   UNL A   1      44.051  37.869  31.634  1.00  0.00     0.091 A 
ATOM     93  F   UNL A   1      43.678  36.482  29.729  1.00  0.00    -0.205 F 
ATOM     94  C   UNL A   1      44.104  38.003  33.031  1.00  0.00     0.022 A 
BRANCH  92  95
ATOM     95  S   UNL A   1      44.421  39.331  30.658  1.00  0.00     0.127 S 
ATOM     96  O   UNL A   1      43.176  39.514  29.913  1.00  0.00    -0.237 OA
ATOM     97  O   UNL A   1      44.668  40.337  31.691  1.00  0.00    -0.237 OA
ATOM     98  O   UNL A   1      45.585  38.993  29.849  1.00  0.00    -0.744 OA
ENDBRANCH  92  95
ENDBRANCH  65  88
ENDBRANCH  39  40
ENDBRANCH  31  34
ENDBRANCH  29  30
ENDBRANCH  28  29
ENDBRANCH  27  28
ENDBRANCH   1  27
TORSDOF 20
ENDMDL
MODEL 3
REMARK VINA RESULT:     -10.9      2.137      7.928
REMARK SMILES Cc1cccc(CN(C)c2ccc(C(=O)NCCCCCCNC(=O)c3ccc(-c4c5nc(c(-c6cccc(S(=O)(=O)[O-])c6F)c6ccc([nH]6)c(-c6cccc(S(=O)(=O)[O-])c6F)c6nc(c(-c7cccc(S(=O)(=O)[O-])c7F)c7ccc4[nH]7)C=C6)C=C5)cc3)cc2N)n1
REMARK SMILES IDX 19 1 18 2 17 3 16 4 14 5 15 6 13 8 10 9 11 10 90 11 12 12
REMARK SMILES IDX 89 13 8 14 9 15 7 16 6 17 1 18 2 19 3 20 92 21 4 22 5 23
REMARK SMILES IDX 91 24 20 27 21 28 22 29 23 30 24 31 25 33 26 34 27 35 88 36
REMARK SMILES IDX 28 37 87 38 29 39 30 40 31 41 81 42 32 43 86 44 80 45 82 46
REMARK SMILES IDX 33 47 85 48 79 49 78 50 34 52 66 53 46 54 65 55 47 56 50 57
REMARK SMILES IDX 64 58 83 59 48 60 49 61 63 63 84 64 51 65 35 66 36 67 44 68
REMARK SMILES IDX 37 69 39 70 45 71 38 72 40 73 41 74 42 75 43 76 67 77 68 78
REMARK SMILES IDX 76 79 69 80 71 81 77 82 70 83 72 84 73 85 74 86 75 87 52 88
REMARK SMILES IDX 53 89 61 90 54 91 56 92 62 93 55 94 57 95 58 96 59 97 60 98
REMARK H PARENT 16 7 91 25 91 26 23 32 82 51 50 62
REMARK Flexibility Score: inf
ROOT
ATOM      1  C   UNL A   1      40.131  23.008  26.442  1.00  0.00     0.002 C 
ENDROOT
BRANCH   1   2
ATOM      2  C   UNL A   1      38.887  23.793  26.876  1.00  0.00     0.021 C 
BRANCH   2   3
ATOM      3  C   UNL A   1      37.763  23.703  25.837  1.00  0.00     0.116 C 
BRANCH   3   4
ATOM      4  N   UNL A   1      37.530  22.313  25.476  1.00  0.00    -0.352 N 
ATOM      5  C   UNL A   1      36.396  21.541  25.383  1.00  0.00     0.251 C 
ATOM      6  O   UNL A   1      36.543  20.357  25.074  1.00  0.00    -0.269 OA
ATOM      7  H   UNL A   1      38.355  21.825  25.251  1.00  0.00     0.163 HD
BRANCH   5   8
ATOM      8  C   UNL A   1      35.017  22.080  25.554  1.00  0.00     0.041 A 
ATOM      9  C   UNL A   1      32.273  22.813  25.961  1.00  0.00     0.060 A 
ATOM     10  C   UNL A   1      33.172  22.644  27.032  1.00  0.00     0.029 A 
ATOM     11  C   UNL A   1      32.789  22.395  24.725  1.00  0.00     0.056 A 
ATOM     12  C   UNL A   1      34.501  22.218  26.841  1.00  0.00     0.016 A 
ATOM     13  C   UNL A   1      34.165  22.339  24.503  1.00  0.00     0.041 A 
BRANCH   9  14
ATOM     14  N   UNL A   1      31.022  23.415  26.097  1.00  0.00    -0.367 N 
ATOM     15  C   UNL A   1      29.954  22.773  26.860  1.00  0.00     0.144 C 
BRANCH  14  16
ATOM     16  C   UNL A   1      30.611  24.744  25.539  1.00  0.00     0.172 C 
BRANCH  16  17
ATOM     17  C   UNL A   1      31.659  25.744  25.046  1.00  0.00     0.060 A 
ATOM     18  C   UNL A   1      33.999  28.177  26.506  1.00  0.00     0.067 C 
ATOM     19  C   UNL A   1      33.320  27.306  25.494  1.00  0.00     0.038 A 
ATOM     20  C   UNL A   1      33.812  27.224  24.193  1.00  0.00     0.023 A 
ATOM     21  N   UNL A   1      32.240  26.603  25.923  1.00  0.00    -0.256 NA
ATOM     22  C   UNL A   1      33.154  26.414  23.280  1.00  0.00     0.004 A 
ATOM     23  C   UNL A   1      32.048  25.684  23.701  1.00  0.00     0.026 A 
ENDBRANCH  16  17
ENDBRANCH  14  16
ENDBRANCH   9  14
BRANCH  11  24
ATOM     24  N   UNL A   1      32.023  21.663  23.806  1.00  0.00    -0.397 N 
ATOM     25  H   UNL A   1      31.329  21.042  24.127  1.00  0.00     0.156 HD
ATOM     26  H   UNL A   1      32.178  21.768  22.839  1.00  0.00     0.156 HD
ENDBRANCH  11  24
ENDBRANCH   5   8
ENDBRANCH   3   4
ENDBRANCH   2   3
ENDBRANCH   1   2
BRANCH   1  27
ATOM     27  C   UNL A   1      40.589  21.951  27.455  1.00  0.00     0.002 C 
BRANCH  27  28
ATOM     28  C   UNL A   1      40.665  20.527  26.900  1.00  0.00     0.021 C 
BRANCH  28  29
ATOM     29  C   UNL A   1      41.861  19.732  27.409  1.00  0.00     0.116 C 
BRANCH  29  30
ATOM     30  N   UNL A   1      42.616  19.148  26.307  1.00  0.00    -0.352 N 
ATOM     31  C   UNL A   1      43.392  19.778  25.364  1.00  0.00     0.251 C 
ATOM     32  H   UNL A   1      42.564  18.168  26.228  1.00  0.00     0.163 HD
ATOM     33  O   UNL A   1      43.758  19.185  24.360  1.00  0.00    -0.269 OA
BRANCH  31  34
ATOM     34  C   UNL A   1      43.768  21.190  25.583  1.00  0.00     0.039 A 
ATOM     35  C   UNL A   1      43.407  22.151  24.636  1.00  0.00     0.014 A 
ATOM     36  C   UNL A   1      44.457  21.557  26.742  1.00  0.00     0.014 A 
ATOM     37  C   UNL A   1      43.683  23.496  24.886  1.00  0.00     0.010 A 
ATOM     38  C   UNL A   1      44.660  22.901  27.023  1.00  0.00     0.010 A 
ATOM     39  C   UNL A   1      44.279  23.884  26.096  1.00  0.00    -0.014 A 
BRANCH  39  40
ATOM     40  C   UNL A   1      44.509  25.312  26.431  1.00  0.00     0.031 A 
ATOM     41  C   UNL A   1      45.890  25.895  26.314  1.00  0.00     0.074 A 
ATOM     42  C   UNL A   1      43.504  26.046  26.949  1.00  0.00     0.049 A 
ATOM     43  N   UNL A   1      46.319  27.077  26.673  1.00  0.00    -0.248 NA
ATOM     44  C   UNL A   1      46.934  25.025  25.748  1.00  0.00     0.031 C 
ATOM     45  C   UNL A   1      42.137  25.571  27.174  1.00  0.00     0.029 A 
ATOM     46  N   UNL A   1      43.487  27.338  27.413  1.00  0.00    -0.354 N 
ATOM     47  C   UNL A   1      47.684  27.078  26.415  1.00  0.00     0.074 A 
ATOM     48  C   UNL A   1      48.020  25.769  25.901  1.00  0.00     0.031 C 
ATOM     49  C   UNL A   1      41.417  26.553  27.736  1.00  0.00     0.029 A 
ATOM     50  C   UNL A   1      42.277  27.713  27.950  1.00  0.00     0.049 A 
ATOM     51  H   UNL A   1      44.265  27.938  27.366  1.00  0.00     0.167 HD
ATOM     52  C   UNL A   1      48.575  28.085  26.570  1.00  0.00     0.034 A 
ATOM     53  C   UNL A   1      41.907  28.854  28.565  1.00  0.00     0.034 A 
ATOM     54  C   UNL A   1      48.228  29.396  27.048  1.00  0.00     0.049 A 
ATOM     55  C   UNL A   1      42.912  29.965  28.707  1.00  0.00     0.074 A 
ATOM     56  C   UNL A   1      49.039  30.511  27.159  1.00  0.00     0.029 A 
ATOM     57  N   UNL A   1      46.974  29.766  27.505  1.00  0.00    -0.354 N 
ATOM     58  N   UNL A   1      44.165  29.998  28.323  1.00  0.00    -0.248 NA
ATOM     59  C   UNL A   1      42.445  31.209  29.337  1.00  0.00     0.031 C 
ATOM     60  C   UNL A   1      48.283  31.546  27.718  1.00  0.00     0.029 A 
ATOM     61  C   UNL A   1      46.990  31.088  27.914  1.00  0.00     0.049 A 
ATOM     62  H   UNL A   1      46.186  29.175  27.533  1.00  0.00     0.167 HD
ATOM     63  C   UNL A   1      44.624  31.274  28.628  1.00  0.00     0.074 A 
ATOM     64  C   UNL A   1      43.510  31.990  29.215  1.00  0.00     0.031 C 
ATOM     65  C   UNL A   1      45.859  31.804  28.446  1.00  0.00     0.034 A 
BRANCH  52  66
ATOM     66  C   UNL A   1      50.007  27.822  26.185  1.00  0.00     0.023 A 
ATOM     67  C   UNL A   1      50.957  27.522  27.184  1.00  0.00     0.012 A 
ATOM     68  C   UNL A   1      50.401  27.812  24.834  1.00  0.00     0.148 A 
ATOM     69  C   UNL A   1      52.283  27.256  26.847  1.00  0.00     0.002 A 
ATOM     70  C   UNL A   1      51.713  27.496  24.501  1.00  0.00     0.091 A 
ATOM     71  F   UNL A   1      49.490  28.118  23.899  1.00  0.00    -0.205 F 
ATOM     72  C   UNL A   1      52.658  27.232  25.506  1.00  0.00     0.022 A 
BRANCH  70  73
ATOM     73  S   UNL A   1      52.276  27.358  22.802  1.00  0.00     0.127 S 
ATOM     74  O   UNL A   1      52.814  28.696  22.559  1.00  0.00    -0.237 OA
ATOM     75  O   UNL A   1      53.287  26.303  22.899  1.00  0.00    -0.237 OA
ATOM     76  O   UNL A   1      51.103  27.005  22.015  1.00  0.00    -0.744 OA
ENDBRANCH  70  73
ENDBRANCH  52  66
BRANCH  53  77
ATOM     77  C   UNL A   1      40.510  29.020  29.054  1.00  0.00     0.023 A 
ATOM     78  C   UNL A   1      39.489  29.343  28.140  1.00  0.00     0.012 A 
ATOM     79  C   UNL A   1      40.184  28.839  30.412  1.00  0.00     0.148 A 
ATOM     80  C   UNL A   1      38.174  29.518  28.575  1.00  0.00     0.002 A 
ATOM     81  C   UNL A   1      38.864  28.958  30.830  1.00  0.00     0.091 A 
ATOM     82  F   UNL A   1      41.171  28.538  31.268  1.00  0.00    -0.205 F 
ATOM     83  C   UNL A   1      37.861  29.317  29.916  1.00  0.00     0.022 A 
BRANCH  81  84
ATOM     84  S   UNL A   1      38.349  28.592  32.511  1.00  0.00     0.127 S 
ATOM     85  O   UNL A   1      39.251  29.434  33.292  1.00  0.00    -0.237 OA
ATOM     86  O   UNL A   1      36.952  29.028  32.499  1.00  0.00    -0.237 OA
ATOM     87  O   UNL A   1      38.527  27.155  32.676  1.00  0.00    -0.744 OA
ENDBRANCH  81  84
ENDBRANCH  53  77
BRANCH  65  88
ATOM     88  C   UNL A   1      46.073  33.243  28.835  1.00  0.00     0.023 A 
ATOM     89  C   UNL A   1      46.600  33.563  30.101  1.00  0.00     0.012 A 
ATOM     90  C   UNL A   1      45.839  34.273  27.901  1.00  0.00     0.148 A 
ATOM     91  C   UNL A   1      46.866  34.888  30.442  1.00  0.00     0.002 A 
ATOM     92  C   UNL A   1      46.156  35.584  28.229  1.00  0.00     0.091 A 
ATOM     93  F   UNL A   1      45.322  33.947  26.707  1.00  0.00    -0.205 F 
ATOM     94  C   UNL A   1      46.657  35.896  29.502  1.00  0.00     0.022 A 
BRANCH  92  95
ATOM     95  S   UNL A   1      46.018  36.934  27.051  1.00  0.00     0.127 S 
ATOM     96  O   UNL A   1      44.570  37.029  26.876  1.00  0.00    -0.237 OA
ATOM     97  O   UNL A   1      46.618  38.047  27.787  1.00  0.00    -0.237 OA
ATOM     98  O   UNL A   1      46.761  36.517  25.869  1.00  0.00    -0.744 OA
ENDBRANCH  92  95
ENDBRANCH  65  88
ENDBRANCH  39  40
ENDBRANCH  31  34
ENDBRANCH  29  30
ENDBRANCH  28  29
ENDBRANCH  27  28
ENDBRANCH   1  27
TORSDOF 20
ENDMDL
