MODEL 1
REMARK VINA RESULT:     -11.0      0.000      0.000
REMARK SMILES COc1cccc(-c2ccc(=O)n(CC(=O)N[C@@H](C(=O)NCCCCCCNC(=O)c3ccc(-c4c5nc(c(-c6cccc(S(=O)(=O)[O-])c6F)c6ccc([nH]6)c(-c6cccc(S(=O)(=O)[O-])c6F)c6nc(c(-c7cccc(S(=O)(=O)[O-])c7F)c7ccc4[nH]7)C=C6)C=C5)cc3)C(C)C)n2)c1
REMARK SMILES IDX 23 1 22 2 21 3 19 4 20 5 18 7 17 8 15 9 16 10 14 12 13 13
REMARK SMILES IDX 8 14 9 15 97 16 10 17 11 18 12 19 7 20 3 21 4 22 98 23 5 24
REMARK SMILES IDX 6 25 2 26 1 27 94 28 95 29 96 30 24 31 25 32 26 33 27 34
REMARK SMILES IDX 28 35 29 36 30 38 31 39 32 40 93 41 33 42 92 43 34 44 35 45
REMARK SMILES IDX 36 46 86 47 37 48 91 49 85 50 87 51 38 52 90 53 84 54 83 55
REMARK SMILES IDX 39 57 71 58 51 59 70 60 52 61 55 62 69 63 88 64 53 65 54 66
REMARK SMILES IDX 68 68 89 69 56 70 40 71 41 72 49 73 42 74 44 75 50 76 43 77
REMARK SMILES IDX 45 78 46 79 47 80 48 81 72 82 73 83 81 84 74 85 76 86 82 87
REMARK SMILES IDX 75 88 77 89 78 90 79 91 80 92 57 93 58 94 66 95 59 96 61 97
REMARK SMILES IDX 67 98 60 99 62 100 63 101 64 102 65 103
REMARK H PARENT 21 6 17 11 28 37 87 56 55 67
REMARK Flexibility Score: inf
ROOT
ATOM      1  C   UNL A   1      33.868  29.444  27.268  1.00  0.00     0.021 C 
ENDROOT
BRANCH   1   2
ATOM      2  C   UNL A   1      32.975  28.225  27.077  1.00  0.00     0.116 C 
BRANCH   2   3
ATOM      3  N   UNL A   1      33.217  27.539  25.827  1.00  0.00    -0.354 N 
ATOM      4  C   UNL A   1      32.321  27.044  24.920  1.00  0.00     0.242 C 
ATOM      5  O   UNL A   1      32.795  26.641  23.853  1.00  0.00    -0.273 OA
ATOM      6  H   UNL A   1      34.165  27.409  25.595  1.00  0.00     0.163 HD
BRANCH   4   7
ATOM      7  C   UNL A   1      30.780  27.115  25.180  1.00  0.00     0.173 C 
BRANCH   7   8
ATOM      8  N   UNL A   1      30.387  26.060  26.119  1.00  0.00    -0.342 N 
ATOM      9  C   UNL A   1      30.549  24.704  26.060  1.00  0.00     0.242 C 
ATOM     10  O   UNL A   1      30.190  24.074  27.061  1.00  0.00    -0.273 OA
ATOM     11  H   UNL A   1      29.930  26.383  26.929  1.00  0.00     0.164 HD
BRANCH   9  12
ATOM     12  C   UNL A   1      31.260  24.000  24.892  1.00  0.00     0.248 C 
BRANCH  12  13
ATOM     13  N   UNL A   1      32.289  23.023  25.249  1.00  0.00    -0.220 N 
ATOM     14  C   UNL A   1      33.042  20.876  25.056  1.00  0.00     0.091 A 
ATOM     15  C   UNL A   1      34.245  21.134  25.862  1.00  0.00     0.036 A 
ATOM     16  N   UNL A   1      32.135  21.746  24.753  1.00  0.00    -0.169 NA
ATOM     17  C   UNL A   1      34.426  22.399  26.242  1.00  0.00     0.075 A 
ATOM     18  C   UNL A   1      33.403  23.435  25.975  1.00  0.00     0.267 A 
ATOM     19  O   UNL A   1      33.549  24.553  26.459  1.00  0.00    -0.268 OA
BRANCH  14  20
ATOM     20  C   UNL A   1      32.956  19.527  24.487  1.00  0.00     0.006 A 
ATOM     21  C   UNL A   1      33.283  17.171  24.856  1.00  0.00     0.119 A 
ATOM     22  C   UNL A   1      32.858  16.933  23.545  1.00  0.00     0.046 A 
ATOM     23  C   UNL A   1      33.345  18.478  25.322  1.00  0.00     0.056 A 
ATOM     24  C   UNL A   1      32.476  17.992  22.710  1.00  0.00     0.005 A 
ATOM     25  C   UNL A   1      32.524  19.303  23.181  1.00  0.00     0.011 A 
BRANCH  21  26
ATOM     26  O   UNL A   1      33.634  16.067  25.584  1.00  0.00    -0.497 OA
ATOM     27  C   UNL A   1      32.746  14.953  25.484  1.00  0.00     0.278 C 
ENDBRANCH  21  26
ENDBRANCH  14  20
ENDBRANCH  12  13
ENDBRANCH   9  12
ENDBRANCH   7   8
BRANCH   7  28
ATOM     28  C   UNL A   1      29.980  27.013  23.849  1.00  0.00     0.015 C 
ATOM     29  C   UNL A   1      28.526  26.563  24.044  1.00  0.00     0.010 C 
ATOM     30  C   UNL A   1      29.966  28.360  23.111  1.00  0.00     0.010 C 
ENDBRANCH   7  28
ENDBRANCH   4   7
ENDBRANCH   2   3
ENDBRANCH   1   2
BRANCH   1  31
ATOM     31  C   UNL A   1      33.106  30.770  27.273  1.00  0.00     0.002 C 
BRANCH  31  32
ATOM     32  C   UNL A   1      33.859  31.950  27.900  1.00  0.00     0.002 C 
BRANCH  32  33
ATOM     33  C   UNL A   1      33.257  33.331  27.630  1.00  0.00     0.021 C 
BRANCH  33  34
ATOM     34  C   UNL A   1      33.957  34.497  28.316  1.00  0.00     0.116 C 
BRANCH  34  35
ATOM     35  N   UNL A   1      33.123  35.115  29.334  1.00  0.00    -0.352 N 
ATOM     36  C   UNL A   1      33.198  35.038  30.703  1.00  0.00     0.251 C 
ATOM     37  H   UNL A   1      32.391  35.676  28.989  1.00  0.00     0.163 HD
ATOM     38  O   UNL A   1      32.276  35.475  31.386  1.00  0.00    -0.269 OA
BRANCH  36  39
ATOM     39  C   UNL A   1      34.370  34.412  31.354  1.00  0.00     0.039 A 
ATOM     40  C   UNL A   1      34.183  33.239  32.090  1.00  0.00     0.014 A 
ATOM     41  C   UNL A   1      35.646  34.973  31.248  1.00  0.00     0.014 A 
ATOM     42  C   UNL A   1      35.284  32.591  32.656  1.00  0.00     0.010 A 
ATOM     43  C   UNL A   1      36.751  34.285  31.743  1.00  0.00     0.010 A 
ATOM     44  C   UNL A   1      36.584  33.085  32.448  1.00  0.00    -0.014 A 
BRANCH  44  45
ATOM     45  C   UNL A   1      37.776  32.332  32.918  1.00  0.00     0.031 A 
ATOM     46  C   UNL A   1      38.476  32.720  34.191  1.00  0.00     0.074 A 
ATOM     47  C   UNL A   1      38.283  31.353  32.142  1.00  0.00     0.049 A 
ATOM     48  N   UNL A   1      39.557  32.209  34.724  1.00  0.00    -0.248 NA
ATOM     49  C   UNL A   1      37.903  33.840  34.956  1.00  0.00     0.031 C 
ATOM     50  C   UNL A   1      37.741  30.937  30.846  1.00  0.00     0.029 A 
ATOM     51  N   UNL A   1      39.383  30.550  32.312  1.00  0.00    -0.354 N 
ATOM     52  C   UNL A   1      39.812  32.964  35.863  1.00  0.00     0.074 A 
ATOM     53  C   UNL A   1      38.790  33.985  35.930  1.00  0.00     0.031 C 
ATOM     54  C   UNL A   1      38.506  29.958  30.342  1.00  0.00     0.029 A 
ATOM     55  C   UNL A   1      39.615  29.701  31.253  1.00  0.00     0.049 A 
ATOM     56  H   UNL A   1      39.952  30.578  33.114  1.00  0.00     0.167 HD
ATOM     57  C   UNL A   1      40.794  32.804  36.783  1.00  0.00     0.034 A 
ATOM     58  C   UNL A   1      40.616  28.828  31.030  1.00  0.00     0.034 A 
ATOM     59  C   UNL A   1      41.792  31.770  36.725  1.00  0.00     0.049 A 
ATOM     60  C   UNL A   1      41.688  28.663  32.075  1.00  0.00     0.074 A 
ATOM     61  C   UNL A   1      42.767  31.464  37.659  1.00  0.00     0.029 A 
ATOM     62  N   UNL A   1      41.959  30.887  35.671  1.00  0.00    -0.354 N 
ATOM     63  N   UNL A   1      41.809  29.264  33.233  1.00  0.00    -0.248 NA
ATOM     64  C   UNL A   1      42.745  27.681  31.794  1.00  0.00     0.031 C 
ATOM     65  C   UNL A   1      43.549  30.422  37.149  1.00  0.00     0.029 A 
ATOM     66  C   UNL A   1      43.039  30.054  35.915  1.00  0.00     0.049 A 
ATOM     67  H   UNL A   1      41.393  30.856  34.866  1.00  0.00     0.167 HD
ATOM     68  C   UNL A   1      42.940  28.720  33.829  1.00  0.00     0.074 A 
ATOM     69  C   UNL A   1      43.450  27.716  32.917  1.00  0.00     0.031 C 
ATOM     70  C   UNL A   1      43.516  29.035  35.016  1.00  0.00     0.034 A 
BRANCH  57  71
ATOM     71  C   UNL A   1      40.817  33.749  37.958  1.00  0.00     0.023 A 
ATOM     72  C   UNL A   1      41.683  34.863  37.940  1.00  0.00     0.012 A 
ATOM     73  C   UNL A   1      39.939  33.576  39.046  1.00  0.00     0.148 A 
ATOM     74  C   UNL A   1      41.701  35.767  39.001  1.00  0.00     0.002 A 
ATOM     75  C   UNL A   1      39.930  34.507  40.078  1.00  0.00     0.091 A 
ATOM     76  F   UNL A   1      39.135  32.503  39.054  1.00  0.00    -0.205 F 
ATOM     77  C   UNL A   1      40.818  35.595  40.063  1.00  0.00     0.022 A 
BRANCH  75  78
ATOM     78  S   UNL A   1      38.776  34.424  41.452  1.00  0.00     0.127 S 
ATOM     79  O   UNL A   1      37.606  33.816  40.817  1.00  0.00    -0.237 OA
ATOM     80  O   UNL A   1      39.481  33.551  42.391  1.00  0.00    -0.237 OA
ATOM     81  O   UNL A   1      38.596  35.794  41.911  1.00  0.00    -0.744 OA
ENDBRANCH  75  78
ENDBRANCH  57  71
BRANCH  58  82
ATOM     82  C   UNL A   1      40.627  28.010  29.784  1.00  0.00     0.023 A 
ATOM     83  C   UNL A   1      39.715  26.947  29.644  1.00  0.00     0.012 A 
ATOM     84  C   UNL A   1      41.510  28.300  28.724  1.00  0.00     0.148 A 
ATOM     85  C   UNL A   1      39.702  26.166  28.487  1.00  0.00     0.002 A 
ATOM     86  C   UNL A   1      41.451  27.558  27.550  1.00  0.00     0.091 A 
ATOM     87  F   UNL A   1      42.378  29.310  28.879  1.00  0.00    -0.205 F 
ATOM     88  C   UNL A   1      40.562  26.478  27.437  1.00  0.00     0.022 A 
BRANCH  86  89
ATOM     89  S   UNL A   1      42.418  27.975  26.094  1.00  0.00     0.127 S 
ATOM     90  O   UNL A   1      43.780  27.706  26.549  1.00  0.00    -0.237 OA
ATOM     91  O   UNL A   1      41.900  27.028  25.105  1.00  0.00    -0.237 OA
ATOM     92  O   UNL A   1      42.114  29.369  25.801  1.00  0.00    -0.744 OA
ENDBRANCH  86  89
ENDBRANCH  58  82
BRANCH  70  93
ATOM     93  C   UNL A   1      44.762  28.282  35.410  1.00  0.00     0.023 A 
ATOM     94  C   UNL A   1      46.027  28.796  35.062  1.00  0.00     0.012 A 
ATOM     95  C   UNL A   1      44.681  27.111  36.189  1.00  0.00     0.148 A 
ATOM     96  C   UNL A   1      47.192  28.140  35.457  1.00  0.00     0.002 A 
ATOM     97  C   UNL A   1      45.847  26.490  36.622  1.00  0.00     0.091 A 
ATOM     98  F   UNL A   1      43.469  26.630  36.497  1.00  0.00    -0.205 F 
ATOM     99  C   UNL A   1      47.102  26.995  36.246  1.00  0.00     0.022 A 
BRANCH  97 100
ATOM    100  S   UNL A   1      45.837  25.066  37.717  1.00  0.00     0.127 S 
ATOM    101  O   UNL A   1      44.973  24.137  36.989  1.00  0.00    -0.237 OA
ATOM    102  O   UNL A   1      47.251  24.690  37.744  1.00  0.00    -0.237 OA
ATOM    103  O   UNL A   1      45.309  25.538  38.989  1.00  0.00    -0.744 OA
ENDBRANCH  97 100
ENDBRANCH  70  93
ENDBRANCH  44  45
ENDBRANCH  36  39
ENDBRANCH  34  35
ENDBRANCH  33  34
ENDBRANCH  32  33
ENDBRANCH  31  32
ENDBRANCH   1  31
TORSDOF 22
ENDMDL
MODEL 2
REMARK VINA RESULT:     -10.0      2.983      8.632
REMARK SMILES COc1cccc(-c2ccc(=O)n(CC(=O)N[C@@H](C(=O)NCCCCCCNC(=O)c3ccc(-c4c5nc(c(-c6cccc(S(=O)(=O)[O-])c6F)c6ccc([nH]6)c(-c6cccc(S(=O)(=O)[O-])c6F)c6nc(c(-c7cccc(S(=O)(=O)[O-])c7F)c7ccc4[nH]7)C=C6)C=C5)cc3)C(C)C)n2)c1
REMARK SMILES IDX 23 1 22 2 21 3 19 4 20 5 18 7 17 8 15 9 16 10 14 12 13 13
REMARK SMILES IDX 8 14 9 15 97 16 10 17 11 18 12 19 7 20 3 21 4 22 98 23 5 24
REMARK SMILES IDX 6 25 2 26 1 27 94 28 95 29 96 30 24 31 25 32 26 33 27 34
REMARK SMILES IDX 28 35 29 36 30 38 31 39 32 40 93 41 33 42 92 43 34 44 35 45
REMARK SMILES IDX 36 46 86 47 37 48 91 49 85 50 87 51 38 52 90 53 84 54 83 55
REMARK SMILES IDX 39 57 71 58 51 59 70 60 52 61 55 62 69 63 88 64 53 65 54 66
REMARK SMILES IDX 68 68 89 69 56 70 40 71 41 72 49 73 42 74 44 75 50 76 43 77
REMARK SMILES IDX 45 78 46 79 47 80 48 81 72 82 73 83 81 84 74 85 76 86 82 87
REMARK SMILES IDX 75 88 77 89 78 90 79 91 80 92 57 93 58 94 66 95 59 96 61 97
REMARK SMILES IDX 67 98 60 99 62 100 63 101 64 102 65 103
REMARK H PARENT 21 6 17 11 28 37 87 56 55 67
REMARK Flexibility Score: inf
ROOT
ATOM      1  C   UNL A   1      40.580  20.661  26.318  1.00  0.00     0.021 C 
ENDROOT
BRANCH   1   2
ATOM      2  C   UNL A   1      39.209  21.324  26.261  1.00  0.00     0.116 C 
BRANCH   2   3
ATOM      3  N   UNL A   1      39.266  22.755  26.461  1.00  0.00    -0.354 N 
ATOM      4  C   UNL A   1      38.301  23.701  26.247  1.00  0.00     0.242 C 
ATOM      5  O   UNL A   1      38.558  24.840  26.650  1.00  0.00    -0.273 OA
ATOM      6  H   UNL A   1      40.124  23.099  26.801  1.00  0.00     0.163 HD
BRANCH   4   7
ATOM      7  C   UNL A   1      36.909  23.318  25.647  1.00  0.00     0.173 C 
BRANCH   7   8
ATOM      8  N   UNL A   1      36.034  22.811  26.708  1.00  0.00    -0.342 N 
ATOM      9  C   UNL A   1      34.731  23.099  27.007  1.00  0.00     0.242 C 
ATOM     10  O   UNL A   1      34.228  22.435  27.919  1.00  0.00    -0.273 OA
ATOM     11  H   UNL A   1      36.455  22.152  27.306  1.00  0.00     0.164 HD
BRANCH   9  12
ATOM     12  C   UNL A   1      33.885  24.083  26.181  1.00  0.00     0.248 C 
BRANCH  12  13
ATOM     13  N   UNL A   1      33.118  23.512  25.073  1.00  0.00    -0.220 N 
ATOM     14  C   UNL A   1      32.526  21.630  23.924  1.00  0.00     0.091 A 
ATOM     15  C   UNL A   1      31.642  22.364  23.007  1.00  0.00     0.036 A 
ATOM     16  N   UNL A   1      33.205  22.147  24.894  1.00  0.00    -0.169 NA
ATOM     17  C   UNL A   1      31.491  23.663  23.264  1.00  0.00     0.075 A 
ATOM     18  C   UNL A   1      32.277  24.331  24.326  1.00  0.00     0.267 A 
ATOM     19  O   UNL A   1      32.207  25.550  24.439  1.00  0.00    -0.268 OA
BRANCH  14  20
ATOM     20  C   UNL A   1      32.532  20.174  23.745  1.00  0.00     0.006 A 
ATOM     21  C   UNL A   1      32.767  18.025  24.805  1.00  0.00     0.119 A 
ATOM     22  C   UNL A   1      32.582  17.419  23.558  1.00  0.00     0.046 A 
ATOM     23  C   UNL A   1      32.756  19.411  24.893  1.00  0.00     0.056 A 
ATOM     24  C   UNL A   1      32.366  18.191  22.408  1.00  0.00     0.005 A 
ATOM     25  C   UNL A   1      32.339  19.582  22.498  1.00  0.00     0.011 A 
BRANCH  21  26
ATOM     26  O   UNL A   1      32.972  17.179  25.860  1.00  0.00    -0.497 OA
ATOM     27  C   UNL A   1      32.633  15.811  25.630  1.00  0.00     0.278 C 
ENDBRANCH  21  26
ENDBRANCH  14  20
ENDBRANCH  12  13
ENDBRANCH   9  12
ENDBRANCH   7   8
BRANCH   7  28
ATOM     28  C   UNL A   1      37.059  22.281  24.495  1.00  0.00     0.015 C 
ATOM     29  C   UNL A   1      36.385  20.935  24.794  1.00  0.00     0.010 C 
ATOM     30  C   UNL A   1      36.472  22.826  23.184  1.00  0.00     0.010 C 
ENDBRANCH   7  28
ENDBRANCH   4   7
ENDBRANCH   2   3
ENDBRANCH   1   2
BRANCH   1  31
ATOM     31  C   UNL A   1      41.689  21.584  26.827  1.00  0.00     0.002 C 
BRANCH  31  32
ATOM     32  C   UNL A   1      42.958  21.611  25.966  1.00  0.00     0.002 C 
BRANCH  32  33
ATOM     33  C   UNL A   1      44.247  21.968  26.710  1.00  0.00     0.021 C 
BRANCH  33  34
ATOM     34  C   UNL A   1      44.832  23.337  26.387  1.00  0.00     0.116 C 
BRANCH  34  35
ATOM     35  N   UNL A   1      44.031  24.058  25.410  1.00  0.00    -0.352 N 
ATOM     36  C   UNL A   1      43.182  25.124  25.578  1.00  0.00     0.251 C 
ATOM     37  H   UNL A   1      44.110  23.731  24.485  1.00  0.00     0.163 HD
ATOM     38  O   UNL A   1      42.444  25.463  24.657  1.00  0.00    -0.269 OA
BRANCH  36  39
ATOM     39  C   UNL A   1      43.136  25.847  26.869  1.00  0.00     0.039 A 
ATOM     40  C   UNL A   1      44.075  26.853  27.109  1.00  0.00     0.014 A 
ATOM     41  C   UNL A   1      42.181  25.537  27.841  1.00  0.00     0.014 A 
ATOM     42  C   UNL A   1      44.009  27.597  28.290  1.00  0.00     0.010 A 
ATOM     43  C   UNL A   1      42.066  26.330  28.980  1.00  0.00     0.010 A 
ATOM     44  C   UNL A   1      42.976  27.371  29.216  1.00  0.00    -0.014 A 
BRANCH  44  45
ATOM     45  C   UNL A   1      42.804  28.246  30.405  1.00  0.00     0.031 A 
ATOM     46  C   UNL A   1      43.522  27.942  31.691  1.00  0.00     0.074 A 
ATOM     47  C   UNL A   1      41.925  29.266  30.349  1.00  0.00     0.049 A 
ATOM     48  N   UNL A   1      43.451  28.566  32.840  1.00  0.00    -0.248 NA
ATOM     49  C   UNL A   1      44.420  26.776  31.697  1.00  0.00     0.031 C 
ATOM     50  C   UNL A   1      41.108  29.613  29.184  1.00  0.00     0.029 A 
ATOM     51  N   UNL A   1      41.545  30.179  31.301  1.00  0.00    -0.354 N 
ATOM     52  C   UNL A   1      44.264  27.851  33.711  1.00  0.00     0.074 A 
ATOM     53  C   UNL A   1      44.797  26.731  32.967  1.00  0.00     0.031 C 
ATOM     54  C   UNL A   1      40.329  30.663  29.488  1.00  0.00     0.029 A 
ATOM     55  C   UNL A   1      40.557  31.039  30.878  1.00  0.00     0.049 A 
ATOM     56  H   UNL A   1      41.943  30.216  32.201  1.00  0.00     0.167 HD
ATOM     57  C   UNL A   1      44.560  28.117  35.006  1.00  0.00     0.034 A 
ATOM     58  C   UNL A   1      39.895  32.009  31.538  1.00  0.00     0.034 A 
ATOM     59  C   UNL A   1      44.048  29.248  35.733  1.00  0.00     0.049 A 
ATOM     60  C   UNL A   1      40.251  32.291  32.973  1.00  0.00     0.074 A 
ATOM     61  C   UNL A   1      44.365  29.660  37.017  1.00  0.00     0.029 A 
ATOM     62  N   UNL A   1      43.098  30.136  35.254  1.00  0.00    -0.354 N 
ATOM     63  N   UNL A   1      41.156  31.715  33.725  1.00  0.00    -0.248 NA
ATOM     64  C   UNL A   1      39.516  33.374  33.640  1.00  0.00     0.031 C 
ATOM     65  C   UNL A   1      43.576  30.773  37.326  1.00  0.00     0.029 A 
ATOM     66  C   UNL A   1      42.794  31.076  36.224  1.00  0.00     0.049 A 
ATOM     67  H   UNL A   1      42.697  30.102  34.355  1.00  0.00     0.167 HD
ATOM     68  C   UNL A   1      41.115  32.377  34.947  1.00  0.00     0.074 A 
ATOM     69  C   UNL A   1      40.118  33.421  34.822  1.00  0.00     0.031 C 
ATOM     70  C   UNL A   1      41.825  32.132  36.076  1.00  0.00     0.034 A 
BRANCH  57  71
ATOM     71  C   UNL A   1      45.513  27.189  35.715  1.00  0.00     0.023 A 
ATOM     72  C   UNL A   1      45.008  26.074  36.417  1.00  0.00     0.012 A 
ATOM     73  C   UNL A   1      46.907  27.379  35.634  1.00  0.00     0.148 A 
ATOM     74  C   UNL A   1      45.871  25.185  37.056  1.00  0.00     0.002 A 
ATOM     75  C   UNL A   1      47.762  26.462  36.234  1.00  0.00     0.091 A 
ATOM     76  F   UNL A   1      47.368  28.453  34.978  1.00  0.00    -0.205 F 
ATOM     77  C   UNL A   1      47.247  25.373  36.955  1.00  0.00     0.022 A 
BRANCH  75  78
ATOM     78  S   UNL A   1      49.550  26.568  36.096  1.00  0.00     0.127 S 
ATOM     79  O   UNL A   1      49.830  27.802  36.829  1.00  0.00    -0.237 OA
ATOM     80  O   UNL A   1      49.982  25.346  36.774  1.00  0.00    -0.237 OA
ATOM     81  O   UNL A   1      49.842  26.608  34.670  1.00  0.00    -0.744 OA
ENDBRANCH  75  78
ENDBRANCH  57  71
BRANCH  58  82
ATOM     82  C   UNL A   1      38.856  32.814  30.833  1.00  0.00     0.023 A 
ATOM     83  C   UNL A   1      39.240  33.961  30.111  1.00  0.00     0.012 A 
ATOM     84  C   UNL A   1      37.500  32.431  30.842  1.00  0.00     0.148 A 
ATOM     85  C   UNL A   1      38.289  34.731  29.441  1.00  0.00     0.002 A 
ATOM     86  C   UNL A   1      36.567  33.168  30.123  1.00  0.00     0.091 A 
ATOM     87  F   UNL A   1      37.152  31.342  31.542  1.00  0.00    -0.205 F 
ATOM     88  C   UNL A   1      36.955  34.329  29.437  1.00  0.00     0.022 A 
BRANCH  86  89
ATOM     89  S   UNL A   1      34.856  32.649  29.943  1.00  0.00     0.127 S 
ATOM     90  O   UNL A   1      34.307  33.707  29.099  1.00  0.00    -0.237 OA
ATOM     91  O   UNL A   1      35.000  31.349  29.286  1.00  0.00    -0.237 OA
ATOM     92  O   UNL A   1      34.319  32.576  31.296  1.00  0.00    -0.744 OA
ENDBRANCH  86  89
ENDBRANCH  58  82
BRANCH  70  93
ATOM     93  C   UNL A   1      41.562  33.012  37.272  1.00  0.00     0.023 A 
ATOM     94  C   UNL A   1      42.455  34.058  37.578  1.00  0.00     0.012 A 
ATOM     95  C   UNL A   1      40.394  32.853  38.043  1.00  0.00     0.148 A 
ATOM     96  C   UNL A   1      42.206  34.913  38.650  1.00  0.00     0.002 A 
ATOM     97  C   UNL A   1      40.125  33.739  39.079  1.00  0.00     0.091 A 
ATOM     98  F   UNL A   1      39.564  31.843  37.745  1.00  0.00    -0.205 F 
ATOM     99  C   UNL A   1      41.036  34.761  39.392  1.00  0.00     0.022 A 
BRANCH  97 100
ATOM    100  S   UNL A   1      38.604  33.683  40.032  1.00  0.00     0.127 S 
ATOM    101  O   UNL A   1      38.879  32.592  40.967  1.00  0.00    -0.237 OA
ATOM    102  O   UNL A   1      38.573  35.014  40.640  1.00  0.00    -0.237 OA
ATOM    103  O   UNL A   1      37.536  33.427  39.075  1.00  0.00    -0.744 OA
ENDBRANCH  97 100
ENDBRANCH  70  93
ENDBRANCH  44  45
ENDBRANCH  36  39
ENDBRANCH  34  35
ENDBRANCH  33  34
ENDBRANCH  32  33
ENDBRANCH  31  32
ENDBRANCH   1  31
TORSDOF 22
ENDMDL
MODEL 3
REMARK VINA RESULT:      -9.8      6.018     11.684
REMARK SMILES COc1cccc(-c2ccc(=O)n(CC(=O)N[C@@H](C(=O)NCCCCCCNC(=O)c3ccc(-c4c5nc(c(-c6cccc(S(=O)(=O)[O-])c6F)c6ccc([nH]6)c(-c6cccc(S(=O)(=O)[O-])c6F)c6nc(c(-c7cccc(S(=O)(=O)[O-])c7F)c7ccc4[nH]7)C=C6)C=C5)cc3)C(C)C)n2)c1
REMARK SMILES IDX 23 1 22 2 21 3 19 4 20 5 18 7 17 8 15 9 16 10 14 12 13 13
REMARK SMILES IDX 8 14 9 15 97 16 10 17 11 18 12 19 7 20 3 21 4 22 98 23 5 24
REMARK SMILES IDX 6 25 2 26 1 27 94 28 95 29 96 30 24 31 25 32 26 33 27 34
REMARK SMILES IDX 28 35 29 36 30 38 31 39 32 40 93 41 33 42 92 43 34 44 35 45
REMARK SMILES IDX 36 46 86 47 37 48 91 49 85 50 87 51 38 52 90 53 84 54 83 55
REMARK SMILES IDX 39 57 71 58 51 59 70 60 52 61 55 62 69 63 88 64 53 65 54 66
REMARK SMILES IDX 68 68 89 69 56 70 40 71 41 72 49 73 42 74 44 75 50 76 43 77
REMARK SMILES IDX 45 78 46 79 47 80 48 81 72 82 73 83 81 84 74 85 76 86 82 87
REMARK SMILES IDX 75 88 77 89 78 90 79 91 80 92 57 93 58 94 66 95 59 96 61 97
REMARK SMILES IDX 67 98 60 99 62 100 63 101 64 102 65 103
REMARK H PARENT 21 6 17 11 28 37 87 56 55 67
REMARK Flexibility Score: inf
ROOT
ATOM      1  C   UNL A   1      41.409  34.142  33.233  1.00  0.00     0.021 C 
ENDROOT
BRANCH   1   2
ATOM      2  C   UNL A   1      41.938  32.837  33.814  1.00  0.00     0.116 C 
BRANCH   2   3
ATOM      3  N   UNL A   1      42.925  33.039  34.850  1.00  0.00    -0.354 N 
ATOM      4  C   UNL A   1      43.907  32.196  35.292  1.00  0.00     0.242 C 
ATOM      5  O   UNL A   1      44.721  32.678  36.086  1.00  0.00    -0.273 OA
ATOM      6  H   UNL A   1      42.885  33.912  35.305  1.00  0.00     0.163 HD
BRANCH   4   7
ATOM      7  C   UNL A   1      44.055  30.750  34.713  1.00  0.00     0.173 C 
BRANCH   7   8
ATOM      8  N   UNL A   1      45.312  30.156  35.177  1.00  0.00    -0.342 N 
ATOM      9  C   UNL A   1      45.549  29.045  35.937  1.00  0.00     0.242 C 
ATOM     10  O   UNL A   1      46.737  28.740  36.089  1.00  0.00    -0.273 OA
ATOM     11  H   UNL A   1      46.122  30.639  34.894  1.00  0.00     0.164 HD
BRANCH   9  12
ATOM     12  C   UNL A   1      44.423  28.137  36.460  1.00  0.00     0.248 C 
BRANCH  12  13
ATOM     13  N   UNL A   1      44.211  26.882  35.740  1.00  0.00    -0.220 N 
ATOM     14  C   UNL A   1      44.322  25.776  33.745  1.00  0.00     0.091 A 
ATOM     15  C   UNL A   1      43.869  24.504  34.327  1.00  0.00     0.036 A 
ATOM     16  N   UNL A   1      44.498  26.882  34.391  1.00  0.00    -0.169 NA
ATOM     17  C   UNL A   1      43.699  24.500  35.649  1.00  0.00     0.075 A 
ATOM     18  C   UNL A   1      43.833  25.742  36.443  1.00  0.00     0.267 A 
ATOM     19  O   UNL A   1      43.536  25.721  37.633  1.00  0.00    -0.268 OA
BRANCH  14  20
ATOM     20  C   UNL A   1      44.687  25.713  32.326  1.00  0.00     0.006 A 
ATOM     21  C   UNL A   1      46.001  26.666  30.549  1.00  0.00     0.119 A 
ATOM     22  C   UNL A   1      45.456  25.722  29.673  1.00  0.00     0.046 A 
ATOM     23  C   UNL A   1      45.601  26.668  31.879  1.00  0.00     0.056 A 
ATOM     24  C   UNL A   1      44.532  24.770  30.127  1.00  0.00     0.005 A 
ATOM     25  C   UNL A   1      44.141  24.761  31.465  1.00  0.00     0.011 A 
BRANCH  21  26
ATOM     26  O   UNL A   1      46.891  27.549  30.001  1.00  0.00    -0.497 OA
ATOM     27  C   UNL A   1      48.070  27.793  30.768  1.00  0.00     0.278 C 
ENDBRANCH  21  26
ENDBRANCH  14  20
ENDBRANCH  12  13
ENDBRANCH   9  12
ENDBRANCH   7   8
BRANCH   7  28
ATOM     28  C   UNL A   1      43.972  30.755  33.158  1.00  0.00     0.015 C 
ATOM     29  C   UNL A   1      45.323  30.510  32.475  1.00  0.00     0.010 C 
ATOM     30  C   UNL A   1      42.984  29.691  32.656  1.00  0.00     0.010 C 
ENDBRANCH   7  28
ENDBRANCH   4   7
ENDBRANCH   2   3
ENDBRANCH   1   2
BRANCH   1  31
ATOM     31  C   UNL A   1      39.935  34.403  33.546  1.00  0.00     0.002 C 
BRANCH  31  32
ATOM     32  C   UNL A   1      39.023  34.533  32.319  1.00  0.00     0.002 C 
BRANCH  32  33
ATOM     33  C   UNL A   1      37.548  34.806  32.625  1.00  0.00     0.021 C 
BRANCH  33  34
ATOM     34  C   UNL A   1      36.975  34.048  33.815  1.00  0.00     0.116 C 
BRANCH  34  35
ATOM     35  N   UNL A   1      35.720  33.386  33.491  1.00  0.00    -0.352 N 
ATOM     36  C   UNL A   1      35.455  32.398  32.576  1.00  0.00     0.251 C 
ATOM     37  H   UNL A   1      34.942  33.695  34.008  1.00  0.00     0.163 HD
ATOM     38  O   UNL A   1      34.290  32.112  32.313  1.00  0.00    -0.269 OA
BRANCH  36  39
ATOM     39  C   UNL A   1      36.563  31.695  31.890  1.00  0.00     0.039 A 
ATOM     40  C   UNL A   1      36.702  31.846  30.508  1.00  0.00     0.014 A 
ATOM     41  C   UNL A   1      37.458  30.887  32.598  1.00  0.00     0.014 A 
ATOM     42  C   UNL A   1      37.780  31.250  29.849  1.00  0.00     0.010 A 
ATOM     43  C   UNL A   1      38.575  30.361  31.955  1.00  0.00     0.010 A 
ATOM     44  C   UNL A   1      38.751  30.539  30.575  1.00  0.00    -0.014 A 
BRANCH  44  45
ATOM     45  C   UNL A   1      39.978  30.022  29.914  1.00  0.00     0.031 A 
ATOM     46  C   UNL A   1      41.199  30.890  29.775  1.00  0.00     0.074 A 
ATOM     47  C   UNL A   1      39.956  28.796  29.354  1.00  0.00     0.049 A 
ATOM     48  N   UNL A   1      42.335  30.622  29.185  1.00  0.00    -0.248 NA
ATOM     49  C   UNL A   1      41.129  32.241  30.356  1.00  0.00     0.031 C 
ATOM     50  C   UNL A   1      38.805  27.891  29.351  1.00  0.00     0.029 A 
ATOM     51  N   UNL A   1      40.917  28.111  28.653  1.00  0.00    -0.354 N 
ATOM     52  C   UNL A   1      43.101  31.778  29.291  1.00  0.00     0.074 A 
ATOM     53  C   UNL A   1      42.290  32.758  29.979  1.00  0.00     0.031 C 
ATOM     54  C   UNL A   1      39.126  26.771  28.686  1.00  0.00     0.029 A 
ATOM     55  C   UNL A   1      40.489  26.892  28.179  1.00  0.00     0.049 A 
ATOM     56  H   UNL A   1      41.825  28.458  28.504  1.00  0.00     0.167 HD
ATOM     57  C   UNL A   1      44.373  31.993  28.877  1.00  0.00     0.034 A 
ATOM     58  C   UNL A   1      41.113  25.981  27.408  1.00  0.00     0.034 A 
ATOM     59  C   UNL A   1      45.183  31.005  28.217  1.00  0.00     0.049 A 
ATOM     60  C   UNL A   1      42.530  26.241  26.970  1.00  0.00     0.074 A 
ATOM     61  C   UNL A   1      46.515  31.094  27.847  1.00  0.00     0.029 A 
ATOM     62  N   UNL A   1      44.739  29.758  27.809  1.00  0.00    -0.354 N 
ATOM     63  N   UNL A   1      43.298  27.268  27.237  1.00  0.00    -0.248 NA
ATOM     64  C   UNL A   1      43.173  25.206  26.150  1.00  0.00     0.031 C 
ATOM     65  C   UNL A   1      46.862  29.915  27.179  1.00  0.00     0.029 A 
ATOM     66  C   UNL A   1      45.759  29.077  27.164  1.00  0.00     0.049 A 
ATOM     67  H   UNL A   1      43.830  29.407  27.955  1.00  0.00     0.167 HD
ATOM     68  C   UNL A   1      44.522  26.995  26.637  1.00  0.00     0.074 A 
ATOM     69  C   UNL A   1      44.402  25.690  26.021  1.00  0.00     0.031 C 
ATOM     70  C   UNL A   1      45.639  27.764  26.586  1.00  0.00     0.034 A 
BRANCH  57  71
ATOM     71  C   UNL A   1      44.985  33.342  29.158  1.00  0.00     0.023 A 
ATOM     72  C   UNL A   1      45.896  33.485  30.226  1.00  0.00     0.012 A 
ATOM     73  C   UNL A   1      44.712  34.450  28.332  1.00  0.00     0.148 A 
ATOM     74  C   UNL A   1      46.498  34.715  30.488  1.00  0.00     0.002 A 
ATOM     75  C   UNL A   1      45.352  35.661  28.571  1.00  0.00     0.091 A 
ATOM     76  F   UNL A   1      43.830  34.301  27.333  1.00  0.00    -0.205 F 
ATOM     77  C   UNL A   1      46.234  35.798  29.655  1.00  0.00     0.022 A 
BRANCH  75  78
ATOM     78  S   UNL A   1      45.144  37.095  27.510  1.00  0.00     0.127 S 
ATOM     79  O   UNL A   1      45.281  38.192  28.468  1.00  0.00    -0.237 OA
ATOM     80  O   UNL A   1      46.266  36.954  26.582  1.00  0.00    -0.237 OA
ATOM     81  O   UNL A   1      43.829  36.959  26.901  1.00  0.00    -0.744 OA
ENDBRANCH  75  78
ENDBRANCH  57  71
BRANCH  58  82
ATOM     82  C   UNL A   1      40.416  24.716  27.036  1.00  0.00     0.023 A 
ATOM     83  C   UNL A   1      39.192  24.777  26.342  1.00  0.00     0.012 A 
ATOM     84  C   UNL A   1      40.973  23.456  27.333  1.00  0.00     0.148 A 
ATOM     85  C   UNL A   1      38.520  23.609  25.980  1.00  0.00     0.002 A 
ATOM     86  C   UNL A   1      40.330  22.297  26.917  1.00  0.00     0.091 A 
ATOM     87  F   UNL A   1      42.134  23.417  28.003  1.00  0.00    -0.205 F 
ATOM     88  C   UNL A   1      39.093  22.370  26.257  1.00  0.00     0.022 A 
BRANCH  86  89
ATOM     89  S   UNL A   1      41.060  20.666  27.102  1.00  0.00     0.127 S 
ATOM     90  O   UNL A   1      42.453  20.916  26.742  1.00  0.00    -0.237 OA
ATOM     91  O   UNL A   1      40.830  20.390  28.521  1.00  0.00    -0.237 OA
ATOM     92  O   UNL A   1      40.319  19.795  26.199  1.00  0.00    -0.744 OA
ENDBRANCH  86  89
ENDBRANCH  58  82
BRANCH  70  93
ATOM     93  C   UNL A   1      46.831  27.214  25.845  1.00  0.00     0.023 A 
ATOM     94  C   UNL A   1      47.605  26.192  26.430  1.00  0.00     0.012 A 
ATOM     95  C   UNL A   1      47.138  27.653  24.542  1.00  0.00     0.148 A 
ATOM     96  C   UNL A   1      48.683  25.636  25.743  1.00  0.00     0.002 A 
ATOM     97  C   UNL A   1      48.183  27.061  23.843  1.00  0.00     0.091 A 
ATOM     98  F   UNL A   1      46.399  28.637  24.009  1.00  0.00    -0.205 F 
ATOM     99  C   UNL A   1      48.964  26.062  24.446  1.00  0.00     0.022 A 
BRANCH  97 100
ATOM    100  S   UNL A   1      48.565  27.474  22.138  1.00  0.00     0.127 S 
ATOM    101  O   UNL A   1      48.764  26.150  21.548  1.00  0.00    -0.237 OA
ATOM    102  O   UNL A   1      47.346  28.157  21.706  1.00  0.00    -0.237 OA
ATOM    103  O   UNL A   1      49.751  28.318  22.182  1.00  0.00    -0.744 OA
ENDBRANCH  97 100
ENDBRANCH  70  93
ENDBRANCH  44  45
ENDBRANCH  36  39
ENDBRANCH  34  35
ENDBRANCH  33  34
ENDBRANCH  32  33
ENDBRANCH  31  32
ENDBRANCH   1  31
TORSDOF 22
ENDMDL
