MODEL 1
REMARK VINA RESULT:     -12.4      0.000      0.000
REMARK SMILES Cc1cc2c(c(C)c1Cl)C=C(C(=O)NCCCCCCNC(=O)c1ccc(-c3c4nc(c(-c5cccc(S(=O)(=O)[O-])c5F)c5ccc([nH]5)c(-c5cccc(S(=O)(=O)[O-])c5F)c5nc(c(-c6cccc(S(=O)(=O)[O-])c6F)c6ccc3[nH]6)C=C5)C=C4)cc1)[C@@H](C(F)(F)F)O2
REMARK SMILES IDX 18 1 17 2 16 3 15 4 14 5 12 6 13 7 11 9 1 10 2 11 3 12 8 13
REMARK SMILES IDX 4 14 6 15 9 16 5 17 92 18 7 19 10 20 87 21 88 22 89 23 90 24
REMARK SMILES IDX 91 25 19 26 20 27 21 28 22 29 23 31 24 32 25 33 86 34 26 35
REMARK SMILES IDX 85 36 27 37 28 38 29 39 79 40 30 41 84 42 78 43 80 44 31 45
REMARK SMILES IDX 83 46 77 47 76 48 32 50 64 51 44 52 63 53 45 54 48 55 62 56
REMARK SMILES IDX 81 57 46 58 47 59 61 61 82 62 49 63 33 64 34 65 42 66 35 67
REMARK SMILES IDX 37 68 43 69 36 70 38 71 39 72 40 73 41 74 65 75 66 76 74 77
REMARK SMILES IDX 67 78 69 79 75 80 68 81 70 82 71 83 72 84 73 85 50 86 51 87
REMARK SMILES IDX 59 88 52 89 54 90 60 91 53 92 55 93 56 94 57 95 58 96
REMARK H PARENT 14 8 21 30 80 49 48 60
REMARK Flexibility Score: inf
ROOT
ATOM      1  C   UNL A   1      35.629  23.627  23.586  1.00  0.00     0.002 C 
ENDROOT
BRANCH   1   2
ATOM      2  C   UNL A   1      34.974  24.529  24.640  1.00  0.00     0.002 C 
BRANCH   2   3
ATOM      3  C   UNL A   1      34.387  25.844  24.115  1.00  0.00     0.021 C 
BRANCH   3   4
ATOM      4  C   UNL A   1      33.275  26.427  24.984  1.00  0.00     0.116 C 
BRANCH   4   5
ATOM      5  N   UNL A   1      31.959  26.088  24.468  1.00  0.00    -0.352 N 
ATOM      6  C   UNL A   1      31.199  24.976  24.336  1.00  0.00     0.251 C 
ATOM      7  O   UNL A   1      30.087  25.165  23.830  1.00  0.00    -0.270 OA
ATOM      8  H   UNL A   1      31.494  26.884  24.121  1.00  0.00     0.163 HD
BRANCH   6   9
ATOM      9  C   UNL A   1      31.596  23.594  24.744  1.00  0.00     0.067 C 
ATOM     10  C   UNL A   1      33.399  17.343  25.145  1.00  0.00     0.046 C 
ATOM     11  C   UNL A   1      32.975  18.719  24.708  1.00  0.00    -0.028 A 
ATOM     12  C   UNL A   1      32.903  19.727  25.674  1.00  0.00     0.052 A 
ATOM     13  C   UNL A   1      32.607  19.022  23.382  1.00  0.00     0.047 A 
ATOM     14  C   UNL A   1      32.495  21.011  25.329  1.00  0.00     0.128 A 
ATOM     15  C   UNL A   1      32.203  20.330  23.014  1.00  0.00    -0.021 A 
ATOM     16  Cl  UNL A   1      32.659  17.748  22.199  1.00  0.00    -0.084 Cl
ATOM     17  C   UNL A   1      32.160  21.335  24.012  1.00  0.00     0.022 A 
ATOM     18  O   UNL A   1      32.494  21.915  26.349  1.00  0.00    -0.475 OA
ATOM     19  C   UNL A   1      31.825  20.680  21.594  1.00  0.00     0.047 C 
ATOM     20  C   UNL A   1      31.811  22.733  23.732  1.00  0.00     0.026 C 
ATOM     21  C   UNL A   1      31.712  23.122  26.164  1.00  0.00     0.314 C 
BRANCH  21  22
ATOM     22  C   UNL A   1      30.342  22.956  26.847  1.00  0.00     0.429 C 
ATOM     23  F   UNL A   1      29.657  24.124  26.835  1.00  0.00    -0.167 F 
ATOM     24  F   UNL A   1      29.563  22.044  26.220  1.00  0.00    -0.167 F 
ATOM     25  F   UNL A   1      30.456  22.558  28.134  1.00  0.00    -0.167 F 
ENDBRANCH  21  22
ENDBRANCH   6   9
ENDBRANCH   4   5
ENDBRANCH   3   4
ENDBRANCH   2   3
ENDBRANCH   1   2
BRANCH   1  26
ATOM     26  C   UNL A   1      36.001  22.217  24.055  1.00  0.00     0.021 C 
BRANCH  26  27
ATOM     27  C   UNL A   1      36.610  22.139  25.450  1.00  0.00     0.116 C 
BRANCH  27  28
ATOM     28  N   UNL A   1      37.596  21.076  25.567  1.00  0.00    -0.352 N 
ATOM     29  C   UNL A   1      38.904  21.156  25.973  1.00  0.00     0.251 C 
ATOM     30  H   UNL A   1      37.280  20.176  25.320  1.00  0.00     0.163 HD
ATOM     31  O   UNL A   1      39.646  20.184  25.866  1.00  0.00    -0.269 OA
BRANCH  29  32
ATOM     32  C   UNL A   1      39.421  22.430  26.515  1.00  0.00     0.039 A 
ATOM     33  C   UNL A   1      40.440  22.395  27.468  1.00  0.00     0.014 A 
ATOM     34  C   UNL A   1      38.918  23.654  26.061  1.00  0.00     0.014 A 
ATOM     35  C   UNL A   1      40.999  23.590  27.922  1.00  0.00     0.010 A 
ATOM     36  C   UNL A   1      39.521  24.843  26.466  1.00  0.00     0.010 A 
ATOM     37  C   UNL A   1      40.567  24.823  27.401  1.00  0.00    -0.014 A 
BRANCH  37  38
ATOM     38  C   UNL A   1      41.223  26.088  27.813  1.00  0.00     0.031 A 
ATOM     39  C   UNL A   1      42.645  26.373  27.424  1.00  0.00     0.074 A 
ATOM     40  C   UNL A   1      40.543  26.963  28.580  1.00  0.00     0.049 A 
ATOM     41  N   UNL A   1      43.355  27.448  27.645  1.00  0.00    -0.248 NA
ATOM     42  C   UNL A   1      43.375  25.310  26.713  1.00  0.00     0.031 C 
ATOM     43  C   UNL A   1      39.188  26.756  29.096  1.00  0.00     0.029 A 
ATOM     44  N   UNL A   1      40.895  28.199  29.063  1.00  0.00    -0.354 N 
ATOM     45  C   UNL A   1      44.612  27.190  27.114  1.00  0.00     0.074 A 
ATOM     46  C   UNL A   1      44.587  25.837  26.602  1.00  0.00     0.031 C 
ATOM     47  C   UNL A   1      38.813  27.837  29.796  1.00  0.00     0.029 A 
ATOM     48  C   UNL A   1      39.900  28.811  29.791  1.00  0.00     0.049 A 
ATOM     49  H   UNL A   1      41.776  28.608  28.905  1.00  0.00     0.167 HD
ATOM     50  C   UNL A   1      45.677  28.020  27.020  1.00  0.00     0.034 A 
ATOM     51  C   UNL A   1      39.859  30.030  30.365  1.00  0.00     0.034 A 
ATOM     52  C   UNL A   1      45.679  29.378  27.486  1.00  0.00     0.049 A 
ATOM     53  C   UNL A   1      41.038  30.952  30.204  1.00  0.00     0.074 A 
ATOM     54  C   UNL A   1      46.681  30.324  27.368  1.00  0.00     0.029 A 
ATOM     55  N   UNL A   1      44.628  29.987  28.155  1.00  0.00    -0.354 N 
ATOM     56  N   UNL A   1      42.157  30.750  29.551  1.00  0.00    -0.248 NA
ATOM     57  C   UNL A   1      40.938  32.283  30.822  1.00  0.00     0.031 C 
ATOM     58  C   UNL A   1      46.239  31.503  27.973  1.00  0.00     0.029 A 
ATOM     59  C   UNL A   1      44.957  31.295  28.458  1.00  0.00     0.049 A 
ATOM     60  H   UNL A   1      43.775  29.551  28.382  1.00  0.00     0.167 HD
ATOM     61  C   UNL A   1      42.878  31.934  29.648  1.00  0.00     0.074 A 
ATOM     62  C   UNL A   1      42.064  32.857  30.413  1.00  0.00     0.031 C 
ATOM     63  C   UNL A   1      44.109  32.223  29.162  1.00  0.00     0.034 A 
BRANCH  50  64
ATOM     64  C   UNL A   1      46.901  27.517  26.303  1.00  0.00     0.023 A 
ATOM     65  C   UNL A   1      47.767  26.628  26.973  1.00  0.00     0.012 A 
ATOM     66  C   UNL A   1      47.150  27.841  24.956  1.00  0.00     0.148 A 
ATOM     67  C   UNL A   1      48.874  26.088  26.323  1.00  0.00     0.002 A 
ATOM     68  C   UNL A   1      48.235  27.268  24.301  1.00  0.00     0.091 A 
ATOM     69  F   UNL A   1      46.327  28.704  24.342  1.00  0.00    -0.205 F 
ATOM     70  C   UNL A   1      49.101  26.398  24.985  1.00  0.00     0.022 A 
BRANCH  68  71
ATOM     71  S   UNL A   1      48.572  27.542  22.557  1.00  0.00     0.127 S 
ATOM     72  O   UNL A   1      49.829  28.286  22.614  1.00  0.00    -0.237 OA
ATOM     73  O   UNL A   1      48.695  26.176  22.047  1.00  0.00    -0.237 OA
ATOM     74  O   UNL A   1      47.430  28.282  22.041  1.00  0.00    -0.744 OA
ENDBRANCH  68  71
ENDBRANCH  50  64
BRANCH  51  75
ATOM     75  C   UNL A   1      38.606  30.487  31.030  1.00  0.00     0.023 A 
ATOM     76  C   UNL A   1      38.476  30.332  32.423  1.00  0.00     0.012 A 
ATOM     77  C   UNL A   1      37.580  31.136  30.314  1.00  0.00     0.148 A 
ATOM     78  C   UNL A   1      37.342  30.798  33.091  1.00  0.00     0.002 A 
ATOM     79  C   UNL A   1      36.478  31.646  30.992  1.00  0.00     0.091 A 
ATOM     80  F   UNL A   1      37.716  31.263  28.986  1.00  0.00    -0.205 F 
ATOM     81  C   UNL A   1      36.350  31.466  32.378  1.00  0.00     0.022 A 
BRANCH  79  82
ATOM     82  S   UNL A   1      35.224  32.641  30.176  1.00  0.00     0.127 S 
ATOM     83  O   UNL A   1      34.741  31.727  29.144  1.00  0.00    -0.237 OA
ATOM     84  O   UNL A   1      34.280  32.895  31.266  1.00  0.00    -0.237 OA
ATOM     85  O   UNL A   1      35.919  33.829  29.700  1.00  0.00    -0.744 OA
ENDBRANCH  79  82
ENDBRANCH  51  75
BRANCH  63  86
ATOM     86  C   UNL A   1      44.673  33.596  29.412  1.00  0.00     0.023 A 
ATOM     87  C   UNL A   1      45.414  33.833  30.586  1.00  0.00     0.012 A 
ATOM     88  C   UNL A   1      44.608  34.591  28.416  1.00  0.00     0.148 A 
ATOM     89  C   UNL A   1      46.079  35.044  30.768  1.00  0.00     0.002 A 
ATOM     90  C   UNL A   1      45.311  35.778  28.585  1.00  0.00     0.091 A 
ATOM     91  F   UNL A   1      43.887  34.344  27.313  1.00  0.00    -0.205 F 
ATOM     92  C   UNL A   1      46.041  36.008  29.763  1.00  0.00     0.022 A 
BRANCH  90  93
ATOM     93  S   UNL A   1      45.409  37.036  27.306  1.00  0.00     0.127 S 
ATOM     94  O   UNL A   1      43.996  37.340  27.080  1.00  0.00    -0.237 OA
ATOM     95  O   UNL A   1      46.162  38.098  27.974  1.00  0.00    -0.237 OA
ATOM     96  O   UNL A   1      46.097  36.418  26.182  1.00  0.00    -0.744 OA
ENDBRANCH  90  93
ENDBRANCH  63  86
ENDBRANCH  37  38
ENDBRANCH  29  32
ENDBRANCH  27  28
ENDBRANCH  26  27
ENDBRANCH   1  26
TORSDOF 17
ENDMDL
MODEL 2
REMARK VINA RESULT:     -12.1      2.230      3.717
REMARK SMILES Cc1cc2c(c(C)c1Cl)C=C(C(=O)NCCCCCCNC(=O)c1ccc(-c3c4nc(c(-c5cccc(S(=O)(=O)[O-])c5F)c5ccc([nH]5)c(-c5cccc(S(=O)(=O)[O-])c5F)c5nc(c(-c6cccc(S(=O)(=O)[O-])c6F)c6ccc3[nH]6)C=C5)C=C4)cc1)[C@@H](C(F)(F)F)O2
REMARK SMILES IDX 18 1 17 2 16 3 15 4 14 5 12 6 13 7 11 9 1 10 2 11 3 12 8 13
REMARK SMILES IDX 4 14 6 15 9 16 5 17 92 18 7 19 10 20 87 21 88 22 89 23 90 24
REMARK SMILES IDX 91 25 19 26 20 27 21 28 22 29 23 31 24 32 25 33 86 34 26 35
REMARK SMILES IDX 85 36 27 37 28 38 29 39 79 40 30 41 84 42 78 43 80 44 31 45
REMARK SMILES IDX 83 46 77 47 76 48 32 50 64 51 44 52 63 53 45 54 48 55 62 56
REMARK SMILES IDX 81 57 46 58 47 59 61 61 82 62 49 63 33 64 34 65 42 66 35 67
REMARK SMILES IDX 37 68 43 69 36 70 38 71 39 72 40 73 41 74 65 75 66 76 74 77
REMARK SMILES IDX 67 78 69 79 75 80 68 81 70 82 71 83 72 84 73 85 50 86 51 87
REMARK SMILES IDX 59 88 52 89 54 90 60 91 53 92 55 93 56 94 57 95 58 96
REMARK H PARENT 14 8 21 30 80 49 48 60
REMARK Flexibility Score: inf
ROOT
ATOM      1  C   UNL A   1      36.219  23.139  23.528  1.00  0.00     0.002 C 
ENDROOT
BRANCH   1   2
ATOM      2  C   UNL A   1      34.759  22.946  23.099  1.00  0.00     0.002 C 
BRANCH   2   3
ATOM      3  C   UNL A   1      33.862  22.220  24.107  1.00  0.00     0.021 C 
BRANCH   3   4
ATOM      4  C   UNL A   1      32.475  22.837  24.273  1.00  0.00     0.116 C 
BRANCH   4   5
ATOM      5  N   UNL A   1      32.216  23.210  25.654  1.00  0.00    -0.352 N 
ATOM      6  C   UNL A   1      31.881  24.330  26.334  1.00  0.00     0.251 C 
ATOM      7  O   UNL A   1      31.745  24.175  27.553  1.00  0.00    -0.270 OA
ATOM      8  H   UNL A   1      32.309  22.437  26.256  1.00  0.00     0.163 HD
BRANCH   6   9
ATOM      9  C   UNL A   1      31.673  25.685  25.738  1.00  0.00     0.067 C 
ATOM     10  C   UNL A   1      29.460  31.141  22.943  1.00  0.00     0.046 C 
ATOM     11  C   UNL A   1      29.649  29.761  23.513  1.00  0.00    -0.028 A 
ATOM     12  C   UNL A   1      30.835  29.488  24.201  1.00  0.00     0.052 A 
ATOM     13  C   UNL A   1      28.707  28.727  23.346  1.00  0.00     0.047 A 
ATOM     14  C   UNL A   1      31.072  28.222  24.727  1.00  0.00     0.128 A 
ATOM     15  C   UNL A   1      28.929  27.438  23.890  1.00  0.00    -0.021 A 
ATOM     16  Cl  UNL A   1      27.255  29.070  22.451  1.00  0.00    -0.084 Cl
ATOM     17  C   UNL A   1      30.132  27.197  24.599  1.00  0.00     0.022 A 
ATOM     18  O   UNL A   1      32.248  28.084  25.403  1.00  0.00    -0.475 OA
ATOM     19  C   UNL A   1      27.922  26.322  23.739  1.00  0.00     0.047 C 
ATOM     20  C   UNL A   1      30.440  25.918  25.251  1.00  0.00     0.026 C 
ATOM     21  C   UNL A   1      32.738  26.735  25.612  1.00  0.00     0.314 C 
BRANCH  21  22
ATOM     22  C   UNL A   1      33.782  26.395  24.533  1.00  0.00     0.429 C 
ATOM     23  F   UNL A   1      34.393  27.519  24.089  1.00  0.00    -0.167 F 
ATOM     24  F   UNL A   1      34.759  25.584  25.002  1.00  0.00    -0.167 F 
ATOM     25  F   UNL A   1      33.232  25.774  23.466  1.00  0.00    -0.167 F 
ENDBRANCH  21  22
ENDBRANCH   6   9
ENDBRANCH   4   5
ENDBRANCH   3   4
ENDBRANCH   2   3
ENDBRANCH   1   2
BRANCH   1  26
ATOM     26  C   UNL A   1      36.980  21.861  23.894  1.00  0.00     0.021 C 
BRANCH  26  27
ATOM     27  C   UNL A   1      37.231  21.662  25.384  1.00  0.00     0.116 C 
BRANCH  27  28
ATOM     28  N   UNL A   1      38.235  20.642  25.647  1.00  0.00    -0.352 N 
ATOM     29  C   UNL A   1      39.501  20.791  26.157  1.00  0.00     0.251 C 
ATOM     30  H   UNL A   1      37.969  19.719  25.428  1.00  0.00     0.163 HD
ATOM     31  O   UNL A   1      40.278  19.841  26.171  1.00  0.00    -0.269 OA
BRANCH  29  32
ATOM     32  C   UNL A   1      39.930  22.111  26.664  1.00  0.00     0.039 A 
ATOM     33  C   UNL A   1      40.861  22.165  27.703  1.00  0.00     0.014 A 
ATOM     34  C   UNL A   1      39.434  23.289  26.095  1.00  0.00     0.014 A 
ATOM     35  C   UNL A   1      41.343  23.403  28.130  1.00  0.00     0.010 A 
ATOM     36  C   UNL A   1      39.964  24.518  26.478  1.00  0.00     0.010 A 
ATOM     37  C   UNL A   1      40.923  24.588  27.500  1.00  0.00    -0.014 A 
BRANCH  37  38
ATOM     38  C   UNL A   1      41.503  25.896  27.890  1.00  0.00     0.031 A 
ATOM     39  C   UNL A   1      42.909  26.256  27.502  1.00  0.00     0.074 A 
ATOM     40  C   UNL A   1      40.770  26.745  28.638  1.00  0.00     0.049 A 
ATOM     41  N   UNL A   1      43.554  27.374  27.706  1.00  0.00    -0.248 NA
ATOM     42  C   UNL A   1      43.702  25.223  26.815  1.00  0.00     0.031 C 
ATOM     43  C   UNL A   1      39.426  26.470  29.152  1.00  0.00     0.029 A 
ATOM     44  N   UNL A   1      41.048  28.008  29.099  1.00  0.00    -0.354 N 
ATOM     45  C   UNL A   1      44.827  27.179  27.185  1.00  0.00     0.074 A 
ATOM     46  C   UNL A   1      44.882  25.817  26.699  1.00  0.00     0.031 C 
ATOM     47  C   UNL A   1      38.986  27.541  29.829  1.00  0.00     0.029 A 
ATOM     48  C   UNL A   1      40.015  28.576  29.810  1.00  0.00     0.049 A 
ATOM     49  H   UNL A   1      41.904  28.464  28.937  1.00  0.00     0.167 HD
ATOM     50  C   UNL A   1      45.843  28.067  27.079  1.00  0.00     0.034 A 
ATOM     51  C   UNL A   1      39.901  29.802  30.361  1.00  0.00     0.034 A 
ATOM     52  C   UNL A   1      45.764  29.432  27.520  1.00  0.00     0.049 A 
ATOM     53  C   UNL A   1      41.026  30.786  30.188  1.00  0.00     0.074 A 
ATOM     54  C   UNL A   1      46.710  30.431  27.388  1.00  0.00     0.029 A 
ATOM     55  N   UNL A   1      44.677  29.991  28.172  1.00  0.00    -0.354 N 
ATOM     56  N   UNL A   1      42.158  30.636  29.543  1.00  0.00    -0.248 NA
ATOM     57  C   UNL A   1      40.846  32.121  30.779  1.00  0.00     0.031 C 
ATOM     58  C   UNL A   1      46.198  31.594  27.968  1.00  0.00     0.029 A 
ATOM     59  C   UNL A   1      44.928  31.321  28.451  1.00  0.00     0.049 A 
ATOM     60  H   UNL A   1      43.848  29.511  28.404  1.00  0.00     0.167 HD
ATOM     61  C   UNL A   1      42.809  31.862  29.621  1.00  0.00     0.074 A 
ATOM     62  C   UNL A   1      41.939  32.751  30.364  1.00  0.00     0.031 C 
ATOM     63  C   UNL A   1      44.024  32.212  29.134  1.00  0.00     0.034 A 
BRANCH  50  64
ATOM     64  C   UNL A   1      47.098  27.622  26.377  1.00  0.00     0.023 A 
ATOM     65  C   UNL A   1      48.062  26.892  27.103  1.00  0.00     0.012 A 
ATOM     66  C   UNL A   1      47.286  27.838  24.999  1.00  0.00     0.148 A 
ATOM     67  C   UNL A   1      49.206  26.405  26.474  1.00  0.00     0.002 A 
ATOM     68  C   UNL A   1      48.411  27.316  24.370  1.00  0.00     0.091 A 
ATOM     69  F   UNL A   1      46.368  28.552  24.332  1.00  0.00    -0.205 F 
ATOM     70  C   UNL A   1      49.374  26.606  25.106  1.00  0.00     0.022 A 
BRANCH  68  71
ATOM     71  S   UNL A   1      48.684  27.454  22.599  1.00  0.00     0.127 S 
ATOM     72  O   UNL A   1      47.506  28.210  22.178  1.00  0.00    -0.237 OA
ATOM     73  O   UNL A   1      49.942  28.200  22.538  1.00  0.00    -0.237 OA
ATOM     74  O   UNL A   1      48.763  26.089  22.099  1.00  0.00    -0.744 OA
ENDBRANCH  68  71
ENDBRANCH  50  64
BRANCH  51  75
ATOM     75  C   UNL A   1      38.620  30.198  31.011  1.00  0.00     0.023 A 
ATOM     76  C   UNL A   1      38.429  29.909  32.376  1.00  0.00     0.012 A 
ATOM     77  C   UNL A   1      37.627  30.917  30.318  1.00  0.00     0.148 A 
ATOM     78  C   UNL A   1      37.267  30.313  33.036  1.00  0.00     0.002 A 
ATOM     79  C   UNL A   1      36.496  31.364  30.993  1.00  0.00     0.091 A 
ATOM     80  F   UNL A   1      37.820  31.171  29.016  1.00  0.00    -0.205 F 
ATOM     81  C   UNL A   1      36.308  31.052  32.349  1.00  0.00     0.022 A 
BRANCH  79  82
ATOM     82  S   UNL A   1      35.279  32.439  30.223  1.00  0.00     0.127 S 
ATOM     83  O   UNL A   1      34.303  32.604  31.296  1.00  0.00    -0.237 OA
ATOM     84  O   UNL A   1      36.073  33.632  29.922  1.00  0.00    -0.237 OA
ATOM     85  O   UNL A   1      34.815  31.720  29.045  1.00  0.00    -0.744 OA
ENDBRANCH  79  82
ENDBRANCH  51  75
BRANCH  63  86
ATOM     86  C   UNL A   1      44.507  33.620  29.361  1.00  0.00     0.023 A 
ATOM     87  C   UNL A   1      45.315  33.900  30.479  1.00  0.00     0.012 A 
ATOM     88  C   UNL A   1      44.297  34.616  28.386  1.00  0.00     0.148 A 
ATOM     89  C   UNL A   1      45.905  35.154  30.627  1.00  0.00     0.002 A 
ATOM     90  C   UNL A   1      44.924  35.849  28.518  1.00  0.00     0.091 A 
ATOM     91  F   UNL A   1      43.513  34.328  27.337  1.00  0.00    -0.205 F 
ATOM     92  C   UNL A   1      45.723  36.121  29.641  1.00  0.00     0.022 A 
BRANCH  90  93
ATOM     93  S   UNL A   1      44.835  37.122  27.253  1.00  0.00     0.127 S 
ATOM     94  O   UNL A   1      45.283  38.304  27.989  1.00  0.00    -0.237 OA
ATOM     95  O   UNL A   1      45.785  36.629  26.254  1.00  0.00    -0.237 OA
ATOM     96  O   UNL A   1      43.450  37.155  26.808  1.00  0.00    -0.744 OA
ENDBRANCH  90  93
ENDBRANCH  63  86
ENDBRANCH  37  38
ENDBRANCH  29  32
ENDBRANCH  27  28
ENDBRANCH  26  27
ENDBRANCH   1  26
TORSDOF 17
ENDMDL
MODEL 3
REMARK VINA RESULT:     -12.0      5.099      9.894
REMARK SMILES Cc1cc2c(c(C)c1Cl)C=C(C(=O)NCCCCCCNC(=O)c1ccc(-c3c4nc(c(-c5cccc(S(=O)(=O)[O-])c5F)c5ccc([nH]5)c(-c5cccc(S(=O)(=O)[O-])c5F)c5nc(c(-c6cccc(S(=O)(=O)[O-])c6F)c6ccc3[nH]6)C=C5)C=C4)cc1)[C@@H](C(F)(F)F)O2
REMARK SMILES IDX 18 1 17 2 16 3 15 4 14 5 12 6 13 7 11 9 1 10 2 11 3 12 8 13
REMARK SMILES IDX 4 14 6 15 9 16 5 17 92 18 7 19 10 20 87 21 88 22 89 23 90 24
REMARK SMILES IDX 91 25 19 26 20 27 21 28 22 29 23 31 24 32 25 33 86 34 26 35
REMARK SMILES IDX 85 36 27 37 28 38 29 39 79 40 30 41 84 42 78 43 80 44 31 45
REMARK SMILES IDX 83 46 77 47 76 48 32 50 64 51 44 52 63 53 45 54 48 55 62 56
REMARK SMILES IDX 81 57 46 58 47 59 61 61 82 62 49 63 33 64 34 65 42 66 35 67
REMARK SMILES IDX 37 68 43 69 36 70 38 71 39 72 40 73 41 74 65 75 66 76 74 77
REMARK SMILES IDX 67 78 69 79 75 80 68 81 70 82 71 83 72 84 73 85 50 86 51 87
REMARK SMILES IDX 59 88 52 89 54 90 60 91 53 92 55 93 56 94 57 95 58 96
REMARK H PARENT 14 8 21 30 80 49 48 60
REMARK Flexibility Score: inf
ROOT
ATOM      1  C   UNL A   1      31.564  28.589  25.527  1.00  0.00     0.002 C 
ENDROOT
BRANCH   1   2
ATOM      2  C   UNL A   1      30.942  28.135  24.199  1.00  0.00     0.002 C 
BRANCH   2   3
ATOM      3  C   UNL A   1      31.828  28.302  22.960  1.00  0.00     0.021 C 
BRANCH   3   4
ATOM      4  C   UNL A   1      32.124  27.000  22.219  1.00  0.00     0.116 C 
BRANCH   4   5
ATOM      5  N   UNL A   1      31.246  25.925  22.651  1.00  0.00    -0.352 N 
ATOM      6  C   UNL A   1      31.376  24.699  23.207  1.00  0.00     0.251 C 
ATOM      7  O   UNL A   1      30.309  24.113  23.425  1.00  0.00    -0.270 OA
ATOM      8  H   UNL A   1      30.300  26.153  22.499  1.00  0.00     0.163 HD
BRANCH   6   9
ATOM      9  C   UNL A   1      32.666  24.032  23.559  1.00  0.00     0.067 C 
ATOM     10  C   UNL A   1      37.551  19.949  24.955  1.00  0.00     0.046 C 
ATOM     11  C   UNL A   1      36.233  20.597  24.626  1.00  0.00    -0.028 A 
ATOM     12  C   UNL A   1      36.222  21.966  24.344  1.00  0.00     0.052 A 
ATOM     13  C   UNL A   1      35.012  19.894  24.632  1.00  0.00     0.047 A 
ATOM     14  C   UNL A   1      35.028  22.619  24.056  1.00  0.00     0.128 A 
ATOM     15  C   UNL A   1      33.790  20.545  24.326  1.00  0.00    -0.021 A 
ATOM     16  Cl  UNL A   1      35.036  18.200  25.026  1.00  0.00    -0.084 Cl
ATOM     17  C   UNL A   1      33.814  21.929  24.025  1.00  0.00     0.022 A 
ATOM     18  O   UNL A   1      35.146  23.946  23.768  1.00  0.00    -0.475 OA
ATOM     19  C   UNL A   1      32.473  19.804  24.307  1.00  0.00     0.047 C 
ATOM     20  C   UNL A   1      32.618  22.689  23.640  1.00  0.00     0.026 C 
ATOM     21  C   UNL A   1      33.946  24.755  23.864  1.00  0.00     0.314 C 
BRANCH  21  22
ATOM     22  C   UNL A   1      33.914  25.466  25.229  1.00  0.00     0.429 C 
ATOM     23  F   UNL A   1      34.140  26.793  25.081  1.00  0.00    -0.167 F 
ATOM     24  F   UNL A   1      32.714  25.344  25.844  1.00  0.00    -0.167 F 
ATOM     25  F   UNL A   1      34.845  24.981  26.081  1.00  0.00    -0.167 F 
ENDBRANCH  21  22
ENDBRANCH   6   9
ENDBRANCH   4   5
ENDBRANCH   3   4
ENDBRANCH   2   3
ENDBRANCH   1   2
BRANCH   1  26
ATOM     26  C   UNL A   1      31.777  30.099  25.679  1.00  0.00     0.021 C 
BRANCH  26  27
ATOM     27  C   UNL A   1      32.747  30.506  26.782  1.00  0.00     0.116 C 
BRANCH  27  28
ATOM     28  N   UNL A   1      32.731  31.939  27.033  1.00  0.00    -0.352 N 
ATOM     29  C   UNL A   1      33.635  32.701  27.731  1.00  0.00     0.251 C 
ATOM     30  H   UNL A   1      31.966  32.428  26.651  1.00  0.00     0.163 HD
ATOM     31  O   UNL A   1      33.390  33.878  27.980  1.00  0.00    -0.269 OA
BRANCH  29  32
ATOM     32  C   UNL A   1      34.893  32.087  28.201  1.00  0.00     0.039 A 
ATOM     33  C   UNL A   1      36.065  32.845  28.177  1.00  0.00     0.014 A 
ATOM     34  C   UNL A   1      34.908  30.777  28.692  1.00  0.00     0.014 A 
ATOM     35  C   UNL A   1      37.242  32.309  28.702  1.00  0.00     0.010 A 
ATOM     36  C   UNL A   1      36.067  30.269  29.274  1.00  0.00     0.010 A 
ATOM     37  C   UNL A   1      37.245  31.029  29.284  1.00  0.00    -0.014 A 
BRANCH  37  38
ATOM     38  C   UNL A   1      38.472  30.495  29.925  1.00  0.00     0.031 A 
ATOM     39  C   UNL A   1      38.869  30.939  31.304  1.00  0.00     0.074 A 
ATOM     40  C   UNL A   1      39.254  29.638  29.239  1.00  0.00     0.049 A 
ATOM     41  N   UNL A   1      39.871  30.534  32.039  1.00  0.00    -0.248 NA
ATOM     42  C   UNL A   1      38.050  31.988  31.936  1.00  0.00     0.031 C 
ATOM     43  C   UNL A   1      39.020  29.203  27.861  1.00  0.00     0.029 A 
ATOM     44  N   UNL A   1      40.403  28.981  29.603  1.00  0.00    -0.354 N 
ATOM     45  C   UNL A   1      39.812  31.280  33.209  1.00  0.00     0.074 A 
ATOM     46  C   UNL A   1      38.704  32.200  33.069  1.00  0.00     0.031 C 
ATOM     47  C   UNL A   1      39.976  28.331  27.506  1.00  0.00     0.029 A 
ATOM     48  C   UNL A   1      40.898  28.150  28.624  1.00  0.00     0.049 A 
ATOM     49  H   UNL A   1      40.833  29.094  30.480  1.00  0.00     0.167 HD
ATOM     50  C   UNL A   1      40.581  31.177  34.317  1.00  0.00     0.034 A 
ATOM     51  C   UNL A   1      41.957  27.316  28.635  1.00  0.00     0.034 A 
ATOM     52  C   UNL A   1      41.648  30.227  34.468  1.00  0.00     0.049 A 
ATOM     53  C   UNL A   1      42.768  27.185  29.897  1.00  0.00     0.074 A 
ATOM     54  C   UNL A   1      42.436  29.991  35.579  1.00  0.00     0.029 A 
ATOM     55  N   UNL A   1      42.074  29.352  33.480  1.00  0.00    -0.354 N 
ATOM     56  N   UNL A   1      42.592  27.778  31.052  1.00  0.00    -0.248 NA
ATOM     57  C   UNL A   1      43.896  26.241  29.874  1.00  0.00     0.031 C 
ATOM     58  C   UNL A   1      43.344  28.978  35.261  1.00  0.00     0.029 A 
ATOM     59  C   UNL A   1      43.115  28.576  33.955  1.00  0.00     0.049 A 
ATOM     60  H   UNL A   1      41.692  29.294  32.574  1.00  0.00     0.167 HD
ATOM     61  C   UNL A   1      43.561  27.258  31.902  1.00  0.00     0.074 A 
ATOM     62  C   UNL A   1      44.316  26.290  31.133  1.00  0.00     0.031 C 
ATOM     63  C   UNL A   1      43.812  27.569  33.197  1.00  0.00     0.034 A 
BRANCH  50  64
ATOM     64  C   UNL A   1      40.240  32.049  35.496  1.00  0.00     0.023 A 
ATOM     65  C   UNL A   1      40.974  33.236  35.700  1.00  0.00     0.012 A 
ATOM     66  C   UNL A   1      39.152  31.753  36.339  1.00  0.00     0.148 A 
ATOM     67  C   UNL A   1      40.646  34.103  36.740  1.00  0.00     0.002 A 
ATOM     68  C   UNL A   1      38.807  32.643  37.350  1.00  0.00     0.091 A 
ATOM     69  F   UNL A   1      38.480  30.611  36.140  1.00  0.00    -0.205 F 
ATOM     70  C   UNL A   1      39.556  33.813  37.557  1.00  0.00     0.022 A 
BRANCH  68  71
ATOM     71  S   UNL A   1      37.374  32.401  38.408  1.00  0.00     0.127 S 
ATOM     72  O   UNL A   1      36.324  33.063  37.637  1.00  0.00    -0.237 OA
ATOM     73  O   UNL A   1      37.268  30.942  38.456  1.00  0.00    -0.237 OA
ATOM     74  O   UNL A   1      37.706  33.027  39.680  1.00  0.00    -0.744 OA
ENDBRANCH  68  71
ENDBRANCH  50  64
BRANCH  51  75
ATOM     75  C   UNL A   1      42.223  26.450  27.452  1.00  0.00     0.023 A 
ATOM     76  C   UNL A   1      42.948  26.980  26.367  1.00  0.00     0.012 A 
ATOM     77  C   UNL A   1      41.834  25.097  27.419  1.00  0.00     0.148 A 
ATOM     78  C   UNL A   1      43.267  26.185  25.264  1.00  0.00     0.002 A 
ATOM     79  C   UNL A   1      42.200  24.296  26.343  1.00  0.00     0.091 A 
ATOM     80  F   UNL A   1      41.133  24.614  28.455  1.00  0.00    -0.205 F 
ATOM     81  C   UNL A   1      42.905  24.841  25.258  1.00  0.00     0.022 A 
BRANCH  79  82
ATOM     82  S   UNL A   1      41.899  22.525  26.317  1.00  0.00     0.127 S 
ATOM     83  O   UNL A   1      42.517  22.096  27.568  1.00  0.00    -0.237 OA
ATOM     84  O   UNL A   1      40.436  22.465  26.298  1.00  0.00    -0.237 OA
ATOM     85  O   UNL A   1      42.530  22.041  25.096  1.00  0.00    -0.744 OA
ENDBRANCH  79  82
ENDBRANCH  51  75
BRANCH  63  86
ATOM     86  C   UNL A   1      44.937  26.855  33.899  1.00  0.00     0.023 A 
ATOM     87  C   UNL A   1      46.225  27.423  33.891  1.00  0.00     0.012 A 
ATOM     88  C   UNL A   1      44.681  25.720  34.694  1.00  0.00     0.148 A 
ATOM     89  C   UNL A   1      47.246  26.870  34.662  1.00  0.00     0.002 A 
ATOM     90  C   UNL A   1      45.692  25.200  35.494  1.00  0.00     0.091 A 
ATOM     91  F   UNL A   1      43.449  25.191  34.675  1.00  0.00    -0.205 F 
ATOM     92  C   UNL A   1      46.975  25.770  35.473  1.00  0.00     0.022 A 
BRANCH  90  93
ATOM     93  S   UNL A   1      45.416  23.853  36.651  1.00  0.00     0.127 S 
ATOM     94  O   UNL A   1      44.496  24.468  37.608  1.00  0.00    -0.237 OA
ATOM     95  O   UNL A   1      44.812  22.831  35.795  1.00  0.00    -0.237 OA
ATOM     96  O   UNL A   1      46.724  23.503  37.185  1.00  0.00    -0.744 OA
ENDBRANCH  90  93
ENDBRANCH  63  86
ENDBRANCH  37  38
ENDBRANCH  29  32
ENDBRANCH  27  28
ENDBRANCH  26  27
ENDBRANCH   1  26
TORSDOF 17
ENDMDL
