MODEL 1
REMARK VINA RESULT:      -9.9      0.000      0.000
REMARK SMILES CC(C)(C)[N@H+](CCC(=O)NCCCCCCNC(=O)c1ccc(-c2c3nc(c(-c4cccc(S(=O)(=O)[O-])c4F)c4ccc([nH]4)c(-c4cccc(S(=O)(=O)[O-])c4F)c4nc(c(-c5cccc(S(=O)(=O)[O-])c5F)c5ccc2[nH]5)C=C4)C=C3)cc1)Cc1ccccc1C1CC1
REMARK SMILES IDX 12 1 11 2 10 3 8 4 9 5 7 7 6 8 5 9 2 11 1 12 3 13 4 14 83 15
REMARK SMILES IDX 84 16 85 17 89 18 86 19 88 20 87 21 90 22 91 23 92 24 13 25
REMARK SMILES IDX 14 26 15 27 16 28 17 29 18 30 19 32 20 33 21 34 82 35 22 36
REMARK SMILES IDX 81 37 23 38 24 39 25 40 75 41 26 42 80 43 74 44 76 45 27 46
REMARK SMILES IDX 79 47 73 48 72 49 28 51 60 52 40 53 59 54 41 55 44 56 58 57
REMARK SMILES IDX 77 58 42 59 43 60 57 62 78 63 45 64 29 65 30 66 38 67 31 68
REMARK SMILES IDX 33 69 39 70 32 71 34 72 35 73 36 74 37 75 61 76 62 77 70 78
REMARK SMILES IDX 63 79 65 80 71 81 64 82 66 83 67 84 68 85 69 86 46 87 47 88
REMARK SMILES IDX 55 89 48 90 50 91 56 92 49 93 51 94 52 95 53 96 54 97
REMARK H PARENT 10 6 5 10 17 31 76 50 44 61
REMARK Flexibility Score: inf
ROOT
ATOM      1  C   UNL A   1      39.188  23.714  27.000  1.00  0.00     0.021 C 
ENDROOT
BRANCH   1   2
ATOM      2  C   UNL A   1      38.045  23.741  25.991  1.00  0.00     0.116 C 
BRANCH   2   3
ATOM      3  N   UNL A   1      36.835  23.038  26.458  1.00  0.00    -0.356 N 
ATOM      4  C   UNL A   1      35.494  23.111  26.218  1.00  0.00     0.225 C 
ATOM      5  O   UNL A   1      34.890  22.032  26.305  1.00  0.00    -0.275 OA
ATOM      6  H   UNL A   1      37.052  22.336  27.114  1.00  0.00     0.163 HD
BRANCH   4   7
ATOM      7  C   UNL A   1      34.681  24.358  25.886  1.00  0.00     0.161 C 
BRANCH   7   8
ATOM      8  C   UNL A   1      33.204  24.069  25.585  1.00  0.00     0.272 C 
BRANCH   8   9
ATOM      9  N   UNL A   1      32.488  25.020  24.693  1.00  0.00    -0.327 N 
ATOM     10  H   UNL A   1      33.143  25.701  24.309  1.00  0.00     0.348 HD
BRANCH   9  11
ATOM     11  C   UNL A   1      31.945  24.341  23.439  1.00  0.00     0.089 C 
ATOM     12  C   UNL A   1      32.341  22.839  23.273  1.00  0.00     0.078 C 
ATOM     13  C   UNL A   1      32.567  25.044  22.207  1.00  0.00     0.078 C 
ATOM     14  C   UNL A   1      30.400  24.358  23.285  1.00  0.00     0.078 C 
ENDBRANCH   9  11
BRANCH   9  15
ATOM     15  C   UNL A   1      31.513  25.808  25.487  1.00  0.00     0.299 C 
BRANCH  15  16
ATOM     16  C   UNL A   1      31.739  27.323  25.666  1.00  0.00     0.010 A 
ATOM     17  C   UNL A   1      32.607  27.539  26.782  1.00  0.00     0.010 A 
ATOM     18  C   UNL A   1      31.353  28.474  24.894  1.00  0.00    -0.036 A 
ATOM     19  C   UNL A   1      33.102  28.779  27.161  1.00  0.00     0.001 A 
ATOM     20  C   UNL A   1      31.950  29.714  25.306  1.00  0.00     0.004 A 
ATOM     21  C   UNL A   1      32.787  29.876  26.402  1.00  0.00     0.000 A 
BRANCH  18  22
ATOM     22  C   UNL A   1      30.286  28.805  23.813  1.00  0.00     0.020 C 
ATOM     23  C   UNL A   1      30.611  28.073  22.474  1.00  0.00     0.009 C 
ATOM     24  C   UNL A   1      29.221  28.228  22.926  1.00  0.00     0.009 C 
ENDBRANCH  18  22
ENDBRANCH  15  16
ENDBRANCH   9  15
ENDBRANCH   8   9
ENDBRANCH   7   8
ENDBRANCH   4   7
ENDBRANCH   2   3
ENDBRANCH   1   2
BRANCH   1  25
ATOM     25  C   UNL A   1      40.349  22.829  26.524  1.00  0.00     0.002 C 
BRANCH  25  26
ATOM     26  C   UNL A   1      40.455  21.455  27.195  1.00  0.00     0.002 C 
BRANCH  26  27
ATOM     27  C   UNL A   1      40.798  20.278  26.274  1.00  0.00     0.021 C 
BRANCH  27  28
ATOM     28  C   UNL A   1      42.089  19.532  26.599  1.00  0.00     0.116 C 
BRANCH  28  29
ATOM     29  N   UNL A   1      42.939  19.302  25.441  1.00  0.00    -0.352 N 
ATOM     30  C   UNL A   1      43.805  20.164  24.816  1.00  0.00     0.251 C 
ATOM     31  H   UNL A   1      42.885  18.400  25.051  1.00  0.00     0.163 HD
ATOM     32  O   UNL A   1      44.415  19.798  23.815  1.00  0.00    -0.269 OA
BRANCH  30  33
ATOM     33  C   UNL A   1      43.973  21.541  25.324  1.00  0.00     0.039 A 
ATOM     34  C   UNL A   1      44.562  21.719  26.580  1.00  0.00     0.014 A 
ATOM     35  C   UNL A   1      43.558  22.649  24.581  1.00  0.00     0.014 A 
ATOM     36  C   UNL A   1      44.773  23.008  27.070  1.00  0.00     0.010 A 
ATOM     37  C   UNL A   1      43.839  23.933  25.036  1.00  0.00     0.010 A 
ATOM     38  C   UNL A   1      44.432  24.126  26.292  1.00  0.00    -0.014 A 
BRANCH  38  39
ATOM     39  C   UNL A   1      44.667  25.502  26.791  1.00  0.00     0.031 A 
ATOM     40  C   UNL A   1      46.053  26.087  26.760  1.00  0.00     0.074 A 
ATOM     41  C   UNL A   1      43.645  26.198  27.325  1.00  0.00     0.049 A 
ATOM     42  N   UNL A   1      46.457  27.268  27.150  1.00  0.00    -0.248 NA
ATOM     43  C   UNL A   1      47.132  25.221  26.255  1.00  0.00     0.031 C 
ATOM     44  C   UNL A   1      42.275  25.701  27.482  1.00  0.00     0.029 A 
ATOM     45  N   UNL A   1      43.601  27.464  27.850  1.00  0.00    -0.354 N 
ATOM     46  C   UNL A   1      47.836  27.274  26.971  1.00  0.00     0.074 A 
ATOM     47  C   UNL A   1      48.205  25.965  26.477  1.00  0.00     0.031 C 
ATOM     48  C   UNL A   1      41.523  26.661  28.045  1.00  0.00     0.029 A 
ATOM     49  C   UNL A   1      42.357  27.828  28.309  1.00  0.00     0.049 A 
ATOM     50  H   UNL A   1      44.386  28.057  27.892  1.00  0.00     0.167 HD
ATOM     51  C   UNL A   1      48.713  28.286  27.170  1.00  0.00     0.034 A 
ATOM     52  C   UNL A   1      41.938  28.978  28.872  1.00  0.00     0.034 A 
ATOM     53  C   UNL A   1      48.328  29.599  27.612  1.00  0.00     0.049 A 
ATOM     54  C   UNL A   1      42.920  30.108  29.028  1.00  0.00     0.074 A 
ATOM     55  C   UNL A   1      49.116  30.727  27.752  1.00  0.00     0.029 A 
ATOM     56  N   UNL A   1      47.043  29.958  27.992  1.00  0.00    -0.354 N 
ATOM     57  N   UNL A   1      44.188  30.151  28.695  1.00  0.00    -0.248 NA
ATOM     58  C   UNL A   1      42.406  31.359  29.601  1.00  0.00     0.031 C 
ATOM     59  C   UNL A   1      48.310  31.762  28.240  1.00  0.00     0.029 A 
ATOM     60  C   UNL A   1      47.015  31.286  28.377  1.00  0.00     0.049 A 
ATOM     61  H   UNL A   1      46.264  29.354  27.988  1.00  0.00     0.167 HD
ATOM     62  C   UNL A   1      44.613  31.444  28.977  1.00  0.00     0.074 A 
ATOM     63  C   UNL A   1      43.461  32.156  29.493  1.00  0.00     0.031 C 
ATOM     64  C   UNL A   1      45.846  31.991  28.837  1.00  0.00     0.034 A 
BRANCH  51  65
ATOM     65  C   UNL A   1      50.164  28.025  26.861  1.00  0.00     0.023 A 
ATOM     66  C   UNL A   1      51.057  27.715  27.908  1.00  0.00     0.012 A 
ATOM     67  C   UNL A   1      50.641  28.050  25.536  1.00  0.00     0.148 A 
ATOM     68  C   UNL A   1      52.406  27.478  27.649  1.00  0.00     0.002 A 
ATOM     69  C   UNL A   1      51.978  27.766  25.280  1.00  0.00     0.091 A 
ATOM     70  F   UNL A   1      49.786  28.370  24.553  1.00  0.00    -0.205 F 
ATOM     71  C   UNL A   1      52.863  27.494  26.334  1.00  0.00     0.022 A 
BRANCH  69  72
ATOM     72  S   UNL A   1      52.646  27.684  23.614  1.00  0.00     0.127 S 
ATOM     73  O   UNL A   1      51.601  26.942  22.913  1.00  0.00    -0.237 OA
ATOM     74  O   UNL A   1      52.740  29.099  23.249  1.00  0.00    -0.237 OA
ATOM     75  O   UNL A   1      53.928  27.004  23.731  1.00  0.00    -0.744 OA
ENDBRANCH  69  72
ENDBRANCH  51  65
BRANCH  52  76
ATOM     76  C   UNL A   1      40.503  29.151  29.237  1.00  0.00     0.023 A 
ATOM     77  C   UNL A   1      39.562  29.410  28.221  1.00  0.00     0.012 A 
ATOM     78  C   UNL A   1      40.059  29.029  30.568  1.00  0.00     0.148 A 
ATOM     79  C   UNL A   1      38.212  29.579  28.526  1.00  0.00     0.002 A 
ATOM     80  C   UNL A   1      38.704  29.144  30.858  1.00  0.00     0.091 A 
ATOM     81  F   UNL A   1      40.970  28.791  31.521  1.00  0.00    -0.205 F 
ATOM     82  C   UNL A   1      37.781  29.436  29.842  1.00  0.00     0.022 A 
BRANCH  80  83
ATOM     83  S   UNL A   1      38.044  28.849  32.503  1.00  0.00     0.127 S 
ATOM     84  O   UNL A   1      38.862  29.740  33.319  1.00  0.00    -0.237 OA
ATOM     85  O   UNL A   1      36.648  29.263  32.346  1.00  0.00    -0.237 OA
ATOM     86  O   UNL A   1      38.221  27.424  32.747  1.00  0.00    -0.744 OA
ENDBRANCH  80  83
ENDBRANCH  52  76
BRANCH  64  87
ATOM     87  C   UNL A   1      46.010  33.442  29.207  1.00  0.00     0.023 A 
ATOM     88  C   UNL A   1      46.472  33.790  30.491  1.00  0.00     0.012 A 
ATOM     89  C   UNL A   1      45.774  34.455  28.256  1.00  0.00     0.148 A 
ATOM     90  C   UNL A   1      46.663  35.128  30.835  1.00  0.00     0.002 A 
ATOM     91  C   UNL A   1      46.015  35.780  28.590  1.00  0.00     0.091 A 
ATOM     92  F   UNL A   1      45.315  34.103  27.046  1.00  0.00    -0.205 F 
ATOM     93  C   UNL A   1      46.447  36.121  29.883  1.00  0.00     0.022 A 
BRANCH  91  94
ATOM     94  S   UNL A   1      45.862  37.114  27.396  1.00  0.00     0.127 S 
ATOM     95  O   UNL A   1      44.488  36.942  26.931  1.00  0.00    -0.237 OA
ATOM     96  O   UNL A   1      46.084  38.300  28.223  1.00  0.00    -0.237 OA
ATOM     97  O   UNL A   1      46.898  36.876  26.397  1.00  0.00    -0.744 OA
ENDBRANCH  91  94
ENDBRANCH  64  87
ENDBRANCH  38  39
ENDBRANCH  30  33
ENDBRANCH  28  29
ENDBRANCH  27  28
ENDBRANCH  26  27
ENDBRANCH  25  26
ENDBRANCH   1  25
TORSDOF 22
ENDMDL
MODEL 2
REMARK VINA RESULT:      -8.7      2.969      8.890
REMARK SMILES CC(C)(C)[N@H+](CCC(=O)NCCCCCCNC(=O)c1ccc(-c2c3nc(c(-c4cccc(S(=O)(=O)[O-])c4F)c4ccc([nH]4)c(-c4cccc(S(=O)(=O)[O-])c4F)c4nc(c(-c5cccc(S(=O)(=O)[O-])c5F)c5ccc2[nH]5)C=C4)C=C3)cc1)Cc1ccccc1C1CC1
REMARK SMILES IDX 12 1 11 2 10 3 8 4 9 5 7 7 6 8 5 9 2 11 1 12 3 13 4 14 83 15
REMARK SMILES IDX 84 16 85 17 89 18 86 19 88 20 87 21 90 22 91 23 92 24 13 25
REMARK SMILES IDX 14 26 15 27 16 28 17 29 18 30 19 32 20 33 21 34 82 35 22 36
REMARK SMILES IDX 81 37 23 38 24 39 25 40 75 41 26 42 80 43 74 44 76 45 27 46
REMARK SMILES IDX 79 47 73 48 72 49 28 51 60 52 40 53 59 54 41 55 44 56 58 57
REMARK SMILES IDX 77 58 42 59 43 60 57 62 78 63 45 64 29 65 30 66 38 67 31 68
REMARK SMILES IDX 33 69 39 70 32 71 34 72 35 73 36 74 37 75 61 76 62 77 70 78
REMARK SMILES IDX 63 79 65 80 71 81 64 82 66 83 67 84 68 85 69 86 46 87 47 88
REMARK SMILES IDX 55 89 48 90 50 91 56 92 49 93 51 94 52 95 53 96 54 97
REMARK H PARENT 10 6 5 10 17 31 76 50 44 61
REMARK Flexibility Score: inf
ROOT
ATOM      1  C   UNL A   1      35.837  32.191  28.004  1.00  0.00     0.021 C 
ENDROOT
BRANCH   1   2
ATOM      2  C   UNL A   1      34.880  31.008  28.108  1.00  0.00     0.116 C 
BRANCH   2   3
ATOM      3  N   UNL A   1      34.034  30.833  26.912  1.00  0.00    -0.356 N 
ATOM      4  C   UNL A   1      33.477  29.785  26.239  1.00  0.00     0.225 C 
ATOM      5  O   UNL A   1      32.395  30.035  25.688  1.00  0.00    -0.275 OA
ATOM      6  H   UNL A   1      33.817  31.696  26.489  1.00  0.00     0.163 HD
BRANCH   4   7
ATOM      7  C   UNL A   1      34.047  28.379  26.081  1.00  0.00     0.161 C 
BRANCH   7   8
ATOM      8  C   UNL A   1      33.528  27.638  24.842  1.00  0.00     0.272 C 
BRANCH   8   9
ATOM      9  N   UNL A   1      32.962  26.277  25.045  1.00  0.00    -0.327 N 
ATOM     10  H   UNL A   1      33.269  25.900  25.941  1.00  0.00     0.348 HD
BRANCH   9  11
ATOM     11  C   UNL A   1      31.445  26.299  25.199  1.00  0.00     0.089 C 
ATOM     12  C   UNL A   1      30.748  24.902  25.117  1.00  0.00     0.078 C 
ATOM     13  C   UNL A   1      30.854  27.096  24.010  1.00  0.00     0.078 C 
ATOM     14  C   UNL A   1      30.915  26.924  26.519  1.00  0.00     0.078 C 
ENDBRANCH   9  11
BRANCH   9  15
ATOM     15  C   UNL A   1      33.504  25.355  24.016  1.00  0.00     0.299 C 
BRANCH  15  16
ATOM     16  C   UNL A   1      34.194  24.050  24.465  1.00  0.00     0.010 A 
ATOM     17  C   UNL A   1      35.213  24.363  25.419  1.00  0.00     0.010 A 
ATOM     18  C   UNL A   1      33.936  22.660  24.201  1.00  0.00    -0.036 A 
ATOM     19  C   UNL A   1      35.959  23.416  26.106  1.00  0.00     0.001 A 
ATOM     20  C   UNL A   1      34.703  21.737  24.991  1.00  0.00     0.004 A 
ATOM     21  C   UNL A   1      35.687  22.087  25.906  1.00  0.00     0.000 A 
BRANCH  18  22
ATOM     22  C   UNL A   1      33.169  21.835  23.130  1.00  0.00     0.020 C 
ATOM     23  C   UNL A   1      31.633  21.867  23.405  1.00  0.00     0.009 C 
ATOM     24  C   UNL A   1      32.152  21.904  22.029  1.00  0.00     0.009 C 
ENDBRANCH  18  22
ENDBRANCH  15  16
ENDBRANCH   9  15
ENDBRANCH   8   9
ENDBRANCH   7   8
ENDBRANCH   4   7
ENDBRANCH   2   3
ENDBRANCH   1   2
BRANCH   1  25
ATOM     25  C   UNL A   1      35.570  33.239  29.094  1.00  0.00     0.002 C 
BRANCH  25  26
ATOM     26  C   UNL A   1      34.736  32.759  30.287  1.00  0.00     0.002 C 
BRANCH  26  27
ATOM     27  C   UNL A   1      34.653  33.716  31.481  1.00  0.00     0.021 C 
BRANCH  27  28
ATOM     28  C   UNL A   1      35.975  34.028  32.178  1.00  0.00     0.116 C 
BRANCH  28  29
ATOM     29  N   UNL A   1      36.133  33.359  33.460  1.00  0.00    -0.352 N 
ATOM     30  C   UNL A   1      37.081  32.447  33.852  1.00  0.00     0.251 C 
ATOM     31  H   UNL A   1      35.464  33.594  34.143  1.00  0.00     0.163 HD
ATOM     32  O   UNL A   1      37.028  31.955  34.976  1.00  0.00    -0.269 OA
BRANCH  30  33
ATOM     33  C   UNL A   1      38.139  32.028  32.909  1.00  0.00     0.039 A 
ATOM     34  C   UNL A   1      39.327  31.508  33.432  1.00  0.00     0.014 A 
ATOM     35  C   UNL A   1      37.974  32.146  31.527  1.00  0.00     0.014 A 
ATOM     36  C   UNL A   1      40.328  31.065  32.569  1.00  0.00     0.010 A 
ATOM     37  C   UNL A   1      38.940  31.634  30.667  1.00  0.00     0.010 A 
ATOM     38  C   UNL A   1      40.134  31.105  31.179  1.00  0.00    -0.014 A 
BRANCH  38  39
ATOM     39  C   UNL A   1      41.182  30.620  30.249  1.00  0.00     0.031 A 
ATOM     40  C   UNL A   1      42.370  31.489  29.936  1.00  0.00     0.074 A 
ATOM     41  C   UNL A   1      41.031  29.426  29.643  1.00  0.00     0.049 A 
ATOM     42  N   UNL A   1      43.387  31.242  29.151  1.00  0.00    -0.248 NA
ATOM     43  C   UNL A   1      42.407  32.821  30.562  1.00  0.00     0.031 C 
ATOM     44  C   UNL A   1      39.881  28.535  29.808  1.00  0.00     0.029 A 
ATOM     45  N   UNL A   1      41.840  28.764  28.756  1.00  0.00    -0.354 N 
ATOM     46  C   UNL A   1      44.161  32.397  29.161  1.00  0.00     0.074 A 
ATOM     47  C   UNL A   1      43.477  33.359  29.996  1.00  0.00     0.031 C 
ATOM     48  C   UNL A   1      40.068  27.434  29.061  1.00  0.00     0.029 A 
ATOM     49  C   UNL A   1      41.336  27.551  28.350  1.00  0.00     0.049 A 
ATOM     50  H   UNL A   1      42.701  29.124  28.440  1.00  0.00     0.167 HD
ATOM     51  C   UNL A   1      45.350  32.625  28.555  1.00  0.00     0.034 A 
ATOM     52  C   UNL A   1      41.847  26.634  27.505  1.00  0.00     0.034 A 
ATOM     53  C   UNL A   1      46.047  31.644  27.769  1.00  0.00     0.049 A 
ATOM     54  C   UNL A   1      43.197  26.887  26.891  1.00  0.00     0.074 A 
ATOM     55  C   UNL A   1      47.300  31.732  27.193  1.00  0.00     0.029 A 
ATOM     56  N   UNL A   1      45.544  30.392  27.444  1.00  0.00    -0.354 N 
ATOM     57  N   UNL A   1      43.995  27.918  27.047  1.00  0.00    -0.248 NA
ATOM     58  C   UNL A   1      43.736  25.837  26.016  1.00  0.00     0.031 C 
ATOM     59  C   UNL A   1      47.545  30.542  26.499  1.00  0.00     0.029 A 
ATOM     60  C   UNL A   1      46.455  29.701  26.667  1.00  0.00     0.049 A 
ATOM     61  H   UNL A   1      44.666  30.047  27.727  1.00  0.00     0.167 HD
ATOM     62  C   UNL A   1      45.146  27.622  26.325  1.00  0.00     0.074 A 
ATOM     63  C   UNL A   1      44.947  26.308  25.747  1.00  0.00     0.031 C 
ATOM     64  C   UNL A   1      46.260  28.372  26.145  1.00  0.00     0.034 A 
BRANCH  51  65
ATOM     65  C   UNL A   1      45.993  33.972  28.763  1.00  0.00     0.023 A 
ATOM     66  C   UNL A   1      46.910  34.154  29.820  1.00  0.00     0.012 A 
ATOM     67  C   UNL A   1      45.722  35.048  27.896  1.00  0.00     0.148 A 
ATOM     68  C   UNL A   1      47.511  35.392  30.038  1.00  0.00     0.002 A 
ATOM     69  C   UNL A   1      46.361  36.268  28.091  1.00  0.00     0.091 A 
ATOM     70  F   UNL A   1      44.830  34.868  26.911  1.00  0.00    -0.205 F 
ATOM     71  C   UNL A   1      47.244  36.445  29.168  1.00  0.00     0.022 A 
BRANCH  69  72
ATOM     72  S   UNL A   1      46.144  37.661  26.978  1.00  0.00     0.127 S 
ATOM     73  O   UNL A   1      46.884  38.712  27.674  1.00  0.00    -0.237 OA
ATOM     74  O   UNL A   1      46.779  37.178  25.750  1.00  0.00    -0.237 OA
ATOM     75  O   UNL A   1      44.707  37.869  26.874  1.00  0.00    -0.744 OA
ENDBRANCH  69  72
ENDBRANCH  51  65
BRANCH  52  76
ATOM     76  C   UNL A   1      41.124  25.351  27.271  1.00  0.00     0.023 A 
ATOM     77  C   UNL A   1      39.828  25.383  26.722  1.00  0.00     0.012 A 
ATOM     78  C   UNL A   1      41.718  24.106  27.556  1.00  0.00     0.148 A 
ATOM     79  C   UNL A   1      39.122  24.203  26.491  1.00  0.00     0.002 A 
ATOM     80  C   UNL A   1      41.031  22.931  27.272  1.00  0.00     0.091 A 
ATOM     81  F   UNL A   1      42.949  24.096  28.087  1.00  0.00    -0.205 F 
ATOM     82  C   UNL A   1      39.726  22.977  26.756  1.00  0.00     0.022 A 
BRANCH  80  83
ATOM     83  S   UNL A   1      41.778  21.308  27.462  1.00  0.00     0.127 S 
ATOM     84  O   UNL A   1      40.666  20.527  27.996  1.00  0.00    -0.237 OA
ATOM     85  O   UNL A   1      42.152  20.986  26.083  1.00  0.00    -0.237 OA
ATOM     86  O   UNL A   1      42.908  21.499  28.360  1.00  0.00    -0.744 OA
ENDBRANCH  80  83
ENDBRANCH  52  76
BRANCH  64  87
ATOM     87  C   UNL A   1      47.373  27.779  25.321  1.00  0.00     0.023 A 
ATOM     88  C   UNL A   1      47.311  27.835  23.915  1.00  0.00     0.012 A 
ATOM     89  C   UNL A   1      48.512  27.232  25.944  1.00  0.00     0.148 A 
ATOM     90  C   UNL A   1      48.351  27.322  23.141  1.00  0.00     0.002 A 
ATOM     91  C   UNL A   1      49.565  26.770  25.166  1.00  0.00     0.091 A 
ATOM     92  F   UNL A   1      48.542  27.170  27.283  1.00  0.00    -0.205 F 
ATOM     93  C   UNL A   1      49.482  26.801  23.765  1.00  0.00     0.022 A 
BRANCH  91  94
ATOM     94  S   UNL A   1      51.102  26.177  25.886  1.00  0.00     0.127 S 
ATOM     95  O   UNL A   1      50.665  24.956  26.559  1.00  0.00    -0.237 OA
ATOM     96  O   UNL A   1      51.936  25.960  24.705  1.00  0.00    -0.237 OA
ATOM     97  O   UNL A   1      51.569  27.245  26.764  1.00  0.00    -0.744 OA
ENDBRANCH  91  94
ENDBRANCH  64  87
ENDBRANCH  38  39
ENDBRANCH  30  33
ENDBRANCH  28  29
ENDBRANCH  27  28
ENDBRANCH  26  27
ENDBRANCH  25  26
ENDBRANCH   1  25
TORSDOF 22
ENDMDL
MODEL 3
REMARK VINA RESULT:      -8.5      4.522     10.111
REMARK SMILES CC(C)(C)[N@H+](CCC(=O)NCCCCCCNC(=O)c1ccc(-c2c3nc(c(-c4cccc(S(=O)(=O)[O-])c4F)c4ccc([nH]4)c(-c4cccc(S(=O)(=O)[O-])c4F)c4nc(c(-c5cccc(S(=O)(=O)[O-])c5F)c5ccc2[nH]5)C=C4)C=C3)cc1)Cc1ccccc1C1CC1
REMARK SMILES IDX 12 1 11 2 10 3 8 4 9 5 7 7 6 8 5 9 2 11 1 12 3 13 4 14 83 15
REMARK SMILES IDX 84 16 85 17 89 18 86 19 88 20 87 21 90 22 91 23 92 24 13 25
REMARK SMILES IDX 14 26 15 27 16 28 17 29 18 30 19 32 20 33 21 34 82 35 22 36
REMARK SMILES IDX 81 37 23 38 24 39 25 40 75 41 26 42 80 43 74 44 76 45 27 46
REMARK SMILES IDX 79 47 73 48 72 49 28 51 60 52 40 53 59 54 41 55 44 56 58 57
REMARK SMILES IDX 77 58 42 59 43 60 57 62 78 63 45 64 29 65 30 66 38 67 31 68
REMARK SMILES IDX 33 69 39 70 32 71 34 72 35 73 36 74 37 75 61 76 62 77 70 78
REMARK SMILES IDX 63 79 65 80 71 81 64 82 66 83 67 84 68 85 69 86 46 87 47 88
REMARK SMILES IDX 55 89 48 90 50 91 56 92 49 93 51 94 52 95 53 96 54 97
REMARK H PARENT 10 6 5 10 17 31 76 50 44 61
REMARK Flexibility Score: inf
ROOT
ATOM      1  C   UNL A   1      46.149  24.520  25.025  1.00  0.00     0.021 C 
ENDROOT
BRANCH   1   2
ATOM      2  C   UNL A   1      47.200  25.382  25.715  1.00  0.00     0.116 C 
BRANCH   2   3
ATOM      3  N   UNL A   1      47.348  26.720  25.111  1.00  0.00    -0.356 N 
ATOM      4  C   UNL A   1      47.816  27.228  23.934  1.00  0.00     0.225 C 
ATOM      5  O   UNL A   1      47.249  28.263  23.551  1.00  0.00    -0.275 OA
ATOM      6  H   UNL A   1      47.028  27.431  25.715  1.00  0.00     0.163 HD
BRANCH   4   7
ATOM      7  C   UNL A   1      48.952  26.680  23.078  1.00  0.00     0.161 C 
BRANCH   7   8
ATOM      8  C   UNL A   1      49.684  27.754  22.262  1.00  0.00     0.272 C 
BRANCH   8   9
ATOM      9  N   UNL A   1      51.165  27.820  22.388  1.00  0.00    -0.327 N 
ATOM     10  H   UNL A   1      51.512  26.997  22.880  1.00  0.00     0.348 HD
BRANCH   9  11
ATOM     11  C   UNL A   1      51.866  27.716  21.037  1.00  0.00     0.089 C 
ATOM     12  C   UNL A   1      51.297  28.647  19.919  1.00  0.00     0.078 C 
ATOM     13  C   UNL A   1      51.649  26.282  20.494  1.00  0.00     0.078 C 
ATOM     14  C   UNL A   1      53.392  28.008  21.051  1.00  0.00     0.078 C 
ENDBRANCH   9  11
BRANCH   9  15
ATOM     15  C   UNL A   1      51.541  28.980  23.235  1.00  0.00     0.299 C 
BRANCH  15  16
ATOM     16  C   UNL A   1      52.369  28.740  24.513  1.00  0.00     0.010 A 
ATOM     17  C   UNL A   1      53.003  29.963  24.898  1.00  0.00     0.010 A 
ATOM     18  C   UNL A   1      52.515  27.611  25.393  1.00  0.00    -0.036 A 
ATOM     19  C   UNL A   1      53.740  30.130  26.062  1.00  0.00     0.001 A 
ATOM     20  C   UNL A   1      53.239  27.873  26.606  1.00  0.00     0.004 A 
ATOM     21  C   UNL A   1      53.842  29.080  26.937  1.00  0.00     0.000 A 
BRANCH  18  22
ATOM     22  C   UNL A   1      52.266  26.078  25.319  1.00  0.00     0.020 C 
ATOM     23  C   UNL A   1      53.214  25.416  24.271  1.00  0.00     0.009 C 
ATOM     24  C   UNL A   1      52.884  24.726  25.527  1.00  0.00     0.009 C 
ENDBRANCH  18  22
ENDBRANCH  15  16
ENDBRANCH   9  15
ENDBRANCH   8   9
ENDBRANCH   7   8
ENDBRANCH   4   7
ENDBRANCH   2   3
ENDBRANCH   1   2
BRANCH   1  25
ATOM     25  C   UNL A   1      45.350  23.678  26.032  1.00  0.00     0.002 C 
BRANCH  25  26
ATOM     26  C   UNL A   1      44.782  22.361  25.492  1.00  0.00     0.002 C 
BRANCH  26  27
ATOM     27  C   UNL A   1      43.257  22.292  25.352  1.00  0.00     0.021 C 
BRANCH  27  28
ATOM     28  C   UNL A   1      42.530  21.441  26.390  1.00  0.00     0.116 C 
BRANCH  28  29
ATOM     29  N   UNL A   1      41.089  21.387  26.196  1.00  0.00    -0.352 N 
ATOM     30  C   UNL A   1      40.149  22.366  26.403  1.00  0.00     0.251 C 
ATOM     31  H   UNL A   1      40.739  20.528  25.870  1.00  0.00     0.163 HD
ATOM     32  O   UNL A   1      38.960  22.120  26.220  1.00  0.00    -0.269 OA
BRANCH  30  33
ATOM     33  C   UNL A   1      40.564  23.701  26.884  1.00  0.00     0.039 A 
ATOM     34  C   UNL A   1      40.447  24.787  26.012  1.00  0.00     0.014 A 
ATOM     35  C   UNL A   1      41.064  23.889  28.176  1.00  0.00     0.014 A 
ATOM     36  C   UNL A   1      40.791  26.066  26.448  1.00  0.00     0.010 A 
ATOM     37  C   UNL A   1      41.333  25.174  28.634  1.00  0.00     0.010 A 
ATOM     38  C   UNL A   1      41.216  26.273  27.770  1.00  0.00    -0.014 A 
BRANCH  38  39
ATOM     39  C   UNL A   1      41.567  27.629  28.254  1.00  0.00     0.031 A 
ATOM     40  C   UNL A   1      43.000  28.087  28.239  1.00  0.00     0.074 A 
ATOM     41  C   UNL A   1      40.604  28.423  28.762  1.00  0.00     0.049 A 
ATOM     42  N   UNL A   1      43.504  29.232  28.619  1.00  0.00    -0.248 NA
ATOM     43  C   UNL A   1      44.005  27.120  27.763  1.00  0.00     0.031 C 
ATOM     44  C   UNL A   1      39.193  28.054  28.903  1.00  0.00     0.029 A 
ATOM     45  N   UNL A   1      40.666  29.696  29.268  1.00  0.00    -0.354 N 
ATOM     46  C   UNL A   1      44.880  29.112  28.463  1.00  0.00     0.074 A 
ATOM     47  C   UNL A   1      45.137  27.768  27.993  1.00  0.00     0.031 C 
ATOM     48  C   UNL A   1      38.521  29.085  29.440  1.00  0.00     0.029 A 
ATOM     49  C   UNL A   1      39.453  30.177  29.702  1.00  0.00     0.049 A 
ATOM     50  H   UNL A   1      41.501  30.216  29.316  1.00  0.00     0.167 HD
ATOM     51  C   UNL A   1      45.841  30.044  28.662  1.00  0.00     0.034 A 
ATOM     52  C   UNL A   1      39.131  31.368  30.242  1.00  0.00     0.034 A 
ATOM     53  C   UNL A   1      45.570  31.392  29.081  1.00  0.00     0.049 A 
ATOM     54  C   UNL A   1      40.208  32.407  30.399  1.00  0.00     0.074 A 
ATOM     55  C   UNL A   1      46.454  32.446  29.218  1.00  0.00     0.029 A 
ATOM     56  N   UNL A   1      44.316  31.871  29.434  1.00  0.00    -0.354 N 
ATOM     57  N   UNL A   1      41.480  32.331  30.086  1.00  0.00    -0.248 NA
ATOM     58  C   UNL A   1      39.800  33.708  30.947  1.00  0.00     0.031 C 
ATOM     59  C   UNL A   1      45.737  33.557  29.678  1.00  0.00     0.029 A 
ATOM     60  C   UNL A   1      44.403  33.202  29.801  1.00  0.00     0.049 A 
ATOM     61  H   UNL A   1      43.487  31.340  29.425  1.00  0.00     0.167 HD
ATOM     62  C   UNL A   1      42.016  33.585  30.358  1.00  0.00     0.074 A 
ATOM     63  C   UNL A   1      40.925  34.406  30.845  1.00  0.00     0.031 C 
ATOM     64  C   UNL A   1      43.295  34.016  30.231  1.00  0.00     0.034 A 
BRANCH  51  65
ATOM     65  C   UNL A   1      47.267  29.649  28.381  1.00  0.00     0.023 A 
ATOM     66  C   UNL A   1      47.807  29.848  27.093  1.00  0.00     0.012 A 
ATOM     67  C   UNL A   1      48.087  29.114  29.395  1.00  0.00     0.148 A 
ATOM     68  C   UNL A   1      49.122  29.483  26.806  1.00  0.00     0.002 A 
ATOM     69  C   UNL A   1      49.411  28.796  29.113  1.00  0.00     0.091 A 
ATOM     70  F   UNL A   1      47.553  28.908  30.607  1.00  0.00    -0.205 F 
ATOM     71  C   UNL A   1      49.925  28.966  27.818  1.00  0.00     0.022 A 
BRANCH  69  72
ATOM     72  S   UNL A   1      50.549  28.198  30.369  1.00  0.00     0.127 S 
ATOM     73  O   UNL A   1      50.626  29.349  31.268  1.00  0.00    -0.237 OA
ATOM     74  O   UNL A   1      49.829  27.045  30.914  1.00  0.00    -0.237 OA
ATOM     75  O   UNL A   1      51.780  27.866  29.667  1.00  0.00    -0.744 OA
ENDBRANCH  69  72
ENDBRANCH  51  65
BRANCH  52  76
ATOM     76  C   UNL A   1      37.712  31.675  30.580  1.00  0.00     0.023 A 
ATOM     77  C   UNL A   1      37.216  31.320  31.850  1.00  0.00     0.012 A 
ATOM     78  C   UNL A   1      36.863  32.339  29.674  1.00  0.00     0.148 A 
ATOM     79  C   UNL A   1      35.893  31.590  32.200  1.00  0.00     0.002 A 
ATOM     80  C   UNL A   1      35.562  32.654  30.048  1.00  0.00     0.091 A 
ATOM     81  F   UNL A   1      37.351  32.660  28.467  1.00  0.00    -0.205 F 
ATOM     82  C   UNL A   1      35.069  32.265  31.304  1.00  0.00     0.022 A 
BRANCH  80  83
ATOM     83  S   UNL A   1      34.471  33.633  29.010  1.00  0.00     0.127 S 
ATOM     84  O   UNL A   1      33.488  34.114  29.977  1.00  0.00    -0.237 OA
ATOM     85  O   UNL A   1      35.383  34.657  28.496  1.00  0.00    -0.237 OA
ATOM     86  O   UNL A   1      33.967  32.717  27.996  1.00  0.00    -0.744 OA
ENDBRANCH  80  83
ENDBRANCH  52  76
BRANCH  64  87
ATOM     87  C   UNL A   1      43.584  35.452  30.584  1.00  0.00     0.023 A 
ATOM     88  C   UNL A   1      44.108  35.771  31.852  1.00  0.00     0.012 A 
ATOM     89  C   UNL A   1      43.402  36.474  29.632  1.00  0.00     0.148 A 
ATOM     90  C   UNL A   1      44.413  37.091  32.179  1.00  0.00     0.002 A 
ATOM     91  C   UNL A   1      43.757  37.779  29.948  1.00  0.00     0.091 A 
ATOM     92  F   UNL A   1      42.883  36.152  28.438  1.00  0.00    -0.205 F 
ATOM     93  C   UNL A   1      44.250  38.092  31.225  1.00  0.00     0.022 A 
BRANCH  91  94
ATOM     94  S   UNL A   1      43.676  39.113  28.747  1.00  0.00     0.127 S 
ATOM     95  O   UNL A   1      44.033  40.271  29.563  1.00  0.00    -0.237 OA
ATOM     96  O   UNL A   1      44.688  38.716  27.769  1.00  0.00    -0.237 OA
ATOM     97  O   UNL A   1      42.309  39.105  28.234  1.00  0.00    -0.744 OA
ENDBRANCH  91  94
ENDBRANCH  64  87
ENDBRANCH  38  39
ENDBRANCH  30  33
ENDBRANCH  28  29
ENDBRANCH  27  28
ENDBRANCH  26  27
ENDBRANCH  25  26
ENDBRANCH   1  25
TORSDOF 22
ENDMDL
