MODEL 1
REMARK VINA RESULT:      -9.8      0.000      0.000
REMARK SMILES CC[N@@H+](C/C(Cl)=C/Cl)C[C@@H](C)C(=O)NCCCCCCNC(=O)c1ccc(-c2c3nc(c(-c4cccc(S(=O)(=O)[O-])c4F)c4ccc([nH]4)c(-c4cccc(S(=O)(=O)[O-])c4F)c4nc(c(-c5cccc(S(=O)(=O)[O-])c5F)c5ccc2[nH]5)C=C4)C=C3)cc1
REMARK SMILES IDX 17 1 16 2 15 3 14 4 12 5 13 6 10 8 11 9 9 10 3 11 2 13 1 14
REMARK SMILES IDX 4 15 5 16 6 17 7 18 8 19 18 20 19 21 20 22 21 23 22 24 23 26
REMARK SMILES IDX 24 27 25 28 86 29 26 30 85 31 27 32 28 33 29 34 79 35 30 36
REMARK SMILES IDX 84 37 78 38 80 39 31 40 83 41 77 42 76 43 32 45 64 46 44 47
REMARK SMILES IDX 63 48 45 49 48 50 62 51 81 52 46 53 47 54 61 56 82 57 49 58
REMARK SMILES IDX 33 59 34 60 42 61 35 62 37 63 43 64 36 65 38 66 39 67 40 68
REMARK SMILES IDX 41 69 65 70 66 71 74 72 67 73 69 74 75 75 68 76 70 77 71 78
REMARK SMILES IDX 72 79 73 80 50 81 51 82 59 83 52 84 54 85 60 86 53 87 55 88
REMARK SMILES IDX 56 89 57 90 58 91
REMARK H PARENT 14 7 3 12 21 25 80 44 48 55
REMARK Flexibility Score: inf
ROOT
ATOM      1  C   UNL A   1      32.894  29.829  26.057  1.00  0.00     0.002 C 
ENDROOT
BRANCH   1   2
ATOM      2  C   UNL A   1      33.449  29.038  24.869  1.00  0.00     0.021 C 
BRANCH   2   3
ATOM      3  C   UNL A   1      33.657  27.561  25.182  1.00  0.00     0.116 C 
BRANCH   3   4
ATOM      4  N   UNL A   1      32.676  27.102  26.142  1.00  0.00    -0.356 N 
ATOM      5  C   UNL A   1      31.479  26.490  25.951  1.00  0.00     0.228 C 
ATOM      6  O   UNL A   1      30.766  26.308  26.941  1.00  0.00    -0.275 OA
ATOM      7  H   UNL A   1      32.915  27.257  27.084  1.00  0.00     0.163 HD
BRANCH   5   8
ATOM      8  C   UNL A   1      31.040  26.011  24.573  1.00  0.00     0.130 C 
ATOM      9  C   UNL A   1      29.880  26.869  24.071  1.00  0.00     0.024 C 
BRANCH   8  10
ATOM     10  C   UNL A   1      30.884  24.472  24.540  1.00  0.00     0.275 C 
BRANCH  10  11
ATOM     11  N   UNL A   1      31.903  23.603  25.136  1.00  0.00    -0.330 N 
ATOM     12  H   UNL A   1      32.420  24.327  25.638  1.00  0.00     0.348 HD
BRANCH  11  13
ATOM     13  C   UNL A   1      31.553  22.764  26.277  1.00  0.00     0.259 C 
ATOM     14  C   UNL A   1      30.144  22.970  26.827  1.00  0.00     0.071 C 
ENDBRANCH  11  13
BRANCH  11  15
ATOM     15  C   UNL A   1      32.885  23.034  24.209  1.00  0.00     0.312 C 
BRANCH  15  16
ATOM     16  C   UNL A   1      34.353  23.287  24.465  1.00  0.00     0.083 C 
ATOM     17  Cl  UNL A   1      35.387  22.997  23.094  1.00  0.00    -0.082 Cl
ATOM     18  C   UNL A   1      34.843  23.724  25.631  1.00  0.00     0.102 C 
ATOM     19  Cl  UNL A   1      36.499  23.975  25.999  1.00  0.00    -0.091 Cl
ENDBRANCH  15  16
ENDBRANCH  11  15
ENDBRANCH  10  11
ENDBRANCH   8  10
ENDBRANCH   5   8
ENDBRANCH   3   4
ENDBRANCH   2   3
ENDBRANCH   1   2
BRANCH   1  20
ATOM     20  C   UNL A   1      31.572  30.549  25.771  1.00  0.00     0.002 C 
BRANCH  20  21
ATOM     21  C   UNL A   1      31.361  31.833  26.577  1.00  0.00     0.021 C 
BRANCH  21  22
ATOM     22  C   UNL A   1      32.634  32.376  27.214  1.00  0.00     0.116 C 
BRANCH  22  23
ATOM     23  N   UNL A   1      32.491  33.777  27.578  1.00  0.00    -0.352 N 
ATOM     24  C   UNL A   1      33.154  34.482  28.551  1.00  0.00     0.251 C 
ATOM     25  H   UNL A   1      31.831  34.288  27.056  1.00  0.00     0.163 HD
ATOM     26  O   UNL A   1      32.761  35.590  28.892  1.00  0.00    -0.269 OA
BRANCH  24  27
ATOM     27  C   UNL A   1      34.343  33.877  29.183  1.00  0.00     0.039 A 
ATOM     28  C   UNL A   1      35.606  34.402  28.900  1.00  0.00     0.014 A 
ATOM     29  C   UNL A   1      34.201  32.803  30.066  1.00  0.00     0.014 A 
ATOM     30  C   UNL A   1      36.727  33.873  29.541  1.00  0.00     0.010 A 
ATOM     31  C   UNL A   1      35.308  32.334  30.761  1.00  0.00     0.010 A 
ATOM     32  C   UNL A   1      36.584  32.851  30.494  1.00  0.00    -0.014 A 
BRANCH  32  33
ATOM     33  C   UNL A   1      37.755  32.294  31.214  1.00  0.00     0.031 A 
ATOM     34  C   UNL A   1      38.513  31.136  30.620  1.00  0.00     0.074 A 
ATOM     35  C   UNL A   1      38.078  32.764  32.435  1.00  0.00     0.049 A 
ATOM     36  N   UNL A   1      39.500  30.450  31.132  1.00  0.00    -0.248 NA
ATOM     37  C   UNL A   1      38.088  30.669  29.288  1.00  0.00     0.031 C 
ATOM     38  C   UNL A   1      37.376  33.837  33.143  1.00  0.00     0.029 A 
ATOM     39  N   UNL A   1      39.061  32.378  33.311  1.00  0.00    -0.354 N 
ATOM     40  C   UNL A   1      39.784  29.448  30.210  1.00  0.00     0.074 A 
ATOM     41  C   UNL A   1      38.848  29.597  29.120  1.00  0.00     0.031 C 
ATOM     42  C   UNL A   1      37.949  34.021  34.344  1.00  0.00     0.029 A 
ATOM     43  C   UNL A   1      39.032  33.057  34.507  1.00  0.00     0.049 A 
ATOM     44  H   UNL A   1      39.726  31.682  33.103  1.00  0.00     0.167 HD
ATOM     45  C   UNL A   1      40.753  28.505  30.257  1.00  0.00     0.034 A 
ATOM     46  C   UNL A   1      39.781  32.906  35.618  1.00  0.00     0.034 A 
ATOM     47  C   UNL A   1      41.713  28.394  31.322  1.00  0.00     0.049 A 
ATOM     48  C   UNL A   1      40.873  31.869  35.625  1.00  0.00     0.074 A 
ATOM     49  C   UNL A   1      42.791  27.531  31.417  1.00  0.00     0.029 A 
ATOM     50  N   UNL A   1      41.708  29.159  32.476  1.00  0.00    -0.354 N 
ATOM     51  N   UNL A   1      41.222  31.030  34.679  1.00  0.00    -0.248 NA
ATOM     52  C   UNL A   1      41.699  31.780  36.839  1.00  0.00     0.031 C 
ATOM     53  C   UNL A   1      43.416  27.751  32.646  1.00  0.00     0.029 A 
ATOM     54  C   UNL A   1      42.756  28.781  33.295  1.00  0.00     0.049 A 
ATOM     55  H   UNL A   1      41.055  29.867  32.682  1.00  0.00     0.167 HD
ATOM     56  C   UNL A   1      42.334  30.353  35.163  1.00  0.00     0.074 A 
ATOM     57  C   UNL A   1      42.610  30.885  36.480  1.00  0.00     0.031 C 
ATOM     58  C   UNL A   1      43.057  29.369  34.575  1.00  0.00     0.034 A 
BRANCH  45  59
ATOM     59  C   UNL A   1      40.860  27.539  29.108  1.00  0.00     0.023 A 
ATOM     60  C   UNL A   1      40.016  26.412  29.059  1.00  0.00     0.012 A 
ATOM     61  C   UNL A   1      41.732  27.799  28.032  1.00  0.00     0.148 A 
ATOM     62  C   UNL A   1      40.057  25.542  27.969  1.00  0.00     0.002 A 
ATOM     63  C   UNL A   1      41.732  26.956  26.928  1.00  0.00     0.091 A 
ATOM     64  F   UNL A   1      42.539  28.866  28.107  1.00  0.00    -0.205 F 
ATOM     65  C   UNL A   1      40.902  25.821  26.900  1.00  0.00     0.022 A 
BRANCH  63  66
ATOM     66  S   UNL A   1      42.720  27.273  25.463  1.00  0.00     0.127 S 
ATOM     67  O   UNL A   1      42.123  28.512  24.966  1.00  0.00    -0.237 OA
ATOM     68  O   UNL A   1      44.061  27.426  26.026  1.00  0.00    -0.237 OA
ATOM     69  O   UNL A   1      42.548  26.113  24.599  1.00  0.00    -0.744 OA
ENDBRANCH  63  66
ENDBRANCH  45  59
BRANCH  46  70
ATOM     70  C   UNL A   1      39.559  33.781  36.804  1.00  0.00     0.023 A 
ATOM     71  C   UNL A   1      40.009  35.116  36.778  1.00  0.00     0.012 A 
ATOM     72  C   UNL A   1      38.915  33.297  37.960  1.00  0.00     0.148 A 
ATOM     73  C   UNL A   1      39.868  35.937  37.898  1.00  0.00     0.002 A 
ATOM     74  C   UNL A   1      38.725  34.138  39.050  1.00  0.00     0.091 A 
ATOM     75  F   UNL A   1      38.502  32.023  37.971  1.00  0.00    -0.205 F 
ATOM     76  C   UNL A   1      39.221  35.451  39.031  1.00  0.00     0.022 A 
BRANCH  74  77
ATOM     77  S   UNL A   1      37.789  33.635  40.498  1.00  0.00     0.127 S 
ATOM     78  O   UNL A   1      38.711  32.706  41.144  1.00  0.00    -0.237 OA
ATOM     79  O   UNL A   1      37.605  34.908  41.197  1.00  0.00    -0.237 OA
ATOM     80  O   UNL A   1      36.556  33.053  39.984  1.00  0.00    -0.744 OA
ENDBRANCH  74  77
ENDBRANCH  46  70
BRANCH  58  81
ATOM     81  C   UNL A   1      44.264  28.846  35.306  1.00  0.00     0.023 A 
ATOM     82  C   UNL A   1      45.525  29.443  35.114  1.00  0.00     0.012 A 
ATOM     83  C   UNL A   1      44.124  27.814  36.257  1.00  0.00     0.148 A 
ATOM     84  C   UNL A   1      46.633  29.002  35.836  1.00  0.00     0.002 A 
ATOM     85  C   UNL A   1      45.219  27.418  37.011  1.00  0.00     0.091 A 
ATOM     86  F   UNL A   1      42.917  27.248  36.411  1.00  0.00    -0.205 F 
ATOM     87  C   UNL A   1      46.478  28.001  36.793  1.00  0.00     0.022 A 
BRANCH  85  88
ATOM     88  S   UNL A   1      45.092  26.211  38.335  1.00  0.00     0.127 S 
ATOM     89  O   UNL A   1      44.944  24.963  37.588  1.00  0.00    -0.237 OA
ATOM     90  O   UNL A   1      46.377  26.366  39.017  1.00  0.00    -0.237 OA
ATOM     91  O   UNL A   1      43.935  26.603  39.129  1.00  0.00    -0.744 OA
ENDBRANCH  85  88
ENDBRANCH  58  81
ENDBRANCH  32  33
ENDBRANCH  24  27
ENDBRANCH  22  23
ENDBRANCH  21  22
ENDBRANCH  20  21
ENDBRANCH   1  20
TORSDOF 21
ENDMDL
MODEL 2
REMARK VINA RESULT:      -9.7      2.384      8.116
REMARK SMILES CC[N@@H+](C/C(Cl)=C/Cl)C[C@@H](C)C(=O)NCCCCCCNC(=O)c1ccc(-c2c3nc(c(-c4cccc(S(=O)(=O)[O-])c4F)c4ccc([nH]4)c(-c4cccc(S(=O)(=O)[O-])c4F)c4nc(c(-c5cccc(S(=O)(=O)[O-])c5F)c5ccc2[nH]5)C=C4)C=C3)cc1
REMARK SMILES IDX 17 1 16 2 15 3 14 4 12 5 13 6 10 8 11 9 9 10 3 11 2 13 1 14
REMARK SMILES IDX 4 15 5 16 6 17 7 18 8 19 18 20 19 21 20 22 21 23 22 24 23 26
REMARK SMILES IDX 24 27 25 28 86 29 26 30 85 31 27 32 28 33 29 34 79 35 30 36
REMARK SMILES IDX 84 37 78 38 80 39 31 40 83 41 77 42 76 43 32 45 64 46 44 47
REMARK SMILES IDX 63 48 45 49 48 50 62 51 81 52 46 53 47 54 61 56 82 57 49 58
REMARK SMILES IDX 33 59 34 60 42 61 35 62 37 63 43 64 36 65 38 66 39 67 40 68
REMARK SMILES IDX 41 69 65 70 66 71 74 72 67 73 69 74 75 75 68 76 70 77 71 78
REMARK SMILES IDX 72 79 73 80 50 81 51 82 59 83 52 84 54 85 60 86 53 87 55 88
REMARK SMILES IDX 56 89 57 90 58 91
REMARK H PARENT 14 7 3 12 21 25 80 44 48 55
REMARK Flexibility Score: inf
ROOT
ATOM      1  C   UNL A   1      30.513  27.137  23.690  1.00  0.00     0.002 C 
ENDROOT
BRANCH   1   2
ATOM      2  C   UNL A   1      29.885  25.967  24.451  1.00  0.00     0.021 C 
BRANCH   2   3
ATOM      3  C   UNL A   1      30.698  25.544  25.669  1.00  0.00     0.116 C 
BRANCH   3   4
ATOM      4  N   UNL A   1      29.925  24.658  26.513  1.00  0.00    -0.356 N 
ATOM      5  C   UNL A   1      30.153  23.370  26.879  1.00  0.00     0.228 C 
ATOM      6  O   UNL A   1      29.269  22.791  27.514  1.00  0.00    -0.275 OA
ATOM      7  H   UNL A   1      29.101  25.052  26.882  1.00  0.00     0.163 HD
BRANCH   5   8
ATOM      8  C   UNL A   1      31.466  22.670  26.550  1.00  0.00     0.130 C 
ATOM      9  C   UNL A   1      32.623  23.378  27.253  1.00  0.00     0.024 C 
BRANCH   8  10
ATOM     10  C   UNL A   1      31.586  22.395  25.032  1.00  0.00     0.275 C 
BRANCH  10  11
ATOM     11  N   UNL A   1      32.775  21.737  24.481  1.00  0.00    -0.330 N 
ATOM     12  H   UNL A   1      33.133  21.353  25.356  1.00  0.00     0.348 HD
BRANCH  11  13
ATOM     13  C   UNL A   1      32.628  20.486  23.745  1.00  0.00     0.259 C 
ATOM     14  C   UNL A   1      32.535  19.232  24.608  1.00  0.00     0.071 C 
ENDBRANCH  11  13
BRANCH  11  15
ATOM     15  C   UNL A   1      33.842  22.626  24.013  1.00  0.00     0.312 C 
BRANCH  15  16
ATOM     16  C   UNL A   1      35.138  22.672  24.790  1.00  0.00     0.083 C 
ATOM     17  Cl  UNL A   1      35.293  21.442  26.012  1.00  0.00    -0.082 Cl
ATOM     18  C   UNL A   1      36.115  23.558  24.560  1.00  0.00     0.102 C 
ATOM     19  Cl  UNL A   1      37.580  23.695  25.442  1.00  0.00    -0.091 Cl
ENDBRANCH  15  16
ENDBRANCH  11  15
ENDBRANCH  10  11
ENDBRANCH   8  10
ENDBRANCH   5   8
ENDBRANCH   3   4
ENDBRANCH   2   3
ENDBRANCH   1   2
BRANCH   1  20
ATOM     20  C   UNL A   1      30.842  28.352  24.564  1.00  0.00     0.002 C 
BRANCH  20  21
ATOM     21  C   UNL A   1      32.217  28.969  24.300  1.00  0.00     0.021 C 
BRANCH  21  22
ATOM     22  C   UNL A   1      32.954  29.397  25.564  1.00  0.00     0.116 C 
BRANCH  22  23
ATOM     23  N   UNL A   1      32.617  30.761  25.939  1.00  0.00    -0.352 N 
ATOM     24  C   UNL A   1      33.144  31.527  26.949  1.00  0.00     0.251 C 
ATOM     25  H   UNL A   1      31.919  31.193  25.396  1.00  0.00     0.163 HD
ATOM     26  O   UNL A   1      32.598  32.569  27.287  1.00  0.00    -0.269 OA
BRANCH  24  27
ATOM     27  C   UNL A   1      34.374  31.067  27.624  1.00  0.00     0.039 A 
ATOM     28  C   UNL A   1      35.372  31.995  27.928  1.00  0.00     0.014 A 
ATOM     29  C   UNL A   1      34.527  29.721  27.967  1.00  0.00     0.014 A 
ATOM     30  C   UNL A   1      36.509  31.577  28.619  1.00  0.00     0.010 A 
ATOM     31  C   UNL A   1      35.622  29.324  28.724  1.00  0.00     0.010 A 
ATOM     32  C   UNL A   1      36.632  30.243  29.043  1.00  0.00    -0.014 A 
BRANCH  32  33
ATOM     33  C   UNL A   1      37.816  29.779  29.808  1.00  0.00     0.031 A 
ATOM     34  C   UNL A   1      38.065  30.316  31.193  1.00  0.00     0.074 A 
ATOM     35  C   UNL A   1      38.708  28.954  29.227  1.00  0.00     0.049 A 
ATOM     36  N   UNL A   1      39.085  30.109  31.984  1.00  0.00    -0.248 NA
ATOM     37  C   UNL A   1      37.050  31.227  31.752  1.00  0.00     0.031 C 
ATOM     38  C   UNL A   1      38.610  28.421  27.866  1.00  0.00     0.029 A 
ATOM     39  N   UNL A   1      39.891  28.442  29.697  1.00  0.00    -0.354 N 
ATOM     40  C   UNL A   1      38.857  30.894  33.109  1.00  0.00     0.074 A 
ATOM     41  C   UNL A   1      37.618  31.603  32.888  1.00  0.00     0.031 C 
ATOM     42  C   UNL A   1      39.687  27.661  27.611  1.00  0.00     0.029 A 
ATOM     43  C   UNL A   1      40.570  27.682  28.773  1.00  0.00     0.049 A 
ATOM     44  H   UNL A   1      40.223  28.602  30.610  1.00  0.00     0.167 HD
ATOM     45  C   UNL A   1      39.601  30.995  34.234  1.00  0.00     0.034 A 
ATOM     46  C   UNL A   1      41.777  27.085  28.846  1.00  0.00     0.034 A 
ATOM     47  C   UNL A   1      40.808  30.249  34.468  1.00  0.00     0.049 A 
ATOM     48  C   UNL A   1      42.565  27.191  30.125  1.00  0.00     0.074 A 
ATOM     49  C   UNL A   1      41.584  30.212  35.612  1.00  0.00     0.029 A 
ATOM     50  N   UNL A   1      41.417  29.419  33.543  1.00  0.00    -0.354 N 
ATOM     51  N   UNL A   1      42.259  27.818  31.235  1.00  0.00    -0.248 NA
ATOM     52  C   UNL A   1      43.850  26.477  30.176  1.00  0.00     0.031 C 
ATOM     53  C   UNL A   1      42.683  29.386  35.366  1.00  0.00     0.029 A 
ATOM     54  C   UNL A   1      42.566  28.873  34.084  1.00  0.00     0.049 A 
ATOM     55  H   UNL A   1      41.081  29.243  32.633  1.00  0.00     0.167 HD
ATOM     56  C   UNL A   1      43.284  27.533  32.129  1.00  0.00     0.074 A 
ATOM     57  C   UNL A   1      44.215  26.669  31.436  1.00  0.00     0.031 C 
ATOM     58  C   UNL A   1      43.447  27.959  33.405  1.00  0.00     0.034 A 
BRANCH  45  59
ATOM     59  C   UNL A   1      39.118  31.913  35.325  1.00  0.00     0.023 A 
ATOM     60  C   UNL A   1      38.204  31.439  36.286  1.00  0.00     0.012 A 
ATOM     61  C   UNL A   1      39.640  33.216  35.449  1.00  0.00     0.148 A 
ATOM     62  C   UNL A   1      37.795  32.255  37.341  1.00  0.00     0.002 A 
ATOM     63  C   UNL A   1      39.267  34.006  36.529  1.00  0.00     0.091 A 
ATOM     64  F   UNL A   1      40.494  33.654  34.513  1.00  0.00    -0.205 F 
ATOM     65  C   UNL A   1      38.336  33.531  37.469  1.00  0.00     0.022 A 
BRANCH  63  66
ATOM     66  S   UNL A   1      39.970  35.630  36.834  1.00  0.00     0.127 S 
ATOM     67  O   UNL A   1      39.283  36.023  38.064  1.00  0.00    -0.237 OA
ATOM     68  O   UNL A   1      41.390  35.322  37.000  1.00  0.00    -0.237 OA
ATOM     69  O   UNL A   1      39.652  36.435  35.662  1.00  0.00    -0.744 OA
ENDBRANCH  63  66
ENDBRANCH  45  59
BRANCH  46  70
ATOM     70  C   UNL A   1      42.303  26.299  27.694  1.00  0.00     0.023 A 
ATOM     71  C   UNL A   1      43.144  26.925  26.752  1.00  0.00     0.012 A 
ATOM     72  C   UNL A   1      41.967  24.943  27.518  1.00  0.00     0.148 A 
ATOM     73  C   UNL A   1      43.599  26.228  25.631  1.00  0.00     0.002 A 
ATOM     74  C   UNL A   1      42.472  24.239  26.432  1.00  0.00     0.091 A 
ATOM     75  F   UNL A   1      41.158  24.367  28.419  1.00  0.00    -0.205 F 
ATOM     76  C   UNL A   1      43.270  24.885  25.475  1.00  0.00     0.022 A 
BRANCH  74  77
ATOM     77  S   UNL A   1      42.204  22.475  26.223  1.00  0.00     0.127 S 
ATOM     78  O   UNL A   1      42.965  22.198  25.008  1.00  0.00    -0.237 OA
ATOM     79  O   UNL A   1      42.783  21.932  27.452  1.00  0.00    -0.237 OA
ATOM     80  O   UNL A   1      40.760  22.309  26.119  1.00  0.00    -0.744 OA
ENDBRANCH  74  77
ENDBRANCH  46  70
BRANCH  58  81
ATOM     81  C   UNL A   1      44.634  27.445  34.175  1.00  0.00     0.023 A 
ATOM     82  C   UNL A   1      45.844  28.165  34.177  1.00  0.00     0.012 A 
ATOM     83  C   UNL A   1      44.513  26.289  34.972  1.00  0.00     0.148 A 
ATOM     84  C   UNL A   1      46.926  27.725  34.939  1.00  0.00     0.002 A 
ATOM     85  C   UNL A   1      45.576  25.888  35.770  1.00  0.00     0.091 A 
ATOM     86  F   UNL A   1      43.357  25.610  34.942  1.00  0.00    -0.205 F 
ATOM     87  C   UNL A   1      46.788  26.597  35.744  1.00  0.00     0.022 A 
BRANCH  85  88
ATOM     88  S   UNL A   1      45.455  24.511  36.916  1.00  0.00     0.127 S 
ATOM     89  O   UNL A   1      45.190  23.393  36.012  1.00  0.00    -0.237 OA
ATOM     90  O   UNL A   1      46.784  24.501  37.527  1.00  0.00    -0.237 OA
ATOM     91  O   UNL A   1      44.370  24.841  37.831  1.00  0.00    -0.744 OA
ENDBRANCH  85  88
ENDBRANCH  58  81
ENDBRANCH  32  33
ENDBRANCH  24  27
ENDBRANCH  22  23
ENDBRANCH  21  22
ENDBRANCH  20  21
ENDBRANCH   1  20
TORSDOF 21
ENDMDL
MODEL 3
REMARK VINA RESULT:      -9.6      3.679      8.645
REMARK SMILES CC[N@@H+](C/C(Cl)=C/Cl)C[C@@H](C)C(=O)NCCCCCCNC(=O)c1ccc(-c2c3nc(c(-c4cccc(S(=O)(=O)[O-])c4F)c4ccc([nH]4)c(-c4cccc(S(=O)(=O)[O-])c4F)c4nc(c(-c5cccc(S(=O)(=O)[O-])c5F)c5ccc2[nH]5)C=C4)C=C3)cc1
REMARK SMILES IDX 17 1 16 2 15 3 14 4 12 5 13 6 10 8 11 9 9 10 3 11 2 13 1 14
REMARK SMILES IDX 4 15 5 16 6 17 7 18 8 19 18 20 19 21 20 22 21 23 22 24 23 26
REMARK SMILES IDX 24 27 25 28 86 29 26 30 85 31 27 32 28 33 29 34 79 35 30 36
REMARK SMILES IDX 84 37 78 38 80 39 31 40 83 41 77 42 76 43 32 45 64 46 44 47
REMARK SMILES IDX 63 48 45 49 48 50 62 51 81 52 46 53 47 54 61 56 82 57 49 58
REMARK SMILES IDX 33 59 34 60 42 61 35 62 37 63 43 64 36 65 38 66 39 67 40 68
REMARK SMILES IDX 41 69 65 70 66 71 74 72 67 73 69 74 75 75 68 76 70 77 71 78
REMARK SMILES IDX 72 79 73 80 50 81 51 82 59 83 52 84 54 85 60 86 53 87 55 88
REMARK SMILES IDX 56 89 57 90 58 91
REMARK H PARENT 14 7 3 12 21 25 80 44 48 55
REMARK Flexibility Score: inf
ROOT
ATOM      1  C   UNL A   1      30.811  28.558  24.567  1.00  0.00     0.002 C 
ENDROOT
BRANCH   1   2
ATOM      2  C   UNL A   1      30.538  28.758  23.074  1.00  0.00     0.021 C 
BRANCH   2   3
ATOM      3  C   UNL A   1      30.544  27.452  22.287  1.00  0.00     0.116 C 
BRANCH   3   4
ATOM      4  N   UNL A   1      31.900  27.002  22.059  1.00  0.00    -0.356 N 
ATOM      5  C   UNL A   1      32.529  25.868  22.460  1.00  0.00     0.228 C 
ATOM      6  O   UNL A   1      33.739  25.776  22.239  1.00  0.00    -0.275 OA
ATOM      7  H   UNL A   1      32.456  27.617  21.527  1.00  0.00     0.163 HD
BRANCH   5   8
ATOM      8  C   UNL A   1      31.768  24.730  23.131  1.00  0.00     0.130 C 
ATOM      9  C   UNL A   1      31.442  25.105  24.575  1.00  0.00     0.024 C 
BRANCH   8  10
ATOM     10  C   UNL A   1      32.449  23.367  22.860  1.00  0.00     0.275 C 
BRANCH  10  11
ATOM     11  N   UNL A   1      33.340  22.764  23.856  1.00  0.00    -0.330 N 
ATOM     12  H   UNL A   1      33.150  23.416  24.618  1.00  0.00     0.348 HD
BRANCH  11  13
ATOM     13  C   UNL A   1      32.937  21.532  24.526  1.00  0.00     0.259 C 
ATOM     14  C   UNL A   1      32.581  20.374  23.599  1.00  0.00     0.071 C 
ENDBRANCH  11  13
BRANCH  11  15
ATOM     15  C   UNL A   1      34.776  22.909  23.605  1.00  0.00     0.312 C 
BRANCH  15  16
ATOM     16  C   UNL A   1      35.627  23.599  24.646  1.00  0.00     0.083 C 
ATOM     17  Cl  UNL A   1      34.893  25.005  25.364  1.00  0.00    -0.082 Cl
ATOM     18  C   UNL A   1      36.837  23.171  25.024  1.00  0.00     0.102 C 
ATOM     19  Cl  UNL A   1      37.871  23.940  26.156  1.00  0.00    -0.091 Cl
ENDBRANCH  15  16
ENDBRANCH  11  15
ENDBRANCH  10  11
ENDBRANCH   8  10
ENDBRANCH   5   8
ENDBRANCH   3   4
ENDBRANCH   2   3
ENDBRANCH   1   2
BRANCH   1  20
ATOM     20  C   UNL A   1      32.123  29.182  25.055  1.00  0.00     0.002 C 
BRANCH  20  21
ATOM     21  C   UNL A   1      32.987  28.253  25.910  1.00  0.00     0.021 C 
BRANCH  21  22
ATOM     22  C   UNL A   1      34.283  28.890  26.395  1.00  0.00     0.116 C 
BRANCH  22  23
ATOM     23  N   UNL A   1      34.086  30.284  26.763  1.00  0.00    -0.352 N 
ATOM     24  C   UNL A   1      34.742  31.019  27.718  1.00  0.00     0.251 C 
ATOM     25  H   UNL A   1      33.390  30.764  26.259  1.00  0.00     0.163 HD
ATOM     26  O   UNL A   1      34.308  32.108  28.070  1.00  0.00    -0.269 OA
BRANCH  24  27
ATOM     27  C   UNL A   1      35.973  30.469  28.319  1.00  0.00     0.039 A 
ATOM     28  C   UNL A   1      35.881  29.707  29.485  1.00  0.00     0.014 A 
ATOM     29  C   UNL A   1      37.213  30.699  27.716  1.00  0.00     0.014 A 
ATOM     30  C   UNL A   1      37.034  29.135  30.023  1.00  0.00     0.010 A 
ATOM     31  C   UNL A   1      38.345  30.063  28.208  1.00  0.00     0.010 A 
ATOM     32  C   UNL A   1      38.272  29.289  29.376  1.00  0.00    -0.014 A 
BRANCH  32  33
ATOM     33  C   UNL A   1      39.508  28.665  29.908  1.00  0.00     0.031 A 
ATOM     34  C   UNL A   1      40.175  29.253  31.123  1.00  0.00     0.074 A 
ATOM     35  C   UNL A   1      40.076  27.635  29.251  1.00  0.00     0.049 A 
ATOM     36  N   UNL A   1      41.306  28.914  31.685  1.00  0.00    -0.248 NA
ATOM     37  C   UNL A   1      39.500  30.389  31.776  1.00  0.00     0.031 C 
ATOM     38  C   UNL A   1      39.558  27.022  28.025  1.00  0.00     0.029 A 
ATOM     39  N   UNL A   1      41.231  26.940  29.505  1.00  0.00    -0.354 N 
ATOM     40  C   UNL A   1      41.498  29.818  32.725  1.00  0.00     0.074 A 
ATOM     41  C   UNL A   1      40.384  30.737  32.699  1.00  0.00     0.031 C 
ATOM     42  C   UNL A   1      40.394  26.046  27.633  1.00  0.00     0.029 A 
ATOM     43  C   UNL A   1      41.523  25.988  28.555  1.00  0.00     0.049 A 
ATOM     44  H   UNL A   1      41.798  27.106  30.292  1.00  0.00     0.167 HD
ATOM     45  C   UNL A   1      42.500  29.862  33.632  1.00  0.00     0.034 A 
ATOM     46  C   UNL A   1      42.590  25.173  28.431  1.00  0.00     0.034 A 
ATOM     47  C   UNL A   1      43.580  28.914  33.682  1.00  0.00     0.049 A 
ATOM     48  C   UNL A   1      43.672  25.226  29.477  1.00  0.00     0.074 A 
ATOM     49  C   UNL A   1      44.594  28.818  34.619  1.00  0.00     0.029 A 
ATOM     50  N   UNL A   1      43.793  27.907  32.756  1.00  0.00    -0.354 N 
ATOM     51  N   UNL A   1      43.758  25.989  30.539  1.00  0.00    -0.248 NA
ATOM     52  C   UNL A   1      44.788  24.279  29.328  1.00  0.00     0.031 C 
ATOM     53  C   UNL A   1      45.440  27.775  34.238  1.00  0.00     0.029 A 
ATOM     54  C   UNL A   1      44.928  27.192  33.091  1.00  0.00     0.049 A 
ATOM     55  H   UNL A   1      43.220  27.728  31.975  1.00  0.00     0.167 HD
ATOM     56  C   UNL A   1      44.905  25.582  31.209  1.00  0.00     0.074 A 
ATOM     57  C   UNL A   1      45.477  24.497  30.440  1.00  0.00     0.031 C 
ATOM     58  C   UNL A   1      45.445  26.070  32.352  1.00  0.00     0.034 A 
BRANCH  45  59
ATOM     59  C   UNL A   1      42.462  30.943  34.679  1.00  0.00     0.023 A 
ATOM     60  C   UNL A   1      41.891  30.679  35.940  1.00  0.00     0.012 A 
ATOM     61  C   UNL A   1      43.075  32.190  34.444  1.00  0.00     0.148 A 
ATOM     62  C   UNL A   1      41.906  31.648  36.943  1.00  0.00     0.002 A 
ATOM     63  C   UNL A   1      43.130  33.132  35.464  1.00  0.00     0.091 A 
ATOM     64  F   UNL A   1      43.597  32.427  33.232  1.00  0.00    -0.205 F 
ATOM     65  C   UNL A   1      42.536  32.866  36.710  1.00  0.00     0.022 A 
BRANCH  63  66
ATOM     66  S   UNL A   1      43.993  34.698  35.294  1.00  0.00     0.127 S 
ATOM     67  O   UNL A   1      43.222  35.558  36.191  1.00  0.00    -0.237 OA
ATOM     68  O   UNL A   1      45.333  34.362  35.774  1.00  0.00    -0.237 OA
ATOM     69  O   UNL A   1      43.919  35.050  33.883  1.00  0.00    -0.744 OA
ENDBRANCH  63  66
ENDBRANCH  45  59
BRANCH  46  70
ATOM     70  C   UNL A   1      42.676  24.208  27.298  1.00  0.00     0.023 A 
ATOM     71  C   UNL A   1      43.314  24.593  26.102  1.00  0.00     0.012 A 
ATOM     72  C   UNL A   1      42.120  22.917  27.393  1.00  0.00     0.148 A 
ATOM     73  C   UNL A   1      43.353  23.730  25.006  1.00  0.00     0.002 A 
ATOM     74  C   UNL A   1      42.215  22.041  26.318  1.00  0.00     0.091 A 
ATOM     75  F   UNL A   1      41.509  22.571  28.534  1.00  0.00    -0.205 F 
ATOM     76  C   UNL A   1      42.811  22.453  25.116  1.00  0.00     0.022 A 
BRANCH  74  77
ATOM     77  S   UNL A   1      41.659  20.336  26.417  1.00  0.00     0.127 S 
ATOM     78  O   UNL A   1      40.215  20.482  26.261  1.00  0.00    -0.237 OA
ATOM     79  O   UNL A   1      42.345  19.727  25.277  1.00  0.00    -0.237 OA
ATOM     80  O   UNL A   1      42.112  19.851  27.715  1.00  0.00    -0.744 OA
ENDBRANCH  74  77
ENDBRANCH  46  70
BRANCH  58  81
ATOM     81  C   UNL A   1      46.677  25.396  32.895  1.00  0.00     0.023 A 
ATOM     82  C   UNL A   1      47.957  25.853  32.525  1.00  0.00     0.012 A 
ATOM     83  C   UNL A   1      46.558  24.365  33.848  1.00  0.00     0.148 A 
ATOM     84  C   UNL A   1      49.100  25.272  33.074  1.00  0.00     0.002 A 
ATOM     85  C   UNL A   1      47.698  23.829  34.431  1.00  0.00     0.091 A 
ATOM     86  F   UNL A   1      45.330  23.934  34.172  1.00  0.00    -0.205 F 
ATOM     87  C   UNL A   1      48.971  24.272  34.035  1.00  0.00     0.022 A 
BRANCH  85  88
ATOM     88  S   UNL A   1      47.626  22.613  35.750  1.00  0.00     0.127 S 
ATOM     89  O   UNL A   1      49.044  22.395  36.031  1.00  0.00    -0.237 OA
ATOM     90  O   UNL A   1      46.900  23.335  36.795  1.00  0.00    -0.237 OA
ATOM     91  O   UNL A   1      46.917  21.464  35.202  1.00  0.00    -0.744 OA
ENDBRANCH  85  88
ENDBRANCH  58  81
ENDBRANCH  32  33
ENDBRANCH  24  27
ENDBRANCH  22  23
ENDBRANCH  21  22
ENDBRANCH  20  21
ENDBRANCH   1  20
TORSDOF 21
ENDMDL
