MODEL 1
REMARK VINA RESULT:     -12.4      0.000      0.000
REMARK SMILES Cc1cc(F)cc(N[C@](C)(C(=O)NCCCCCCNC(=O)c2ccc(-c3c4nc(c(-c5cccc(S(=O)(=O)[O-])c5F)c5ccc([nH]5)c(-c5cccc(S(=O)(=O)[O-])c5F)c5nc(c(-c6cccc(S(=O)(=O)[O-])c6F)c6ccc3[nH]6)C=C5)C=C4)cc2)c2cccc(F)c2)c1
REMARK SMILES IDX 17 1 16 2 15 3 14 4 13 5 11 6 12 7 9 9 10 10 8 11 7 13 1 14
REMARK SMILES IDX 2 15 3 16 93 17 4 18 5 19 6 20 86 21 87 22 92 23 88 24 90 25
REMARK SMILES IDX 89 26 91 27 18 28 19 29 20 30 21 31 22 33 23 34 24 35 85 36
REMARK SMILES IDX 25 37 84 38 26 39 27 40 28 41 78 42 29 43 83 44 77 45 79 46
REMARK SMILES IDX 30 47 82 48 76 49 75 50 31 52 63 53 43 54 62 55 44 56 47 57
REMARK SMILES IDX 61 58 80 59 45 60 46 61 60 63 81 64 48 65 32 66 33 67 41 68
REMARK SMILES IDX 34 69 36 70 42 71 35 72 37 73 38 74 39 75 40 76 64 77 65 78
REMARK SMILES IDX 73 79 66 80 68 81 74 82 67 83 69 84 70 85 71 86 72 87 49 88
REMARK SMILES IDX 50 89 58 90 51 91 53 92 59 93 52 94 54 95 55 96 56 97 57 98
REMARK H PARENT 13 8 8 12 20 32 79 51 47 62
REMARK Flexibility Score: inf
ROOT
ATOM      1  C   UNL A   1      36.652  22.826  23.585  1.00  0.00     0.002 C 
ENDROOT
BRANCH   1   2
ATOM      2  C   UNL A   1      35.180  23.190  23.815  1.00  0.00     0.002 C 
BRANCH   2   3
ATOM      3  C   UNL A   1      34.941  24.246  24.900  1.00  0.00     0.021 C 
BRANCH   3   4
ATOM      4  C   UNL A   1      34.350  25.552  24.365  1.00  0.00     0.116 C 
BRANCH   4   5
ATOM      5  N   UNL A   1      33.365  25.270  23.345  1.00  0.00    -0.354 N 
ATOM      6  C   UNL A   1      32.296  25.995  22.918  1.00  0.00     0.250 C 
ATOM      7  O   UNL A   1      31.377  25.314  22.431  1.00  0.00    -0.272 OA
ATOM      8  H   UNL A   1      33.489  24.410  22.882  1.00  0.00     0.163 HD
BRANCH   6   9
ATOM      9  C   UNL A   1      32.178  27.583  23.013  1.00  0.00     0.139 C 
ATOM     10  C   UNL A   1      33.378  28.428  22.510  1.00  0.00     0.051 C 
BRANCH   9  11
ATOM     11  N   UNL A   1      31.034  27.970  22.114  1.00  0.00    -0.368 N 
ATOM     12  H   UNL A   1      31.114  27.709  21.169  1.00  0.00     0.161 HD
BRANCH  11  13
ATOM     13  C   UNL A   1      29.873  28.655  22.470  1.00  0.00     0.038 A 
ATOM     14  C   UNL A   1      28.712  32.312  22.333  1.00  0.00     0.044 C 
ATOM     15  C   UNL A   1      28.709  30.829  22.550  1.00  0.00    -0.046 A 
ATOM     16  C   UNL A   1      27.575  30.206  23.069  1.00  0.00     0.042 A 
ATOM     17  C   UNL A   1      29.834  30.044  22.240  1.00  0.00     0.029 A 
ATOM     18  C   UNL A   1      27.589  28.835  23.279  1.00  0.00     0.125 A 
ATOM     19  F   UNL A   1      26.500  28.239  23.783  1.00  0.00    -0.207 F 
ATOM     20  C   UNL A   1      28.715  28.068  22.986  1.00  0.00     0.065 A 
ENDBRANCH  11  13
ENDBRANCH   9  11
BRANCH   9  21
ATOM     21  C   UNL A   1      31.861  27.944  24.503  1.00  0.00    -0.011 A 
ATOM     22  C   UNL A   1      31.324  27.028  25.433  1.00  0.00     0.007 A 
ATOM     23  C   UNL A   1      32.205  29.212  25.022  1.00  0.00     0.046 A 
ATOM     24  C   UNL A   1      31.135  27.365  26.784  1.00  0.00     0.003 A 
ATOM     25  C   UNL A   1      32.047  29.528  26.371  1.00  0.00     0.123 A 
ATOM     26  C   UNL A   1      31.509  28.615  27.258  1.00  0.00     0.039 A 
ATOM     27  F   UNL A   1      32.444  30.728  26.812  1.00  0.00    -0.207 F 
ENDBRANCH   9  21
ENDBRANCH   6   9
ENDBRANCH   4   5
ENDBRANCH   3   4
ENDBRANCH   2   3
ENDBRANCH   1   2
BRANCH   1  28
ATOM     28  C   UNL A   1      37.112  21.534  24.264  1.00  0.00     0.021 C 
BRANCH  28  29
ATOM     29  C   UNL A   1      37.599  21.717  25.698  1.00  0.00     0.116 C 
BRANCH  29  30
ATOM     30  N   UNL A   1      38.654  20.771  26.032  1.00  0.00    -0.352 N 
ATOM     31  C   UNL A   1      39.936  21.030  26.459  1.00  0.00     0.251 C 
ATOM     32  H   UNL A   1      38.420  19.820  25.938  1.00  0.00     0.163 HD
ATOM     33  O   UNL A   1      40.776  20.143  26.488  1.00  0.00    -0.269 OA
BRANCH  31  34
ATOM     34  C   UNL A   1      40.282  22.405  26.874  1.00  0.00     0.039 A 
ATOM     35  C   UNL A   1      41.180  22.601  27.925  1.00  0.00     0.014 A 
ATOM     36  C   UNL A   1      39.735  23.495  26.192  1.00  0.00     0.014 A 
ATOM     37  C   UNL A   1      41.583  23.898  28.253  1.00  0.00     0.010 A 
ATOM     38  C   UNL A   1      40.189  24.778  26.475  1.00  0.00     0.010 A 
ATOM     39  C   UNL A   1      41.115  24.992  27.509  1.00  0.00    -0.014 A 
BRANCH  39  40
ATOM     40  C   UNL A   1      41.573  26.379  27.770  1.00  0.00     0.031 A 
ATOM     41  C   UNL A   1      42.981  26.776  27.419  1.00  0.00     0.074 A 
ATOM     42  C   UNL A   1      40.774  27.232  28.439  1.00  0.00     0.049 A 
ATOM     43  N   UNL A   1      43.620  27.882  27.693  1.00  0.00    -0.248 NA
ATOM     44  C   UNL A   1      43.785  25.779  26.693  1.00  0.00     0.031 C 
ATOM     45  C   UNL A   1      39.410  26.942  28.886  1.00  0.00     0.029 A 
ATOM     46  N   UNL A   1      41.008  28.506  28.893  1.00  0.00    -0.354 N 
ATOM     47  C   UNL A   1      44.915  27.695  27.223  1.00  0.00     0.074 A 
ATOM     48  C   UNL A   1      44.976  26.361  26.668  1.00  0.00     0.031 C 
ATOM     49  C   UNL A   1      38.929  28.007  29.546  1.00  0.00     0.029 A 
ATOM     50  C   UNL A   1      39.958  29.039  29.603  1.00  0.00     0.049 A 
ATOM     51  H   UNL A   1      41.848  28.992  28.724  1.00  0.00     0.167 HD
ATOM     52  C   UNL A   1      45.953  28.565  27.232  1.00  0.00     0.034 A 
ATOM     53  C   UNL A   1      39.844  30.223  30.237  1.00  0.00     0.034 A 
ATOM     54  C   UNL A   1      45.869  29.909  27.737  1.00  0.00     0.049 A 
ATOM     55  C   UNL A   1      41.001  31.184  30.206  1.00  0.00     0.074 A 
ATOM     56  C   UNL A   1      46.829  30.904  27.701  1.00  0.00     0.029 A 
ATOM     57  N   UNL A   1      44.760  30.444  28.375  1.00  0.00    -0.354 N 
ATOM     58  N   UNL A   1      42.169  31.049  29.626  1.00  0.00    -0.248 NA
ATOM     59  C   UNL A   1      40.815  32.471  30.890  1.00  0.00     0.031 C 
ATOM     60  C   UNL A   1      46.307  32.035  28.337  1.00  0.00     0.029 A 
ATOM     61  C   UNL A   1      45.014  31.753  28.748  1.00  0.00     0.049 A 
ATOM     62  H   UNL A   1      43.917  29.964  28.539  1.00  0.00     0.167 HD
ATOM     63  C   UNL A   1      42.840  32.249  29.835  1.00  0.00     0.074 A 
ATOM     64  C   UNL A   1      41.944  33.101  30.590  1.00  0.00     0.031 C 
ATOM     65  C   UNL A   1      44.089  32.609  29.445  1.00  0.00     0.034 A 
BRANCH  52  66
ATOM     66  C   UNL A   1      47.255  28.098  26.635  1.00  0.00     0.023 A 
ATOM     67  C   UNL A   1      48.332  27.767  27.482  1.00  0.00     0.012 A 
ATOM     68  C   UNL A   1      47.408  27.961  25.242  1.00  0.00     0.148 A 
ATOM     69  C   UNL A   1      49.554  27.353  26.953  1.00  0.00     0.002 A 
ATOM     70  C   UNL A   1      48.614  27.504  24.723  1.00  0.00     0.091 A 
ATOM     71  F   UNL A   1      46.384  28.303  24.446  1.00  0.00    -0.205 F 
ATOM     72  C   UNL A   1      49.692  27.213  25.575  1.00  0.00     0.022 A 
BRANCH  70  73
ATOM     73  S   UNL A   1      48.856  27.217  22.966  1.00  0.00     0.127 S 
ATOM     74  O   UNL A   1      48.161  28.361  22.380  1.00  0.00    -0.237 OA
ATOM     75  O   UNL A   1      50.314  27.259  22.840  1.00  0.00    -0.237 OA
ATOM     76  O   UNL A   1      48.268  25.912  22.695  1.00  0.00    -0.744 OA
ENDBRANCH  70  73
ENDBRANCH  52  66
BRANCH  53  77
ATOM     77  C   UNL A   1      38.552  30.601  30.876  1.00  0.00     0.023 A 
ATOM     78  C   UNL A   1      38.347  30.282  32.232  1.00  0.00     0.012 A 
ATOM     79  C   UNL A   1      37.551  31.303  30.176  1.00  0.00     0.148 A 
ATOM     80  C   UNL A   1      37.160  30.634  32.876  1.00  0.00     0.002 A 
ATOM     81  C   UNL A   1      36.392  31.696  30.837  1.00  0.00     0.091 A 
ATOM     82  F   UNL A   1      37.762  31.590  28.884  1.00  0.00    -0.205 F 
ATOM     83  C   UNL A   1      36.189  31.349  32.182  1.00  0.00     0.022 A 
BRANCH  81  84
ATOM     84  S   UNL A   1      35.138  32.724  30.066  1.00  0.00     0.127 S 
ATOM     85  O   UNL A   1      34.703  31.883  28.953  1.00  0.00    -0.237 OA
ATOM     86  O   UNL A   1      34.163  32.871  31.147  1.00  0.00    -0.237 OA
ATOM     87  O   UNL A   1      35.814  33.961  29.695  1.00  0.00    -0.744 OA
ENDBRANCH  81  84
ENDBRANCH  53  77
BRANCH  65  88
ATOM     88  C   UNL A   1      44.553  34.002  29.779  1.00  0.00     0.023 A 
ATOM     89  C   UNL A   1      45.247  34.242  30.980  1.00  0.00     0.012 A 
ATOM     90  C   UNL A   1      44.378  35.053  28.856  1.00  0.00     0.148 A 
ATOM     91  C   UNL A   1      45.741  35.514  31.269  1.00  0.00     0.002 A 
ATOM     92  C   UNL A   1      44.915  36.305  29.129  1.00  0.00     0.091 A 
ATOM     93  F   UNL A   1      43.696  34.807  27.728  1.00  0.00    -0.205 F 
ATOM     94  C   UNL A   1      45.588  36.540  30.339  1.00  0.00     0.022 A 
BRANCH  92  95
ATOM     95  S   UNL A   1      44.852  37.657  27.947  1.00  0.00     0.127 S 
ATOM     96  O   UNL A   1      45.520  38.729  28.685  1.00  0.00    -0.237 OA
ATOM     97  O   UNL A   1      45.619  37.122  26.821  1.00  0.00    -0.237 OA
ATOM     98  O   UNL A   1      43.440  37.877  27.665  1.00  0.00    -0.744 OA
ENDBRANCH  92  95
ENDBRANCH  65  88
ENDBRANCH  39  40
ENDBRANCH  31  34
ENDBRANCH  29  30
ENDBRANCH  28  29
ENDBRANCH   1  28
TORSDOF 19
ENDMDL
MODEL 2
REMARK VINA RESULT:     -12.2      5.577      8.515
REMARK SMILES Cc1cc(F)cc(N[C@](C)(C(=O)NCCCCCCNC(=O)c2ccc(-c3c4nc(c(-c5cccc(S(=O)(=O)[O-])c5F)c5ccc([nH]5)c(-c5cccc(S(=O)(=O)[O-])c5F)c5nc(c(-c6cccc(S(=O)(=O)[O-])c6F)c6ccc3[nH]6)C=C5)C=C4)cc2)c2cccc(F)c2)c1
REMARK SMILES IDX 17 1 16 2 15 3 14 4 13 5 11 6 12 7 9 9 10 10 8 11 7 13 1 14
REMARK SMILES IDX 2 15 3 16 93 17 4 18 5 19 6 20 86 21 87 22 92 23 88 24 90 25
REMARK SMILES IDX 89 26 91 27 18 28 19 29 20 30 21 31 22 33 23 34 24 35 85 36
REMARK SMILES IDX 25 37 84 38 26 39 27 40 28 41 78 42 29 43 83 44 77 45 79 46
REMARK SMILES IDX 30 47 82 48 76 49 75 50 31 52 63 53 43 54 62 55 44 56 47 57
REMARK SMILES IDX 61 58 80 59 45 60 46 61 60 63 81 64 48 65 32 66 33 67 41 68
REMARK SMILES IDX 34 69 36 70 42 71 35 72 37 73 38 74 39 75 40 76 64 77 65 78
REMARK SMILES IDX 73 79 66 80 68 81 74 82 67 83 69 84 70 85 71 86 72 87 49 88
REMARK SMILES IDX 50 89 58 90 51 91 53 92 59 93 52 94 54 95 55 96 56 97 57 98
REMARK H PARENT 13 8 8 12 20 32 79 51 47 62
REMARK Flexibility Score: inf
ROOT
ATOM      1  C   UNL A   1      33.296  27.268  23.280  1.00  0.00     0.002 C 
ENDROOT
BRANCH   1   2
ATOM      2  C   UNL A   1      33.775  26.265  24.336  1.00  0.00     0.002 C 
BRANCH   2   3
ATOM      3  C   UNL A   1      32.683  25.762  25.287  1.00  0.00     0.021 C 
BRANCH   3   4
ATOM      4  C   UNL A   1      31.555  25.007  24.581  1.00  0.00     0.116 C 
BRANCH   4   5
ATOM      5  N   UNL A   1      31.151  23.866  25.371  1.00  0.00    -0.354 N 
ATOM      6  C   UNL A   1      31.486  22.551  25.270  1.00  0.00     0.250 C 
ATOM      7  O   UNL A   1      30.631  21.768  25.719  1.00  0.00    -0.272 OA
ATOM      8  H   UNL A   1      30.529  24.075  26.106  1.00  0.00     0.163 HD
BRANCH   6   9
ATOM      9  C   UNL A   1      32.844  22.006  24.635  1.00  0.00     0.139 C 
ATOM     10  C   UNL A   1      33.388  22.719  23.370  1.00  0.00     0.051 C 
BRANCH   9  11
ATOM     11  N   UNL A   1      33.907  22.219  25.680  1.00  0.00    -0.368 N 
ATOM     12  H   UNL A   1      33.594  22.514  26.566  1.00  0.00     0.161 HD
BRANCH  11  13
ATOM     13  C   UNL A   1      35.283  22.046  25.536  1.00  0.00     0.038 A 
ATOM     14  C   UNL A   1      38.387  24.208  26.187  1.00  0.00     0.044 C 
ATOM     15  C   UNL A   1      37.523  23.041  25.819  1.00  0.00    -0.046 A 
ATOM     16  C   UNL A   1      38.108  21.856  25.376  1.00  0.00     0.042 A 
ATOM     17  C   UNL A   1      36.121  23.114  25.912  1.00  0.00     0.029 A 
ATOM     18  C   UNL A   1      37.297  20.788  25.025  1.00  0.00     0.125 A 
ATOM     19  F   UNL A   1      37.861  19.651  24.593  1.00  0.00    -0.207 F 
ATOM     20  C   UNL A   1      35.908  20.875  25.102  1.00  0.00     0.065 A 
ENDBRANCH  11  13
ENDBRANCH   9  11
BRANCH   9  21
ATOM     21  C   UNL A   1      32.649  20.480  24.344  1.00  0.00    -0.011 A 
ATOM     22  C   UNL A   1      32.419  19.952  23.056  1.00  0.00     0.007 A 
ATOM     23  C   UNL A   1      32.800  19.529  25.377  1.00  0.00     0.046 A 
ATOM     24  C   UNL A   1      32.336  18.569  22.823  1.00  0.00     0.003 A 
ATOM     25  C   UNL A   1      32.750  18.157  25.134  1.00  0.00     0.123 A 
ATOM     26  C   UNL A   1      32.514  17.666  23.864  1.00  0.00     0.039 A 
ATOM     27  F   UNL A   1      32.957  17.306  26.146  1.00  0.00    -0.207 F 
ENDBRANCH   9  21
ENDBRANCH   6   9
ENDBRANCH   4   5
ENDBRANCH   3   4
ENDBRANCH   2   3
ENDBRANCH   1   2
BRANCH   1  28
ATOM     28  C   UNL A   1      32.694  28.559  23.839  1.00  0.00     0.021 C 
BRANCH  28  29
ATOM     29  C   UNL A   1      33.376  29.073  25.102  1.00  0.00     0.116 C 
BRANCH  29  30
ATOM     30  N   UNL A   1      32.682  30.229  25.654  1.00  0.00    -0.352 N 
ATOM     31  C   UNL A   1      32.996  30.965  26.774  1.00  0.00     0.251 C 
ATOM     32  H   UNL A   1      31.883  30.523  25.161  1.00  0.00     0.163 HD
ATOM     33  O   UNL A   1      32.199  31.768  27.237  1.00  0.00    -0.269 OA
BRANCH  31  34
ATOM     34  C   UNL A   1      34.311  30.758  27.414  1.00  0.00     0.039 A 
ATOM     35  C   UNL A   1      35.152  31.853  27.627  1.00  0.00     0.014 A 
ATOM     36  C   UNL A   1      34.689  29.479  27.829  1.00  0.00     0.014 A 
ATOM     37  C   UNL A   1      36.351  31.675  28.320  1.00  0.00     0.010 A 
ATOM     38  C   UNL A   1      35.849  29.316  28.576  1.00  0.00     0.010 A 
ATOM     39  C   UNL A   1      36.692  30.411  28.827  1.00  0.00    -0.014 A 
BRANCH  39  40
ATOM     40  C   UNL A   1      37.918  30.188  29.635  1.00  0.00     0.031 A 
ATOM     41  C   UNL A   1      39.011  29.305  29.100  1.00  0.00     0.074 A 
ATOM     42  C   UNL A   1      37.985  30.667  30.892  1.00  0.00     0.049 A 
ATOM     43  N   UNL A   1      40.087  28.869  29.698  1.00  0.00    -0.248 NA
ATOM     44  C   UNL A   1      38.853  28.823  27.718  1.00  0.00     0.031 C 
ATOM     45  C   UNL A   1      36.960  31.484  31.544  1.00  0.00     0.029 A 
ATOM     46  N   UNL A   1      38.943  30.502  31.860  1.00  0.00    -0.354 N 
ATOM     47  C   UNL A   1      40.706  28.019  28.789  1.00  0.00     0.074 A 
ATOM     48  C   UNL A   1      39.872  27.983  27.608  1.00  0.00     0.031 C 
ATOM     49  C   UNL A   1      37.346  31.752  32.801  1.00  0.00     0.029 A 
ATOM     50  C   UNL A   1      38.623  31.096  33.058  1.00  0.00     0.049 A 
ATOM     51  H   UNL A   1      39.781  30.006  31.711  1.00  0.00     0.167 HD
ATOM     52  C   UNL A   1      41.875  27.347  28.916  1.00  0.00     0.034 A 
ATOM     53  C   UNL A   1      39.282  31.102  34.234  1.00  0.00     0.034 A 
ATOM     54  C   UNL A   1      42.725  27.430  30.073  1.00  0.00     0.049 A 
ATOM     55  C   UNL A   1      40.593  30.372  34.341  1.00  0.00     0.074 A 
ATOM     56  C   UNL A   1      43.976  26.872  30.264  1.00  0.00     0.029 A 
ATOM     57  N   UNL A   1      42.407  28.111  31.239  1.00  0.00    -0.354 N 
ATOM     58  N   UNL A   1      41.238  29.695  33.422  1.00  0.00    -0.248 NA
ATOM     59  C   UNL A   1      41.283  30.432  35.638  1.00  0.00     0.031 C 
ATOM     60  C   UNL A   1      44.406  27.200  31.554  1.00  0.00     0.029 A 
ATOM     61  C   UNL A   1      43.434  27.981  32.159  1.00  0.00     0.049 A 
ATOM     62  H   UNL A   1      41.575  28.613  31.390  1.00  0.00     0.167 HD
ATOM     63  C   UNL A   1      42.428  29.287  34.013  1.00  0.00     0.074 A 
ATOM     64  C   UNL A   1      42.418  29.799  35.368  1.00  0.00     0.031 C 
ATOM     65  C   UNL A   1      43.435  28.548  33.483  1.00  0.00     0.034 A 
BRANCH  52  66
ATOM     66  C   UNL A   1      42.320  26.500  27.753  1.00  0.00     0.023 A 
ATOM     67  C   UNL A   1      43.001  27.099  26.673  1.00  0.00     0.012 A 
ATOM     68  C   UNL A   1      42.089  25.111  27.735  1.00  0.00     0.148 A 
ATOM     69  C   UNL A   1      43.404  26.340  25.575  1.00  0.00     0.002 A 
ATOM     70  C   UNL A   1      42.535  24.352  26.658  1.00  0.00     0.091 A 
ATOM     71  F   UNL A   1      41.418  24.557  28.757  1.00  0.00    -0.205 F 
ATOM     72  C   UNL A   1      43.179  24.966  25.572  1.00  0.00     0.022 A 
BRANCH  70  73
ATOM     73  S   UNL A   1      42.360  22.565  26.606  1.00  0.00     0.127 S 
ATOM     74  O   UNL A   1      43.445  22.134  27.485  1.00  0.00    -0.237 OA
ATOM     75  O   UNL A   1      41.017  22.366  27.152  1.00  0.00    -0.237 OA
ATOM     76  O   UNL A   1      42.499  22.197  25.203  1.00  0.00    -0.744 OA
ENDBRANCH  70  73
ENDBRANCH  52  66
BRANCH  53  77
ATOM     77  C   UNL A   1      38.753  31.899  35.377  1.00  0.00     0.023 A 
ATOM     78  C   UNL A   1      38.787  33.305  35.296  1.00  0.00     0.012 A 
ATOM     79  C   UNL A   1      38.183  31.290  36.511  1.00  0.00     0.148 A 
ATOM     80  C   UNL A   1      38.285  34.091  36.334  1.00  0.00     0.002 A 
ATOM     81  C   UNL A   1      37.638  32.078  37.518  1.00  0.00     0.091 A 
ATOM     82  F   UNL A   1      38.167  29.951  36.572  1.00  0.00    -0.205 F 
ATOM     83  C   UNL A   1      37.702  33.478  37.439  1.00  0.00     0.022 A 
BRANCH  81  84
ATOM     84  S   UNL A   1      36.757  31.385  38.922  1.00  0.00     0.127 S 
ATOM     85  O   UNL A   1      37.771  31.443  39.972  1.00  0.00    -0.237 OA
ATOM     86  O   UNL A   1      35.651  32.330  39.079  1.00  0.00    -0.237 OA
ATOM     87  O   UNL A   1      36.350  30.048  38.512  1.00  0.00    -0.744 OA
ENDBRANCH  81  84
ENDBRANCH  53  77
BRANCH  65  88
ATOM     88  C   UNL A   1      44.640  28.284  34.347  1.00  0.00     0.023 A 
ATOM     89  C   UNL A   1      45.714  29.194  34.350  1.00  0.00     0.012 A 
ATOM     90  C   UNL A   1      44.663  27.180  35.222  1.00  0.00     0.148 A 
ATOM     91  C   UNL A   1      46.806  28.996  35.196  1.00  0.00     0.002 A 
ATOM     92  C   UNL A   1      45.730  27.016  36.097  1.00  0.00     0.091 A 
ATOM     93  F   UNL A   1      43.639  26.315  35.188  1.00  0.00    -0.205 F 
ATOM     94  C   UNL A   1      46.808  27.917  36.077  1.00  0.00     0.022 A 
BRANCH  92  95
ATOM     95  S   UNL A   1      45.770  25.713  37.333  1.00  0.00     0.127 S 
ATOM     96  O   UNL A   1      45.730  24.511  36.501  1.00  0.00    -0.237 OA
ATOM     97  O   UNL A   1      47.053  25.953  37.996  1.00  0.00    -0.237 OA
ATOM     98  O   UNL A   1      44.604  25.928  38.180  1.00  0.00    -0.744 OA
ENDBRANCH  92  95
ENDBRANCH  65  88
ENDBRANCH  39  40
ENDBRANCH  31  34
ENDBRANCH  29  30
ENDBRANCH  28  29
ENDBRANCH   1  28
TORSDOF 19
ENDMDL
MODEL 3
REMARK VINA RESULT:     -12.2      1.849      7.848
REMARK SMILES Cc1cc(F)cc(N[C@](C)(C(=O)NCCCCCCNC(=O)c2ccc(-c3c4nc(c(-c5cccc(S(=O)(=O)[O-])c5F)c5ccc([nH]5)c(-c5cccc(S(=O)(=O)[O-])c5F)c5nc(c(-c6cccc(S(=O)(=O)[O-])c6F)c6ccc3[nH]6)C=C5)C=C4)cc2)c2cccc(F)c2)c1
REMARK SMILES IDX 17 1 16 2 15 3 14 4 13 5 11 6 12 7 9 9 10 10 8 11 7 13 1 14
REMARK SMILES IDX 2 15 3 16 93 17 4 18 5 19 6 20 86 21 87 22 92 23 88 24 90 25
REMARK SMILES IDX 89 26 91 27 18 28 19 29 20 30 21 31 22 33 23 34 24 35 85 36
REMARK SMILES IDX 25 37 84 38 26 39 27 40 28 41 78 42 29 43 83 44 77 45 79 46
REMARK SMILES IDX 30 47 82 48 76 49 75 50 31 52 63 53 43 54 62 55 44 56 47 57
REMARK SMILES IDX 61 58 80 59 45 60 46 61 60 63 81 64 48 65 32 66 33 67 41 68
REMARK SMILES IDX 34 69 36 70 42 71 35 72 37 73 38 74 39 75 40 76 64 77 65 78
REMARK SMILES IDX 73 79 66 80 68 81 74 82 67 83 69 84 70 85 71 86 72 87 49 88
REMARK SMILES IDX 50 89 58 90 51 91 53 92 59 93 52 94 54 95 55 96 56 97 57 98
REMARK H PARENT 13 8 8 12 20 32 79 51 47 62
REMARK Flexibility Score: inf
ROOT
ATOM      1  C   UNL A   1      35.428  19.932  24.928  1.00  0.00     0.002 C 
ENDROOT
BRANCH   1   2
ATOM      2  C   UNL A   1      33.907  19.827  24.773  1.00  0.00     0.002 C 
BRANCH   2   3
ATOM      3  C   UNL A   1      33.102  20.786  25.660  1.00  0.00     0.021 C 
BRANCH   3   4
ATOM      4  C   UNL A   1      31.761  21.202  25.053  1.00  0.00     0.116 C 
BRANCH   4   5
ATOM      5  N   UNL A   1      30.935  21.831  26.060  1.00  0.00    -0.354 N 
ATOM      6  C   UNL A   1      30.785  23.141  26.395  1.00  0.00     0.250 C 
ATOM      7  O   UNL A   1      30.435  23.332  27.572  1.00  0.00    -0.272 OA
ATOM      8  H   UNL A   1      30.389  21.207  26.591  1.00  0.00     0.163 HD
BRANCH   6   9
ATOM      9  C   UNL A   1      31.027  24.366  25.402  1.00  0.00     0.139 C 
ATOM     10  C   UNL A   1      30.233  24.385  24.070  1.00  0.00     0.051 C 
BRANCH   9  11
ATOM     11  N   UNL A   1      30.568  25.595  26.139  1.00  0.00    -0.368 N 
ATOM     12  H   UNL A   1      29.924  25.452  26.869  1.00  0.00     0.161 HD
BRANCH  11  13
ATOM     13  C   UNL A   1      30.954  26.915  25.906  1.00  0.00     0.038 A 
ATOM     14  C   UNL A   1      30.909  29.274  22.877  1.00  0.00     0.044 C 
ATOM     15  C   UNL A   1      31.095  28.759  24.272  1.00  0.00    -0.046 A 
ATOM     16  C   UNL A   1      31.615  29.596  25.258  1.00  0.00     0.042 A 
ATOM     17  C   UNL A   1      30.754  27.438  24.613  1.00  0.00     0.029 A 
ATOM     18  C   UNL A   1      31.796  29.103  26.541  1.00  0.00     0.125 A 
ATOM     19  F   UNL A   1      32.302  29.908  27.487  1.00  0.00    -0.207 F 
ATOM     20  C   UNL A   1      31.472  27.787  26.866  1.00  0.00     0.065 A 
ENDBRANCH  11  13
ENDBRANCH   9  11
BRANCH   9  21
ATOM     21  C   UNL A   1      32.563  24.435  25.106  1.00  0.00    -0.011 A 
ATOM     22  C   UNL A   1      33.533  24.770  26.075  1.00  0.00     0.007 A 
ATOM     23  C   UNL A   1      33.067  24.055  23.842  1.00  0.00     0.046 A 
ATOM     24  C   UNL A   1      34.909  24.737  25.793  1.00  0.00     0.003 A 
ATOM     25  C   UNL A   1      34.435  23.992  23.579  1.00  0.00     0.123 A 
ATOM     26  C   UNL A   1      35.363  24.334  24.544  1.00  0.00     0.039 A 
ATOM     27  F   UNL A   1      34.851  23.570  22.378  1.00  0.00    -0.207 F 
ENDBRANCH   9  21
ENDBRANCH   6   9
ENDBRANCH   4   5
ENDBRANCH   3   4
ENDBRANCH   2   3
ENDBRANCH   1   2
BRANCH   1  28
ATOM     28  C   UNL A   1      35.918  21.174  25.676  1.00  0.00     0.021 C 
BRANCH  28  29
ATOM     29  C   UNL A   1      37.366  21.552  25.384  1.00  0.00     0.116 C 
BRANCH  29  30
ATOM     30  N   UNL A   1      38.279  20.460  25.695  1.00  0.00    -0.352 N 
ATOM     31  C   UNL A   1      39.574  20.529  26.156  1.00  0.00     0.251 C 
ATOM     32  H   UNL A   1      37.924  19.553  25.555  1.00  0.00     0.163 HD
ATOM     33  O   UNL A   1      40.288  19.537  26.160  1.00  0.00    -0.269 OA
BRANCH  31  34
ATOM     34  C   UNL A   1      40.088  21.827  26.637  1.00  0.00     0.039 A 
ATOM     35  C   UNL A   1      40.995  21.857  27.699  1.00  0.00     0.014 A 
ATOM     36  C   UNL A   1      39.691  23.009  26.007  1.00  0.00     0.014 A 
ATOM     37  C   UNL A   1      41.557  23.074  28.090  1.00  0.00     0.010 A 
ATOM     38  C   UNL A   1      40.302  24.208  26.352  1.00  0.00     0.010 A 
ATOM     39  C   UNL A   1      41.238  24.253  27.398  1.00  0.00    -0.014 A 
BRANCH  39  40
ATOM     40  C   UNL A   1      41.868  25.557  27.727  1.00  0.00     0.031 A 
ATOM     41  C   UNL A   1      41.080  26.595  28.476  1.00  0.00     0.074 A 
ATOM     42  C   UNL A   1      43.089  25.851  27.238  1.00  0.00     0.049 A 
ATOM     43  N   UNL A   1      41.389  27.839  28.735  1.00  0.00    -0.248 NA
ATOM     44  C   UNL A   1      39.754  26.189  28.969  1.00  0.00     0.031 C 
ATOM     45  C   UNL A   1      43.925  24.948  26.446  1.00  0.00     0.029 A 
ATOM     46  N   UNL A   1      43.822  27.009  27.305  1.00  0.00    -0.354 N 
ATOM     47  C   UNL A   1      40.277  28.378  29.371  1.00  0.00     0.074 A 
ATOM     48  C   UNL A   1      39.279  27.334  29.437  1.00  0.00     0.031 C 
ATOM     49  C   UNL A   1      45.057  25.583  26.104  1.00  0.00     0.029 A 
ATOM     50  C   UNL A   1      45.011  26.948  26.618  1.00  0.00     0.049 A 
ATOM     51  H   UNL A   1      43.525  27.807  27.800  1.00  0.00     0.167 HD
ATOM     52  C   UNL A   1      40.111  29.624  29.875  1.00  0.00     0.034 A 
ATOM     53  C   UNL A   1      45.953  27.891  26.416  1.00  0.00     0.034 A 
ATOM     54  C   UNL A   1      41.128  30.641  29.852  1.00  0.00     0.049 A 
ATOM     55  C   UNL A   1      45.759  29.258  27.012  1.00  0.00     0.074 A 
ATOM     56  C   UNL A   1      41.100  31.899  30.424  1.00  0.00     0.029 A 
ATOM     57  N   UNL A   1      42.356  30.514  29.219  1.00  0.00    -0.354 N 
ATOM     58  N   UNL A   1      44.765  29.706  27.741  1.00  0.00    -0.248 NA
ATOM     59  C   UNL A   1      46.827  30.240  26.785  1.00  0.00     0.031 C 
ATOM     60  C   UNL A   1      42.304  32.543  30.118  1.00  0.00     0.029 A 
ATOM     61  C   UNL A   1      43.091  31.677  29.376  1.00  0.00     0.049 A 
ATOM     62  H   UNL A   1      42.659  29.716  28.730  1.00  0.00     0.167 HD
ATOM     63  C   UNL A   1      45.108  31.006  28.097  1.00  0.00     0.074 A 
ATOM     64  C   UNL A   1      46.406  31.270  27.509  1.00  0.00     0.031 C 
ATOM     65  C   UNL A   1      44.408  31.902  28.837  1.00  0.00     0.034 A 
BRANCH  52  66
ATOM     66  C   UNL A   1      38.793  29.937  30.534  1.00  0.00     0.023 A 
ATOM     67  C   UNL A   1      38.520  29.434  31.823  1.00  0.00     0.012 A 
ATOM     68  C   UNL A   1      37.834  30.746  29.894  1.00  0.00     0.148 A 
ATOM     69  C   UNL A   1      37.299  29.692  32.445  1.00  0.00     0.002 A 
ATOM     70  C   UNL A   1      36.637  31.037  30.539  1.00  0.00     0.091 A 
ATOM     71  F   UNL A   1      38.096  31.196  28.658  1.00  0.00    -0.205 F 
ATOM     72  C   UNL A   1      36.362  30.500  31.807  1.00  0.00     0.022 A 
BRANCH  70  73
ATOM     73  S   UNL A   1      35.406  32.134  29.827  1.00  0.00     0.127 S 
ATOM     74  O   UNL A   1      34.476  32.301  30.943  1.00  0.00    -0.237 OA
ATOM     75  O   UNL A   1      36.195  33.325  29.509  1.00  0.00    -0.237 OA
ATOM     76  O   UNL A   1      34.879  31.434  28.664  1.00  0.00    -0.744 OA
ENDBRANCH  70  73
ENDBRANCH  52  66
BRANCH  53  77
ATOM     77  C   UNL A   1      47.207  27.543  25.690  1.00  0.00     0.023 A 
ATOM     78  C   UNL A   1      48.239  26.889  26.392  1.00  0.00     0.012 A 
ATOM     79  C   UNL A   1      47.372  27.808  24.317  1.00  0.00     0.148 A 
ATOM     80  C   UNL A   1      49.422  26.527  25.747  1.00  0.00     0.002 A 
ATOM     81  C   UNL A   1      48.532  27.399  23.668  1.00  0.00     0.091 A 
ATOM     82  F   UNL A   1      46.382  28.437  23.668  1.00  0.00    -0.205 F 
ATOM     83  C   UNL A   1      49.564  26.773  24.385  1.00  0.00     0.022 A 
BRANCH  81  84
ATOM     84  S   UNL A   1      48.758  27.559  21.893  1.00  0.00     0.127 S 
ATOM     85  O   UNL A   1      49.748  28.630  21.813  1.00  0.00    -0.237 OA
ATOM     86  O   UNL A   1      49.254  26.231  21.532  1.00  0.00    -0.237 OA
ATOM     87  O   UNL A   1      47.441  27.875  21.355  1.00  0.00    -0.744 OA
ENDBRANCH  81  84
ENDBRANCH  53  77
BRANCH  65  88
ATOM     88  C   UNL A   1      45.044  33.241  29.102  1.00  0.00     0.023 A 
ATOM     89  C   UNL A   1      45.806  33.436  30.270  1.00  0.00     0.012 A 
ATOM     90  C   UNL A   1      44.961  34.273  28.147  1.00  0.00     0.148 A 
ATOM     91  C   UNL A   1      46.457  34.650  30.495  1.00  0.00     0.002 A 
ATOM     92  C   UNL A   1      45.651  35.461  28.354  1.00  0.00     0.091 A 
ATOM     93  F   UNL A   1      44.213  34.072  27.052  1.00  0.00    -0.205 F 
ATOM     94  C   UNL A   1      46.391  35.655  29.533  1.00  0.00     0.022 A 
BRANCH  92  95
ATOM     95  S   UNL A   1      45.703  36.771  27.126  1.00  0.00     0.127 S 
ATOM     96  O   UNL A   1      44.291  37.136  27.020  1.00  0.00    -0.237 OA
ATOM     97  O   UNL A   1      46.545  37.775  27.778  1.00  0.00    -0.237 OA
ATOM     98  O   UNL A   1      46.288  36.177  25.931  1.00  0.00    -0.744 OA
ENDBRANCH  92  95
ENDBRANCH  65  88
ENDBRANCH  39  40
ENDBRANCH  31  34
ENDBRANCH  29  30
ENDBRANCH  28  29
ENDBRANCH   1  28
TORSDOF 19
ENDMDL
