MODEL 1
REMARK VINA RESULT:      -9.0      0.000      0.000
REMARK SMILES COCCN1C(=O)CC[C@@H](C(=O)NCCCCCCNC(=O)c2ccc(-c3c4nc(c(-c5cccc(S(=O)(=O)[O-])c5F)c5ccc([nH]5)c(-c5cccc(S(=O)(=O)[O-])c5F)c5nc(c(-c6cccc(S(=O)(=O)[O-])c6F)c6ccc3[nH]6)C=C5)C=C4)cc2)[C@H]1c1ccccc1C
REMARK SMILES IDX 16 1 15 2 14 3 13 4 11 5 12 6 10 8 5 9 6 10 86 11 7 12 8 13
REMARK SMILES IDX 9 14 4 15 3 16 2 17 1 18 87 19 88 20 92 21 89 22 91 23 93 24
REMARK SMILES IDX 90 25 17 26 18 27 19 28 20 29 21 30 22 32 23 33 24 34 85 35
REMARK SMILES IDX 25 36 84 37 26 38 27 39 28 40 78 41 29 42 83 43 77 44 79 45
REMARK SMILES IDX 30 46 82 47 76 48 75 49 31 51 63 52 43 53 62 54 44 55 47 56
REMARK SMILES IDX 61 57 80 58 45 59 46 60 60 62 81 63 48 64 32 65 33 66 41 67
REMARK SMILES IDX 34 68 36 69 42 70 35 71 37 72 38 73 39 74 40 75 64 76 65 77
REMARK SMILES IDX 73 78 66 79 68 80 74 81 67 82 69 83 70 84 71 85 72 86 49 87
REMARK SMILES IDX 50 88 58 89 51 90 53 91 59 92 52 93 54 94 55 95 56 96 57 97
REMARK H PARENT 13 7 20 31 79 50 47 61
REMARK Flexibility Score: inf
ROOT
ATOM      1  C   UNL A   1      37.988  34.219  29.941  1.00  0.00     0.002 C 
ENDROOT
BRANCH   1   2
ATOM      2  C   UNL A   1      38.903  33.545  30.977  1.00  0.00     0.021 C 
BRANCH   2   3
ATOM      3  C   UNL A   1      39.527  34.498  31.999  1.00  0.00     0.116 C 
BRANCH   3   4
ATOM      4  N   UNL A   1      40.162  33.740  33.054  1.00  0.00    -0.356 N 
ATOM      5  C   UNL A   1      40.194  33.980  34.385  1.00  0.00     0.225 C 
ATOM      6  O   UNL A   1      41.177  33.563  34.998  1.00  0.00    -0.275 OA
ATOM      7  H   UNL A   1      40.640  32.931  32.761  1.00  0.00     0.163 HD
BRANCH   5   8
ATOM      8  C   UNL A   1      39.065  34.761  35.048  1.00  0.00     0.106 C 
ATOM      9  N   UNL A   1      38.424  33.304  37.041  1.00  0.00    -0.333 N 
ATOM     10  C   UNL A   1      39.665  33.589  37.587  1.00  0.00     0.223 C 
ATOM     11  C   UNL A   1      38.005  33.865  35.737  1.00  0.00     0.128 C 
ATOM     12  O   UNL A   1      40.209  32.881  38.434  1.00  0.00    -0.275 OA
ATOM     13  C   UNL A   1      40.316  34.915  37.211  1.00  0.00     0.101 C 
ATOM     14  C   UNL A   1      39.650  35.700  36.091  1.00  0.00     0.026 C 
BRANCH   9  15
ATOM     15  C   UNL A   1      37.519  32.325  37.668  1.00  0.00     0.148 C 
BRANCH  15  16
ATOM     16  C   UNL A   1      36.824  32.670  39.000  1.00  0.00     0.181 C 
BRANCH  16  17
ATOM     17  O   UNL A   1      37.422  32.063  40.149  1.00  0.00    -0.383 OA
ATOM     18  C   UNL A   1      36.486  31.401  40.989  1.00  0.00     0.194 C 
ENDBRANCH  16  17
ENDBRANCH  15  16
ENDBRANCH   9  15
BRANCH  11  19
ATOM     19  C   UNL A   1      37.416  32.841  34.746  1.00  0.00    -0.022 A 
ATOM     20  C   UNL A   1      38.106  31.626  34.532  1.00  0.00     0.006 A 
ATOM     21  C   UNL A   1      36.259  33.080  33.967  1.00  0.00    -0.046 A 
ATOM     22  C   UNL A   1      37.755  30.739  33.517  1.00  0.00     0.000 A 
ATOM     23  C   UNL A   1      35.917  32.169  32.943  1.00  0.00     0.004 A 
ATOM     24  C   UNL A   1      35.347  34.265  34.123  1.00  0.00     0.045 C 
ATOM     25  C   UNL A   1      36.669  31.020  32.706  1.00  0.00     0.000 A 
ENDBRANCH  11  19
ENDBRANCH   5   8
ENDBRANCH   3   4
ENDBRANCH   2   3
ENDBRANCH   1   2
BRANCH   1  26
ATOM     26  C   UNL A   1      37.572  33.340  28.756  1.00  0.00     0.002 C 
BRANCH  26  27
ATOM     27  C   UNL A   1      36.065  33.194  28.557  1.00  0.00     0.021 C 
BRANCH  27  28
ATOM     28  C   UNL A   1      35.395  32.211  29.506  1.00  0.00     0.116 C 
BRANCH  28  29
ATOM     29  N   UNL A   1      34.754  31.113  28.802  1.00  0.00    -0.352 N 
ATOM     30  C   UNL A   1      35.328  29.972  28.301  1.00  0.00     0.251 C 
ATOM     31  H   UNL A   1      33.783  31.199  28.666  1.00  0.00     0.163 HD
ATOM     32  O   UNL A   1      34.679  29.219  27.577  1.00  0.00    -0.269 OA
BRANCH  30  33
ATOM     33  C   UNL A   1      36.739  29.668  28.620  1.00  0.00     0.039 A 
ATOM     34  C   UNL A   1      37.042  29.052  29.836  1.00  0.00     0.014 A 
ATOM     35  C   UNL A   1      37.756  29.981  27.713  1.00  0.00     0.014 A 
ATOM     36  C   UNL A   1      38.365  28.710  30.124  1.00  0.00     0.010 A 
ATOM     37  C   UNL A   1      39.059  29.570  27.969  1.00  0.00     0.010 A 
ATOM     38  C   UNL A   1      39.381  28.948  29.184  1.00  0.00    -0.014 A 
BRANCH  38  39
ATOM     39  C   UNL A   1      40.791  28.578  29.461  1.00  0.00     0.031 A 
ATOM     40  C   UNL A   1      41.427  27.434  28.718  1.00  0.00     0.074 A 
ATOM     41  C   UNL A   1      41.471  29.210  30.438  1.00  0.00     0.049 A 
ATOM     42  N   UNL A   1      42.622  26.922  28.857  1.00  0.00    -0.248 NA
ATOM     43  C   UNL A   1      40.600  26.755  27.707  1.00  0.00     0.031 C 
ATOM     44  C   UNL A   1      40.937  30.275  31.287  1.00  0.00     0.029 A 
ATOM     45  N   UNL A   1      42.749  29.026  30.899  1.00  0.00    -0.354 N 
ATOM     46  C   UNL A   1      42.675  25.841  27.986  1.00  0.00     0.074 A 
ATOM     47  C   UNL A   1      41.379  25.745  27.351  1.00  0.00     0.031 C 
ATOM     48  C   UNL A   1      41.880  30.651  32.166  1.00  0.00     0.029 A 
ATOM     49  C   UNL A   1      43.076  29.841  31.958  1.00  0.00     0.049 A 
ATOM     50  H   UNL A   1      43.375  28.373  30.510  1.00  0.00     0.167 HD
ATOM     51  C   UNL A   1      43.718  25.021  27.711  1.00  0.00     0.034 A 
ATOM     52  C   UNL A   1      44.210  29.924  32.680  1.00  0.00     0.034 A 
ATOM     53  C   UNL A   1      45.019  25.152  28.306  1.00  0.00     0.049 A 
ATOM     54  C   UNL A   1      45.378  29.048  32.312  1.00  0.00     0.074 A 
ATOM     55  C   UNL A   1      46.168  24.432  28.031  1.00  0.00     0.029 A 
ATOM     56  N   UNL A   1      45.347  26.064  29.298  1.00  0.00    -0.354 N 
ATOM     57  N   UNL A   1      45.461  28.137  31.374  1.00  0.00    -0.248 NA
ATOM     58  C   UNL A   1      46.621  29.241  33.072  1.00  0.00     0.031 C 
ATOM     59  C   UNL A   1      47.188  24.899  28.869  1.00  0.00     0.029 A 
ATOM     60  C   UNL A   1      46.678  25.925  29.649  1.00  0.00     0.049 A 
ATOM     61  H   UNL A   1      44.724  26.714  29.694  1.00  0.00     0.167 HD
ATOM     62  C   UNL A   1      46.772  27.676  31.403  1.00  0.00     0.074 A 
ATOM     63  C   UNL A   1      47.451  28.421  32.443  1.00  0.00     0.031 C 
ATOM     64  C   UNL A   1      47.356  26.714  30.647  1.00  0.00     0.034 A 
BRANCH  51  65
ATOM     65  C   UNL A   1      43.502  23.947  26.677  1.00  0.00     0.023 A 
ATOM     66  C   UNL A   1      44.075  24.088  25.397  1.00  0.00     0.012 A 
ATOM     67  C   UNL A   1      42.763  22.785  26.977  1.00  0.00     0.148 A 
ATOM     68  C   UNL A   1      43.881  23.116  24.417  1.00  0.00     0.002 A 
ATOM     69  C   UNL A   1      42.613  21.797  26.010  1.00  0.00     0.091 A 
ATOM     70  F   UNL A   1      42.204  22.676  28.190  1.00  0.00    -0.205 F 
ATOM     71  C   UNL A   1      43.159  21.966  24.727  1.00  0.00     0.022 A 
BRANCH  69  72
ATOM     72  S   UNL A   1      41.768  20.247  26.340  1.00  0.00     0.127 S 
ATOM     73  O   UNL A   1      42.270  19.915  27.672  1.00  0.00    -0.237 OA
ATOM     74  O   UNL A   1      40.360  20.647  26.302  1.00  0.00    -0.237 OA
ATOM     75  O   UNL A   1      42.166  19.342  25.272  1.00  0.00    -0.744 OA
ENDBRANCH  69  72
ENDBRANCH  51  65
BRANCH  52  76
ATOM     76  C   UNL A   1      44.318  30.936  33.770  1.00  0.00     0.023 A 
ATOM     77  C   UNL A   1      44.646  32.266  33.445  1.00  0.00     0.012 A 
ATOM     78  C   UNL A   1      44.049  30.601  35.111  1.00  0.00     0.148 A 
ATOM     79  C   UNL A   1      44.729  33.240  34.439  1.00  0.00     0.002 A 
ATOM     80  C   UNL A   1      44.082  31.587  36.090  1.00  0.00     0.091 A 
ATOM     81  F   UNL A   1      43.747  29.327  35.398  1.00  0.00    -0.205 F 
ATOM     82  C   UNL A   1      44.438  32.905  35.759  1.00  0.00     0.022 A 
BRANCH  80  83
ATOM     83  S   UNL A   1      43.592  31.276  37.790  1.00  0.00     0.127 S 
ATOM     84  O   UNL A   1      43.884  32.558  38.425  1.00  0.00    -0.237 OA
ATOM     85  O   UNL A   1      42.168  30.972  37.641  1.00  0.00    -0.237 OA
ATOM     86  O   UNL A   1      44.402  30.151  38.235  1.00  0.00    -0.744 OA
ENDBRANCH  80  83
ENDBRANCH  52  76
BRANCH  64  87
ATOM     87  C   UNL A   1      48.817  26.431  30.880  1.00  0.00     0.023 A 
ATOM     88  C   UNL A   1      49.203  25.495  31.859  1.00  0.00     0.012 A 
ATOM     89  C   UNL A   1      49.802  27.035  30.072  1.00  0.00     0.148 A 
ATOM     90  C   UNL A   1      50.550  25.187  32.051  1.00  0.00     0.002 A 
ATOM     91  C   UNL A   1      51.137  26.687  30.237  1.00  0.00     0.091 A 
ATOM     92  F   UNL A   1      49.415  27.939  29.160  1.00  0.00    -0.205 F 
ATOM     93  C   UNL A   1      51.514  25.773  31.234  1.00  0.00     0.022 A 
BRANCH  91  94
ATOM     94  S   UNL A   1      52.431  27.318  29.163  1.00  0.00     0.127 S 
ATOM     95  O   UNL A   1      51.925  26.956  27.841  1.00  0.00    -0.237 OA
ATOM     96  O   UNL A   1      52.406  28.752  29.453  1.00  0.00    -0.237 OA
ATOM     97  O   UNL A   1      53.655  26.643  29.574  1.00  0.00    -0.744 OA
ENDBRANCH  91  94
ENDBRANCH  64  87
ENDBRANCH  38  39
ENDBRANCH  30  33
ENDBRANCH  28  29
ENDBRANCH  27  28
ENDBRANCH  26  27
ENDBRANCH   1  26
TORSDOF 20
ENDMDL
MODEL 2
REMARK VINA RESULT:      -8.9      4.392      9.480
REMARK SMILES COCCN1C(=O)CC[C@@H](C(=O)NCCCCCCNC(=O)c2ccc(-c3c4nc(c(-c5cccc(S(=O)(=O)[O-])c5F)c5ccc([nH]5)c(-c5cccc(S(=O)(=O)[O-])c5F)c5nc(c(-c6cccc(S(=O)(=O)[O-])c6F)c6ccc3[nH]6)C=C5)C=C4)cc2)[C@H]1c1ccccc1C
REMARK SMILES IDX 16 1 15 2 14 3 13 4 11 5 12 6 10 8 5 9 6 10 86 11 7 12 8 13
REMARK SMILES IDX 9 14 4 15 3 16 2 17 1 18 87 19 88 20 92 21 89 22 91 23 93 24
REMARK SMILES IDX 90 25 17 26 18 27 19 28 20 29 21 30 22 32 23 33 24 34 85 35
REMARK SMILES IDX 25 36 84 37 26 38 27 39 28 40 78 41 29 42 83 43 77 44 79 45
REMARK SMILES IDX 30 46 82 47 76 48 75 49 31 51 63 52 43 53 62 54 44 55 47 56
REMARK SMILES IDX 61 57 80 58 45 59 46 60 60 62 81 63 48 64 32 65 33 66 41 67
REMARK SMILES IDX 34 68 36 69 42 70 35 71 37 72 38 73 39 74 40 75 64 76 65 77
REMARK SMILES IDX 73 78 66 79 68 80 74 81 67 82 69 83 70 84 71 85 72 86 49 87
REMARK SMILES IDX 50 88 58 89 51 90 53 91 59 92 52 93 54 94 55 95 56 96 57 97
REMARK H PARENT 13 7 20 31 79 50 47 61
REMARK Flexibility Score: inf
ROOT
ATOM      1  C   UNL A   1      33.285  29.042  27.589  1.00  0.00     0.002 C 
ENDROOT
BRANCH   1   2
ATOM      2  C   UNL A   1      31.803  28.923  27.196  1.00  0.00     0.021 C 
BRANCH   2   3
ATOM      3  C   UNL A   1      31.543  28.826  25.692  1.00  0.00     0.116 C 
BRANCH   3   4
ATOM      4  N   UNL A   1      31.173  27.472  25.344  1.00  0.00    -0.356 N 
ATOM      5  C   UNL A   1      31.872  26.539  24.658  1.00  0.00     0.225 C 
ATOM      6  O   UNL A   1      31.217  25.707  24.031  1.00  0.00    -0.275 OA
ATOM      7  H   UNL A   1      30.282  27.187  25.652  1.00  0.00     0.163 HD
BRANCH   5   8
ATOM      8  C   UNL A   1      33.397  26.572  24.660  1.00  0.00     0.106 C 
ATOM      9  N   UNL A   1      34.036  24.705  23.043  1.00  0.00    -0.333 N 
ATOM     10  C   UNL A   1      33.485  25.465  22.024  1.00  0.00     0.223 C 
ATOM     11  C   UNL A   1      34.054  25.186  24.443  1.00  0.00     0.128 C 
ATOM     12  O   UNL A   1      33.099  24.987  20.958  1.00  0.00    -0.275 OA
ATOM     13  C   UNL A   1      33.485  26.980  22.192  1.00  0.00     0.101 C 
ATOM     14  C   UNL A   1      33.879  27.508  23.563  1.00  0.00     0.026 C 
BRANCH   9  15
ATOM     15  C   UNL A   1      34.507  23.331  22.803  1.00  0.00     0.148 C 
BRANCH  15  16
ATOM     16  C   UNL A   1      35.961  22.950  23.146  1.00  0.00     0.181 C 
BRANCH  16  17
ATOM     17  O   UNL A   1      36.083  21.803  23.993  1.00  0.00    -0.383 OA
ATOM     18  C   UNL A   1      37.383  21.645  24.544  1.00  0.00     0.194 C 
ENDBRANCH  16  17
ENDBRANCH  15  16
ENDBRANCH   9  15
BRANCH  11  19
ATOM     19  C   UNL A   1      33.555  24.167  25.488  1.00  0.00    -0.022 A 
ATOM     20  C   UNL A   1      32.199  23.769  25.458  1.00  0.00     0.006 A 
ATOM     21  C   UNL A   1      34.358  23.663  26.538  1.00  0.00    -0.046 A 
ATOM     22  C   UNL A   1      31.621  23.013  26.476  1.00  0.00     0.000 A 
ATOM     23  C   UNL A   1      33.756  22.897  27.560  1.00  0.00     0.004 A 
ATOM     24  C   UNL A   1      35.838  23.897  26.677  1.00  0.00     0.045 C 
ATOM     25  C   UNL A   1      32.397  22.592  27.542  1.00  0.00     0.000 A 
ENDBRANCH  11  19
ENDBRANCH   5   8
ENDBRANCH   3   4
ENDBRANCH   2   3
ENDBRANCH   1   2
BRANCH   1  26
ATOM     26  C   UNL A   1      33.911  30.428  27.395  1.00  0.00     0.002 C 
BRANCH  26  27
ATOM     27  C   UNL A   1      32.972  31.603  27.661  1.00  0.00     0.021 C 
BRANCH  27  28
ATOM     28  C   UNL A   1      33.410  32.916  27.028  1.00  0.00     0.116 C 
BRANCH  28  29
ATOM     29  N   UNL A   1      32.875  34.072  27.729  1.00  0.00    -0.352 N 
ATOM     30  C   UNL A   1      33.221  34.555  28.966  1.00  0.00     0.251 C 
ATOM     31  H   UNL A   1      32.173  34.574  27.255  1.00  0.00     0.163 HD
ATOM     32  O   UNL A   1      32.553  35.442  29.493  1.00  0.00    -0.269 OA
BRANCH  30  33
ATOM     33  C   UNL A   1      34.389  33.983  29.667  1.00  0.00     0.039 A 
ATOM     34  C   UNL A   1      34.179  33.083  30.714  1.00  0.00     0.014 A 
ATOM     35  C   UNL A   1      35.688  34.325  29.281  1.00  0.00     0.014 A 
ATOM     36  C   UNL A   1      35.274  32.493  31.347  1.00  0.00     0.010 A 
ATOM     37  C   UNL A   1      36.774  33.679  29.861  1.00  0.00     0.010 A 
ATOM     38  C   UNL A   1      36.581  32.771  30.912  1.00  0.00    -0.014 A 
BRANCH  38  39
ATOM     39  C   UNL A   1      37.760  32.144  31.558  1.00  0.00     0.031 A 
ATOM     40  C   UNL A   1      38.482  31.017  30.871  1.00  0.00     0.074 A 
ATOM     41  C   UNL A   1      38.128  32.527  32.797  1.00  0.00     0.049 A 
ATOM     42  N   UNL A   1      39.493  30.304  31.295  1.00  0.00    -0.248 NA
ATOM     43  C   UNL A   1      37.983  30.617  29.545  1.00  0.00     0.031 C 
ATOM     44  C   UNL A   1      37.456  33.547  33.602  1.00  0.00     0.029 A 
ATOM     45  N   UNL A   1      39.142  32.080  33.605  1.00  0.00    -0.354 N 
ATOM     46  C   UNL A   1      39.722  29.350  30.312  1.00  0.00     0.074 A 
ATOM     47  C   UNL A   1      38.721  29.548  29.287  1.00  0.00     0.031 C 
ATOM     48  C   UNL A   1      38.076  33.648  34.789  1.00  0.00     0.029 A 
ATOM     49  C   UNL A   1      39.173  32.688  34.838  1.00  0.00     0.049 A 
ATOM     50  H   UNL A   1      39.787  31.389  33.330  1.00  0.00     0.167 HD
ATOM     51  C   UNL A   1      40.699  28.413  30.247  1.00  0.00     0.034 A 
ATOM     52  C   UNL A   1      39.992  32.491  35.890  1.00  0.00     0.034 A 
ATOM     53  C   UNL A   1      41.723  28.253  31.243  1.00  0.00     0.049 A 
ATOM     54  C   UNL A   1      41.111  31.492  35.770  1.00  0.00     0.074 A 
ATOM     55  C   UNL A   1      42.809  27.396  31.230  1.00  0.00     0.029 A 
ATOM     56  N   UNL A   1      41.788  28.964  32.431  1.00  0.00    -0.354 N 
ATOM     57  N   UNL A   1      41.410  30.707  34.763  1.00  0.00    -0.248 NA
ATOM     58  C   UNL A   1      42.031  31.381  36.910  1.00  0.00     0.031 C 
ATOM     59  C   UNL A   1      43.524  27.580  32.420  1.00  0.00     0.029 A 
ATOM     60  C   UNL A   1      42.894  28.567  33.162  1.00  0.00     0.049 A 
ATOM     61  H   UNL A   1      41.142  29.651  32.714  1.00  0.00     0.167 HD
ATOM     62  C   UNL A   1      42.572  30.039  35.131  1.00  0.00     0.074 A 
ATOM     63  C   UNL A   1      42.931  30.524  36.448  1.00  0.00     0.031 C 
ATOM     64  C   UNL A   1      43.271  29.099  34.447  1.00  0.00     0.034 A 
BRANCH  51  65
ATOM     65  C   UNL A   1      40.734  27.529  29.028  1.00  0.00     0.023 A 
ATOM     66  C   UNL A   1      39.816  26.465  28.913  1.00  0.00     0.012 A 
ATOM     67  C   UNL A   1      41.647  27.767  27.982  1.00  0.00     0.148 A 
ATOM     68  C   UNL A   1      39.834  25.624  27.802  1.00  0.00     0.002 A 
ATOM     69  C   UNL A   1      41.629  26.953  26.854  1.00  0.00     0.091 A 
ATOM     70  F   UNL A   1      42.529  28.767  28.116  1.00  0.00    -0.205 F 
ATOM     71  C   UNL A   1      40.733  25.874  26.768  1.00  0.00     0.022 A 
BRANCH  69  72
ATOM     72  S   UNL A   1      42.694  27.245  25.438  1.00  0.00     0.127 S 
ATOM     73  O   UNL A   1      44.001  27.390  26.078  1.00  0.00    -0.237 OA
ATOM     74  O   UNL A   1      42.528  26.014  24.665  1.00  0.00    -0.237 OA
ATOM     75  O   UNL A   1      42.174  28.440  24.789  1.00  0.00    -0.744 OA
ENDBRANCH  69  72
ENDBRANCH  51  65
BRANCH  52  76
ATOM     76  C   UNL A   1      39.830  33.324  37.116  1.00  0.00     0.023 A 
ATOM     77  C   UNL A   1      40.465  34.579  37.186  1.00  0.00     0.012 A 
ATOM     78  C   UNL A   1      39.015  32.905  38.184  1.00  0.00     0.148 A 
ATOM     79  C   UNL A   1      40.311  35.391  38.309  1.00  0.00     0.002 A 
ATOM     80  C   UNL A   1      38.823  33.742  39.278  1.00  0.00     0.091 A 
ATOM     81  F   UNL A   1      38.427  31.703  38.100  1.00  0.00    -0.205 F 
ATOM     82  C   UNL A   1      39.484  34.979  39.349  1.00  0.00     0.022 A 
BRANCH  80  83
ATOM     83  S   UNL A   1      37.672  33.353  40.601  1.00  0.00     0.127 S 
ATOM     84  O   UNL A   1      37.699  34.581  41.391  1.00  0.00    -0.237 OA
ATOM     85  O   UNL A   1      36.430  33.123  39.861  1.00  0.00    -0.237 OA
ATOM     86  O   UNL A   1      38.208  32.168  41.255  1.00  0.00    -0.744 OA
ENDBRANCH  80  83
ENDBRANCH  52  76
BRANCH  64  87
ATOM     87  C   UNL A   1      44.522  28.555  35.084  1.00  0.00     0.023 A 
ATOM     88  C   UNL A   1      45.763  29.172  34.833  1.00  0.00     0.012 A 
ATOM     89  C   UNL A   1      44.454  27.482  35.996  1.00  0.00     0.148 A 
ATOM     90  C   UNL A   1      46.923  28.709  35.456  1.00  0.00     0.002 A 
ATOM     91  C   UNL A   1      45.605  27.059  36.649  1.00  0.00     0.091 A 
ATOM     92  F   UNL A   1      43.266  26.896  36.206  1.00  0.00    -0.205 F 
ATOM     93  C   UNL A   1      46.841  27.663  36.371  1.00  0.00     0.022 A 
BRANCH  91  94
ATOM     94  S   UNL A   1      45.574  25.785  37.915  1.00  0.00     0.127 S 
ATOM     95  O   UNL A   1      45.123  24.620  37.155  1.00  0.00    -0.237 OA
ATOM     96  O   UNL A   1      46.974  25.731  38.339  1.00  0.00    -0.237 OA
ATOM     97  O   UNL A   1      44.654  26.261  38.939  1.00  0.00    -0.744 OA
ENDBRANCH  91  94
ENDBRANCH  64  87
ENDBRANCH  38  39
ENDBRANCH  30  33
ENDBRANCH  28  29
ENDBRANCH  27  28
ENDBRANCH  26  27
ENDBRANCH   1  26
TORSDOF 20
ENDMDL
MODEL 3
REMARK VINA RESULT:      -8.9      4.399     11.694
REMARK SMILES COCCN1C(=O)CC[C@@H](C(=O)NCCCCCCNC(=O)c2ccc(-c3c4nc(c(-c5cccc(S(=O)(=O)[O-])c5F)c5ccc([nH]5)c(-c5cccc(S(=O)(=O)[O-])c5F)c5nc(c(-c6cccc(S(=O)(=O)[O-])c6F)c6ccc3[nH]6)C=C5)C=C4)cc2)[C@H]1c1ccccc1C
REMARK SMILES IDX 16 1 15 2 14 3 13 4 11 5 12 6 10 8 5 9 6 10 86 11 7 12 8 13
REMARK SMILES IDX 9 14 4 15 3 16 2 17 1 18 87 19 88 20 92 21 89 22 91 23 93 24
REMARK SMILES IDX 90 25 17 26 18 27 19 28 20 29 21 30 22 32 23 33 24 34 85 35
REMARK SMILES IDX 25 36 84 37 26 38 27 39 28 40 78 41 29 42 83 43 77 44 79 45
REMARK SMILES IDX 30 46 82 47 76 48 75 49 31 51 63 52 43 53 62 54 44 55 47 56
REMARK SMILES IDX 61 57 80 58 45 59 46 60 60 62 81 63 48 64 32 65 33 66 41 67
REMARK SMILES IDX 34 68 36 69 42 70 35 71 37 72 38 73 39 74 40 75 64 76 65 77
REMARK SMILES IDX 73 78 66 79 68 80 74 81 67 82 69 83 70 84 71 85 72 86 49 87
REMARK SMILES IDX 50 88 58 89 51 90 53 91 59 92 52 93 54 94 55 95 56 96 57 97
REMARK H PARENT 13 7 20 31 79 50 47 61
REMARK Flexibility Score: inf
ROOT
ATOM      1  C   UNL A   1      34.877  31.029  28.430  1.00  0.00     0.002 C 
ENDROOT
BRANCH   1   2
ATOM      2  C   UNL A   1      34.705  30.061  27.247  1.00  0.00     0.021 C 
BRANCH   2   3
ATOM      3  C   UNL A   1      33.362  30.166  26.522  1.00  0.00     0.116 C 
BRANCH   3   4
ATOM      4  N   UNL A   1      33.499  29.688  25.164  1.00  0.00    -0.356 N 
ATOM      5  C   UNL A   1      33.422  28.425  24.686  1.00  0.00     0.225 C 
ATOM      6  O   UNL A   1      34.071  28.178  23.669  1.00  0.00    -0.275 OA
ATOM      7  H   UNL A   1      33.674  30.383  24.489  1.00  0.00     0.163 HD
BRANCH   5   8
ATOM      8  C   UNL A   1      32.587  27.380  25.419  1.00  0.00     0.106 C 
ATOM      9  N   UNL A   1      32.359  25.497  23.714  1.00  0.00    -0.333 N 
ATOM     10  C   UNL A   1      33.722  25.281  23.843  1.00  0.00     0.223 C 
ATOM     11  C   UNL A   1      31.667  26.550  24.490  1.00  0.00     0.128 C 
ATOM     12  O   UNL A   1      34.401  24.716  22.985  1.00  0.00    -0.275 OA
ATOM     13  C   UNL A   1      34.374  25.644  25.172  1.00  0.00     0.101 C 
ATOM     14  C   UNL A   1      33.514  26.424  26.154  1.00  0.00     0.026 C 
BRANCH   9  15
ATOM     15  C   UNL A   1      31.564  24.779  22.703  1.00  0.00     0.148 C 
BRANCH  15  16
ATOM     16  C   UNL A   1      30.728  23.553  23.118  1.00  0.00     0.181 C 
BRANCH  16  17
ATOM     17  O   UNL A   1      31.023  23.056  24.427  1.00  0.00    -0.383 OA
ATOM     18  C   UNL A   1      31.972  21.999  24.429  1.00  0.00     0.194 C 
ENDBRANCH  16  17
ENDBRANCH  15  16
ENDBRANCH   9  15
BRANCH  11  19
ATOM     19  C   UNL A   1      30.742  27.467  23.663  1.00  0.00    -0.022 A 
ATOM     20  C   UNL A   1      31.322  28.491  22.880  1.00  0.00     0.006 A 
ATOM     21  C   UNL A   1      29.330  27.399  23.704  1.00  0.00    -0.046 A 
ATOM     22  C   UNL A   1      30.559  29.481  22.264  1.00  0.00     0.000 A 
ATOM     23  C   UNL A   1      28.572  28.410  23.073  1.00  0.00     0.004 A 
ATOM     24  C   UNL A   1      28.540  26.324  24.401  1.00  0.00     0.045 C 
ATOM     25  C   UNL A   1      29.180  29.452  22.377  1.00  0.00     0.000 A 
ENDBRANCH  11  19
ENDBRANCH   5   8
ENDBRANCH   3   4
ENDBRANCH   2   3
ENDBRANCH   1   2
BRANCH   1  26
ATOM     26  C   UNL A   1      35.007  32.511  28.058  1.00  0.00     0.002 C 
BRANCH  26  27
ATOM     27  C   UNL A   1      33.689  33.279  27.998  1.00  0.00     0.021 C 
BRANCH  27  28
ATOM     28  C   UNL A   1      33.836  34.792  28.085  1.00  0.00     0.116 C 
BRANCH  28  29
ATOM     29  N   UNL A   1      33.044  35.362  29.163  1.00  0.00    -0.352 N 
ATOM     30  C   UNL A   1      33.190  35.180  30.515  1.00  0.00     0.251 C 
ATOM     31  H   UNL A   1      32.308  35.955  28.888  1.00  0.00     0.163 HD
ATOM     32  O   UNL A   1      32.332  35.595  31.292  1.00  0.00    -0.269 OA
BRANCH  30  33
ATOM     33  C   UNL A   1      34.376  34.462  31.028  1.00  0.00     0.039 A 
ATOM     34  C   UNL A   1      34.205  33.217  31.637  1.00  0.00     0.014 A 
ATOM     35  C   UNL A   1      35.654  35.012  30.893  1.00  0.00     0.014 A 
ATOM     36  C   UNL A   1      35.322  32.504  32.074  1.00  0.00     0.010 A 
ATOM     37  C   UNL A   1      36.769  34.267  31.259  1.00  0.00     0.010 A 
ATOM     38  C   UNL A   1      36.615  33.014  31.871  1.00  0.00    -0.014 A 
BRANCH  38  39
ATOM     39  C   UNL A   1      37.819  32.267  32.312  1.00  0.00     0.031 A 
ATOM     40  C   UNL A   1      38.406  32.525  33.672  1.00  0.00     0.074 A 
ATOM     41  C   UNL A   1      38.435  31.425  31.459  1.00  0.00     0.049 A 
ATOM     42  N   UNL A   1      39.483  32.020  34.217  1.00  0.00    -0.248 NA
ATOM     43  C   UNL A   1      37.710  33.504  34.523  1.00  0.00     0.031 C 
ATOM     44  C   UNL A   1      38.013  31.155  30.084  1.00  0.00     0.029 A 
ATOM     45  N   UNL A   1      39.563  30.661  31.616  1.00  0.00    -0.354 N 
ATOM     46  C   UNL A   1      39.614  32.647  35.449  1.00  0.00     0.074 A 
ATOM     47  C   UNL A   1      38.531  33.599  35.558  1.00  0.00     0.031 C 
ATOM     48  C   UNL A   1      38.871  30.288  29.523  1.00  0.00     0.029 A 
ATOM     49  C   UNL A   1      39.914  29.956  30.489  1.00  0.00     0.049 A 
ATOM     50  H   UNL A   1      40.075  30.621  32.457  1.00  0.00     0.167 HD
ATOM     51  C   UNL A   1      40.533  32.428  36.421  1.00  0.00     0.034 A 
ATOM     52  C   UNL A   1      40.960  29.138  30.260  1.00  0.00     0.034 A 
ATOM     53  C   UNL A   1      41.577  31.444  36.330  1.00  0.00     0.049 A 
ATOM     54  C   UNL A   1      41.930  28.858  31.376  1.00  0.00     0.074 A 
ATOM     55  C   UNL A   1      42.502  31.080  37.292  1.00  0.00     0.029 A 
ATOM     56  N   UNL A   1      41.835  30.667  35.212  1.00  0.00    -0.354 N 
ATOM     57  N   UNL A   1      41.945  29.342  32.594  1.00  0.00    -0.248 NA
ATOM     58  C   UNL A   1      42.999  27.889  31.102  1.00  0.00     0.031 C 
ATOM     59  C   UNL A   1      43.331  30.092  36.748  1.00  0.00     0.029 A 
ATOM     60  C   UNL A   1      42.906  29.825  35.456  1.00  0.00     0.049 A 
ATOM     61  H   UNL A   1      41.331  30.708  34.367  1.00  0.00     0.167 HD
ATOM     62  C   UNL A   1      42.998  28.709  33.244  1.00  0.00     0.074 A 
ATOM     63  C   UNL A   1      43.587  27.794  32.287  1.00  0.00     0.031 C 
ATOM     64  C   UNL A   1      43.445  28.879  34.513  1.00  0.00     0.034 A 
BRANCH  51  65
ATOM     65  C   UNL A   1      40.407  33.232  37.689  1.00  0.00     0.023 A 
ATOM     66  C   UNL A   1      41.276  34.320  37.912  1.00  0.00     0.012 A 
ATOM     67  C   UNL A   1      39.415  32.937  38.644  1.00  0.00     0.148 A 
ATOM     68  C   UNL A   1      41.191  35.073  39.082  1.00  0.00     0.002 A 
ATOM     69  C   UNL A   1      39.304  33.721  39.787  1.00  0.00     0.091 A 
ATOM     70  F   UNL A   1      38.611  31.885  38.430  1.00  0.00    -0.205 F 
ATOM     71  C   UNL A   1      40.199  34.780  40.014  1.00  0.00     0.022 A 
BRANCH  69  72
ATOM     72  S   UNL A   1      38.009  33.471  41.005  1.00  0.00     0.127 S 
ATOM     73  O   UNL A   1      36.879  33.087  40.160  1.00  0.00    -0.237 OA
ATOM     74  O   UNL A   1      38.556  32.386  41.821  1.00  0.00    -0.237 OA
ATOM     75  O   UNL A   1      37.870  34.740  41.705  1.00  0.00    -0.744 OA
ENDBRANCH  69  72
ENDBRANCH  51  65
BRANCH  52  76
ATOM     76  C   UNL A   1      41.088  28.460  28.938  1.00  0.00     0.023 A 
ATOM     77  C   UNL A   1      41.756  29.118  27.888  1.00  0.00     0.012 A 
ATOM     78  C   UNL A   1      40.600  27.155  28.733  1.00  0.00     0.148 A 
ATOM     79  C   UNL A   1      41.914  28.498  26.648  1.00  0.00     0.002 A 
ATOM     80  C   UNL A   1      40.808  26.523  27.512  1.00  0.00     0.091 A 
ATOM     81  F   UNL A   1      39.960  26.551  29.744  1.00  0.00    -0.205 F 
ATOM     82  C   UNL A   1      41.451  27.199  26.463  1.00  0.00     0.022 A 
BRANCH  80  83
ATOM     83  S   UNL A   1      40.364  24.806  27.227  1.00  0.00     0.127 S 
ATOM     84  O   UNL A   1      40.972  24.552  25.924  1.00  0.00    -0.237 OA
ATOM     85  O   UNL A   1      41.017  24.136  28.353  1.00  0.00    -0.237 OA
ATOM     86  O   UNL A   1      38.909  24.762  27.265  1.00  0.00    -0.744 OA
ENDBRANCH  80  83
ENDBRANCH  52  76
BRANCH  64  87
ATOM     87  C   UNL A   1      44.606  28.032  34.965  1.00  0.00     0.023 A 
ATOM     88  C   UNL A   1      45.917  28.540  34.890  1.00  0.00     0.012 A 
ATOM     89  C   UNL A   1      44.386  26.764  35.539  1.00  0.00     0.148 A 
ATOM     90  C   UNL A   1      46.996  27.786  35.351  1.00  0.00     0.002 A 
ATOM     91  C   UNL A   1      45.461  26.039  36.041  1.00  0.00     0.091 A 
ATOM     92  F   UNL A   1      43.133  26.289  35.583  1.00  0.00    -0.205 F 
ATOM     93  C   UNL A   1      46.766  26.543  35.937  1.00  0.00     0.022 A 
BRANCH  91  94
ATOM     94  S   UNL A   1      45.245  24.476  36.899  1.00  0.00     0.127 S 
ATOM     95  O   UNL A   1      44.313  24.845  37.963  1.00  0.00    -0.237 OA
ATOM     96  O   UNL A   1      44.672  23.624  35.856  1.00  0.00    -0.237 OA
ATOM     97  O   UNL A   1      46.574  24.075  37.339  1.00  0.00    -0.744 OA
ENDBRANCH  91  94
ENDBRANCH  64  87
ENDBRANCH  38  39
ENDBRANCH  30  33
ENDBRANCH  28  29
ENDBRANCH  27  28
ENDBRANCH  26  27
ENDBRANCH   1  26
TORSDOF 20
ENDMDL
