MODEL 1
REMARK VINA RESULT:     -12.0      0.000      0.000
REMARK SMILES Cc1ccc(C)c(/C=C2\SC(=S)N(CC(=O)NCCCCCCNC(=O)c3ccc(-c4c5nc(c(-c6cccc(S(=O)(=O)[O-])c6F)c6ccc([nH]6)c(-c6cccc(S(=O)(=O)[O-])c6F)c6nc(c(-c7cccc(S(=O)(=O)[O-])c7F)c7ccc4[nH]7)C=C6)C=C5)cc3)C2=O)c1
REMARK SMILES IDX 21 1 20 2 19 3 18 4 17 5 15 6 16 7 14 9 13 10 8 11 9 12
REMARK SMILES IDX 10 13 90 14 11 15 91 16 12 17 7 18 1 19 2 20 3 21 92 22 4 23
REMARK SMILES IDX 5 24 6 25 22 26 23 27 24 28 25 29 26 31 27 32 28 33 89 34
REMARK SMILES IDX 29 35 88 36 30 37 31 38 32 39 82 40 33 41 87 42 81 43 83 44
REMARK SMILES IDX 34 45 86 46 80 47 79 48 35 50 67 51 47 52 66 53 48 54 51 55
REMARK SMILES IDX 65 56 84 57 49 58 50 59 64 61 85 62 52 63 36 64 37 65 45 66
REMARK SMILES IDX 38 67 40 68 46 69 39 70 41 71 42 72 43 73 44 74 68 75 69 76
REMARK SMILES IDX 77 77 70 78 72 79 78 80 71 81 73 82 74 83 75 84 76 85 53 86
REMARK SMILES IDX 54 87 62 88 55 89 57 90 63 91 56 92 58 93 59 94 60 95 61 96
REMARK H PARENT 17 8 24 30 83 49 51 60
REMARK Flexibility Score: inf
ROOT
ATOM      1  C   UNL A   1      33.196  30.766  27.439  1.00  0.00     0.002 C 
ENDROOT
BRANCH   1   2
ATOM      2  C   UNL A   1      33.154  29.269  27.095  1.00  0.00     0.002 C 
BRANCH   2   3
ATOM      3  C   UNL A   1      31.802  28.567  27.237  1.00  0.00     0.021 C 
BRANCH   3   4
ATOM      4  C   UNL A   1      31.565  27.460  26.216  1.00  0.00     0.116 C 
BRANCH   4   5
ATOM      5  N   UNL A   1      31.126  27.970  24.934  1.00  0.00    -0.355 N 
ATOM      6  C   UNL A   1      30.338  27.428  23.965  1.00  0.00     0.240 C 
ATOM      7  O   UNL A   1      29.861  28.220  23.142  1.00  0.00    -0.273 OA
ATOM      8  H   UNL A   1      31.456  28.874  24.726  1.00  0.00     0.163 HD
BRANCH   6   9
ATOM      9  C   UNL A   1      29.862  25.966  23.981  1.00  0.00     0.227 C 
BRANCH   9  10
ATOM     10  N   UNL A   1      30.889  24.942  23.849  1.00  0.00    -0.283 N 
ATOM     11  C   UNL A   1      32.151  21.938  25.340  1.00  0.00     0.029 C 
ATOM     12  C   UNL A   1      32.025  23.019  24.573  1.00  0.00     0.081 C 
ATOM     13  S   UNL A   1      32.820  23.406  23.105  1.00  0.00    -0.054 SA
ATOM     14  C   UNL A   1      30.993  24.039  24.896  1.00  0.00     0.266 C 
ATOM     15  C   UNL A   1      31.809  24.822  22.833  1.00  0.00     0.148 C 
ATOM     16  O   UNL A   1      30.289  24.056  25.881  1.00  0.00    -0.268 OA
ATOM     17  S   UNL A   1      31.985  25.797  21.487  1.00  0.00    -0.052 S 
BRANCH  11  18
ATOM     18  C   UNL A   1      33.031  20.776  25.167  1.00  0.00    -0.021 A 
ATOM     19  C   UNL A   1      32.983  17.408  23.390  1.00  0.00     0.044 C 
ATOM     20  C   UNL A   1      33.467  18.622  24.122  1.00  0.00    -0.051 A 
ATOM     21  C   UNL A   1      34.828  18.768  24.407  1.00  0.00     0.004 A 
ATOM     22  C   UNL A   1      32.577  19.637  24.495  1.00  0.00     0.011 A 
ATOM     23  C   UNL A   1      35.278  19.878  25.119  1.00  0.00     0.004 A 
ATOM     24  C   UNL A   1      34.381  20.870  25.537  1.00  0.00    -0.044 A 
ATOM     25  C   UNL A   1      34.890  22.050  26.305  1.00  0.00     0.045 C 
ENDBRANCH  11  18
ENDBRANCH   9  10
ENDBRANCH   6   9
ENDBRANCH   4   5
ENDBRANCH   3   4
ENDBRANCH   2   3
ENDBRANCH   1   2
BRANCH   1  26
ATOM     26  C   UNL A   1      34.563  31.446  27.632  1.00  0.00     0.021 C 
BRANCH  26  27
ATOM     27  C   UNL A   1      34.574  32.885  28.148  1.00  0.00     0.116 C 
BRANCH  27  28
ATOM     28  N   UNL A   1      34.368  32.978  29.601  1.00  0.00    -0.352 N 
ATOM     29  C   UNL A   1      34.968  32.335  30.671  1.00  0.00     0.251 C 
ATOM     30  H   UNL A   1      33.669  33.620  29.863  1.00  0.00     0.163 HD
ATOM     31  O   UNL A   1      34.372  32.280  31.744  1.00  0.00    -0.269 OA
BRANCH  29  32
ATOM     32  C   UNL A   1      36.322  31.748  30.552  1.00  0.00     0.039 A 
ATOM     33  C   UNL A   1      37.488  32.513  30.447  1.00  0.00     0.014 A 
ATOM     34  C   UNL A   1      36.425  30.369  30.503  1.00  0.00     0.014 A 
ATOM     35  C   UNL A   1      38.715  31.858  30.279  1.00  0.00     0.010 A 
ATOM     36  C   UNL A   1      37.624  29.735  30.620  1.00  0.00     0.010 A 
ATOM     37  C   UNL A   1      38.762  30.457  30.345  1.00  0.00    -0.014 A 
BRANCH  37  38
ATOM     38  C   UNL A   1      39.985  29.669  30.307  1.00  0.00     0.031 A 
ATOM     39  C   UNL A   1      40.523  29.444  31.662  1.00  0.00     0.074 A 
ATOM     40  C   UNL A   1      40.414  29.011  29.201  1.00  0.00     0.049 A 
ATOM     41  N   UNL A   1      41.514  30.076  32.196  1.00  0.00    -0.248 NA
ATOM     42  C   UNL A   1      39.744  28.636  32.613  1.00  0.00     0.031 C 
ATOM     43  C   UNL A   1      39.804  28.985  27.864  1.00  0.00     0.029 A 
ATOM     44  N   UNL A   1      41.436  28.115  29.068  1.00  0.00    -0.354 N 
ATOM     45  C   UNL A   1      41.660  29.503  33.451  1.00  0.00     0.074 A 
ATOM     46  C   UNL A   1      40.399  28.885  33.751  1.00  0.00     0.031 C 
ATOM     47  C   UNL A   1      40.364  27.999  27.119  1.00  0.00     0.029 A 
ATOM     48  C   UNL A   1      41.437  27.374  27.872  1.00  0.00     0.049 A 
ATOM     49  H   UNL A   1      42.125  27.997  29.761  1.00  0.00     0.167 HD
ATOM     50  C   UNL A   1      42.903  29.274  33.955  1.00  0.00     0.034 A 
ATOM     51  C   UNL A   1      42.249  26.316  27.580  1.00  0.00     0.034 A 
ATOM     52  C   UNL A   1      43.906  29.957  33.165  1.00  0.00     0.049 A 
ATOM     53  C   UNL A   1      43.452  26.554  28.425  1.00  0.00     0.074 A 
ATOM     54  C   UNL A   1      44.169  31.267  32.822  1.00  0.00     0.029 A 
ATOM     55  N   UNL A   1      44.561  29.169  32.247  1.00  0.00    -0.354 N 
ATOM     56  N   UNL A   1      44.270  27.551  28.233  1.00  0.00    -0.248 NA
ATOM     57  C   UNL A   1      43.583  25.894  29.718  1.00  0.00     0.031 C 
ATOM     58  C   UNL A   1      44.668  31.215  31.486  1.00  0.00     0.029 A 
ATOM     59  C   UNL A   1      44.751  29.878  31.093  1.00  0.00     0.049 A 
ATOM     60  H   UNL A   1      44.849  28.240  32.399  1.00  0.00     0.167 HD
ATOM     61  C   UNL A   1      44.638  27.943  29.509  1.00  0.00     0.074 A 
ATOM     62  C   UNL A   1      44.340  26.793  30.356  1.00  0.00     0.031 C 
ATOM     63  C   UNL A   1      44.860  29.261  29.787  1.00  0.00     0.034 A 
BRANCH  50  64
ATOM     64  C   UNL A   1      43.284  28.099  34.834  1.00  0.00     0.023 A 
ATOM     65  C   UNL A   1      44.004  28.401  36.012  1.00  0.00     0.012 A 
ATOM     66  C   UNL A   1      43.237  26.738  34.454  1.00  0.00     0.148 A 
ATOM     67  C   UNL A   1      44.693  27.417  36.728  1.00  0.00     0.002 A 
ATOM     68  C   UNL A   1      43.863  25.752  35.208  1.00  0.00     0.091 A 
ATOM     69  F   UNL A   1      42.712  26.376  33.283  1.00  0.00    -0.205 F 
ATOM     70  C   UNL A   1      44.619  26.090  36.330  1.00  0.00     0.022 A 
BRANCH  68  71
ATOM     71  S   UNL A   1      43.773  24.018  34.735  1.00  0.00     0.127 S 
ATOM     72  O   UNL A   1      42.347  23.749  34.888  1.00  0.00    -0.237 OA
ATOM     73  O   UNL A   1      44.257  24.058  33.355  1.00  0.00    -0.237 OA
ATOM     74  O   UNL A   1      44.656  23.312  35.656  1.00  0.00    -0.744 OA
ENDBRANCH  68  71
ENDBRANCH  50  64
BRANCH  51  75
ATOM     75  C   UNL A   1      42.171  25.088  26.712  1.00  0.00     0.023 A 
ATOM     76  C   UNL A   1      43.160  24.934  25.706  1.00  0.00     0.012 A 
ATOM     77  C   UNL A   1      41.362  23.957  26.965  1.00  0.00     0.148 A 
ATOM     78  C   UNL A   1      43.423  23.704  25.087  1.00  0.00     0.002 A 
ATOM     79  C   UNL A   1      41.634  22.721  26.354  1.00  0.00     0.091 A 
ATOM     80  F   UNL A   1      40.334  24.076  27.809  1.00  0.00    -0.205 F 
ATOM     81  C   UNL A   1      42.681  22.588  25.437  1.00  0.00     0.022 A 
BRANCH  79  82
ATOM     82  S   UNL A   1      40.687  21.221  26.683  1.00  0.00     0.127 S 
ATOM     83  O   UNL A   1      39.373  21.551  26.129  1.00  0.00    -0.237 OA
ATOM     84  O   UNL A   1      41.418  20.208  25.924  1.00  0.00    -0.237 OA
ATOM     85  O   UNL A   1      40.710  21.063  28.130  1.00  0.00    -0.744 OA
ENDBRANCH  79  82
ENDBRANCH  51  75
BRANCH  63  86
ATOM     86  C   UNL A   1      45.029  30.188  28.608  1.00  0.00     0.023 A 
ATOM     87  C   UNL A   1      43.938  30.706  27.878  1.00  0.00     0.012 A 
ATOM     88  C   UNL A   1      46.323  30.630  28.300  1.00  0.00     0.148 A 
ATOM     89  C   UNL A   1      44.141  31.620  26.840  1.00  0.00     0.002 A 
ATOM     90  C   UNL A   1      46.517  31.574  27.300  1.00  0.00     0.091 A 
ATOM     91  F   UNL A   1      47.348  30.127  29.005  1.00  0.00    -0.205 F 
ATOM     92  C   UNL A   1      45.430  32.064  26.559  1.00  0.00     0.022 A 
BRANCH  90  93
ATOM     93  S   UNL A   1      48.139  32.265  26.977  1.00  0.00     0.127 S 
ATOM     94  O   UNL A   1      48.496  32.827  28.277  1.00  0.00    -0.237 OA
ATOM     95  O   UNL A   1      48.912  31.085  26.586  1.00  0.00    -0.237 OA
ATOM     96  O   UNL A   1      47.952  33.233  25.902  1.00  0.00    -0.744 OA
ENDBRANCH  90  93
ENDBRANCH  63  86
ENDBRANCH  37  38
ENDBRANCH  29  32
ENDBRANCH  27  28
ENDBRANCH  26  27
ENDBRANCH   1  26
TORSDOF 18
ENDMDL
MODEL 2
REMARK VINA RESULT:     -11.8      2.987      8.933
REMARK SMILES Cc1ccc(C)c(/C=C2\SC(=S)N(CC(=O)NCCCCCCNC(=O)c3ccc(-c4c5nc(c(-c6cccc(S(=O)(=O)[O-])c6F)c6ccc([nH]6)c(-c6cccc(S(=O)(=O)[O-])c6F)c6nc(c(-c7cccc(S(=O)(=O)[O-])c7F)c7ccc4[nH]7)C=C6)C=C5)cc3)C2=O)c1
REMARK SMILES IDX 21 1 20 2 19 3 18 4 17 5 15 6 16 7 14 9 13 10 8 11 9 12
REMARK SMILES IDX 10 13 90 14 11 15 91 16 12 17 7 18 1 19 2 20 3 21 92 22 4 23
REMARK SMILES IDX 5 24 6 25 22 26 23 27 24 28 25 29 26 31 27 32 28 33 89 34
REMARK SMILES IDX 29 35 88 36 30 37 31 38 32 39 82 40 33 41 87 42 81 43 83 44
REMARK SMILES IDX 34 45 86 46 80 47 79 48 35 50 67 51 47 52 66 53 48 54 51 55
REMARK SMILES IDX 65 56 84 57 49 58 50 59 64 61 85 62 52 63 36 64 37 65 45 66
REMARK SMILES IDX 38 67 40 68 46 69 39 70 41 71 42 72 43 73 44 74 68 75 69 76
REMARK SMILES IDX 77 77 70 78 72 79 78 80 71 81 73 82 74 83 75 84 76 85 53 86
REMARK SMILES IDX 54 87 62 88 55 89 57 90 63 91 56 92 58 93 59 94 60 95 61 96
REMARK H PARENT 17 8 24 30 83 49 51 60
REMARK Flexibility Score: inf
ROOT
ATOM      1  C   UNL A   1      35.172  22.053  26.819  1.00  0.00     0.002 C 
ENDROOT
BRANCH   1   2
ATOM      2  C   UNL A   1      33.673  21.719  26.834  1.00  0.00     0.002 C 
BRANCH   2   3
ATOM      3  C   UNL A   1      33.172  20.744  25.766  1.00  0.00     0.021 C 
BRANCH   3   4
ATOM      4  C   UNL A   1      32.418  21.410  24.620  1.00  0.00     0.116 C 
BRANCH   4   5
ATOM      5  N   UNL A   1      33.305  21.994  23.636  1.00  0.00    -0.355 N 
ATOM      6  C   UNL A   1      33.356  23.240  23.089  1.00  0.00     0.240 C 
ATOM      7  O   UNL A   1      34.419  23.549  22.535  1.00  0.00    -0.273 OA
ATOM      8  H   UNL A   1      33.997  21.378  23.302  1.00  0.00     0.163 HD
BRANCH   6   9
ATOM      9  C   UNL A   1      32.274  24.309  23.314  1.00  0.00     0.227 C 
BRANCH   9  10
ATOM     10  N   UNL A   1      32.732  25.620  23.752  1.00  0.00    -0.283 N 
ATOM     11  C   UNL A   1      33.517  27.557  26.663  1.00  0.00     0.029 C 
ATOM     12  C   UNL A   1      33.264  27.200  25.405  1.00  0.00     0.081 C 
ATOM     13  S   UNL A   1      33.622  28.030  23.949  1.00  0.00    -0.054 SA
ATOM     14  C   UNL A   1      32.693  25.858  25.117  1.00  0.00     0.266 C 
ATOM     15  C   UNL A   1      33.128  26.666  22.951  1.00  0.00     0.148 C 
ATOM     16  O   UNL A   1      32.315  25.052  25.938  1.00  0.00    -0.268 OA
ATOM     17  S   UNL A   1      33.205  26.709  21.282  1.00  0.00    -0.052 S 
BRANCH  11  18
ATOM     18  C   UNL A   1      34.148  28.782  27.169  1.00  0.00    -0.021 A 
ATOM     19  C   UNL A   1      37.653  30.102  27.857  1.00  0.00     0.044 C 
ATOM     20  C   UNL A   1      36.173  30.047  27.642  1.00  0.00    -0.051 A 
ATOM     21  C   UNL A   1      35.421  31.226  27.661  1.00  0.00     0.004 A 
ATOM     22  C   UNL A   1      35.530  28.830  27.383  1.00  0.00     0.011 A 
ATOM     23  C   UNL A   1      34.039  31.177  27.497  1.00  0.00     0.004 A 
ATOM     24  C   UNL A   1      33.387  29.954  27.288  1.00  0.00    -0.044 A 
ATOM     25  C   UNL A   1      31.900  29.928  27.119  1.00  0.00     0.045 C 
ENDBRANCH  11  18
ENDBRANCH   9  10
ENDBRANCH   6   9
ENDBRANCH   4   5
ENDBRANCH   3   4
ENDBRANCH   2   3
ENDBRANCH   1   2
BRANCH   1  26
ATOM     26  C   UNL A   1      35.646  23.308  26.066  1.00  0.00     0.021 C 
BRANCH  26  27
ATOM     27  C   UNL A   1      37.002  23.245  25.361  1.00  0.00     0.116 C 
BRANCH  27  28
ATOM     28  N   UNL A   1      37.955  22.343  26.023  1.00  0.00    -0.352 N 
ATOM     29  C   UNL A   1      39.169  22.566  26.650  1.00  0.00     0.251 C 
ATOM     30  H   UNL A   1      37.676  21.398  26.019  1.00  0.00     0.163 HD
ATOM     31  O   UNL A   1      39.957  21.631  26.774  1.00  0.00    -0.269 OA
BRANCH  29  32
ATOM     32  C   UNL A   1      39.515  23.896  27.200  1.00  0.00     0.039 A 
ATOM     33  C   UNL A   1      38.663  25.004  27.135  1.00  0.00     0.014 A 
ATOM     34  C   UNL A   1      40.765  24.053  27.771  1.00  0.00     0.014 A 
ATOM     35  C   UNL A   1      39.111  26.234  27.633  1.00  0.00     0.010 A 
ATOM     36  C   UNL A   1      41.090  25.158  28.497  1.00  0.00     0.010 A 
ATOM     37  C   UNL A   1      40.346  26.298  28.296  1.00  0.00    -0.014 A 
BRANCH  37  38
ATOM     38  C   UNL A   1      40.866  27.485  28.961  1.00  0.00     0.031 A 
ATOM     39  C   UNL A   1      42.034  28.034  28.248  1.00  0.00     0.074 A 
ATOM     40  C   UNL A   1      40.200  28.140  29.944  1.00  0.00     0.049 A 
ATOM     41  N   UNL A   1      43.269  27.885  28.593  1.00  0.00    -0.248 NA
ATOM     42  C   UNL A   1      41.851  28.577  26.892  1.00  0.00     0.031 C 
ATOM     43  C   UNL A   1      38.906  27.796  30.553  1.00  0.00     0.029 A 
ATOM     44  N   UNL A   1      40.485  29.339  30.533  1.00  0.00    -0.354 N 
ATOM     45  C   UNL A   1      43.988  28.594  27.642  1.00  0.00     0.074 A 
ATOM     46  C   UNL A   1      43.122  28.713  26.502  1.00  0.00     0.031 C 
ATOM     47  C   UNL A   1      38.449  28.839  31.290  1.00  0.00     0.029 A 
ATOM     48  C   UNL A   1      39.443  29.898  31.296  1.00  0.00     0.049 A 
ATOM     49  H   UNL A   1      41.358  29.780  30.432  1.00  0.00     0.167 HD
ATOM     50  C   UNL A   1      45.070  29.330  28.015  1.00  0.00     0.034 A 
ATOM     51  C   UNL A   1      39.426  31.150  31.841  1.00  0.00     0.034 A 
ATOM     52  C   UNL A   1      45.465  29.002  29.368  1.00  0.00     0.049 A 
ATOM     53  C   UNL A   1      40.869  31.476  32.017  1.00  0.00     0.074 A 
ATOM     54  C   UNL A   1      45.875  27.864  30.029  1.00  0.00     0.029 A 
ATOM     55  N   UNL A   1      45.028  29.883  30.331  1.00  0.00    -0.354 N 
ATOM     56  N   UNL A   1      41.640  30.851  32.862  1.00  0.00    -0.248 NA
ATOM     57  C   UNL A   1      41.571  32.264  31.011  1.00  0.00     0.031 C 
ATOM     58  C   UNL A   1      45.318  27.965  31.339  1.00  0.00     0.029 A 
ATOM     59  C   UNL A   1      44.649  29.186  31.445  1.00  0.00     0.049 A 
ATOM     60  H   UNL A   1      44.995  30.862  30.233  1.00  0.00     0.167 HD
ATOM     61  C   UNL A   1      42.860  30.760  32.211  1.00  0.00     0.074 A 
ATOM     62  C   UNL A   1      42.811  31.789  31.179  1.00  0.00     0.031 C 
ATOM     63  C   UNL A   1      43.651  29.662  32.381  1.00  0.00     0.034 A 
BRANCH  50  64
ATOM     64  C   UNL A   1      45.489  30.644  27.386  1.00  0.00     0.023 A 
ATOM     65  C   UNL A   1      46.860  30.782  27.070  1.00  0.00     0.012 A 
ATOM     66  C   UNL A   1      44.711  31.823  27.349  1.00  0.00     0.148 A 
ATOM     67  C   UNL A   1      47.433  32.029  26.802  1.00  0.00     0.002 A 
ATOM     68  C   UNL A   1      45.269  33.051  27.011  1.00  0.00     0.091 A 
ATOM     69  F   UNL A   1      43.447  31.818  27.774  1.00  0.00    -0.205 F 
ATOM     70  C   UNL A   1      46.637  33.165  26.767  1.00  0.00     0.022 A 
BRANCH  68  71
ATOM     71  S   UNL A   1      44.265  34.542  26.935  1.00  0.00     0.127 S 
ATOM     72  O   UNL A   1      43.300  34.191  25.897  1.00  0.00    -0.237 OA
ATOM     73  O   UNL A   1      43.724  34.610  28.292  1.00  0.00    -0.237 OA
ATOM     74  O   UNL A   1      45.188  35.622  26.606  1.00  0.00    -0.744 OA
ENDBRANCH  68  71
ENDBRANCH  50  64
BRANCH  51  75
ATOM     75  C   UNL A   1      38.376  32.161  32.220  1.00  0.00     0.023 A 
ATOM     76  C   UNL A   1      38.722  33.128  33.199  1.00  0.00     0.012 A 
ATOM     77  C   UNL A   1      37.172  32.393  31.517  1.00  0.00     0.148 A 
ATOM     78  C   UNL A   1      37.999  34.315  33.377  1.00  0.00     0.002 A 
ATOM     79  C   UNL A   1      36.455  33.590  31.686  1.00  0.00     0.091 A 
ATOM     80  F   UNL A   1      36.728  31.458  30.673  1.00  0.00    -0.205 F 
ATOM     81  C   UNL A   1      36.883  34.562  32.595  1.00  0.00     0.022 A 
BRANCH  79  82
ATOM     82  S   UNL A   1      34.949  33.983  30.772  1.00  0.00     0.127 S 
ATOM     83  O   UNL A   1      34.131  32.789  30.986  1.00  0.00    -0.237 OA
ATOM     84  O   UNL A   1      34.460  35.176  31.460  1.00  0.00    -0.237 OA
ATOM     85  O   UNL A   1      35.379  34.181  29.394  1.00  0.00    -0.744 OA
ENDBRANCH  79  82
ENDBRANCH  51  75
BRANCH  63  86
ATOM     86  C   UNL A   1      43.317  28.754  33.540  1.00  0.00     0.023 A 
ATOM     87  C   UNL A   1      42.457  27.642  33.420  1.00  0.00     0.012 A 
ATOM     88  C   UNL A   1      43.979  28.971  34.757  1.00  0.00     0.148 A 
ATOM     89  C   UNL A   1      42.236  26.787  34.504  1.00  0.00     0.002 A 
ATOM     90  C   UNL A   1      43.794  28.092  35.817  1.00  0.00     0.091 A 
ATOM     91  F   UNL A   1      44.794  30.032  34.853  1.00  0.00    -0.205 F 
ATOM     92  C   UNL A   1      42.915  27.005  35.699  1.00  0.00     0.022 A 
BRANCH  90  93
ATOM     93  S   UNL A   1      44.732  28.260  37.336  1.00  0.00     0.127 S 
ATOM     94  O   UNL A   1      44.365  29.605  37.774  1.00  0.00    -0.237 OA
ATOM     95  O   UNL A   1      44.192  27.178  38.161  1.00  0.00    -0.237 OA
ATOM     96  O   UNL A   1      46.130  28.079  36.962  1.00  0.00    -0.744 OA
ENDBRANCH  90  93
ENDBRANCH  63  86
ENDBRANCH  37  38
ENDBRANCH  29  32
ENDBRANCH  27  28
ENDBRANCH  26  27
ENDBRANCH   1  26
TORSDOF 18
ENDMDL
MODEL 3
REMARK VINA RESULT:     -11.5      3.073      8.522
REMARK SMILES Cc1ccc(C)c(/C=C2\SC(=S)N(CC(=O)NCCCCCCNC(=O)c3ccc(-c4c5nc(c(-c6cccc(S(=O)(=O)[O-])c6F)c6ccc([nH]6)c(-c6cccc(S(=O)(=O)[O-])c6F)c6nc(c(-c7cccc(S(=O)(=O)[O-])c7F)c7ccc4[nH]7)C=C6)C=C5)cc3)C2=O)c1
REMARK SMILES IDX 21 1 20 2 19 3 18 4 17 5 15 6 16 7 14 9 13 10 8 11 9 12
REMARK SMILES IDX 10 13 90 14 11 15 91 16 12 17 7 18 1 19 2 20 3 21 92 22 4 23
REMARK SMILES IDX 5 24 6 25 22 26 23 27 24 28 25 29 26 31 27 32 28 33 89 34
REMARK SMILES IDX 29 35 88 36 30 37 31 38 32 39 82 40 33 41 87 42 81 43 83 44
REMARK SMILES IDX 34 45 86 46 80 47 79 48 35 50 67 51 47 52 66 53 48 54 51 55
REMARK SMILES IDX 65 56 84 57 49 58 50 59 64 61 85 62 52 63 36 64 37 65 45 66
REMARK SMILES IDX 38 67 40 68 46 69 39 70 41 71 42 72 43 73 44 74 68 75 69 76
REMARK SMILES IDX 77 77 70 78 72 79 78 80 71 81 73 82 74 83 75 84 76 85 53 86
REMARK SMILES IDX 54 87 62 88 55 89 57 90 63 91 56 92 58 93 59 94 60 95 61 96
REMARK H PARENT 17 8 24 30 83 49 51 60
REMARK Flexibility Score: inf
ROOT
ATOM      1  C   UNL A   1      39.067  21.936  25.773  1.00  0.00     0.002 C 
ENDROOT
BRANCH   1   2
ATOM      2  C   UNL A   1      37.743  22.621  26.140  1.00  0.00     0.002 C 
BRANCH   2   3
ATOM      3  C   UNL A   1      37.138  23.559  25.093  1.00  0.00     0.021 C 
BRANCH   3   4
ATOM      4  C   UNL A   1      35.878  23.019  24.426  1.00  0.00     0.116 C 
BRANCH   4   5
ATOM      5  N   UNL A   1      34.991  22.361  25.363  1.00  0.00    -0.355 N 
ATOM      6  C   UNL A   1      33.640  22.194  25.366  1.00  0.00     0.240 C 
ATOM      7  O   UNL A   1      33.202  21.307  26.110  1.00  0.00    -0.273 OA
ATOM      8  H   UNL A   1      35.448  21.963  26.139  1.00  0.00     0.163 HD
BRANCH   6   9
ATOM      9  C   UNL A   1      32.699  22.883  24.364  1.00  0.00     0.227 C 
BRANCH   9  10
ATOM     10  N   UNL A   1      32.051  24.108  24.812  1.00  0.00    -0.283 N 
ATOM     11  C   UNL A   1      31.888  27.641  24.232  1.00  0.00     0.029 C 
ATOM     12  C   UNL A   1      31.729  26.433  24.770  1.00  0.00     0.081 C 
ATOM     13  S   UNL A   1      30.581  25.906  25.928  1.00  0.00    -0.054 SA
ATOM     14  C   UNL A   1      32.543  25.290  24.279  1.00  0.00     0.266 C 
ATOM     15  C   UNL A   1      31.057  24.219  25.755  1.00  0.00     0.148 C 
ATOM     16  O   UNL A   1      33.451  25.352  23.481  1.00  0.00    -0.268 OA
ATOM     17  S   UNL A   1      30.323  22.992  26.622  1.00  0.00    -0.052 S 
BRANCH  11  18
ATOM     18  C   UNL A   1      31.147  28.879  24.497  1.00  0.00    -0.021 A 
ATOM     19  C   UNL A   1      31.492  31.995  26.659  1.00  0.00     0.044 C 
ATOM     20  C   UNL A   1      31.023  31.045  25.601  1.00  0.00    -0.051 A 
ATOM     21  C   UNL A   1      30.048  31.447  24.684  1.00  0.00     0.004 A 
ATOM     22  C   UNL A   1      31.576  29.763  25.493  1.00  0.00     0.011 A 
ATOM     23  C   UNL A   1      29.583  30.555  23.720  1.00  0.00     0.004 A 
ATOM     24  C   UNL A   1      30.100  29.255  23.642  1.00  0.00    -0.044 A 
ATOM     25  C   UNL A   1      29.579  28.314  22.601  1.00  0.00     0.045 C 
ENDBRANCH  11  18
ENDBRANCH   9  10
ENDBRANCH   6   9
ENDBRANCH   4   5
ENDBRANCH   3   4
ENDBRANCH   2   3
ENDBRANCH   1   2
BRANCH   1  26
ATOM     26  C   UNL A   1      39.033  20.503  25.213  1.00  0.00     0.021 C 
BRANCH  26  27
ATOM     27  C   UNL A   1      39.501  19.370  26.128  1.00  0.00     0.116 C 
BRANCH  27  28
ATOM     28  N   UNL A   1      40.879  18.938  25.851  1.00  0.00    -0.352 N 
ATOM     29  C   UNL A   1      42.065  19.638  25.708  1.00  0.00     0.251 C 
ATOM     30  H   UNL A   1      40.976  17.964  25.746  1.00  0.00     0.163 HD
ATOM     31  O   UNL A   1      42.996  19.116  25.097  1.00  0.00    -0.269 OA
BRANCH  29  32
ATOM     32  C   UNL A   1      42.239  20.982  26.303  1.00  0.00     0.039 A 
ATOM     33  C   UNL A   1      42.640  22.104  25.569  1.00  0.00     0.014 A 
ATOM     34  C   UNL A   1      42.031  21.118  27.663  1.00  0.00     0.014 A 
ATOM     35  C   UNL A   1      42.833  23.319  26.240  1.00  0.00     0.010 A 
ATOM     36  C   UNL A   1      41.947  22.339  28.258  1.00  0.00     0.010 A 
ATOM     37  C   UNL A   1      42.501  23.413  27.600  1.00  0.00    -0.014 A 
BRANCH  37  38
ATOM     38  C   UNL A   1      42.541  24.644  28.377  1.00  0.00     0.031 A 
ATOM     39  C   UNL A   1      41.322  25.449  28.172  1.00  0.00     0.074 A 
ATOM     40  C   UNL A   1      43.451  24.880  29.353  1.00  0.00     0.049 A 
ATOM     41  N   UNL A   1      41.223  26.492  27.417  1.00  0.00    -0.248 NA
ATOM     42  C   UNL A   1      40.030  24.916  28.630  1.00  0.00     0.031 C 
ATOM     43  C   UNL A   1      44.562  24.020  29.790  1.00  0.00     0.029 A 
ATOM     44  N   UNL A   1      43.505  25.901  30.259  1.00  0.00    -0.354 N 
ATOM     45  C   UNL A   1      39.909  26.912  27.569  1.00  0.00     0.074 A 
ATOM     46  C   UNL A   1      39.183  25.768  28.045  1.00  0.00     0.031 C 
ATOM     47  C   UNL A   1      45.062  24.473  30.967  1.00  0.00     0.029 A 
ATOM     48  C   UNL A   1      44.387  25.705  31.338  1.00  0.00     0.049 A 
ATOM     49  H   UNL A   1      42.966  26.718  30.163  1.00  0.00     0.167 HD
ATOM     50  C   UNL A   1      39.623  28.240  27.645  1.00  0.00     0.034 A 
ATOM     51  C   UNL A   1      44.496  26.497  32.444  1.00  0.00     0.034 A 
ATOM     52  C   UNL A   1      40.772  29.031  27.256  1.00  0.00     0.049 A 
ATOM     53  C   UNL A   1      44.028  27.829  31.969  1.00  0.00     0.074 A 
ATOM     54  C   UNL A   1      41.550  29.153  26.124  1.00  0.00     0.029 A 
ATOM     55  N   UNL A   1      41.514  29.532  28.301  1.00  0.00    -0.354 N 
ATOM     56  N   UNL A   1      44.682  28.540  31.094  1.00  0.00    -0.248 NA
ATOM     57  C   UNL A   1      42.650  28.246  32.192  1.00  0.00     0.031 C 
ATOM     58  C   UNL A   1      42.876  29.381  26.599  1.00  0.00     0.029 A 
ATOM     59  C   UNL A   1      42.844  29.454  27.992  1.00  0.00     0.049 A 
ATOM     60  H   UNL A   1      41.144  29.892  29.139  1.00  0.00     0.167 HD
ATOM     61  C   UNL A   1      43.693  29.132  30.325  1.00  0.00     0.074 A 
ATOM     62  C   UNL A   1      42.490  29.066  31.147  1.00  0.00     0.031 C 
ATOM     63  C   UNL A   1      43.888  29.335  28.990  1.00  0.00     0.034 A 
BRANCH  50  64
ATOM     64  C   UNL A   1      38.521  28.847  28.489  1.00  0.00     0.023 A 
ATOM     65  C   UNL A   1      37.614  29.702  27.822  1.00  0.00     0.012 A 
ATOM     66  C   UNL A   1      38.482  28.864  29.903  1.00  0.00     0.148 A 
ATOM     67  C   UNL A   1      36.771  30.572  28.520  1.00  0.00     0.002 A 
ATOM     68  C   UNL A   1      37.591  29.678  30.594  1.00  0.00     0.091 A 
ATOM     69  F   UNL A   1      39.395  28.207  30.617  1.00  0.00    -0.205 F 
ATOM     70  C   UNL A   1      36.755  30.558  29.908  1.00  0.00     0.022 A 
BRANCH  68  71
ATOM     71  S   UNL A   1      37.526  29.672  32.392  1.00  0.00     0.127 S 
ATOM     72  O   UNL A   1      38.780  30.338  32.731  1.00  0.00    -0.237 OA
ATOM     73  O   UNL A   1      36.316  30.451  32.651  1.00  0.00    -0.237 OA
ATOM     74  O   UNL A   1      37.427  28.270  32.778  1.00  0.00    -0.744 OA
ENDBRANCH  68  71
ENDBRANCH  50  64
BRANCH  51  75
ATOM     75  C   UNL A   1      44.906  26.313  33.882  1.00  0.00     0.023 A 
ATOM     76  C   UNL A   1      43.941  26.608  34.880  1.00  0.00     0.012 A 
ATOM     77  C   UNL A   1      46.067  25.639  34.322  1.00  0.00     0.148 A 
ATOM     78  C   UNL A   1      44.053  26.149  36.198  1.00  0.00     0.002 A 
ATOM     79  C   UNL A   1      46.173  25.167  35.642  1.00  0.00     0.091 A 
ATOM     80  F   UNL A   1      47.066  25.445  33.458  1.00  0.00    -0.205 F 
ATOM     81  C   UNL A   1      45.155  25.398  36.572  1.00  0.00     0.022 A 
BRANCH  79  82
ATOM     82  S   UNL A   1      47.596  24.240  36.254  1.00  0.00     0.127 S 
ATOM     83  O   UNL A   1      48.683  25.211  36.123  1.00  0.00    -0.237 OA
ATOM     84  O   UNL A   1      47.217  23.948  37.634  1.00  0.00    -0.237 OA
ATOM     85  O   UNL A   1      47.708  23.086  35.372  1.00  0.00    -0.744 OA
ENDBRANCH  79  82
ENDBRANCH  51  75
BRANCH  63  86
ATOM     86  C   UNL A   1      45.305  29.220  28.482  1.00  0.00     0.023 A 
ATOM     87  C   UNL A   1      46.261  30.246  28.638  1.00  0.00     0.012 A 
ATOM     88  C   UNL A   1      45.707  27.998  27.927  1.00  0.00     0.148 A 
ATOM     89  C   UNL A   1      47.581  30.065  28.217  1.00  0.00     0.002 A 
ATOM     90  C   UNL A   1      47.031  27.804  27.553  1.00  0.00     0.091 A 
ATOM     91  F   UNL A   1      44.785  27.033  27.786  1.00  0.00    -0.205 F 
ATOM     92  C   UNL A   1      47.969  28.839  27.686  1.00  0.00     0.022 A 
BRANCH  90  93
ATOM     93  S   UNL A   1      47.608  26.209  26.973  1.00  0.00     0.127 S 
ATOM     94  O   UNL A   1      46.811  26.017  25.763  1.00  0.00    -0.237 OA
ATOM     95  O   UNL A   1      49.031  26.455  26.738  1.00  0.00    -0.237 OA
ATOM     96  O   UNL A   1      47.341  25.271  28.058  1.00  0.00    -0.744 OA
ENDBRANCH  90  93
ENDBRANCH  63  86
ENDBRANCH  37  38
ENDBRANCH  29  32
ENDBRANCH  27  28
ENDBRANCH  26  27
ENDBRANCH   1  26
TORSDOF 18
ENDMDL
