MODEL 1
REMARK VINA RESULT:     -12.0      0.000      0.000
REMARK SMILES O=C(NCCCCCCNC(=O)[C@H]1CCCC[N@H+]1Cc1cccc2ccccc12)c1ccc(-c2c3nc(c(-c4cccc(S(=O)(=O)[O-])c4F)c4ccc([nH]4)c(-c4cccc(S(=O)(=O)[O-])c4F)c4nc(c(-c5cccc(S(=O)(=O)[O-])c5F)c5ccc2[nH]5)C=C4)C=C3)cc1
REMARK SMILES IDX 6 1 5 2 4 3 3 4 1 5 2 6 30 8 31 9 92 10 32 11 91 12 33 13
REMARK SMILES IDX 34 14 35 15 85 16 36 17 90 18 84 19 86 20 37 21 89 22 83 23
REMARK SMILES IDX 82 24 38 26 70 27 50 28 69 29 51 30 54 31 68 32 87 33 52 34
REMARK SMILES IDX 53 35 67 37 88 38 55 39 39 40 40 41 48 42 41 43 43 44 49 45
REMARK SMILES IDX 42 46 44 47 45 48 46 49 47 50 71 51 72 52 80 53 73 54 75 55
REMARK SMILES IDX 81 56 74 57 76 58 77 59 78 60 79 61 56 62 57 63 65 64 58 65
REMARK SMILES IDX 60 66 66 67 59 68 61 69 62 70 63 71 64 72 7 73 8 74 9 75
REMARK SMILES IDX 10 76 11 77 12 79 13 80 14 81 18 82 15 83 17 84 16 86 19 87
REMARK SMILES IDX 20 88 21 89 29 90 22 91 24 92 28 93 23 94 25 95 27 96 26 97
REMARK H PARENT 3 7 86 25 54 36 10 78 18 85
REMARK Flexibility Score: inf
ROOT
ATOM      1  C   UNL A   1      31.346  30.577  25.667  1.00  0.00     0.002 C 
ENDROOT
BRANCH   1   2
ATOM      2  C   UNL A   1      31.270  31.871  26.469  1.00  0.00     0.021 C 
BRANCH   2   3
ATOM      3  C   UNL A   1      32.599  32.462  26.915  1.00  0.00     0.116 C 
BRANCH   3   4
ATOM      4  N   UNL A   1      32.481  33.751  27.574  1.00  0.00    -0.352 N 
ATOM      5  O   UNL A   1      33.021  35.373  29.048  1.00  0.00    -0.269 OA
ATOM      6  C   UNL A   1      33.301  34.300  28.539  1.00  0.00     0.251 C 
ATOM      7  H   UNL A   1      31.717  34.305  27.295  1.00  0.00     0.163 HD
BRANCH   6   8
ATOM      8  C   UNL A   1      34.496  33.543  28.980  1.00  0.00     0.039 A 
ATOM      9  C   UNL A   1      34.362  32.356  29.704  1.00  0.00     0.014 A 
ATOM     10  C   UNL A   1      35.765  34.061  28.711  1.00  0.00     0.014 A 
ATOM     11  C   UNL A   1      35.478  31.786  30.303  1.00  0.00     0.010 A 
ATOM     12  C   UNL A   1      36.897  33.431  29.238  1.00  0.00     0.010 A 
ATOM     13  C   UNL A   1      36.761  32.316  30.080  1.00  0.00    -0.014 A 
BRANCH  13  14
ATOM     14  C   UNL A   1      37.940  31.661  30.705  1.00  0.00     0.031 A 
ATOM     15  C   UNL A   1      38.325  31.941  32.136  1.00  0.00     0.074 A 
ATOM     16  C   UNL A   1      38.665  30.794  29.971  1.00  0.00     0.049 A 
ATOM     17  N   UNL A   1      39.299  31.421  32.839  1.00  0.00    -0.248 NA
ATOM     18  C   UNL A   1      37.525  32.935  32.868  1.00  0.00     0.031 C 
ATOM     19  C   UNL A   1      38.418  30.477  28.562  1.00  0.00     0.029 A 
ATOM     20  N   UNL A   1      39.747  30.020  30.299  1.00  0.00    -0.354 N 
ATOM     21  C   UNL A   1      39.263  32.059  34.075  1.00  0.00     0.074 A 
ATOM     22  C   UNL A   1      38.170  33.007  34.025  1.00  0.00     0.031 C 
ATOM     23  C   UNL A   1      39.295  29.549  28.159  1.00  0.00     0.029 A 
ATOM     24  C   UNL A   1      40.200  29.242  29.261  1.00  0.00     0.049 A 
ATOM     25  H   UNL A   1      40.159  30.020  31.194  1.00  0.00     0.167 HD
ATOM     26  C   UNL A   1      40.059  31.863  35.155  1.00  0.00     0.034 A 
ATOM     27  C   UNL A   1      41.233  28.380  29.195  1.00  0.00     0.034 A 
ATOM     28  C   UNL A   1      41.112  30.883  35.216  1.00  0.00     0.049 A 
ATOM     29  C   UNL A   1      42.064  28.147  30.425  1.00  0.00     0.074 A 
ATOM     30  C   UNL A   1      41.924  30.558  36.289  1.00  0.00     0.029 A 
ATOM     31  N   UNL A   1      41.504  30.074  34.160  1.00  0.00    -0.354 N 
ATOM     32  N   UNL A   1      41.927  28.664  31.622  1.00  0.00    -0.248 NA
ATOM     33  C   UNL A   1      43.170  27.190  30.303  1.00  0.00     0.031 C 
ATOM     34  C   UNL A   1      42.819  29.563  35.876  1.00  0.00     0.029 A 
ATOM     35  C   UNL A   1      42.549  29.253  34.554  1.00  0.00     0.049 A 
ATOM     36  H   UNL A   1      41.099  30.082  33.263  1.00  0.00     0.167 HD
ATOM     37  C   UNL A   1      42.907  28.070  32.406  1.00  0.00     0.074 A 
ATOM     38  C   UNL A   1      43.615  27.137  31.552  1.00  0.00     0.031 C 
ATOM     39  C   UNL A   1      43.205  28.288  33.710  1.00  0.00     0.034 A 
BRANCH  26  40
ATOM     40  C   UNL A   1      39.801  32.700  36.383  1.00  0.00     0.023 A 
ATOM     41  C   UNL A   1      40.466  33.932  36.541  1.00  0.00     0.012 A 
ATOM     42  C   UNL A   1      38.850  32.302  37.345  1.00  0.00     0.148 A 
ATOM     43  C   UNL A   1      40.211  34.741  37.650  1.00  0.00     0.002 A 
ATOM     44  C   UNL A   1      38.572  33.131  38.425  1.00  0.00     0.091 A 
ATOM     45  F   UNL A   1      38.242  31.116  37.190  1.00  0.00    -0.205 F 
ATOM     46  C   UNL A   1      39.259  34.346  38.585  1.00  0.00     0.022 A 
BRANCH  44  47
ATOM     47  S   UNL A   1      37.303  32.746  39.638  1.00  0.00     0.127 S 
ATOM     48  O   UNL A   1      37.781  31.471  40.170  1.00  0.00    -0.237 OA
ATOM     49  O   UNL A   1      37.410  33.871  40.567  1.00  0.00    -0.237 OA
ATOM     50  O   UNL A   1      36.050  32.689  38.900  1.00  0.00    -0.744 OA
ENDBRANCH  44  47
ENDBRANCH  26  40
BRANCH  27  51
ATOM     51  C   UNL A   1      41.487  27.625  27.936  1.00  0.00     0.023 A 
ATOM     52  C   UNL A   1      42.003  28.306  26.817  1.00  0.00     0.012 A 
ATOM     53  C   UNL A   1      41.270  26.237  27.857  1.00  0.00     0.148 A 
ATOM     54  C   UNL A   1      42.275  27.621  25.632  1.00  0.00     0.002 A 
ATOM     55  C   UNL A   1      41.598  25.550  26.695  1.00  0.00     0.091 A 
ATOM     56  F   UNL A   1      40.765  25.611  28.929  1.00  0.00    -0.205 F 
ATOM     57  C   UNL A   1      42.084  26.243  25.575  1.00  0.00     0.022 A 
BRANCH  55  58
ATOM     58  S   UNL A   1      41.521  23.759  26.586  1.00  0.00     0.127 S 
ATOM     59  O   UNL A   1      40.081  23.529  26.489  1.00  0.00    -0.237 OA
ATOM     60  O   UNL A   1      42.270  23.496  25.356  1.00  0.00    -0.237 OA
ATOM     61  O   UNL A   1      42.165  23.267  27.796  1.00  0.00    -0.744 OA
ENDBRANCH  55  58
ENDBRANCH  27  51
BRANCH  39  62
ATOM     62  C   UNL A   1      44.319  27.473  34.311  1.00  0.00     0.023 A 
ATOM     63  C   UNL A   1      45.651  27.915  34.200  1.00  0.00     0.012 A 
ATOM     64  C   UNL A   1      44.038  26.297  35.034  1.00  0.00     0.148 A 
ATOM     65  C   UNL A   1      46.692  27.180  34.767  1.00  0.00     0.002 A 
ATOM     66  C   UNL A   1      45.074  25.595  35.638  1.00  0.00     0.091 A 
ATOM     67  F   UNL A   1      42.766  25.878  35.108  1.00  0.00    -0.205 F 
ATOM     68  C   UNL A   1      46.402  26.028  35.495  1.00  0.00     0.022 A 
BRANCH  66  69
ATOM     69  S   UNL A   1      44.775  24.157  36.671  1.00  0.00     0.127 S 
ATOM     70  O   UNL A   1      44.158  23.231  35.723  1.00  0.00    -0.237 OA
ATOM     71  O   UNL A   1      46.126  23.786  37.093  1.00  0.00    -0.237 OA
ATOM     72  O   UNL A   1      43.915  24.618  37.752  1.00  0.00    -0.744 OA
ENDBRANCH  66  69
ENDBRANCH  39  62
ENDBRANCH  13  14
ENDBRANCH   6   8
ENDBRANCH   3   4
ENDBRANCH   2   3
ENDBRANCH   1   2
BRANCH   1  73
ATOM     73  C   UNL A   1      32.188  29.445  26.261  1.00  0.00     0.002 C 
BRANCH  73  74
ATOM     74  C   UNL A   1      31.458  28.183  26.737  1.00  0.00     0.021 C 
BRANCH  74  75
ATOM     75  C   UNL A   1      32.234  26.869  26.712  1.00  0.00     0.116 C 
BRANCH  75  76
ATOM     76  N   UNL A   1      31.400  25.693  26.656  1.00  0.00    -0.351 N 
ATOM     77  C   UNL A   1      31.842  24.399  26.614  1.00  0.00     0.278 C 
ATOM     78  H   UNL A   1      30.426  25.835  26.646  1.00  0.00     0.163 HD
ATOM     79  O   UNL A   1      31.221  23.621  27.340  1.00  0.00    -0.268 OA
BRANCH  77  80
ATOM     80  C   UNL A   1      33.008  23.986  25.656  1.00  0.00     0.274 C 
ATOM     81  C   UNL A   1      34.216  23.384  26.386  1.00  0.00     0.076 C 
ATOM     82  N   UNL A   1      32.622  22.977  24.634  1.00  0.00    -0.321 N 
ATOM     83  C   UNL A   1      33.821  22.115  27.127  1.00  0.00     0.012 C 
ATOM     84  C   UNL A   1      32.173  21.705  25.198  1.00  0.00     0.263 C 
ATOM     85  H   UNL A   1      33.516  22.761  24.193  1.00  0.00     0.349 HD
ATOM     86  C   UNL A   1      33.209  21.104  26.162  1.00  0.00     0.062 C 
BRANCH  82  87
ATOM     87  C   UNL A   1      31.887  23.454  23.456  1.00  0.00     0.300 C 
BRANCH  87  88
ATOM     88  C   UNL A   1      32.074  24.895  23.023  1.00  0.00     0.014 A 
ATOM     89  C   UNL A   1      33.316  25.238  22.447  1.00  0.00     0.010 A 
ATOM     90  C   UNL A   1      31.081  25.905  23.190  1.00  0.00    -0.010 A 
ATOM     91  C   UNL A   1      33.626  26.556  22.137  1.00  0.00     0.001 A 
ATOM     92  C   UNL A   1      31.417  27.248  22.868  1.00  0.00    -0.018 A 
ATOM     93  C   UNL A   1      29.763  25.667  23.652  1.00  0.00     0.009 A 
ATOM     94  C   UNL A   1      32.689  27.555  22.367  1.00  0.00     0.009 A 
ATOM     95  C   UNL A   1      30.477  28.277  23.045  1.00  0.00     0.009 A 
ATOM     96  C   UNL A   1      28.829  26.699  23.794  1.00  0.00     0.001 A 
ATOM     97  C   UNL A   1      29.189  28.005  23.500  1.00  0.00     0.001 A 
ENDBRANCH  87  88
ENDBRANCH  82  87
ENDBRANCH  77  80
ENDBRANCH  75  76
ENDBRANCH  74  75
ENDBRANCH  73  74
ENDBRANCH   1  73
TORSDOF 18
ENDMDL
MODEL 2
REMARK VINA RESULT:     -11.8      0.802      7.470
REMARK SMILES O=C(NCCCCCCNC(=O)[C@H]1CCCC[N@H+]1Cc1cccc2ccccc12)c1ccc(-c2c3nc(c(-c4cccc(S(=O)(=O)[O-])c4F)c4ccc([nH]4)c(-c4cccc(S(=O)(=O)[O-])c4F)c4nc(c(-c5cccc(S(=O)(=O)[O-])c5F)c5ccc2[nH]5)C=C4)C=C3)cc1
REMARK SMILES IDX 6 1 5 2 4 3 3 4 1 5 2 6 30 8 31 9 92 10 32 11 91 12 33 13
REMARK SMILES IDX 34 14 35 15 85 16 36 17 90 18 84 19 86 20 37 21 89 22 83 23
REMARK SMILES IDX 82 24 38 26 70 27 50 28 69 29 51 30 54 31 68 32 87 33 52 34
REMARK SMILES IDX 53 35 67 37 88 38 55 39 39 40 40 41 48 42 41 43 43 44 49 45
REMARK SMILES IDX 42 46 44 47 45 48 46 49 47 50 71 51 72 52 80 53 73 54 75 55
REMARK SMILES IDX 81 56 74 57 76 58 77 59 78 60 79 61 56 62 57 63 65 64 58 65
REMARK SMILES IDX 60 66 66 67 59 68 61 69 62 70 63 71 64 72 7 73 8 74 9 75
REMARK SMILES IDX 10 76 11 77 12 79 13 80 14 81 18 82 15 83 17 84 16 86 19 87
REMARK SMILES IDX 20 88 21 89 29 90 22 91 24 92 28 93 23 94 25 95 27 96 26 97
REMARK H PARENT 3 7 86 25 54 36 10 78 18 85
REMARK Flexibility Score: inf
ROOT
ATOM      1  C   UNL A   1      31.759  30.513  26.010  1.00  0.00     0.002 C 
ENDROOT
BRANCH   1   2
ATOM      2  C   UNL A   1      31.475  31.842  26.702  1.00  0.00     0.021 C 
BRANCH   2   3
ATOM      3  C   UNL A   1      32.688  32.602  27.216  1.00  0.00     0.116 C 
BRANCH   3   4
ATOM      4  N   UNL A   1      32.415  33.987  27.557  1.00  0.00    -0.352 N 
ATOM      5  O   UNL A   1      32.649  35.914  28.710  1.00  0.00    -0.269 OA
ATOM      6  C   UNL A   1      33.049  34.782  28.491  1.00  0.00     0.251 C 
ATOM      7  H   UNL A   1      31.684  34.415  27.056  1.00  0.00     0.163 HD
BRANCH   6   8
ATOM      8  C   UNL A   1      34.187  34.220  29.256  1.00  0.00     0.039 A 
ATOM      9  C   UNL A   1      35.503  34.433  28.837  1.00  0.00     0.014 A 
ATOM     10  C   UNL A   1      33.927  33.424  30.374  1.00  0.00     0.014 A 
ATOM     11  C   UNL A   1      36.537  33.715  29.425  1.00  0.00     0.010 A 
ATOM     12  C   UNL A   1      34.982  32.776  31.024  1.00  0.00     0.010 A 
ATOM     13  C   UNL A   1      36.291  32.876  30.526  1.00  0.00    -0.014 A 
BRANCH  13  14
ATOM     14  C   UNL A   1      37.424  32.149  31.157  1.00  0.00     0.031 A 
ATOM     15  C   UNL A   1      38.268  31.179  30.371  1.00  0.00     0.074 A 
ATOM     16  C   UNL A   1      37.698  32.381  32.456  1.00  0.00     0.049 A 
ATOM     17  N   UNL A   1      39.315  30.498  30.764  1.00  0.00    -0.248 NA
ATOM     18  C   UNL A   1      37.887  30.932  28.972  1.00  0.00     0.031 C 
ATOM     19  C   UNL A   1      36.923  33.263  33.333  1.00  0.00     0.029 A 
ATOM     20  N   UNL A   1      38.696  31.903  33.266  1.00  0.00    -0.354 N 
ATOM     21  C   UNL A   1      39.686  29.705  29.683  1.00  0.00     0.074 A 
ATOM     22  C   UNL A   1      38.750  29.989  28.616  1.00  0.00     0.031 C 
ATOM     23  C   UNL A   1      37.496  33.294  34.544  1.00  0.00     0.029 A 
ATOM     24  C   UNL A   1      38.645  32.395  34.548  1.00  0.00     0.049 A 
ATOM     25  H   UNL A   1      39.383  31.269  32.957  1.00  0.00     0.167 HD
ATOM     26  C   UNL A   1      40.719  28.833  29.584  1.00  0.00     0.034 A 
ATOM     27  C   UNL A   1      39.429  32.150  35.614  1.00  0.00     0.034 A 
ATOM     28  C   UNL A   1      41.676  28.592  30.632  1.00  0.00     0.049 A 
ATOM     29  C   UNL A   1      40.596  31.216  35.458  1.00  0.00     0.074 A 
ATOM     30  C   UNL A   1      42.799  27.783  30.602  1.00  0.00     0.029 A 
ATOM     31  N   UNL A   1      41.623  29.153  31.899  1.00  0.00    -0.354 N 
ATOM     32  N   UNL A   1      41.006  30.582  34.387  1.00  0.00    -0.248 NA
ATOM     33  C   UNL A   1      41.426  30.991  36.648  1.00  0.00     0.031 C 
ATOM     34  C   UNL A   1      43.415  27.843  31.858  1.00  0.00     0.029 A 
ATOM     35  C   UNL A   1      42.690  28.706  32.661  1.00  0.00     0.049 A 
ATOM     36  H   UNL A   1      40.929  29.778  32.210  1.00  0.00     0.167 HD
ATOM     37  C   UNL A   1      42.160  29.908  34.763  1.00  0.00     0.074 A 
ATOM     38  C   UNL A   1      42.397  30.233  36.156  1.00  0.00     0.031 C 
ATOM     39  C   UNL A   1      42.945  29.083  34.028  1.00  0.00     0.034 A 
BRANCH  26  40
ATOM     40  C   UNL A   1      40.896  28.092  28.282  1.00  0.00     0.023 A 
ATOM     41  C   UNL A   1      41.523  28.731  27.194  1.00  0.00     0.012 A 
ATOM     42  C   UNL A   1      40.508  26.742  28.158  1.00  0.00     0.148 A 
ATOM     43  C   UNL A   1      41.734  28.050  25.994  1.00  0.00     0.002 A 
ATOM     44  C   UNL A   1      40.758  26.058  26.974  1.00  0.00     0.091 A 
ATOM     45  F   UNL A   1      39.894  26.156  29.196  1.00  0.00    -0.205 F 
ATOM     46  C   UNL A   1      41.361  26.713  25.887  1.00  0.00     0.022 A 
BRANCH  44  47
ATOM     47  S   UNL A   1      40.387  24.312  26.770  1.00  0.00     0.127 S 
ATOM     48  O   UNL A   1      38.965  24.350  26.430  1.00  0.00    -0.237 OA
ATOM     49  O   UNL A   1      41.266  23.935  25.663  1.00  0.00    -0.237 OA
ATOM     50  O   UNL A   1      40.713  23.684  28.041  1.00  0.00    -0.744 OA
ENDBRANCH  44  47
ENDBRANCH  26  40
BRANCH  27  51
ATOM     51  C   UNL A   1      39.172  32.856  36.901  1.00  0.00     0.023 A 
ATOM     52  C   UNL A   1      39.835  34.070  37.165  1.00  0.00     0.012 A 
ATOM     53  C   UNL A   1      38.243  32.362  37.835  1.00  0.00     0.148 A 
ATOM     54  C   UNL A   1      39.595  34.766  38.350  1.00  0.00     0.002 A 
ATOM     55  C   UNL A   1      37.965  33.089  38.986  1.00  0.00     0.091 A 
ATOM     56  F   UNL A   1      37.634  31.197  37.571  1.00  0.00    -0.205 F 
ATOM     57  C   UNL A   1      38.653  34.283  39.253  1.00  0.00     0.022 A 
BRANCH  55  58
ATOM     58  S   UNL A   1      36.664  32.614  40.128  1.00  0.00     0.127 S 
ATOM     59  O   UNL A   1      37.182  31.358  40.664  1.00  0.00    -0.237 OA
ATOM     60  O   UNL A   1      36.664  33.733  41.072  1.00  0.00    -0.237 OA
ATOM     61  O   UNL A   1      35.455  32.512  39.322  1.00  0.00    -0.744 OA
ENDBRANCH  55  58
ENDBRANCH  27  51
BRANCH  39  62
ATOM     62  C   UNL A   1      44.162  28.505  34.699  1.00  0.00     0.023 A 
ATOM     63  C   UNL A   1      45.382  29.209  34.668  1.00  0.00     0.012 A 
ATOM     64  C   UNL A   1      44.083  27.290  35.407  1.00  0.00     0.148 A 
ATOM     65  C   UNL A   1      46.514  28.694  35.300  1.00  0.00     0.002 A 
ATOM     66  C   UNL A   1      45.201  26.807  36.075  1.00  0.00     0.091 A 
ATOM     67  F   UNL A   1      42.920  26.622  35.405  1.00  0.00    -0.205 F 
ATOM     68  C   UNL A   1      46.420  27.501  36.012  1.00  0.00     0.022 A 
BRANCH  66  69
ATOM     69  S   UNL A   1      45.138  25.328  37.093  1.00  0.00     0.127 S 
ATOM     70  O   UNL A   1      44.155  25.706  38.107  1.00  0.00    -0.237 OA
ATOM     71  O   UNL A   1      44.675  24.314  36.144  1.00  0.00    -0.237 OA
ATOM     72  O   UNL A   1      46.496  25.122  37.576  1.00  0.00    -0.744 OA
ENDBRANCH  66  69
ENDBRANCH  39  62
ENDBRANCH  13  14
ENDBRANCH   6   8
ENDBRANCH   3   4
ENDBRANCH   2   3
ENDBRANCH   1   2
BRANCH   1  73
ATOM     73  C   UNL A   1      32.125  29.330  26.910  1.00  0.00     0.002 C 
BRANCH  73  74
ATOM     74  C   UNL A   1      31.361  28.016  26.712  1.00  0.00     0.021 C 
BRANCH  74  75
ATOM     75  C   UNL A   1      32.173  26.724  26.692  1.00  0.00     0.116 C 
BRANCH  75  76
ATOM     76  N   UNL A   1      31.373  25.524  26.718  1.00  0.00    -0.351 N 
ATOM     77  C   UNL A   1      31.850  24.242  26.685  1.00  0.00     0.278 C 
ATOM     78  H   UNL A   1      30.396  25.637  26.763  1.00  0.00     0.163 HD
ATOM     79  O   UNL A   1      31.297  23.468  27.468  1.00  0.00    -0.268 OA
BRANCH  77  80
ATOM     80  C   UNL A   1      32.970  23.835  25.670  1.00  0.00     0.274 C 
ATOM     81  C   UNL A   1      34.194  23.193  26.335  1.00  0.00     0.076 C 
ATOM     82  N   UNL A   1      32.524  22.861  24.639  1.00  0.00    -0.321 N 
ATOM     83  C   UNL A   1      33.806  21.911  27.058  1.00  0.00     0.012 C 
ATOM     84  C   UNL A   1      32.075  21.581  25.187  1.00  0.00     0.263 C 
ATOM     85  H   UNL A   1      33.396  22.641  24.156  1.00  0.00     0.349 HD
ATOM     86  C   UNL A   1      33.138  20.937  26.092  1.00  0.00     0.062 C 
BRANCH  82  87
ATOM     87  C   UNL A   1      31.752  23.381  23.504  1.00  0.00     0.300 C 
BRANCH  87  88
ATOM     88  C   UNL A   1      31.996  24.811  23.060  1.00  0.00     0.014 A 
ATOM     89  C   UNL A   1      33.254  25.102  22.491  1.00  0.00     0.010 A 
ATOM     90  C   UNL A   1      31.039  25.859  23.210  1.00  0.00    -0.010 A 
ATOM     91  C   UNL A   1      33.616  26.405  22.173  1.00  0.00     0.001 A 
ATOM     92  C   UNL A   1      31.428  27.185  22.879  1.00  0.00    -0.018 A 
ATOM     93  C   UNL A   1      29.710  25.674  23.663  1.00  0.00     0.009 A 
ATOM     94  C   UNL A   1      32.714  27.440  22.387  1.00  0.00     0.009 A 
ATOM     95  C   UNL A   1      30.525  28.250  23.040  1.00  0.00     0.009 A 
ATOM     96  C   UNL A   1      28.814  26.741  23.789  1.00  0.00     0.001 A 
ATOM     97  C   UNL A   1      29.225  28.030  23.486  1.00  0.00     0.001 A 
ENDBRANCH  87  88
ENDBRANCH  82  87
ENDBRANCH  77  80
ENDBRANCH  75  76
ENDBRANCH  74  75
ENDBRANCH  73  74
ENDBRANCH   1  73
TORSDOF 18
ENDMDL
MODEL 3
REMARK VINA RESULT:     -11.7      5.496     10.696
REMARK SMILES O=C(NCCCCCCNC(=O)[C@H]1CCCC[N@H+]1Cc1cccc2ccccc12)c1ccc(-c2c3nc(c(-c4cccc(S(=O)(=O)[O-])c4F)c4ccc([nH]4)c(-c4cccc(S(=O)(=O)[O-])c4F)c4nc(c(-c5cccc(S(=O)(=O)[O-])c5F)c5ccc2[nH]5)C=C4)C=C3)cc1
REMARK SMILES IDX 6 1 5 2 4 3 3 4 1 5 2 6 30 8 31 9 92 10 32 11 91 12 33 13
REMARK SMILES IDX 34 14 35 15 85 16 36 17 90 18 84 19 86 20 37 21 89 22 83 23
REMARK SMILES IDX 82 24 38 26 70 27 50 28 69 29 51 30 54 31 68 32 87 33 52 34
REMARK SMILES IDX 53 35 67 37 88 38 55 39 39 40 40 41 48 42 41 43 43 44 49 45
REMARK SMILES IDX 42 46 44 47 45 48 46 49 47 50 71 51 72 52 80 53 73 54 75 55
REMARK SMILES IDX 81 56 74 57 76 58 77 59 78 60 79 61 56 62 57 63 65 64 58 65
REMARK SMILES IDX 60 66 66 67 59 68 61 69 62 70 63 71 64 72 7 73 8 74 9 75
REMARK SMILES IDX 10 76 11 77 12 79 13 80 14 81 18 82 15 83 17 84 16 86 19 87
REMARK SMILES IDX 20 88 21 89 29 90 22 91 24 92 28 93 23 94 25 95 27 96 26 97
REMARK H PARENT 3 7 86 25 54 36 10 78 18 85
REMARK Flexibility Score: inf
ROOT
ATOM      1  C   UNL A   1      36.345  20.460  24.933  1.00  0.00     0.002 C 
ENDROOT
BRANCH   1   2
ATOM      2  C   UNL A   1      37.755  19.888  24.845  1.00  0.00     0.021 C 
BRANCH   2   3
ATOM      3  C   UNL A   1      38.790  20.512  25.771  1.00  0.00     0.116 C 
BRANCH   3   4
ATOM      4  N   UNL A   1      39.982  19.702  25.954  1.00  0.00    -0.352 N 
ATOM      5  O   UNL A   1      42.148  19.300  26.444  1.00  0.00    -0.269 OA
ATOM      6  C   UNL A   1      41.222  20.093  26.417  1.00  0.00     0.251 C 
ATOM      7  H   UNL A   1      39.894  18.751  25.717  1.00  0.00     0.163 HD
BRANCH   6   8
ATOM      8  C   UNL A   1      41.420  21.502  26.834  1.00  0.00     0.039 A 
ATOM      9  C   UNL A   1      41.438  22.530  25.887  1.00  0.00     0.014 A 
ATOM     10  C   UNL A   1      41.646  21.786  28.182  1.00  0.00     0.014 A 
ATOM     11  C   UNL A   1      41.852  23.803  26.262  1.00  0.00     0.010 A 
ATOM     12  C   UNL A   1      41.970  23.089  28.572  1.00  0.00     0.010 A 
ATOM     13  C   UNL A   1      42.124  24.100  27.609  1.00  0.00    -0.014 A 
BRANCH  13  14
ATOM     14  C   UNL A   1      42.529  25.480  27.984  1.00  0.00     0.031 A 
ATOM     15  C   UNL A   1      43.951  25.952  27.822  1.00  0.00     0.074 A 
ATOM     16  C   UNL A   1      41.592  26.321  28.467  1.00  0.00     0.049 A 
ATOM     17  N   UNL A   1      44.455  27.135  28.064  1.00  0.00    -0.248 NA
ATOM     18  C   UNL A   1      44.937  24.973  27.338  1.00  0.00     0.031 C 
ATOM     19  C   UNL A   1      40.192  25.965  28.712  1.00  0.00     0.029 A 
ATOM     20  N   UNL A   1      41.668  27.639  28.835  1.00  0.00    -0.354 N 
ATOM     21  C   UNL A   1      45.819  27.031  27.814  1.00  0.00     0.074 A 
ATOM     22  C   UNL A   1      46.066  25.666  27.401  1.00  0.00     0.031 C 
ATOM     23  C   UNL A   1      39.533  27.046  29.151  1.00  0.00     0.029 A 
ATOM     24  C   UNL A   1      40.471  28.156  29.270  1.00  0.00     0.049 A 
ATOM     25  H   UNL A   1      42.499  28.164  28.790  1.00  0.00     0.167 HD
ATOM     26  C   UNL A   1      46.775  27.988  27.905  1.00  0.00     0.034 A 
ATOM     27  C   UNL A   1      40.159  29.386  29.721  1.00  0.00     0.034 A 
ATOM     28  C   UNL A   1      46.516  29.357  28.268  1.00  0.00     0.049 A 
ATOM     29  C   UNL A   1      41.230  30.438  29.763  1.00  0.00     0.074 A 
ATOM     30  C   UNL A   1      47.405  30.417  28.317  1.00  0.00     0.029 A 
ATOM     31  N   UNL A   1      45.280  29.857  28.647  1.00  0.00    -0.354 N 
ATOM     32  N   UNL A   1      42.484  30.352  29.393  1.00  0.00    -0.248 NA
ATOM     33  C   UNL A   1      40.835  31.765  30.253  1.00  0.00     0.031 C 
ATOM     34  C   UNL A   1      46.708  31.554  28.743  1.00  0.00     0.029 A 
ATOM     35  C   UNL A   1      45.381  31.208  28.937  1.00  0.00     0.049 A 
ATOM     36  H   UNL A   1      44.451  29.328  28.702  1.00  0.00     0.167 HD
ATOM     37  C   UNL A   1      43.022  31.619  29.573  1.00  0.00     0.074 A 
ATOM     38  C   UNL A   1      41.948  32.461  30.062  1.00  0.00     0.031 C 
ATOM     39  C   UNL A   1      44.292  32.045  29.367  1.00  0.00     0.034 A 
BRANCH  26  40
ATOM     40  C   UNL A   1      48.195  27.603  27.573  1.00  0.00     0.023 A 
ATOM     41  C   UNL A   1      49.038  27.100  28.584  1.00  0.00     0.012 A 
ATOM     42  C   UNL A   1      48.673  27.669  26.248  1.00  0.00     0.148 A 
ATOM     43  C   UNL A   1      50.342  26.700  28.290  1.00  0.00     0.002 A 
ATOM     44  C   UNL A   1      49.959  27.230  25.955  1.00  0.00     0.091 A 
ATOM     45  F   UNL A   1      47.864  28.169  25.302  1.00  0.00    -0.205 F 
ATOM     46  C   UNL A   1      50.798  26.754  26.976  1.00  0.00     0.022 A 
BRANCH  44  47
ATOM     47  S   UNL A   1      50.606  27.187  24.279  1.00  0.00     0.127 S 
ATOM     48  O   UNL A   1      49.553  26.460  23.573  1.00  0.00    -0.237 OA
ATOM     49  O   UNL A   1      50.694  28.609  23.944  1.00  0.00    -0.237 OA
ATOM     50  O   UNL A   1      51.891  26.507  24.365  1.00  0.00    -0.744 OA
ENDBRANCH  44  47
ENDBRANCH  26  40
BRANCH  27  51
ATOM     51  C   UNL A   1      38.753  29.699  30.102  1.00  0.00     0.023 A 
ATOM     52  C   UNL A   1      38.326  29.459  31.422  1.00  0.00     0.012 A 
ATOM     53  C   UNL A   1      37.856  30.276  29.183  1.00  0.00     0.148 A 
ATOM     54  C   UNL A   1      37.023  29.766  31.813  1.00  0.00     0.002 A 
ATOM     55  C   UNL A   1      36.578  30.633  29.595  1.00  0.00     0.091 A 
ATOM     56  F   UNL A   1      38.277  30.482  27.927  1.00  0.00    -0.205 F 
ATOM     57  C   UNL A   1      36.154  30.363  30.905  1.00  0.00     0.022 A 
BRANCH  55  58
ATOM     58  S   UNL A   1      35.447  31.537  28.532  1.00  0.00     0.127 S 
ATOM     59  O   UNL A   1      34.993  30.489  27.620  1.00  0.00    -0.237 OA
ATOM     60  O   UNL A   1      34.439  32.002  29.485  1.00  0.00    -0.237 OA
ATOM     61  O   UNL A   1      36.241  32.601  27.933  1.00  0.00    -0.744 OA
ENDBRANCH  55  58
ENDBRANCH  27  51
BRANCH  39  62
ATOM     62  C   UNL A   1      44.585  33.499  29.628  1.00  0.00     0.023 A 
ATOM     63  C   UNL A   1      44.935  33.923  30.924  1.00  0.00     0.012 A 
ATOM     64  C   UNL A   1      44.567  34.435  28.575  1.00  0.00     0.148 A 
ATOM     65  C   UNL A   1      45.227  35.263  31.178  1.00  0.00     0.002 A 
ATOM     66  C   UNL A   1      44.907  35.759  28.825  1.00  0.00     0.091 A 
ATOM     67  F   UNL A   1      44.208  34.018  27.353  1.00  0.00    -0.205 F 
ATOM     68  C   UNL A   1      45.225  36.177  30.127  1.00  0.00     0.022 A 
BRANCH  66  69
ATOM     69  S   UNL A   1      45.019  36.977  27.509  1.00  0.00     0.127 S 
ATOM     70  O   UNL A   1      43.633  37.049  27.050  1.00  0.00    -0.237 OA
ATOM     71  O   UNL A   1      45.488  38.167  28.222  1.00  0.00    -0.237 OA
ATOM     72  O   UNL A   1      45.974  36.438  26.551  1.00  0.00    -0.744 OA
ENDBRANCH  66  69
ENDBRANCH  39  62
ENDBRANCH  13  14
ENDBRANCH   6   8
ENDBRANCH   3   4
ENDBRANCH   2   3
ENDBRANCH   1   2
BRANCH   1  73
ATOM     73  C   UNL A   1      36.224  21.974  25.127  1.00  0.00     0.002 C 
BRANCH  73  74
ATOM     74  C   UNL A   1      35.876  22.828  23.902  1.00  0.00     0.021 C 
BRANCH  74  75
ATOM     75  C   UNL A   1      35.001  24.057  24.126  1.00  0.00     0.116 C 
BRANCH  75  76
ATOM     76  N   UNL A   1      34.265  24.478  22.958  1.00  0.00    -0.351 N 
ATOM     77  C   UNL A   1      33.666  25.696  22.785  1.00  0.00     0.278 C 
ATOM     78  H   UNL A   1      34.187  23.831  22.221  1.00  0.00     0.163 HD
ATOM     79  O   UNL A   1      33.829  26.193  21.669  1.00  0.00    -0.268 OA
BRANCH  77  80
ATOM     80  C   UNL A   1      32.804  26.330  23.927  1.00  0.00     0.274 C 
ATOM     81  C   UNL A   1      33.227  27.760  24.288  1.00  0.00     0.076 C 
ATOM     82  N   UNL A   1      31.354  26.414  23.613  1.00  0.00    -0.321 N 
ATOM     83  C   UNL A   1      33.073  28.688  23.092  1.00  0.00     0.012 C 
ATOM     84  C   UNL A   1      31.046  27.244  22.448  1.00  0.00     0.263 C 
ATOM     85  H   UNL A   1      30.990  26.942  24.407  1.00  0.00     0.349 HD
ATOM     86  C   UNL A   1      31.637  28.658  22.576  1.00  0.00     0.062 C 
BRANCH  82  87
ATOM     87  C   UNL A   1      30.557  25.190  23.759  1.00  0.00     0.300 C 
BRANCH  87  88
ATOM     88  C   UNL A   1      31.021  24.140  24.751  1.00  0.00     0.014 A 
ATOM     89  C   UNL A   1      30.938  24.470  26.120  1.00  0.00     0.010 A 
ATOM     90  C   UNL A   1      31.549  22.871  24.370  1.00  0.00    -0.010 A 
ATOM     91  C   UNL A   1      31.456  23.627  27.096  1.00  0.00     0.001 A 
ATOM     92  C   UNL A   1      32.074  22.023  25.382  1.00  0.00    -0.018 A 
ATOM     93  C   UNL A   1      31.583  22.382  23.041  1.00  0.00     0.009 A 
ATOM     94  C   UNL A   1      32.038  22.423  26.724  1.00  0.00     0.009 A 
ATOM     95  C   UNL A   1      32.629  20.777  25.046  1.00  0.00     0.009 A 
ATOM     96  C   UNL A   1      32.112  21.125  22.726  1.00  0.00     0.001 A 
ATOM     97  C   UNL A   1      32.644  20.327  23.728  1.00  0.00     0.001 A 
ENDBRANCH  87  88
ENDBRANCH  82  87
ENDBRANCH  77  80
ENDBRANCH  75  76
ENDBRANCH  74  75
ENDBRANCH  73  74
ENDBRANCH   1  73
TORSDOF 18
ENDMDL
