MODEL 1
REMARK VINA RESULT:     -12.9      0.000      0.000
REMARK SMILES C[N@@H+]1CCN(C(=O)c2ccc3[nH]c4c(c3c2)CSCC4)C[C@H]1C(=O)NCCCCCCNC(=O)c1ccc(-c2c3nc(c(-c4cccc(S(=O)(=O)[O-])c4F)c4ccc([nH]4)c(-c4cccc(S(=O)(=O)[O-])c4F)c4nc(c(-c5cccc(S(=O)(=O)[O-])c5F)c5ccc2[nH]5)C=C4)C=C3)cc1
REMARK SMILES IDX 29 1 28 2 27 3 26 4 25 5 23 6 24 7 22 9 1 10 2 11 3 12 4 14
REMARK SMILES IDX 21 15 5 16 6 17 7 18 8 19 9 20 16 21 10 22 15 23 11 24 14 25
REMARK SMILES IDX 12 26 13 27 17 28 20 30 18 31 19 32 30 33 31 34 32 35 33 36
REMARK SMILES IDX 34 38 35 39 36 40 97 41 37 42 96 43 38 44 39 45 40 46 90 47
REMARK SMILES IDX 41 48 95 49 89 50 91 51 42 52 94 53 88 54 87 55 43 57 75 58
REMARK SMILES IDX 55 59 74 60 56 61 59 62 73 63 92 64 57 65 58 66 72 68 93 69
REMARK SMILES IDX 60 70 44 71 45 72 53 73 46 74 48 75 54 76 47 77 49 78 50 79
REMARK SMILES IDX 51 80 52 81 76 82 77 83 85 84 78 85 80 86 86 87 79 88 81 89
REMARK SMILES IDX 82 90 83 91 84 92 61 93 62 94 70 95 63 96 65 97 71 98 64 99
REMARK SMILES IDX 66 100 67 101 68 102 69 103
REMARK H PARENT 25 8 2 13 12 29 32 37 91 56 59 67
REMARK Flexibility Score: inf
ROOT
ATOM      1  C   UNL A   1      40.729  21.323  27.274  1.00  0.00     0.002 C 
ENDROOT
BRANCH   1   2
ATOM      2  C   UNL A   1      39.684  22.319  26.768  1.00  0.00     0.002 C 
BRANCH   2   3
ATOM      3  C   UNL A   1      38.706  21.767  25.727  1.00  0.00     0.021 C 
BRANCH   3   4
ATOM      4  C   UNL A   1      37.504  22.666  25.457  1.00  0.00     0.116 C 
BRANCH   4   5
ATOM      5  N   UNL A   1      36.460  22.470  26.445  1.00  0.00    -0.351 N 
ATOM      6  C   UNL A   1      35.106  22.520  26.296  1.00  0.00     0.280 C 
ATOM      7  O   UNL A   1      34.403  22.398  27.305  1.00  0.00    -0.268 OA
ATOM      8  H   UNL A   1      36.775  22.270  27.357  1.00  0.00     0.163 HD
BRANCH   6   9
ATOM      9  C   UNL A   1      34.459  22.676  24.912  1.00  0.00     0.293 C 
ATOM     10  C   UNL A   1      33.793  20.326  24.758  1.00  0.00     0.333 C 
ATOM     11  N   UNL A   1      33.333  21.716  24.692  1.00  0.00    -0.324 N 
ATOM     12  C   UNL A   1      32.718  21.985  23.372  1.00  0.00     0.284 C 
ATOM     13  H   UNL A   1      32.643  21.849  25.431  1.00  0.00     0.348 HD
ATOM     14  C   UNL A   1      32.272  23.449  23.199  1.00  0.00     0.181 C 
ATOM     15  C   UNL A   1      34.058  24.156  24.737  1.00  0.00     0.195 C 
ATOM     16  N   UNL A   1      33.359  24.391  23.467  1.00  0.00    -0.326 N 
BRANCH  16  17
ATOM     17  C   UNL A   1      33.437  25.557  22.712  1.00  0.00     0.254 C 
ATOM     18  O   UNL A   1      33.848  25.589  21.554  1.00  0.00    -0.269 OA
BRANCH  17  19
ATOM     19  C   UNL A   1      32.984  26.830  23.317  1.00  0.00     0.040 A 
ATOM     20  C   UNL A   1      33.772  27.481  24.270  1.00  0.00     0.016 A 
ATOM     21  C   UNL A   1      31.761  27.367  22.895  1.00  0.00     0.024 A 
ATOM     22  C   UNL A   1      33.318  28.647  24.892  1.00  0.00     0.027 A 
ATOM     23  C   UNL A   1      31.301  28.560  23.488  1.00  0.00     0.004 A 
ATOM     24  C   UNL A   1      32.080  29.158  24.482  1.00  0.00     0.046 A 
ATOM     25  C   UNL A   1      30.147  29.382  23.296  1.00  0.00    -0.009 A 
ATOM     26  N   UNL A   1      31.400  30.273  24.917  1.00  0.00    -0.358 N 
ATOM     27  C   UNL A   1      30.264  30.442  24.177  1.00  0.00     0.021 A 
ATOM     28  C   UNL A   1      29.048  29.183  22.301  1.00  0.00     0.107 C 
ATOM     29  H   UNL A   1      31.689  30.861  25.651  1.00  0.00     0.166 HD
ATOM     30  C   UNL A   1      29.333  31.594  24.330  1.00  0.00     0.065 C 
ATOM     31  S   UNL A   1      27.686  30.395  22.426  1.00  0.00    -0.157 SA
ATOM     32  C   UNL A   1      28.602  31.862  23.012  1.00  0.00     0.076 C 
ENDBRANCH  17  19
ENDBRANCH  16  17
ENDBRANCH   6   9
ENDBRANCH   4   5
ENDBRANCH   3   4
ENDBRANCH   2   3
ENDBRANCH   1   2
BRANCH   1  33
ATOM     33  C   UNL A   1      40.847  20.026  26.466  1.00  0.00     0.021 C 
BRANCH  33  34
ATOM     34  C   UNL A   1      42.217  19.347  26.540  1.00  0.00     0.116 C 
BRANCH  34  35
ATOM     35  N   UNL A   1      43.087  19.642  25.422  1.00  0.00    -0.352 N 
ATOM     36  C   UNL A   1      43.835  20.726  25.046  1.00  0.00     0.251 C 
ATOM     37  H   UNL A   1      43.158  18.893  24.787  1.00  0.00     0.163 HD
ATOM     38  O   UNL A   1      44.572  20.556  24.071  1.00  0.00    -0.269 OA
BRANCH  36  39
ATOM     39  C   UNL A   1      43.770  22.072  25.680  1.00  0.00     0.039 A 
ATOM     40  C   UNL A   1      44.374  22.424  26.886  1.00  0.00     0.014 A 
ATOM     41  C   UNL A   1      42.998  23.042  25.010  1.00  0.00     0.014 A 
ATOM     42  C   UNL A   1      44.137  23.667  27.458  1.00  0.00     0.010 A 
ATOM     43  C   UNL A   1      42.782  24.301  25.563  1.00  0.00     0.010 A 
ATOM     44  C   UNL A   1      43.325  24.598  26.809  1.00  0.00    -0.014 A 
BRANCH  44  45
ATOM     45  C   UNL A   1      43.190  25.909  27.435  1.00  0.00     0.031 A 
ATOM     46  C   UNL A   1      44.308  26.854  27.161  1.00  0.00     0.074 A 
ATOM     47  C   UNL A   1      42.127  26.305  28.159  1.00  0.00     0.049 A 
ATOM     48  N   UNL A   1      45.166  27.328  28.006  1.00  0.00    -0.248 NA
ATOM     49  C   UNL A   1      44.566  27.227  25.764  1.00  0.00     0.031 C 
ATOM     50  C   UNL A   1      40.841  25.626  28.314  1.00  0.00     0.029 A 
ATOM     51  N   UNL A   1      41.943  27.484  28.821  1.00  0.00    -0.354 N 
ATOM     52  C   UNL A   1      45.948  28.227  27.284  1.00  0.00     0.074 A 
ATOM     53  C   UNL A   1      45.632  28.020  25.893  1.00  0.00     0.031 C 
ATOM     54  C   UNL A   1      39.941  26.503  28.815  1.00  0.00     0.029 A 
ATOM     55  C   UNL A   1      40.614  27.752  29.125  1.00  0.00     0.049 A 
ATOM     56  H   UNL A   1      42.684  28.088  29.061  1.00  0.00     0.167 HD
ATOM     57  C   UNL A   1      46.653  29.221  27.887  1.00  0.00     0.034 A 
ATOM     58  C   UNL A   1      40.109  28.945  29.524  1.00  0.00     0.034 A 
ATOM     59  C   UNL A   1      46.798  29.015  29.299  1.00  0.00     0.049 A 
ATOM     60  C   UNL A   1      41.231  29.717  30.111  1.00  0.00     0.074 A 
ATOM     61  C   UNL A   1      47.337  28.023  30.093  1.00  0.00     0.029 A 
ATOM     62  N   UNL A   1      46.028  29.789  30.131  1.00  0.00    -0.354 N 
ATOM     63  N   UNL A   1      41.832  29.396  31.224  1.00  0.00    -0.248 NA
ATOM     64  C   UNL A   1      41.941  30.665  29.268  1.00  0.00     0.031 C 
ATOM     65  C   UNL A   1      46.487  27.967  31.235  1.00  0.00     0.029 A 
ATOM     66  C   UNL A   1      45.508  28.952  31.080  1.00  0.00     0.049 A 
ATOM     67  H   UNL A   1      45.877  30.759  30.059  1.00  0.00     0.167 HD
ATOM     68  C   UNL A   1      43.157  29.751  31.018  1.00  0.00     0.074 A 
ATOM     69  C   UNL A   1      43.138  30.634  29.856  1.00  0.00     0.031 C 
ATOM     70  C   UNL A   1      44.174  29.072  31.623  1.00  0.00     0.034 A 
BRANCH  57  71
ATOM     71  C   UNL A   1      46.939  30.561  27.261  1.00  0.00     0.023 A 
ATOM     72  C   UNL A   1      48.239  31.095  27.400  1.00  0.00     0.012 A 
ATOM     73  C   UNL A   1      45.929  31.428  26.792  1.00  0.00     0.148 A 
ATOM     74  C   UNL A   1      48.512  32.436  27.109  1.00  0.00     0.002 A 
ATOM     75  C   UNL A   1      46.222  32.736  26.429  1.00  0.00     0.091 A 
ATOM     76  F   UNL A   1      44.650  31.037  26.824  1.00  0.00    -0.205 F 
ATOM     77  C   UNL A   1      47.506  33.255  26.610  1.00  0.00     0.022 A 
BRANCH  75  78
ATOM     78  S   UNL A   1      44.965  33.814  25.734  1.00  0.00     0.127 S 
ATOM     79  O   UNL A   1      44.087  34.019  26.880  1.00  0.00    -0.237 OA
ATOM     80  O   UNL A   1      45.753  34.979  25.335  1.00  0.00    -0.237 OA
ATOM     81  O   UNL A   1      44.400  33.068  24.614  1.00  0.00    -0.744 OA
ENDBRANCH  75  78
ENDBRANCH  57  71
BRANCH  58  82
ATOM     82  C   UNL A   1      38.780  29.557  29.260  1.00  0.00     0.023 A 
ATOM     83  C   UNL A   1      37.955  29.007  28.254  1.00  0.00     0.012 A 
ATOM     84  C   UNL A   1      38.196  30.495  30.142  1.00  0.00     0.148 A 
ATOM     85  C   UNL A   1      36.599  29.342  28.160  1.00  0.00     0.002 A 
ATOM     86  C   UNL A   1      36.852  30.844  30.027  1.00  0.00     0.091 A 
ATOM     87  F   UNL A   1      38.919  30.976  31.161  1.00  0.00    -0.205 F 
ATOM     88  C   UNL A   1      36.044  30.256  29.049  1.00  0.00     0.022 A 
BRANCH  86  89
ATOM     89  S   UNL A   1      36.095  32.034  31.145  1.00  0.00     0.127 S 
ATOM     90  O   UNL A   1      36.955  33.207  30.982  1.00  0.00    -0.237 OA
ATOM     91  O   UNL A   1      34.756  32.174  30.580  1.00  0.00    -0.237 OA
ATOM     92  O   UNL A   1      36.172  31.425  32.467  1.00  0.00    -0.744 OA
ENDBRANCH  86  89
ENDBRANCH  58  82
BRANCH  70  93
ATOM     93  C   UNL A   1      43.847  28.118  32.740  1.00  0.00     0.023 A 
ATOM     94  C   UNL A   1      43.811  26.724  32.532  1.00  0.00     0.012 A 
ATOM     95  C   UNL A   1      43.836  28.618  34.053  1.00  0.00     0.148 A 
ATOM     96  C   UNL A   1      43.769  25.845  33.617  1.00  0.00     0.002 A 
ATOM     97  C   UNL A   1      43.842  27.740  35.128  1.00  0.00     0.091 A 
ATOM     98  F   UNL A   1      43.888  29.948  34.222  1.00  0.00    -0.205 F 
ATOM     99  C   UNL A   1      43.803  26.352  34.915  1.00  0.00     0.022 A 
BRANCH  97 100
ATOM    100  S   UNL A   1      44.027  28.310  36.820  1.00  0.00     0.127 S 
ATOM    101  O   UNL A   1      45.370  28.885  36.803  1.00  0.00    -0.237 OA
ATOM    102  O   UNL A   1      42.942  29.286  36.931  1.00  0.00    -0.237 OA
ATOM    103  O   UNL A   1      43.869  27.134  37.666  1.00  0.00    -0.744 OA
ENDBRANCH  97 100
ENDBRANCH  70  93
ENDBRANCH  44  45
ENDBRANCH  36  39
ENDBRANCH  34  35
ENDBRANCH  33  34
ENDBRANCH   1  33
TORSDOF 18
ENDMDL
MODEL 2
REMARK VINA RESULT:     -12.1      2.325      3.108
REMARK SMILES C[N@@H+]1CCN(C(=O)c2ccc3[nH]c4c(c3c2)CSCC4)C[C@H]1C(=O)NCCCCCCNC(=O)c1ccc(-c2c3nc(c(-c4cccc(S(=O)(=O)[O-])c4F)c4ccc([nH]4)c(-c4cccc(S(=O)(=O)[O-])c4F)c4nc(c(-c5cccc(S(=O)(=O)[O-])c5F)c5ccc2[nH]5)C=C4)C=C3)cc1
REMARK SMILES IDX 29 1 28 2 27 3 26 4 25 5 23 6 24 7 22 9 1 10 2 11 3 12 4 14
REMARK SMILES IDX 21 15 5 16 6 17 7 18 8 19 9 20 16 21 10 22 15 23 11 24 14 25
REMARK SMILES IDX 12 26 13 27 17 28 20 30 18 31 19 32 30 33 31 34 32 35 33 36
REMARK SMILES IDX 34 38 35 39 36 40 97 41 37 42 96 43 38 44 39 45 40 46 90 47
REMARK SMILES IDX 41 48 95 49 89 50 91 51 42 52 94 53 88 54 87 55 43 57 75 58
REMARK SMILES IDX 55 59 74 60 56 61 59 62 73 63 92 64 57 65 58 66 72 68 93 69
REMARK SMILES IDX 60 70 44 71 45 72 53 73 46 74 48 75 54 76 47 77 49 78 50 79
REMARK SMILES IDX 51 80 52 81 76 82 77 83 85 84 78 85 80 86 86 87 79 88 81 89
REMARK SMILES IDX 82 90 83 91 84 92 61 93 62 94 70 95 63 96 65 97 71 98 64 99
REMARK SMILES IDX 66 100 67 101 68 102 69 103
REMARK H PARENT 25 8 2 13 12 29 32 37 91 56 59 67
REMARK Flexibility Score: inf
ROOT
ATOM      1  C   UNL A   1      38.543  23.218  26.163  1.00  0.00     0.002 C 
ENDROOT
BRANCH   1   2
ATOM      2  C   UNL A   1      38.319  21.777  25.703  1.00  0.00     0.002 C 
BRANCH   2   3
ATOM      3  C   UNL A   1      37.229  21.592  24.643  1.00  0.00     0.021 C 
BRANCH   3   4
ATOM      4  C   UNL A   1      36.146  20.588  25.025  1.00  0.00     0.116 C 
BRANCH   4   5
ATOM      5  N   UNL A   1      35.318  21.085  26.109  1.00  0.00    -0.351 N 
ATOM      6  C   UNL A   1      34.251  21.932  26.064  1.00  0.00     0.280 C 
ATOM      7  O   UNL A   1      33.742  22.286  27.134  1.00  0.00    -0.268 OA
ATOM      8  H   UNL A   1      35.563  20.764  27.007  1.00  0.00     0.163 HD
BRANCH   6   9
ATOM      9  C   UNL A   1      33.658  22.402  24.728  1.00  0.00     0.293 C 
ATOM     10  C   UNL A   1      32.496  20.294  24.292  1.00  0.00     0.333 C 
ATOM     11  N   UNL A   1      32.351  21.746  24.415  1.00  0.00    -0.324 N 
ATOM     12  C   UNL A   1      31.813  22.311  23.156  1.00  0.00     0.284 C 
ATOM     13  H   UNL A   1      31.703  21.929  25.183  1.00  0.00     0.348 HD
ATOM     14  C   UNL A   1      31.699  23.847  23.183  1.00  0.00     0.181 C 
ATOM     15  C   UNL A   1      33.591  23.944  24.752  1.00  0.00     0.195 C 
ATOM     16  N   UNL A   1      32.964  24.488  23.541  1.00  0.00    -0.326 N 
BRANCH  16  17
ATOM     17  C   UNL A   1      33.298  25.697  22.939  1.00  0.00     0.254 C 
ATOM     18  O   UNL A   1      34.021  25.785  21.949  1.00  0.00    -0.269 OA
BRANCH  17  19
ATOM     19  C   UNL A   1      32.742  26.949  23.498  1.00  0.00     0.040 A 
ATOM     20  C   UNL A   1      33.273  27.501  24.667  1.00  0.00     0.016 A 
ATOM     21  C   UNL A   1      31.688  27.571  22.815  1.00  0.00     0.024 A 
ATOM     22  C   UNL A   1      32.708  28.645  25.234  1.00  0.00     0.027 A 
ATOM     23  C   UNL A   1      31.125  28.744  23.356  1.00  0.00     0.004 A 
ATOM     24  C   UNL A   1      31.636  29.240  24.557  1.00  0.00     0.046 A 
ATOM     25  C   UNL A   1      30.086  29.632  22.933  1.00  0.00    -0.009 A 
ATOM     26  N   UNL A   1      30.899  30.357  24.883  1.00  0.00    -0.358 N 
ATOM     27  C   UNL A   1      30.001  30.627  23.889  1.00  0.00     0.021 A 
ATOM     28  C   UNL A   1      29.279  29.548  21.676  1.00  0.00     0.107 C 
ATOM     29  H   UNL A   1      31.004  30.884  25.708  1.00  0.00     0.166 HD
ATOM     30  C   UNL A   1      29.098  31.810  23.882  1.00  0.00     0.065 C 
ATOM     31  S   UNL A   1      27.968  30.814  21.535  1.00  0.00    -0.157 SA
ATOM     32  C   UNL A   1      28.744  32.195  22.443  1.00  0.00     0.076 C 
ENDBRANCH  17  19
ENDBRANCH  16  17
ENDBRANCH   6   9
ENDBRANCH   4   5
ENDBRANCH   3   4
ENDBRANCH   2   3
ENDBRANCH   1   2
BRANCH   1  33
ATOM     33  C   UNL A   1      39.476  23.387  27.366  1.00  0.00     0.021 C 
BRANCH  33  34
ATOM     34  C   UNL A   1      40.569  22.322  27.485  1.00  0.00     0.116 C 
BRANCH  34  35
ATOM     35  N   UNL A   1      41.696  22.527  26.601  1.00  0.00    -0.352 N 
ATOM     36  C   UNL A   1      42.622  23.522  26.438  1.00  0.00     0.251 C 
ATOM     37  H   UNL A   1      41.828  21.780  25.974  1.00  0.00     0.163 HD
ATOM     38  O   UNL A   1      43.538  23.279  25.648  1.00  0.00    -0.269 OA
BRANCH  36  39
ATOM     39  C   UNL A   1      42.561  24.861  27.087  1.00  0.00     0.039 A 
ATOM     40  C   UNL A   1      43.195  25.210  28.278  1.00  0.00     0.014 A 
ATOM     41  C   UNL A   1      41.760  25.829  26.448  1.00  0.00     0.014 A 
ATOM     42  C   UNL A   1      42.961  26.445  28.868  1.00  0.00     0.010 A 
ATOM     43  C   UNL A   1      41.547  27.081  27.018  1.00  0.00     0.010 A 
ATOM     44  C   UNL A   1      42.121  27.373  28.251  1.00  0.00    -0.014 A 
BRANCH  44  45
ATOM     45  C   UNL A   1      41.991  28.677  28.892  1.00  0.00     0.031 A 
ATOM     46  C   UNL A   1      42.996  29.690  28.468  1.00  0.00     0.074 A 
ATOM     47  C   UNL A   1      41.015  29.008  29.758  1.00  0.00     0.049 A 
ATOM     48  N   UNL A   1      43.931  30.224  29.186  1.00  0.00    -0.248 NA
ATOM     49  C   UNL A   1      43.033  30.069  27.049  1.00  0.00     0.031 C 
ATOM     50  C   UNL A   1      39.810  28.249  30.090  1.00  0.00     0.029 A 
ATOM     51  N   UNL A   1      40.850  30.177  30.443  1.00  0.00    -0.354 N 
ATOM     52  C   UNL A   1      44.545  31.166  28.364  1.00  0.00     0.074 A 
ATOM     53  C   UNL A   1      44.052  30.930  27.031  1.00  0.00     0.031 C 
ATOM     54  C   UNL A   1      38.934  29.069  30.714  1.00  0.00     0.029 A 
ATOM     55  C   UNL A   1      39.561  30.362  30.930  1.00  0.00     0.049 A 
ATOM     56  H   UNL A   1      41.576  30.829  30.578  1.00  0.00     0.167 HD
ATOM     57  C   UNL A   1      45.261  32.208  28.865  1.00  0.00     0.034 A 
ATOM     58  C   UNL A   1      39.040  31.522  31.398  1.00  0.00     0.034 A 
ATOM     59  C   UNL A   1      45.615  32.021  30.243  1.00  0.00     0.049 A 
ATOM     60  C   UNL A   1      40.181  32.368  31.825  1.00  0.00     0.074 A 
ATOM     61  C   UNL A   1      46.322  31.070  30.952  1.00  0.00     0.029 A 
ATOM     62  N   UNL A   1      44.919  32.750  31.176  1.00  0.00    -0.354 N 
ATOM     63  N   UNL A   1      40.951  32.094  32.842  1.00  0.00    -0.248 NA
ATOM     64  C   UNL A   1      40.704  33.355  30.893  1.00  0.00     0.031 C 
ATOM     65  C   UNL A   1      45.645  30.968  32.200  1.00  0.00     0.029 A 
ATOM     66  C   UNL A   1      44.592  31.886  32.186  1.00  0.00     0.049 A 
ATOM     67  H   UNL A   1      44.698  33.707  31.127  1.00  0.00     0.167 HD
ATOM     68  C   UNL A   1      42.209  32.532  32.454  1.00  0.00     0.074 A 
ATOM     69  C   UNL A   1      41.971  33.404  31.308  1.00  0.00     0.031 C 
ATOM     70  C   UNL A   1      43.341  31.924  32.910  1.00  0.00     0.034 A 
BRANCH  57  71
ATOM     71  C   UNL A   1      45.370  33.559  28.208  1.00  0.00     0.023 A 
ATOM     72  C   UNL A   1      46.659  34.104  28.021  1.00  0.00     0.012 A 
ATOM     73  C   UNL A   1      44.268  34.422  28.026  1.00  0.00     0.148 A 
ATOM     74  C   UNL A   1      46.841  35.452  27.692  1.00  0.00     0.002 A 
ATOM     75  C   UNL A   1      44.451  35.738  27.621  1.00  0.00     0.091 A 
ATOM     76  F   UNL A   1      43.043  34.018  28.376  1.00  0.00    -0.205 F 
ATOM     77  C   UNL A   1      45.735  36.267  27.478  1.00  0.00     0.022 A 
BRANCH  75  78
ATOM     78  S   UNL A   1      43.052  36.812  27.286  1.00  0.00     0.127 S 
ATOM     79  O   UNL A   1      43.719  38.046  26.887  1.00  0.00    -0.237 OA
ATOM     80  O   UNL A   1      42.370  36.095  26.210  1.00  0.00    -0.237 OA
ATOM     81  O   UNL A   1      42.300  36.861  28.536  1.00  0.00    -0.744 OA
ENDBRANCH  75  78
ENDBRANCH  57  71
BRANCH  58  82
ATOM     82  C   UNL A   1      37.651  32.046  31.323  1.00  0.00     0.023 A 
ATOM     83  C   UNL A   1      37.116  32.742  32.428  1.00  0.00     0.012 A 
ATOM     84  C   UNL A   1      36.937  32.108  30.105  1.00  0.00     0.148 A 
ATOM     85  C   UNL A   1      35.947  33.505  32.313  1.00  0.00     0.002 A 
ATOM     86  C   UNL A   1      35.760  32.847  30.003  1.00  0.00     0.091 A 
ATOM     87  F   UNL A   1      37.453  31.532  29.011  1.00  0.00    -0.205 F 
ATOM     88  C   UNL A   1      35.270  33.562  31.100  1.00  0.00     0.022 A 
BRANCH  86  89
ATOM     89  S   UNL A   1      34.842  32.938  28.457  1.00  0.00     0.127 S 
ATOM     90  O   UNL A   1      33.718  33.804  28.812  1.00  0.00    -0.237 OA
ATOM     91  O   UNL A   1      35.820  33.542  27.557  1.00  0.00    -0.237 OA
ATOM     92  O   UNL A   1      34.457  31.564  28.155  1.00  0.00    -0.744 OA
ENDBRANCH  86  89
ENDBRANCH  58  82
BRANCH  70  93
ATOM     93  C   UNL A   1      43.235  30.959  34.059  1.00  0.00     0.023 A 
ATOM     94  C   UNL A   1      43.319  31.393  35.398  1.00  0.00     0.012 A 
ATOM     95  C   UNL A   1      42.789  29.655  33.786  1.00  0.00     0.148 A 
ATOM     96  C   UNL A   1      42.959  30.542  36.445  1.00  0.00     0.002 A 
ATOM     97  C   UNL A   1      42.388  28.828  34.827  1.00  0.00     0.091 A 
ATOM     98  F   UNL A   1      42.703  29.273  32.502  1.00  0.00    -0.205 F 
ATOM     99  C   UNL A   1      42.476  29.265  36.159  1.00  0.00     0.022 A 
BRANCH  97 100
ATOM    100  S   UNL A   1      41.626  27.230  34.531  1.00  0.00     0.127 S 
ATOM    101  O   UNL A   1      41.213  26.835  35.876  1.00  0.00    -0.237 OA
ATOM    102  O   UNL A   1      40.529  27.578  33.628  1.00  0.00    -0.237 OA
ATOM    103  O   UNL A   1      42.657  26.392  33.931  1.00  0.00    -0.744 OA
ENDBRANCH  97 100
ENDBRANCH  70  93
ENDBRANCH  44  45
ENDBRANCH  36  39
ENDBRANCH  34  35
ENDBRANCH  33  34
ENDBRANCH   1  33
TORSDOF 18
ENDMDL
MODEL 3
REMARK VINA RESULT:     -11.6      2.447      3.314
REMARK SMILES C[N@@H+]1CCN(C(=O)c2ccc3[nH]c4c(c3c2)CSCC4)C[C@H]1C(=O)NCCCCCCNC(=O)c1ccc(-c2c3nc(c(-c4cccc(S(=O)(=O)[O-])c4F)c4ccc([nH]4)c(-c4cccc(S(=O)(=O)[O-])c4F)c4nc(c(-c5cccc(S(=O)(=O)[O-])c5F)c5ccc2[nH]5)C=C4)C=C3)cc1
REMARK SMILES IDX 29 1 28 2 27 3 26 4 25 5 23 6 24 7 22 9 1 10 2 11 3 12 4 14
REMARK SMILES IDX 21 15 5 16 6 17 7 18 8 19 9 20 16 21 10 22 15 23 11 24 14 25
REMARK SMILES IDX 12 26 13 27 17 28 20 30 18 31 19 32 30 33 31 34 32 35 33 36
REMARK SMILES IDX 34 38 35 39 36 40 97 41 37 42 96 43 38 44 39 45 40 46 90 47
REMARK SMILES IDX 41 48 95 49 89 50 91 51 42 52 94 53 88 54 87 55 43 57 75 58
REMARK SMILES IDX 55 59 74 60 56 61 59 62 73 63 92 64 57 65 58 66 72 68 93 69
REMARK SMILES IDX 60 70 44 71 45 72 53 73 46 74 48 75 54 76 47 77 49 78 50 79
REMARK SMILES IDX 51 80 52 81 76 82 77 83 85 84 78 85 80 86 86 87 79 88 81 89
REMARK SMILES IDX 82 90 83 91 84 92 61 93 62 94 70 95 63 96 65 97 71 98 64 99
REMARK SMILES IDX 66 100 67 101 68 102 69 103
REMARK H PARENT 25 8 2 13 12 29 32 37 91 56 59 67
REMARK Flexibility Score: inf
ROOT
ATOM      1  C   UNL A   1      37.725  21.776  25.214  1.00  0.00     0.002 C 
ENDROOT
BRANCH   1   2
ATOM      2  C   UNL A   1      36.200  21.672  25.156  1.00  0.00     0.002 C 
BRANCH   2   3
ATOM      3  C   UNL A   1      35.454  22.388  26.287  1.00  0.00     0.021 C 
BRANCH   3   4
ATOM      4  C   UNL A   1      34.702  21.456  27.230  1.00  0.00     0.116 C 
BRANCH   4   5
ATOM      5  N   UNL A   1      33.365  21.948  27.511  1.00  0.00    -0.351 N 
ATOM      6  C   UNL A   1      32.498  22.612  26.695  1.00  0.00     0.280 C 
ATOM      7  O   UNL A   1      31.432  23.011  27.178  1.00  0.00    -0.268 OA
ATOM      8  H   UNL A   1      33.037  21.777  28.423  1.00  0.00     0.163 HD
BRANCH   6   9
ATOM      9  C   UNL A   1      32.805  22.825  25.205  1.00  0.00     0.293 C 
ATOM     10  C   UNL A   1      32.436  20.481  24.607  1.00  0.00     0.333 C 
ATOM     11  N   UNL A   1      32.065  21.870  24.323  1.00  0.00    -0.324 N 
ATOM     12  C   UNL A   1      32.355  22.193  22.908  1.00  0.00     0.284 C 
ATOM     13  H   UNL A   1      31.066  21.967  24.504  1.00  0.00     0.348 HD
ATOM     14  C   UNL A   1      32.058  23.661  22.549  1.00  0.00     0.181 C 
ATOM     15  C   UNL A   1      32.544  24.309  24.872  1.00  0.00     0.195 C 
ATOM     16  N   UNL A   1      32.738  24.596  23.445  1.00  0.00    -0.326 N 
BRANCH  16  17
ATOM     17  C   UNL A   1      33.217  25.795  22.925  1.00  0.00     0.254 C 
ATOM     18  O   UNL A   1      34.027  25.858  22.003  1.00  0.00    -0.269 OA
BRANCH  17  19
ATOM     19  C   UNL A   1      32.717  27.068  23.491  1.00  0.00     0.040 A 
ATOM     20  C   UNL A   1      33.387  27.684  24.550  1.00  0.00     0.016 A 
ATOM     21  C   UNL A   1      31.571  27.641  22.924  1.00  0.00     0.024 A 
ATOM     22  C   UNL A   1      32.882  28.850  25.130  1.00  0.00     0.027 A 
ATOM     23  C   UNL A   1      31.063  28.834  23.476  1.00  0.00     0.004 A 
ATOM     24  C   UNL A   1      31.719  29.397  24.573  1.00  0.00     0.046 A 
ATOM     25  C   UNL A   1      29.962  29.687  23.151  1.00  0.00    -0.009 A 
ATOM     26  N   UNL A   1      31.012  30.520  24.938  1.00  0.00    -0.358 N 
ATOM     27  C   UNL A   1      29.986  30.729  24.060  1.00  0.00     0.021 A 
ATOM     28  C   UNL A   1      28.997  29.529  22.018  1.00  0.00     0.107 C 
ATOM     29  H   UNL A   1      31.215  31.090  25.714  1.00  0.00     0.166 HD
ATOM     30  C   UNL A   1      29.068  31.900  24.114  1.00  0.00     0.065 C 
ATOM     31  S   UNL A   1      27.657  30.771  21.989  1.00  0.00    -0.157 SA
ATOM     32  C   UNL A   1      28.520  32.206  22.717  1.00  0.00     0.076 C 
ENDBRANCH  17  19
ENDBRANCH  16  17
ENDBRANCH   6   9
ENDBRANCH   4   5
ENDBRANCH   3   4
ENDBRANCH   2   3
ENDBRANCH   1   2
BRANCH   1  33
ATOM     33  C   UNL A   1      38.275  22.928  26.060  1.00  0.00     0.021 C 
BRANCH  33  34
ATOM     34  C   UNL A   1      39.527  22.588  26.872  1.00  0.00     0.116 C 
BRANCH  34  35
ATOM     35  N   UNL A   1      40.770  22.782  26.156  1.00  0.00    -0.352 N 
ATOM     36  C   UNL A   1      41.698  23.787  26.098  1.00  0.00     0.251 C 
ATOM     37  H   UNL A   1      41.001  22.018  25.581  1.00  0.00     0.163 HD
ATOM     38  O   UNL A   1      42.723  23.533  25.460  1.00  0.00    -0.269 OA
BRANCH  36  39
ATOM     39  C   UNL A   1      41.528  25.145  26.685  1.00  0.00     0.039 A 
ATOM     40  C   UNL A   1      40.831  26.197  26.094  1.00  0.00     0.014 A 
ATOM     41  C   UNL A   1      42.163  25.375  27.922  1.00  0.00     0.014 A 
ATOM     42  C   UNL A   1      40.849  27.464  26.661  1.00  0.00     0.010 A 
ATOM     43  C   UNL A   1      42.158  26.636  28.513  1.00  0.00     0.010 A 
ATOM     44  C   UNL A   1      41.530  27.690  27.859  1.00  0.00    -0.014 A 
BRANCH  44  45
ATOM     45  C   UNL A   1      41.434  29.028  28.432  1.00  0.00     0.031 A 
ATOM     46  C   UNL A   1      42.592  29.919  28.145  1.00  0.00     0.074 A 
ATOM     47  C   UNL A   1      40.373  29.491  29.120  1.00  0.00     0.049 A 
ATOM     48  N   UNL A   1      43.452  30.392  28.989  1.00  0.00    -0.248 NA
ATOM     49  C   UNL A   1      42.890  30.227  26.741  1.00  0.00     0.031 C 
ATOM     50  C   UNL A   1      39.060  28.868  29.275  1.00  0.00     0.029 A 
ATOM     51  N   UNL A   1      40.223  30.700  29.734  1.00  0.00    -0.354 N 
ATOM     52  C   UNL A   1      44.281  31.232  28.249  1.00  0.00     0.074 A 
ATOM     53  C   UNL A   1      43.983  30.984  26.861  1.00  0.00     0.031 C 
ATOM     54  C   UNL A   1      38.185  29.796  29.725  1.00  0.00     0.029 A 
ATOM     55  C   UNL A   1      38.900  31.031  30.001  1.00  0.00     0.049 A 
ATOM     56  H   UNL A   1      40.982  31.285  29.965  1.00  0.00     0.167 HD
ATOM     57  C   UNL A   1      45.013  32.222  28.828  1.00  0.00     0.034 A 
ATOM     58  C   UNL A   1      38.434  32.256  30.345  1.00  0.00     0.034 A 
ATOM     59  C   UNL A   1      45.124  32.065  30.250  1.00  0.00     0.049 A 
ATOM     60  C   UNL A   1      39.574  33.007  30.924  1.00  0.00     0.074 A 
ATOM     61  C   UNL A   1      45.609  31.084  31.091  1.00  0.00     0.029 A 
ATOM     62  N   UNL A   1      44.369  32.899  31.036  1.00  0.00    -0.354 N 
ATOM     63  N   UNL A   1      40.142  32.707  32.060  1.00  0.00    -0.248 NA
ATOM     64  C   UNL A   1      40.335  33.895  30.060  1.00  0.00     0.031 C 
ATOM     65  C   UNL A   1      44.738  31.104  32.217  1.00  0.00     0.029 A 
ATOM     66  C   UNL A   1      43.800  32.118  32.006  1.00  0.00     0.049 A 
ATOM     67  H   UNL A   1      44.257  33.870  30.925  1.00  0.00     0.167 HD
ATOM     68  C   UNL A   1      41.483  33.003  31.867  1.00  0.00     0.074 A 
ATOM     69  C   UNL A   1      41.520  33.841  30.673  1.00  0.00     0.031 C 
ATOM     70  C   UNL A   1      42.461  32.310  32.518  1.00  0.00     0.034 A 
BRANCH  57  71
ATOM     71  C   UNL A   1      45.361  33.524  28.158  1.00  0.00     0.023 A 
ATOM     72  C   UNL A   1      46.728  33.848  28.005  1.00  0.00     0.012 A 
ATOM     73  C   UNL A   1      44.423  34.553  27.928  1.00  0.00     0.148 A 
ATOM     74  C   UNL A   1      47.139  35.142  27.665  1.00  0.00     0.002 A 
ATOM     75  C   UNL A   1      44.831  35.814  27.513  1.00  0.00     0.091 A 
ATOM     76  F   UNL A   1      43.137  34.362  28.244  1.00  0.00    -0.205 F 
ATOM     77  C   UNL A   1      46.188  36.123  27.404  1.00  0.00     0.022 A 
BRANCH  75  78
ATOM     78  S   UNL A   1      43.638  37.097  27.119  1.00  0.00     0.127 S 
ATOM     79  O   UNL A   1      44.500  38.147  26.590  1.00  0.00    -0.237 OA
ATOM     80  O   UNL A   1      42.791  36.429  26.131  1.00  0.00    -0.237 OA
ATOM     81  O   UNL A   1      42.962  37.389  28.379  1.00  0.00    -0.744 OA
ENDBRANCH  75  78
ENDBRANCH  57  71
BRANCH  58  82
ATOM     82  C   UNL A   1      37.135  32.907  30.031  1.00  0.00     0.023 A 
ATOM     83  C   UNL A   1      36.556  32.713  28.758  1.00  0.00     0.012 A 
ATOM     84  C   UNL A   1      36.327  33.493  31.032  1.00  0.00     0.148 A 
ATOM     85  C   UNL A   1      35.219  33.046  28.507  1.00  0.00     0.002 A 
ATOM     86  C   UNL A   1      35.005  33.846  30.770  1.00  0.00     0.091 A 
ATOM     87  F   UNL A   1      36.809  33.617  32.276  1.00  0.00    -0.205 F 
ATOM     88  C   UNL A   1      34.441  33.608  29.513  1.00  0.00     0.022 A 
BRANCH  86  89
ATOM     89  S   UNL A   1      33.965  34.590  32.036  1.00  0.00     0.127 S 
ATOM     90  O   UNL A   1      34.849  35.605  32.610  1.00  0.00    -0.237 OA
ATOM     91  O   UNL A   1      32.856  35.120  31.247  1.00  0.00    -0.237 OA
ATOM     92  O   UNL A   1      33.637  33.505  32.953  1.00  0.00    -0.744 OA
ENDBRANCH  86  89
ENDBRANCH  58  82
BRANCH  70  93
ATOM     93  C   UNL A   1      42.078  31.412  33.662  1.00  0.00     0.023 A 
ATOM     94  C   UNL A   1      41.460  30.164  33.446  1.00  0.00     0.012 A 
ATOM     95  C   UNL A   1      42.581  31.718  34.938  1.00  0.00     0.148 A 
ATOM     96  C   UNL A   1      41.351  29.235  34.484  1.00  0.00     0.002 A 
ATOM     97  C   UNL A   1      42.513  30.775  35.954  1.00  0.00     0.091 A 
ATOM     98  F   UNL A   1      43.179  32.907  35.112  1.00  0.00    -0.205 F 
ATOM     99  C   UNL A   1      41.894  29.533  35.733  1.00  0.00     0.022 A 
BRANCH  97 100
ATOM    100  S   UNL A   1      43.310  31.029  37.542  1.00  0.00     0.127 S 
ATOM    101  O   UNL A   1      43.769  29.682  37.872  1.00  0.00    -0.237 OA
ATOM    102  O   UNL A   1      44.373  31.974  37.200  1.00  0.00    -0.237 OA
ATOM    103  O   UNL A   1      42.287  31.568  38.430  1.00  0.00    -0.744 OA
ENDBRANCH  97 100
ENDBRANCH  70  93
ENDBRANCH  44  45
ENDBRANCH  36  39
ENDBRANCH  34  35
ENDBRANCH  33  34
ENDBRANCH   1  33
TORSDOF 18
ENDMDL
