MODEL 1
REMARK VINA RESULT:     -13.2      0.000      0.000
REMARK SMILES COc1cc(/C=C2/CCc3c2nc2ccccc2c3C(=O)NCCCCCCNC(=O)c2ccc(-c3c4nc(c(-c5cccc(S(=O)(=O)[O-])c5F)c5ccc([nH]5)c(-c5cccc(S(=O)(=O)[O-])c5F)c5nc(c(-c6cccc(S(=O)(=O)[O-])c6F)c6ccc3[nH]6)C=C5)C=C4)cc2)cc(Br)c1O
REMARK SMILES IDX 26 1 25 2 24 3 23 4 22 5 20 6 21 7 19 9 6 10 7 11 8 12 11 13
REMARK SMILES IDX 9 14 10 15 12 16 13 17 18 18 14 19 17 20 15 21 16 22 5 23
REMARK SMILES IDX 3 24 4 25 98 26 96 27 95 28 97 29 2 30 1 31 99 32 27 34
REMARK SMILES IDX 28 35 29 36 30 37 31 39 32 40 33 41 94 42 34 43 93 44 35 45
REMARK SMILES IDX 36 46 37 47 87 48 38 49 92 50 86 51 88 52 39 53 91 54 85 55
REMARK SMILES IDX 84 56 40 58 72 59 52 60 71 61 53 62 56 63 70 64 89 65 54 66
REMARK SMILES IDX 55 67 69 69 90 70 57 71 41 72 42 73 50 74 43 75 45 76 51 77
REMARK SMILES IDX 44 78 46 79 47 80 48 81 49 82 73 83 74 84 82 85 75 86 77 87
REMARK SMILES IDX 83 88 76 89 78 90 79 91 80 92 81 93 58 94 59 95 67 96 60 97
REMARK SMILES IDX 62 98 68 99 61 100 63 101 64 102 65 103 66 104
REMARK H PARENT 22 8 99 33 29 38 88 57 56 68
REMARK Flexibility Score: inf
ROOT
ATOM      1  C   UNL A   1      35.605  20.809  25.058  1.00  0.00     0.002 C 
ENDROOT
BRANCH   1   2
ATOM      2  C   UNL A   1      34.457  21.101  26.028  1.00  0.00     0.002 C 
BRANCH   2   3
ATOM      3  C   UNL A   1      34.800  22.171  27.051  1.00  0.00     0.021 C 
BRANCH   3   4
ATOM      4  C   UNL A   1      33.532  22.827  27.536  1.00  0.00     0.116 C 
BRANCH   4   5
ATOM      5  N   UNL A   1      33.196  24.066  26.775  1.00  0.00    -0.352 N 
ATOM      6  C   UNL A   1      33.655  24.569  25.491  1.00  0.00     0.252 C 
ATOM      7  O   UNL A   1      34.827  24.928  25.422  1.00  0.00    -0.269 OA
ATOM      8  H   UNL A   1      32.544  24.650  27.226  1.00  0.00     0.163 HD
BRANCH   6   9
ATOM      9  C   UNL A   1      32.563  24.903  24.186  1.00  0.00     0.054 A 
ATOM     10  C   UNL A   1      31.158  26.203  26.307  1.00  0.00     0.014 C 
ATOM     11  C   UNL A   1      30.586  24.988  25.838  1.00  0.00    -0.021 C 
ATOM     12  C   UNL A   1      30.944  23.445  26.257  1.00  0.00     0.042 C 
ATOM     13  C   UNL A   1      30.366  24.570  24.386  1.00  0.00     0.071 A 
ATOM     14  C   UNL A   1      31.436  22.718  24.966  1.00  0.00     0.043 C 
ATOM     15  C   UNL A   1      31.562  23.949  24.132  1.00  0.00    -0.008 A 
ATOM     16  N   UNL A   1      29.679  25.280  23.533  1.00  0.00    -0.248 NA
ATOM     17  C   UNL A   1      30.392  26.283  23.169  1.00  0.00     0.072 A 
ATOM     18  C   UNL A   1      32.152  26.414  23.637  1.00  0.00     0.013 A 
ATOM     19  C   UNL A   1      29.477  27.706  22.709  1.00  0.00     0.029 A 
ATOM     20  C   UNL A   1      32.833  28.327  23.579  1.00  0.00     0.011 A 
ATOM     21  C   UNL A   1      30.110  29.354  22.733  1.00  0.00     0.002 A 
ATOM     22  C   UNL A   1      31.768  29.704  23.149  1.00  0.00     0.001 A 
BRANCH  10  23
ATOM     23  C   UNL A   1      32.124  27.417  25.488  1.00  0.00    -0.020 A 
ATOM     24  C   UNL A   1      34.448  28.906  27.308  1.00  0.00     0.162 A 
ATOM     25  C   UNL A   1      33.698  27.325  26.299  1.00  0.00     0.058 A 
ATOM     26  C   UNL A   1      33.529  30.430  27.286  1.00  0.00     0.172 A 
ATOM     27  C   UNL A   1      32.106  30.521  26.299  1.00  0.00     0.064 A 
ATOM     28  C   UNL A   1      31.483  29.106  25.364  1.00  0.00     0.028 A 
ATOM     29  Br  UNL A   1      31.110  32.138  26.399  1.00  0.00    -0.047 Br
BRANCH  24  30
ATOM     30  O   UNL A   1      35.797  29.427  27.403  1.00  0.00    -0.493 OA
ATOM     31  C   UNL A   1      36.653  29.247  28.514  1.00  0.00     0.278 C 
ENDBRANCH  24  30
BRANCH  26  32
ATOM     32  O   UNL A   1      33.878  31.416  28.165  1.00  0.00    -0.503 OA
ATOM     33  H   UNL A   1      34.124  32.262  27.847  1.00  0.00     0.293 HD
ENDBRANCH  26  32
ENDBRANCH  10  23
ENDBRANCH   6   9
ENDBRANCH   4   5
ENDBRANCH   3   4
ENDBRANCH   2   3
ENDBRANCH   1   2
BRANCH   1  34
ATOM     34  C   UNL A   1      36.184  22.066  24.408  1.00  0.00     0.021 C 
BRANCH  34  35
ATOM     35  C   UNL A   1      37.560  22.412  24.957  1.00  0.00     0.116 C 
BRANCH  35  36
ATOM     36  N   UNL A   1      38.206  21.210  25.469  1.00  0.00    -0.352 N 
ATOM     37  C   UNL A   1      39.415  21.144  26.113  1.00  0.00     0.251 C 
ATOM     38  H   UNL A   1      37.727  20.360  25.339  1.00  0.00     0.163 HD
ATOM     39  O   UNL A   1      40.076  20.115  26.131  1.00  0.00    -0.269 OA
BRANCH  37  40
ATOM     40  C   UNL A   1      39.869  22.383  26.763  1.00  0.00     0.039 A 
ATOM     41  C   UNL A   1      39.469  23.603  26.207  1.00  0.00     0.014 A 
ATOM     42  C   UNL A   1      40.815  22.320  27.781  1.00  0.00     0.014 A 
ATOM     43  C   UNL A   1      40.159  24.753  26.542  1.00  0.00     0.010 A 
ATOM     44  C   UNL A   1      41.420  23.500  28.200  1.00  0.00     0.010 A 
ATOM     45  C   UNL A   1      41.136  24.714  27.546  1.00  0.00    -0.014 A 
BRANCH  45  46
ATOM     46  C   UNL A   1      41.866  25.946  27.910  1.00  0.00     0.031 A 
ATOM     47  C   UNL A   1      41.219  26.987  28.778  1.00  0.00     0.074 A 
ATOM     48  C   UNL A   1      43.112  26.129  27.434  1.00  0.00     0.049 A 
ATOM     49  N   UNL A   1      41.652  28.182  29.080  1.00  0.00    -0.248 NA
ATOM     50  C   UNL A   1      39.919  26.650  29.385  1.00  0.00     0.031 C 
ATOM     51  C   UNL A   1      43.853  25.172  26.607  1.00  0.00     0.029 A 
ATOM     52  N   UNL A   1      43.967  27.192  27.561  1.00  0.00    -0.354 N 
ATOM     53  C   UNL A   1      40.662  28.759  29.863  1.00  0.00     0.074 A 
ATOM     54  C   UNL A   1      39.601  27.784  29.998  1.00  0.00     0.031 C 
ATOM     55  C   UNL A   1      45.050  25.689  26.303  1.00  0.00     0.029 A 
ATOM     56  C   UNL A   1      45.129  27.039  26.845  1.00  0.00     0.049 A 
ATOM     57  H   UNL A   1      43.769  27.984  28.111  1.00  0.00     0.167 HD
ATOM     58  C   UNL A   1      40.646  29.990  30.421  1.00  0.00     0.034 A 
ATOM     59  C   UNL A   1      46.128  27.905  26.605  1.00  0.00     0.034 A 
ATOM     60  C   UNL A   1      41.717  30.942  30.305  1.00  0.00     0.049 A 
ATOM     61  C   UNL A   1      46.060  29.279  27.194  1.00  0.00     0.074 A 
ATOM     62  C   UNL A   1      41.803  32.203  30.867  1.00  0.00     0.029 A 
ATOM     63  N   UNL A   1      42.877  30.748  29.573  1.00  0.00    -0.354 N 
ATOM     64  N   UNL A   1      45.139  29.793  27.970  1.00  0.00    -0.248 NA
ATOM     65  C   UNL A   1      47.175  30.185  26.893  1.00  0.00     0.031 C 
ATOM     66  C   UNL A   1      42.996  32.789  30.441  1.00  0.00     0.029 A 
ATOM     67  C   UNL A   1      43.676  31.875  29.652  1.00  0.00     0.049 A 
ATOM     68  H   UNL A   1      43.099  29.931  29.071  1.00  0.00     0.167 HD
ATOM     69  C   UNL A   1      45.571  31.079  28.268  1.00  0.00     0.074 A 
ATOM     70  C   UNL A   1      46.848  31.254  27.607  1.00  0.00     0.031 C 
ATOM     71  C   UNL A   1      44.955  32.029  29.012  1.00  0.00     0.034 A 
BRANCH  58  72
ATOM     72  C   UNL A   1      39.446  30.394  31.232  1.00  0.00     0.023 A 
ATOM     73  C   UNL A   1      39.322  29.953  32.562  1.00  0.00     0.012 A 
ATOM     74  C   UNL A   1      38.513  31.311  30.710  1.00  0.00     0.148 A 
ATOM     75  C   UNL A   1      38.288  30.428  33.369  1.00  0.00     0.002 A 
ATOM     76  C   UNL A   1      37.498  31.795  31.524  1.00  0.00     0.091 A 
ATOM     77  F   UNL A   1      38.653  31.709  29.437  1.00  0.00    -0.205 F 
ATOM     78  C   UNL A   1      37.387  31.360  32.855  1.00  0.00     0.022 A 
BRANCH  76  79
ATOM     79  S   UNL A   1      36.290  32.999  30.962  1.00  0.00     0.127 S 
ATOM     80  O   UNL A   1      35.252  32.132  30.406  1.00  0.00    -0.237 OA
ATOM     81  O   UNL A   1      35.921  33.669  32.209  1.00  0.00    -0.237 OA
ATOM     82  O   UNL A   1      36.976  33.838  29.991  1.00  0.00    -0.744 OA
ENDBRANCH  76  79
ENDBRANCH  58  72
BRANCH  59  83
ATOM     83  C   UNL A   1      47.278  27.466  25.773  1.00  0.00     0.023 A 
ATOM     84  C   UNL A   1      48.268  26.648  26.348  1.00  0.00     0.012 A 
ATOM     85  C   UNL A   1      47.348  27.785  24.403  1.00  0.00     0.148 A 
ATOM     86  C   UNL A   1      49.312  26.152  25.569  1.00  0.00     0.002 A 
ATOM     87  C   UNL A   1      48.377  27.268  23.627  1.00  0.00     0.091 A 
ATOM     88  F   UNL A   1      46.381  28.553  23.882  1.00  0.00    -0.205 F 
ATOM     89  C   UNL A   1      49.360  26.452  24.210  1.00  0.00     0.022 A 
BRANCH  87  90
ATOM     90  S   UNL A   1      48.505  27.564  21.861  1.00  0.00     0.127 S 
ATOM     91  O   UNL A   1      47.201  28.155  21.568  1.00  0.00    -0.237 OA
ATOM     92  O   UNL A   1      49.632  28.495  21.796  1.00  0.00    -0.237 OA
ATOM     93  O   UNL A   1      48.750  26.263  21.254  1.00  0.00    -0.744 OA
ENDBRANCH  87  90
ENDBRANCH  59  83
BRANCH  71  94
ATOM     94  C   UNL A   1      45.656  33.350  29.176  1.00  0.00     0.023 A 
ATOM     95  C   UNL A   1      46.532  33.546  30.260  1.00  0.00     0.012 A 
ATOM     96  C   UNL A   1      45.506  34.364  28.209  1.00  0.00     0.148 A 
ATOM     97  C   UNL A   1      47.236  34.741  30.391  1.00  0.00     0.002 A 
ATOM     98  C   UNL A   1      46.230  35.543  28.332  1.00  0.00     0.091 A 
ATOM     99  F   UNL A   1      44.670  34.149  27.183  1.00  0.00    -0.205 F 
ATOM    100  C   UNL A   1      47.094  35.734  29.424  1.00  0.00     0.022 A 
BRANCH  98 101
ATOM    101  S   UNL A   1      46.128  36.872  27.130  1.00  0.00     0.127 S 
ATOM    102  O   UNL A   1      46.513  36.184  25.897  1.00  0.00    -0.237 OA
ATOM    103  O   UNL A   1      44.717  37.250  27.204  1.00  0.00    -0.237 OA
ATOM    104  O   UNL A   1      47.060  37.898  27.579  1.00  0.00    -0.744 OA
ENDBRANCH  98 101
ENDBRANCH  71  94
ENDBRANCH  45  46
ENDBRANCH  37  40
ENDBRANCH  35  36
ENDBRANCH  34  35
ENDBRANCH   1  34
TORSDOF 19
ENDMDL
MODEL 2
REMARK VINA RESULT:     -12.9      2.176      3.478
REMARK SMILES COc1cc(/C=C2/CCc3c2nc2ccccc2c3C(=O)NCCCCCCNC(=O)c2ccc(-c3c4nc(c(-c5cccc(S(=O)(=O)[O-])c5F)c5ccc([nH]5)c(-c5cccc(S(=O)(=O)[O-])c5F)c5nc(c(-c6cccc(S(=O)(=O)[O-])c6F)c6ccc3[nH]6)C=C5)C=C4)cc2)cc(Br)c1O
REMARK SMILES IDX 26 1 25 2 24 3 23 4 22 5 20 6 21 7 19 9 6 10 7 11 8 12 11 13
REMARK SMILES IDX 9 14 10 15 12 16 13 17 18 18 14 19 17 20 15 21 16 22 5 23
REMARK SMILES IDX 3 24 4 25 98 26 96 27 95 28 97 29 2 30 1 31 99 32 27 34
REMARK SMILES IDX 28 35 29 36 30 37 31 39 32 40 33 41 94 42 34 43 93 44 35 45
REMARK SMILES IDX 36 46 37 47 87 48 38 49 92 50 86 51 88 52 39 53 91 54 85 55
REMARK SMILES IDX 84 56 40 58 72 59 52 60 71 61 53 62 56 63 70 64 89 65 54 66
REMARK SMILES IDX 55 67 69 69 90 70 57 71 41 72 42 73 50 74 43 75 45 76 51 77
REMARK SMILES IDX 44 78 46 79 47 80 48 81 49 82 73 83 74 84 82 85 75 86 77 87
REMARK SMILES IDX 83 88 76 89 78 90 79 91 80 92 81 93 58 94 59 95 67 96 60 97
REMARK SMILES IDX 62 98 68 99 61 100 63 101 64 102 65 103 66 104
REMARK H PARENT 22 8 99 33 29 38 88 57 56 68
REMARK Flexibility Score: inf
ROOT
ATOM      1  C   UNL A   1      39.689  23.055  27.140  1.00  0.00     0.002 C 
ENDROOT
BRANCH   1   2
ATOM      2  C   UNL A   1      39.135  24.062  26.129  1.00  0.00     0.002 C 
BRANCH   2   3
ATOM      3  C   UNL A   1      37.617  24.062  26.061  1.00  0.00     0.021 C 
BRANCH   3   4
ATOM      4  C   UNL A   1      37.171  23.403  24.781  1.00  0.00     0.116 C 
BRANCH   4   5
ATOM      5  N   UNL A   1      35.747  23.695  24.447  1.00  0.00    -0.352 N 
ATOM      6  C   UNL A   1      34.822  23.075  23.512  1.00  0.00     0.252 C 
ATOM      7  O   UNL A   1      35.061  23.223  22.316  1.00  0.00    -0.269 OA
ATOM      8  H   UNL A   1      35.361  24.447  24.954  1.00  0.00     0.163 HD
BRANCH   6   9
ATOM      9  C   UNL A   1      33.317  22.384  24.021  1.00  0.00     0.054 A 
ATOM     10  C   UNL A   1      34.044  23.733  26.432  1.00  0.00     0.014 C 
ATOM     11  C   UNL A   1      34.153  22.315  26.459  1.00  0.00    -0.021 C 
ATOM     12  C   UNL A   1      35.383  21.361  25.951  1.00  0.00     0.042 C 
ATOM     13  C   UNL A   1      33.126  21.300  25.962  1.00  0.00     0.071 A 
ATOM     14  C   UNL A   1      34.820  20.445  24.818  1.00  0.00     0.043 C 
ATOM     15  C   UNL A   1      33.527  21.173  24.658  1.00  0.00    -0.008 A 
ATOM     16  N   UNL A   1      31.893  21.263  26.388  1.00  0.00    -0.248 NA
ATOM     17  C   UNL A   1      31.245  22.230  25.847  1.00  0.00     0.072 A 
ATOM     18  C   UNL A   1      31.984  23.238  24.516  1.00  0.00     0.013 A 
ATOM     19  C   UNL A   1      29.908  22.844  26.802  1.00  0.00     0.029 A 
ATOM     20  C   UNL A   1      31.107  25.062  24.344  1.00  0.00     0.011 A 
ATOM     21  C   UNL A   1      29.225  24.464  26.643  1.00  0.00     0.002 A 
ATOM     22  C   UNL A   1      29.783  25.590  25.433  1.00  0.00     0.001 A 
BRANCH  10  23
ATOM     23  C   UNL A   1      32.974  24.794  25.532  1.00  0.00    -0.020 A 
ATOM     24  C   UNL A   1      34.317  27.586  24.379  1.00  0.00     0.162 A 
ATOM     25  C   UNL A   1      34.046  25.584  24.362  1.00  0.00     0.058 A 
ATOM     26  C   UNL A   1      33.378  28.551  25.543  1.00  0.00     0.172 A 
ATOM     27  C   UNL A   1      32.189  27.745  26.514  1.00  0.00     0.064 A 
ATOM     28  C   UNL A   1      31.929  25.958  26.444  1.00  0.00     0.028 A 
ATOM     29  Br  UNL A   1      31.293  28.809  27.811  1.00  0.00    -0.047 Br
BRANCH  24  30
ATOM     30  O   UNL A   1      34.439  28.544  23.298  1.00  0.00    -0.493 OA
ATOM     31  C   UNL A   1      34.063  28.297  21.957  1.00  0.00     0.278 C 
ENDBRANCH  24  30
BRANCH  26  32
ATOM     32  O   UNL A   1      33.735  29.854  25.749  1.00  0.00    -0.503 OA
ATOM     33  H   UNL A   1      33.265  30.542  25.321  1.00  0.00     0.293 HD
ENDBRANCH  26  32
ENDBRANCH  10  23
ENDBRANCH   6   9
ENDBRANCH   4   5
ENDBRANCH   3   4
ENDBRANCH   2   3
ENDBRANCH   1   2
BRANCH   1  34
ATOM     34  C   UNL A   1      39.916  21.664  26.548  1.00  0.00     0.021 C 
BRANCH  34  35
ATOM     35  C   UNL A   1      40.808  20.804  27.432  1.00  0.00     0.116 C 
BRANCH  35  36
ATOM     36  N   UNL A   1      41.590  19.891  26.607  1.00  0.00    -0.352 N 
ATOM     37  C   UNL A   1      42.609  20.230  25.754  1.00  0.00     0.251 C 
ATOM     38  H   UNL A   1      41.364  18.935  26.668  1.00  0.00     0.163 HD
ATOM     39  O   UNL A   1      42.920  19.515  24.812  1.00  0.00    -0.269 OA
BRANCH  37  40
ATOM     40  C   UNL A   1      43.287  21.505  26.033  1.00  0.00     0.039 A 
ATOM     41  C   UNL A   1      43.889  21.670  27.286  1.00  0.00     0.014 A 
ATOM     42  C   UNL A   1      43.162  22.563  25.138  1.00  0.00     0.014 A 
ATOM     43  C   UNL A   1      44.196  22.945  27.721  1.00  0.00     0.010 A 
ATOM     44  C   UNL A   1      43.586  23.825  25.539  1.00  0.00     0.010 A 
ATOM     45  C   UNL A   1      44.054  24.034  26.850  1.00  0.00    -0.014 A 
BRANCH  45  46
ATOM     46  C   UNL A   1      44.392  25.396  27.313  1.00  0.00     0.031 A 
ATOM     47  C   UNL A   1      43.325  26.302  27.859  1.00  0.00     0.074 A 
ATOM     48  C   UNL A   1      45.667  25.818  27.220  1.00  0.00     0.049 A 
ATOM     49  N   UNL A   1      43.412  27.566  28.177  1.00  0.00    -0.248 NA
ATOM     50  C   UNL A   1      41.988  25.721  28.074  1.00  0.00     0.031 C 
ATOM     51  C   UNL A   1      46.793  25.015  26.734  1.00  0.00     0.029 A 
ATOM     52  N   UNL A   1      46.226  27.034  27.510  1.00  0.00    -0.354 N 
ATOM     53  C   UNL A   1      42.139  27.946  28.577  1.00  0.00     0.074 A 
ATOM     54  C   UNL A   1      41.291  26.779  28.467  1.00  0.00     0.031 C 
ATOM     55  C   UNL A   1      47.907  25.757  26.762  1.00  0.00     0.029 A 
ATOM     56  C   UNL A   1      47.560  27.105  27.190  1.00  0.00     0.049 A 
ATOM     57  H   UNL A   1      45.724  27.781  27.908  1.00  0.00     0.167 HD
ATOM     58  C   UNL A   1      41.721  29.159  29.003  1.00  0.00     0.034 A 
ATOM     59  C   UNL A   1      48.405  28.151  27.190  1.00  0.00     0.034 A 
ATOM     60  C   UNL A   1      42.578  30.306  29.135  1.00  0.00     0.049 A 
ATOM     61  C   UNL A   1      47.902  29.494  27.617  1.00  0.00     0.074 A 
ATOM     62  C   UNL A   1      42.249  31.569  29.591  1.00  0.00     0.029 A 
ATOM     63  N   UNL A   1      43.923  30.336  28.803  1.00  0.00    -0.354 N 
ATOM     64  N   UNL A   1      46.707  29.827  28.036  1.00  0.00    -0.248 NA
ATOM     65  C   UNL A   1      48.866  30.601  27.590  1.00  0.00     0.031 C 
ATOM     66  C   UNL A   1      43.384  32.376  29.497  1.00  0.00     0.029 A 
ATOM     67  C   UNL A   1      44.433  31.603  29.026  1.00  0.00     0.049 A 
ATOM     68  H   UNL A   1      44.438  29.571  28.460  1.00  0.00     0.167 HD
ATOM     69  C   UNL A   1      46.777  31.180  28.343  1.00  0.00     0.074 A 
ATOM     70  C   UNL A   1      48.140  31.596  28.083  1.00  0.00     0.031 C 
ATOM     71  C   UNL A   1      45.795  32.000  28.788  1.00  0.00     0.034 A 
BRANCH  58  72
ATOM     72  C   UNL A   1      40.276  29.328  29.380  1.00  0.00     0.023 A 
ATOM     73  C   UNL A   1      39.309  29.511  28.374  1.00  0.00     0.012 A 
ATOM     74  C   UNL A   1      39.870  29.177  30.720  1.00  0.00     0.148 A 
ATOM     75  C   UNL A   1      37.952  29.532  28.696  1.00  0.00     0.002 A 
ATOM     76  C   UNL A   1      38.517  29.179  31.031  1.00  0.00     0.091 A 
ATOM     77  F   UNL A   1      40.813  29.010  31.658  1.00  0.00    -0.205 F 
ATOM     78  C   UNL A   1      37.557  29.351  30.020  1.00  0.00     0.022 A 
BRANCH  76  79
ATOM     79  S   UNL A   1      37.901  28.951  32.702  1.00  0.00     0.127 S 
ATOM     80  O   UNL A   1      36.585  29.583  32.618  1.00  0.00    -0.237 OA
ATOM     81  O   UNL A   1      37.871  27.494  32.822  1.00  0.00    -0.237 OA
ATOM     82  O   UNL A   1      38.850  29.622  33.579  1.00  0.00    -0.744 OA
ENDBRANCH  76  79
ENDBRANCH  58  72
BRANCH  59  83
ATOM     83  C   UNL A   1      49.816  27.937  26.780  1.00  0.00     0.023 A 
ATOM     84  C   UNL A   1      50.768  27.587  27.755  1.00  0.00     0.012 A 
ATOM     85  C   UNL A   1      50.197  27.998  25.425  1.00  0.00     0.148 A 
ATOM     86  C   UNL A   1      52.080  27.297  27.386  1.00  0.00     0.002 A 
ATOM     87  C   UNL A   1      51.500  27.685  25.062  1.00  0.00     0.091 A 
ATOM     88  F   UNL A   1      49.263  28.319  24.519  1.00  0.00    -0.205 F 
ATOM     89  C   UNL A   1      52.443  27.335  26.042  1.00  0.00     0.022 A 
BRANCH  87  90
ATOM     90  S   UNL A   1      52.054  27.667  23.354  1.00  0.00     0.127 S 
ATOM     91  O   UNL A   1      52.071  29.093  23.036  1.00  0.00    -0.237 OA
ATOM     92  O   UNL A   1      53.374  27.047  23.476  1.00  0.00    -0.237 OA
ATOM     93  O   UNL A   1      51.073  26.878  22.623  1.00  0.00    -0.744 OA
ENDBRANCH  87  90
ENDBRANCH  59  83
BRANCH  71  94
ATOM     94  C   UNL A   1      46.151  33.439  29.045  1.00  0.00     0.023 A 
ATOM     95  C   UNL A   1      46.823  33.791  30.231  1.00  0.00     0.012 A 
ATOM     96  C   UNL A   1      45.891  34.425  28.073  1.00  0.00     0.148 A 
ATOM     97  C   UNL A   1      47.215  35.108  30.456  1.00  0.00     0.002 A 
ATOM     98  C   UNL A   1      46.307  35.732  28.292  1.00  0.00     0.091 A 
ATOM     99  F   UNL A   1      45.256  34.062  26.949  1.00  0.00    -0.205 F 
ATOM    100  C   UNL A   1      46.968  36.076  29.484  1.00  0.00     0.022 A 
BRANCH  98 101
ATOM    101  S   UNL A   1      46.049  37.044  27.094  1.00  0.00     0.127 S 
ATOM    102  O   UNL A   1      46.547  38.210  27.823  1.00  0.00    -0.237 OA
ATOM    103  O   UNL A   1      46.892  36.615  25.979  1.00  0.00    -0.237 OA
ATOM    104  O   UNL A   1      44.620  37.059  26.809  1.00  0.00    -0.744 OA
ENDBRANCH  98 101
ENDBRANCH  71  94
ENDBRANCH  45  46
ENDBRANCH  37  40
ENDBRANCH  35  36
ENDBRANCH  34  35
ENDBRANCH   1  34
TORSDOF 19
ENDMDL
MODEL 3
REMARK VINA RESULT:     -12.9      2.646      7.807
REMARK SMILES COc1cc(/C=C2/CCc3c2nc2ccccc2c3C(=O)NCCCCCCNC(=O)c2ccc(-c3c4nc(c(-c5cccc(S(=O)(=O)[O-])c5F)c5ccc([nH]5)c(-c5cccc(S(=O)(=O)[O-])c5F)c5nc(c(-c6cccc(S(=O)(=O)[O-])c6F)c6ccc3[nH]6)C=C5)C=C4)cc2)cc(Br)c1O
REMARK SMILES IDX 26 1 25 2 24 3 23 4 22 5 20 6 21 7 19 9 6 10 7 11 8 12 11 13
REMARK SMILES IDX 9 14 10 15 12 16 13 17 18 18 14 19 17 20 15 21 16 22 5 23
REMARK SMILES IDX 3 24 4 25 98 26 96 27 95 28 97 29 2 30 1 31 99 32 27 34
REMARK SMILES IDX 28 35 29 36 30 37 31 39 32 40 33 41 94 42 34 43 93 44 35 45
REMARK SMILES IDX 36 46 37 47 87 48 38 49 92 50 86 51 88 52 39 53 91 54 85 55
REMARK SMILES IDX 84 56 40 58 72 59 52 60 71 61 53 62 56 63 70 64 89 65 54 66
REMARK SMILES IDX 55 67 69 69 90 70 57 71 41 72 42 73 50 74 43 75 45 76 51 77
REMARK SMILES IDX 44 78 46 79 47 80 48 81 49 82 73 83 74 84 82 85 75 86 77 87
REMARK SMILES IDX 83 88 76 89 78 90 79 91 80 92 81 93 58 94 59 95 67 96 60 97
REMARK SMILES IDX 62 98 68 99 61 100 63 101 64 102 65 103 66 104
REMARK H PARENT 22 8 99 33 29 38 88 57 56 68
REMARK Flexibility Score: inf
ROOT
ATOM      1  C   UNL A   1      39.628  22.948  27.053  1.00  0.00     0.002 C 
ENDROOT
BRANCH   1   2
ATOM      2  C   UNL A   1      39.072  23.879  25.972  1.00  0.00     0.002 C 
BRANCH   2   3
ATOM      3  C   UNL A   1      37.553  23.917  25.944  1.00  0.00     0.021 C 
BRANCH   3   4
ATOM      4  C   UNL A   1      37.059  23.304  24.658  1.00  0.00     0.116 C 
BRANCH   4   5
ATOM      5  N   UNL A   1      35.633  23.637  24.370  1.00  0.00    -0.352 N 
ATOM      6  C   UNL A   1      34.668  23.057  23.452  1.00  0.00     0.252 C 
ATOM      7  O   UNL A   1      34.876  23.220  22.252  1.00  0.00    -0.269 OA
ATOM      8  H   UNL A   1      35.282  24.390  24.900  1.00  0.00     0.163 HD
BRANCH   6   9
ATOM      9  C   UNL A   1      33.160  22.394  23.993  1.00  0.00     0.054 A 
ATOM     10  C   UNL A   1      33.961  23.733  26.386  1.00  0.00     0.014 C 
ATOM     11  C   UNL A   1      34.044  22.313  26.413  1.00  0.00    -0.021 C 
ATOM     12  C   UNL A   1      35.246  21.336  25.881  1.00  0.00     0.042 C 
ATOM     13  C   UNL A   1      32.989  21.317  25.939  1.00  0.00     0.071 A 
ATOM     14  C   UNL A   1      34.642  20.429  24.762  1.00  0.00     0.043 C 
ATOM     15  C   UNL A   1      33.361  21.181  24.627  1.00  0.00    -0.008 A 
ATOM     16  N   UNL A   1      31.764  21.303  26.390  1.00  0.00    -0.248 NA
ATOM     17  C   UNL A   1      31.123  22.281  25.861  1.00  0.00     0.072 A 
ATOM     18  C   UNL A   1      31.854  23.274  24.514  1.00  0.00     0.013 A 
ATOM     19  C   UNL A   1      29.818  22.922  26.842  1.00  0.00     0.029 A 
ATOM     20  C   UNL A   1      31.008  25.114  24.356  1.00  0.00     0.011 A 
ATOM     21  C   UNL A   1      29.162  24.555  26.694  1.00  0.00     0.002 A 
ATOM     22  C   UNL A   1      29.717  25.668  25.471  1.00  0.00     0.001 A 
BRANCH  10  23
ATOM     23  C   UNL A   1      32.893  24.812  25.507  1.00  0.00    -0.020 A 
ATOM     24  C   UNL A   1      34.266  27.575  24.316  1.00  0.00     0.162 A 
ATOM     25  C   UNL A   1      33.955  25.578  24.311  1.00  0.00     0.058 A 
ATOM     26  C   UNL A   1      33.372  28.561  25.498  1.00  0.00     0.172 A 
ATOM     27  C   UNL A   1      32.188  27.781  26.497  1.00  0.00     0.064 A 
ATOM     28  C   UNL A   1      31.892  26.000  26.438  1.00  0.00     0.028 A 
ATOM     29  Br  UNL A   1      31.343  28.866  27.809  1.00  0.00    -0.047 Br
BRANCH  24  30
ATOM     30  O   UNL A   1      34.383  28.527  23.230  1.00  0.00    -0.493 OA
ATOM     31  C   UNL A   1      33.925  28.304  21.911  1.00  0.00     0.278 C 
ENDBRANCH  24  30
BRANCH  26  32
ATOM     32  O   UNL A   1      33.759  29.857  25.692  1.00  0.00    -0.503 OA
ATOM     33  H   UNL A   1      33.269  30.555  25.305  1.00  0.00     0.293 HD
ENDBRANCH  26  32
ENDBRANCH  10  23
ENDBRANCH   6   9
ENDBRANCH   4   5
ENDBRANCH   3   4
ENDBRANCH   2   3
ENDBRANCH   1   2
BRANCH   1  34
ATOM     34  C   UNL A   1      39.929  21.539  26.543  1.00  0.00     0.021 C 
BRANCH  34  35
ATOM     35  C   UNL A   1      40.841  20.771  27.488  1.00  0.00     0.116 C 
BRANCH  35  36
ATOM     36  N   UNL A   1      41.635  19.807  26.737  1.00  0.00    -0.352 N 
ATOM     37  C   UNL A   1      42.606  20.092  25.811  1.00  0.00     0.251 C 
ATOM     38  H   UNL A   1      41.456  18.854  26.910  1.00  0.00     0.163 HD
ATOM     39  O   UNL A   1      42.916  19.291  24.941  1.00  0.00    -0.269 OA
BRANCH  37  40
ATOM     40  C   UNL A   1      43.234  21.417  25.923  1.00  0.00     0.039 A 
ATOM     41  C   UNL A   1      43.816  21.769  27.146  1.00  0.00     0.014 A 
ATOM     42  C   UNL A   1      43.080  22.342  24.895  1.00  0.00     0.014 A 
ATOM     43  C   UNL A   1      44.071  23.102  27.410  1.00  0.00     0.010 A 
ATOM     44  C   UNL A   1      43.453  23.661  25.127  1.00  0.00     0.010 A 
ATOM     45  C   UNL A   1      43.899  24.059  26.401  1.00  0.00    -0.014 A 
BRANCH  45  46
ATOM     46  C   UNL A   1      44.182  25.483  26.681  1.00  0.00     0.031 A 
ATOM     47  C   UNL A   1      45.559  26.043  26.467  1.00  0.00     0.074 A 
ATOM     48  C   UNL A   1      43.191  26.263  27.152  1.00  0.00     0.049 A 
ATOM     49  N   UNL A   1      46.020  27.221  26.790  1.00  0.00    -0.248 NA
ATOM     50  C   UNL A   1      46.549  25.172  25.806  1.00  0.00     0.031 C 
ATOM     51  C   UNL A   1      41.806  25.835  27.372  1.00  0.00     0.029 A 
ATOM     52  N   UNL A   1      43.201  27.573  27.550  1.00  0.00    -0.354 N 
ATOM     53  C   UNL A   1      47.359  27.219  26.426  1.00  0.00     0.074 A 
ATOM     54  C   UNL A   1      47.643  25.922  25.850  1.00  0.00     0.031 C 
ATOM     55  C   UNL A   1      41.101  26.862  27.861  1.00  0.00     0.029 A 
ATOM     56  C   UNL A   1      41.998  27.991  28.063  1.00  0.00     0.049 A 
ATOM     57  H   UNL A   1      43.991  28.156  27.475  1.00  0.00     0.167 HD
ATOM     58  C   UNL A   1      48.265  28.213  26.557  1.00  0.00     0.034 A 
ATOM     59  C   UNL A   1      41.661  29.138  28.678  1.00  0.00     0.034 A 
ATOM     60  C   UNL A   1      47.967  29.509  27.104  1.00  0.00     0.049 A 
ATOM     61  C   UNL A   1      42.698  30.203  28.855  1.00  0.00     0.074 A 
ATOM     62  C   UNL A   1      48.815  30.592  27.245  1.00  0.00     0.029 A 
ATOM     63  N   UNL A   1      46.736  29.893  27.612  1.00  0.00    -0.354 N 
ATOM     64  N   UNL A   1      43.948  30.203  28.464  1.00  0.00    -0.248 NA
ATOM     65  C   UNL A   1      42.276  31.431  29.539  1.00  0.00     0.031 C 
ATOM     66  C   UNL A   1      48.110  31.619  27.875  1.00  0.00     0.029 A 
ATOM     67  C   UNL A   1      46.808  31.192  28.084  1.00  0.00     0.049 A 
ATOM     68  H   UNL A   1      45.931  29.328  27.632  1.00  0.00     0.167 HD
ATOM     69  C   UNL A   1      44.461  31.439  28.836  1.00  0.00     0.074 A 
ATOM     70  C   UNL A   1      43.376  32.168  29.463  1.00  0.00     0.031 C 
ATOM     71  C   UNL A   1      45.718  31.916  28.682  1.00  0.00     0.034 A 
BRANCH  58  72
ATOM     72  C   UNL A   1      49.672  27.968  26.088  1.00  0.00     0.023 A 
ATOM     73  C   UNL A   1      49.982  28.084  24.720  1.00  0.00     0.012 A 
ATOM     74  C   UNL A   1      50.703  27.748  27.022  1.00  0.00     0.148 A 
ATOM     75  C   UNL A   1      51.305  27.994  24.287  1.00  0.00     0.002 A 
ATOM     76  C   UNL A   1      52.020  27.680  26.587  1.00  0.00     0.091 A 
ATOM     77  F   UNL A   1      50.377  27.636  28.318  1.00  0.00    -0.205 F 
ATOM     78  C   UNL A   1      52.323  27.808  25.221  1.00  0.00     0.022 A 
BRANCH  76  79
ATOM     79  S   UNL A   1      53.404  27.446  27.706  1.00  0.00     0.127 S 
ATOM     80  O   UNL A   1      53.185  26.073  28.159  1.00  0.00    -0.237 OA
ATOM     81  O   UNL A   1      54.551  27.619  26.815  1.00  0.00    -0.237 OA
ATOM     82  O   UNL A   1      53.267  28.463  28.738  1.00  0.00    -0.744 OA
ENDBRANCH  76  79
ENDBRANCH  58  72
BRANCH  59  83
ATOM     83  C   UNL A   1      40.264  29.320  29.149  1.00  0.00     0.023 A 
ATOM     84  C   UNL A   1      39.257  29.610  28.211  1.00  0.00     0.012 A 
ATOM     85  C   UNL A   1      39.922  29.125  30.502  1.00  0.00     0.148 A 
ATOM     86  C   UNL A   1      37.925  29.701  28.613  1.00  0.00     0.002 A 
ATOM     87  C   UNL A   1      38.591  29.193  30.891  1.00  0.00     0.091 A 
ATOM     88  F   UNL A   1      40.903  28.834  31.367  1.00  0.00    -0.205 F 
ATOM     89  C   UNL A   1      37.591  29.482  29.948  1.00  0.00     0.022 A 
BRANCH  87  90
ATOM     90  S   UNL A   1      38.056  28.888  32.578  1.00  0.00     0.127 S 
ATOM     91  O   UNL A   1      38.277  27.449  32.700  1.00  0.00    -0.237 OA
ATOM     92  O   UNL A   1      38.987  29.721  33.340  1.00  0.00    -0.237 OA
ATOM     93  O   UNL A   1      36.664  29.312  32.639  1.00  0.00    -0.744 OA
ENDBRANCH  87  90
ENDBRANCH  59  83
BRANCH  71  94
ATOM     94  C   UNL A   1      46.004  33.307  29.181  1.00  0.00     0.023 A 
ATOM     95  C   UNL A   1      46.477  33.493  30.494  1.00  0.00     0.012 A 
ATOM     96  C   UNL A   1      45.881  34.415  28.321  1.00  0.00     0.148 A 
ATOM     97  C   UNL A   1      46.805  34.767  30.952  1.00  0.00     0.002 A 
ATOM     98  C   UNL A   1      46.233  35.679  28.775  1.00  0.00     0.091 A 
ATOM     99  F   UNL A   1      45.434  34.209  27.074  1.00  0.00    -0.205 F 
ATOM    100  C   UNL A   1      46.694  35.857  30.091  1.00  0.00     0.022 A 
BRANCH  98 101
ATOM    101  S   UNL A   1      46.142  37.142  27.738  1.00  0.00     0.127 S 
ATOM    102  O   UNL A   1      44.697  37.363  27.668  1.00  0.00    -0.237 OA
ATOM    103  O   UNL A   1      46.873  38.130  28.530  1.00  0.00    -0.237 OA
ATOM    104  O   UNL A   1      46.771  36.784  26.474  1.00  0.00    -0.744 OA
ENDBRANCH  98 101
ENDBRANCH  71  94
ENDBRANCH  45  46
ENDBRANCH  37  40
ENDBRANCH  35  36
ENDBRANCH  34  35
ENDBRANCH   1  34
TORSDOF 19
ENDMDL
