MODEL 1
REMARK VINA RESULT:     -11.9      0.000      0.000
REMARK SMILES Cc1nn(C)c(=O)c(C(=O)N[C@H]2C=C[C@H](C(=O)NCCCCCCNC(=O)c3ccc(-c4c5nc(c(-c6cccc(S(=O)(=O)[O-])c6F)c6ccc([nH]6)c(-c6cccc(S(=O)(=O)[O-])c6F)c6nc(c(-c7cccc(S(=O)(=O)[O-])c7F)c7ccc4[nH]7)C=C6)C=C5)cc3)C2)c1C
REMARK SMILES IDX 22 1 21 2 20 3 19 4 18 5 16 6 17 7 15 9 12 10 13 11 91 12
REMARK SMILES IDX 14 13 11 14 9 15 10 16 8 18 1 19 2 20 3 21 92 22 4 23 93 24
REMARK SMILES IDX 5 25 6 26 7 27 23 28 24 29 25 30 26 31 27 33 28 34 29 35
REMARK SMILES IDX 90 36 30 37 89 38 31 39 32 40 33 41 83 42 34 43 88 44 82 45
REMARK SMILES IDX 84 46 35 47 87 48 81 49 80 50 36 52 68 53 48 54 67 55 49 56
REMARK SMILES IDX 52 57 66 58 85 59 50 60 51 61 65 63 86 64 53 65 37 66 38 67
REMARK SMILES IDX 46 68 39 69 41 70 47 71 40 72 42 73 43 74 44 75 45 76 69 77
REMARK SMILES IDX 70 78 78 79 71 80 73 81 79 82 72 83 74 84 75 85 76 86 77 87
REMARK SMILES IDX 54 88 55 89 63 90 56 91 58 92 64 93 57 94 59 95 60 96 61 97
REMARK SMILES IDX 62 98
REMARK H PARENT 18 8 11 17 25 32 84 51 52 62
REMARK Flexibility Score: inf
ROOT
ATOM      1  C   UNL A   1      31.633  28.804  24.833  1.00  0.00     0.002 C 
ENDROOT
BRANCH   1   2
ATOM      2  C   UNL A   1      30.996  28.707  23.443  1.00  0.00     0.002 C 
BRANCH   2   3
ATOM      3  C   UNL A   1      29.560  28.174  23.407  1.00  0.00     0.021 C 
BRANCH   3   4
ATOM      4  C   UNL A   1      29.422  26.657  23.491  1.00  0.00     0.116 C 
BRANCH   4   5
ATOM      5  N   UNL A   1      28.950  26.211  24.789  1.00  0.00    -0.356 N 
ATOM      6  C   UNL A   1      29.642  25.535  25.755  1.00  0.00     0.227 C 
ATOM      7  O   UNL A   1      29.070  25.290  26.818  1.00  0.00    -0.274 OA
ATOM      8  H   UNL A   1      28.012  26.423  25.001  1.00  0.00     0.163 HD
BRANCH   6   9
ATOM      9  C   UNL A   1      31.052  25.018  25.423  1.00  0.00     0.103 C 
ATOM     10  C   UNL A   1      31.059  22.730  26.138  1.00  0.00     0.106 C 
ATOM     11  C   UNL A   1      32.008  23.529  26.974  1.00  0.00    -0.006 C 
ATOM     12  C   UNL A   1      30.939  23.582  24.879  1.00  0.00     0.047 C 
ATOM     13  C   UNL A   1      31.934  24.821  26.628  1.00  0.00    -0.016 C 
BRANCH  10  14
ATOM     14  N   UNL A   1      31.497  21.376  25.978  1.00  0.00    -0.346 N 
ATOM     15  C   UNL A   1      32.325  20.784  25.068  1.00  0.00     0.257 C 
ATOM     16  O   UNL A   1      32.199  19.562  24.946  1.00  0.00    -0.269 OA
ATOM     17  H   UNL A   1      31.132  20.755  26.649  1.00  0.00     0.164 HD
BRANCH  15  18
ATOM     18  C   UNL A   1      33.392  21.508  24.288  1.00  0.00     0.111 A 
ATOM     19  C   UNL A   1      36.982  22.610  23.973  1.00  0.00     0.069 C 
ATOM     20  C   UNL A   1      35.481  22.612  23.764  1.00  0.00     0.062 A 
ATOM     21  N   UNL A   1      35.066  23.191  22.687  1.00  0.00    -0.175 NA
ATOM     22  C   UNL A   1      34.586  21.936  24.750  1.00  0.00    -0.010 A 
ATOM     23  N   UNL A   1      33.752  23.028  22.370  1.00  0.00    -0.232 N 
ATOM     24  C   UNL A   1      35.085  21.969  26.158  1.00  0.00     0.047 C 
ATOM     25  C   UNL A   1      33.288  23.812  21.237  1.00  0.00     0.178 C 
ATOM     26  C   UNL A   1      32.953  22.037  22.934  1.00  0.00     0.279 A 
ATOM     27  O   UNL A   1      31.915  21.652  22.400  1.00  0.00    -0.267 OA
ENDBRANCH  15  18
ENDBRANCH  10  14
ENDBRANCH   6   9
ENDBRANCH   4   5
ENDBRANCH   3   4
ENDBRANCH   2   3
ENDBRANCH   1   2
BRANCH   1  28
ATOM     28  C   UNL A   1      33.162  28.817  24.861  1.00  0.00     0.021 C 
BRANCH  28  29
ATOM     29  C   UNL A   1      33.785  28.995  26.241  1.00  0.00     0.116 C 
BRANCH  29  30
ATOM     30  N   UNL A   1      33.737  30.374  26.698  1.00  0.00    -0.352 N 
ATOM     31  C   UNL A   1      34.555  31.025  27.593  1.00  0.00     0.251 C 
ATOM     32  H   UNL A   1      33.015  30.921  26.312  1.00  0.00     0.163 HD
ATOM     33  O   UNL A   1      34.262  32.145  27.988  1.00  0.00    -0.269 OA
BRANCH  31  34
ATOM     34  C   UNL A   1      35.777  30.354  28.093  1.00  0.00     0.039 A 
ATOM     35  C   UNL A   1      36.943  30.421  27.327  1.00  0.00     0.014 A 
ATOM     36  C   UNL A   1      35.774  29.665  29.309  1.00  0.00     0.014 A 
ATOM     37  C   UNL A   1      38.121  29.845  27.810  1.00  0.00     0.010 A 
ATOM     38  C   UNL A   1      36.964  29.157  29.822  1.00  0.00     0.010 A 
ATOM     39  C   UNL A   1      38.149  29.233  29.074  1.00  0.00    -0.014 A 
BRANCH  39  40
ATOM     40  C   UNL A   1      39.410  28.669  29.624  1.00  0.00     0.031 A 
ATOM     41  C   UNL A   1      40.053  29.290  30.836  1.00  0.00     0.074 A 
ATOM     42  C   UNL A   1      40.007  27.635  28.999  1.00  0.00     0.049 A 
ATOM     43  N   UNL A   1      41.160  28.949  31.442  1.00  0.00    -0.248 NA
ATOM     44  C   UNL A   1      39.380  30.457  31.432  1.00  0.00     0.031 C 
ATOM     45  C   UNL A   1      39.522  26.995  27.775  1.00  0.00     0.029 A 
ATOM     46  N   UNL A   1      41.164  26.954  29.293  1.00  0.00    -0.354 N 
ATOM     47  C   UNL A   1      41.332  29.869  32.468  1.00  0.00     0.074 A 
ATOM     48  C   UNL A   1      40.234  30.807  32.384  1.00  0.00     0.031 C 
ATOM     49  C   UNL A   1      40.368  26.012  27.427  1.00  0.00     0.029 A 
ATOM     50  C   UNL A   1      41.473  25.970  28.382  1.00  0.00     0.049 A 
ATOM     51  H   UNL A   1      41.719  27.151  30.081  1.00  0.00     0.167 HD
ATOM     52  C   UNL A   1      42.298  29.912  33.414  1.00  0.00     0.034 A 
ATOM     53  C   UNL A   1      42.527  25.131  28.317  1.00  0.00     0.034 A 
ATOM     54  C   UNL A   1      43.357  28.947  33.526  1.00  0.00     0.049 A 
ATOM     55  C   UNL A   1      43.569  25.179  29.403  1.00  0.00     0.074 A 
ATOM     56  C   UNL A   1      44.325  28.852  34.511  1.00  0.00     0.029 A 
ATOM     57  N   UNL A   1      43.597  27.920  32.628  1.00  0.00    -0.354 N 
ATOM     58  N   UNL A   1      43.620  25.951  30.462  1.00  0.00    -0.248 NA
ATOM     59  C   UNL A   1      44.681  24.222  29.309  1.00  0.00     0.031 C 
ATOM     60  C   UNL A   1      45.172  27.790  34.188  1.00  0.00     0.029 A 
ATOM     61  C   UNL A   1      44.710  27.200  33.022  1.00  0.00     0.049 A 
ATOM     62  H   UNL A   1      43.056  27.732  31.827  1.00  0.00     0.167 HD
ATOM     63  C   UNL A   1      44.750  25.557  31.170  1.00  0.00     0.074 A 
ATOM     64  C   UNL A   1      45.339  24.457  30.437  1.00  0.00     0.031 C 
ATOM     65  C   UNL A   1      45.262  26.074  32.314  1.00  0.00     0.034 A 
BRANCH  52  66
ATOM     66  C   UNL A   1      42.234  30.997  34.457  1.00  0.00     0.023 A 
ATOM     67  C   UNL A   1      41.618  30.731  35.696  1.00  0.00     0.012 A 
ATOM     68  C   UNL A   1      42.896  32.224  34.260  1.00  0.00     0.148 A 
ATOM     69  C   UNL A   1      41.650  31.676  36.720  1.00  0.00     0.002 A 
ATOM     70  C   UNL A   1      42.965  33.141  35.302  1.00  0.00     0.091 A 
ATOM     71  F   UNL A   1      43.460  32.461  33.067  1.00  0.00    -0.205 F 
ATOM     72  C   UNL A   1      42.337  32.872  36.529  1.00  0.00     0.022 A 
BRANCH  70  73
ATOM     73  S   UNL A   1      43.904  34.669  35.192  1.00  0.00     0.127 S 
ATOM     74  O   UNL A   1      43.675  35.250  36.515  1.00  0.00    -0.237 OA
ATOM     75  O   UNL A   1      45.263  34.177  34.970  1.00  0.00    -0.237 OA
ATOM     76  O   UNL A   1      43.332  35.417  34.082  1.00  0.00    -0.744 OA
ENDBRANCH  70  73
ENDBRANCH  52  66
BRANCH  53  77
ATOM     77  C   UNL A   1      42.618  24.136  27.208  1.00  0.00     0.023 A 
ATOM     78  C   UNL A   1      43.338  24.458  26.042  1.00  0.00     0.012 A 
ATOM     79  C   UNL A   1      42.033  22.860  27.321  1.00  0.00     0.148 A 
ATOM     80  C   UNL A   1      43.448  23.540  24.996  1.00  0.00     0.002 A 
ATOM     81  C   UNL A   1      42.199  21.927  26.303  1.00  0.00     0.091 A 
ATOM     82  F   UNL A   1      41.338  22.575  28.432  1.00  0.00    -0.205 F 
ATOM     83  C   UNL A   1      42.890  22.272  25.132  1.00  0.00     0.022 A 
BRANCH  81  84
ATOM     84  S   UNL A   1      41.645  20.225  26.457  1.00  0.00     0.127 S 
ATOM     85  O   UNL A   1      42.220  19.612  25.263  1.00  0.00    -0.237 OA
ATOM     86  O   UNL A   1      42.266  19.819  27.720  1.00  0.00    -0.237 OA
ATOM     87  O   UNL A   1      40.190  20.286  26.499  1.00  0.00    -0.744 OA
ENDBRANCH  81  84
ENDBRANCH  53  77
BRANCH  65  88
ATOM     88  C   UNL A   1      46.523  25.464  32.870  1.00  0.00     0.023 A 
ATOM     89  C   UNL A   1      47.766  26.063  32.591  1.00  0.00     0.012 A 
ATOM     90  C   UNL A   1      46.463  24.382  33.771  1.00  0.00     0.148 A 
ATOM     91  C   UNL A   1      48.934  25.584  33.184  1.00  0.00     0.002 A 
ATOM     92  C   UNL A   1      47.622  23.944  34.400  1.00  0.00     0.091 A 
ATOM     93  F   UNL A   1      45.271  23.817  34.014  1.00  0.00    -0.205 F 
ATOM     94  C   UNL A   1      48.860  24.536  34.098  1.00  0.00     0.022 A 
BRANCH  92  95
ATOM     95  S   UNL A   1      47.613  22.678  35.675  1.00  0.00     0.127 S 
ATOM     96  O   UNL A   1      46.700  23.256  36.661  1.00  0.00    -0.237 OA
ATOM     97  O   UNL A   1      47.081  21.519  34.957  1.00  0.00    -0.237 OA
ATOM     98  O   UNL A   1      48.995  22.538  36.116  1.00  0.00    -0.744 OA
ENDBRANCH  92  95
ENDBRANCH  65  88
ENDBRANCH  39  40
ENDBRANCH  31  34
ENDBRANCH  29  30
ENDBRANCH  28  29
ENDBRANCH   1  28
TORSDOF 18
ENDMDL
MODEL 2
REMARK VINA RESULT:     -11.8      4.023      5.901
REMARK SMILES Cc1nn(C)c(=O)c(C(=O)N[C@H]2C=C[C@H](C(=O)NCCCCCCNC(=O)c3ccc(-c4c5nc(c(-c6cccc(S(=O)(=O)[O-])c6F)c6ccc([nH]6)c(-c6cccc(S(=O)(=O)[O-])c6F)c6nc(c(-c7cccc(S(=O)(=O)[O-])c7F)c7ccc4[nH]7)C=C6)C=C5)cc3)C2)c1C
REMARK SMILES IDX 22 1 21 2 20 3 19 4 18 5 16 6 17 7 15 9 12 10 13 11 91 12
REMARK SMILES IDX 14 13 11 14 9 15 10 16 8 18 1 19 2 20 3 21 92 22 4 23 93 24
REMARK SMILES IDX 5 25 6 26 7 27 23 28 24 29 25 30 26 31 27 33 28 34 29 35
REMARK SMILES IDX 90 36 30 37 89 38 31 39 32 40 33 41 83 42 34 43 88 44 82 45
REMARK SMILES IDX 84 46 35 47 87 48 81 49 80 50 36 52 68 53 48 54 67 55 49 56
REMARK SMILES IDX 52 57 66 58 85 59 50 60 51 61 65 63 86 64 53 65 37 66 38 67
REMARK SMILES IDX 46 68 39 69 41 70 47 71 40 72 42 73 43 74 44 75 45 76 69 77
REMARK SMILES IDX 70 78 78 79 71 80 73 81 79 82 72 83 74 84 75 85 76 86 77 87
REMARK SMILES IDX 54 88 55 89 63 90 56 91 58 92 64 93 57 94 59 95 60 96 61 97
REMARK SMILES IDX 62 98
REMARK H PARENT 18 8 11 17 25 32 84 51 52 62
REMARK Flexibility Score: inf
ROOT
ATOM      1  C   UNL A   1      34.556  33.735  28.409  1.00  0.00     0.002 C 
ENDROOT
BRANCH   1   2
ATOM      2  C   UNL A   1      34.685  32.377  29.106  1.00  0.00     0.002 C 
BRANCH   2   3
ATOM      3  C   UNL A   1      34.979  31.185  28.189  1.00  0.00     0.021 C 
BRANCH   3   4
ATOM      4  C   UNL A   1      33.791  30.670  27.383  1.00  0.00     0.116 C 
BRANCH   4   5
ATOM      5  N   UNL A   1      34.194  29.820  26.277  1.00  0.00    -0.356 N 
ATOM      6  C   UNL A   1      33.417  28.982  25.526  1.00  0.00     0.227 C 
ATOM      7  O   UNL A   1      33.947  28.380  24.591  1.00  0.00    -0.274 OA
ATOM      8  H   UNL A   1      35.149  29.852  26.037  1.00  0.00     0.163 HD
BRANCH   6   9
ATOM      9  C   UNL A   1      31.960  28.750  25.955  1.00  0.00     0.103 C 
ATOM     10  C   UNL A   1      31.773  26.380  26.261  1.00  0.00     0.106 C 
ATOM     11  C   UNL A   1      30.921  26.815  25.111  1.00  0.00    -0.006 C 
ATOM     12  C   UNL A   1      31.931  27.672  27.055  1.00  0.00     0.047 C 
ATOM     13  C   UNL A   1      31.098  28.124  24.890  1.00  0.00    -0.016 C 
BRANCH  10  14
ATOM     14  N   UNL A   1      31.214  25.252  26.944  1.00  0.00    -0.346 N 
ATOM     15  C   UNL A   1      31.208  23.918  26.654  1.00  0.00     0.257 C 
ATOM     16  O   UNL A   1      30.326  23.254  27.207  1.00  0.00    -0.269 OA
ATOM     17  H   UNL A   1      30.746  25.481  27.780  1.00  0.00     0.164 HD
BRANCH  15  18
ATOM     18  C   UNL A   1      32.227  23.229  25.782  1.00  0.00     0.111 A 
ATOM     19  C   UNL A   1      35.267  21.022  25.487  1.00  0.00     0.069 C 
ATOM     20  C   UNL A   1      34.244  22.075  25.109  1.00  0.00     0.062 A 
ATOM     21  N   UNL A   1      34.126  22.312  23.846  1.00  0.00    -0.175 NA
ATOM     22  C   UNL A   1      33.423  22.736  26.167  1.00  0.00    -0.010 A 
ATOM     23  N   UNL A   1      33.078  23.094  23.464  1.00  0.00    -0.232 N 
ATOM     24  C   UNL A   1      34.119  22.894  27.479  1.00  0.00     0.047 C 
ATOM     25  C   UNL A   1      33.061  23.460  22.058  1.00  0.00     0.178 C 
ATOM     26  C   UNL A   1      31.987  23.356  24.289  1.00  0.00     0.279 A 
ATOM     27  O   UNL A   1      30.904  23.729  23.841  1.00  0.00    -0.267 OA
ENDBRANCH  15  18
ENDBRANCH  10  14
ENDBRANCH   6   9
ENDBRANCH   4   5
ENDBRANCH   3   4
ENDBRANCH   2   3
ENDBRANCH   1   2
BRANCH   1  28
ATOM     28  C   UNL A   1      33.276  34.516  28.711  1.00  0.00     0.021 C 
BRANCH  28  29
ATOM     29  C   UNL A   1      33.479  35.839  29.440  1.00  0.00     0.116 C 
BRANCH  29  30
ATOM     30  N   UNL A   1      32.511  36.040  30.506  1.00  0.00    -0.352 N 
ATOM     31  C   UNL A   1      32.533  35.580  31.803  1.00  0.00     0.251 C 
ATOM     32  H   UNL A   1      31.726  36.583  30.265  1.00  0.00     0.163 HD
ATOM     33  O   UNL A   1      31.546  35.706  32.514  1.00  0.00    -0.269 OA
BRANCH  31  34
ATOM     34  C   UNL A   1      33.747  34.911  32.323  1.00  0.00     0.039 A 
ATOM     35  C   UNL A   1      33.621  33.651  32.914  1.00  0.00     0.014 A 
ATOM     36  C   UNL A   1      35.002  35.521  32.229  1.00  0.00     0.014 A 
ATOM     37  C   UNL A   1      34.763  32.979  33.358  1.00  0.00     0.010 A 
ATOM     38  C   UNL A   1      36.144  34.818  32.604  1.00  0.00     0.010 A 
ATOM     39  C   UNL A   1      36.037  33.543  33.181  1.00  0.00    -0.014 A 
BRANCH  39  40
ATOM     40  C   UNL A   1      37.263  32.812  33.595  1.00  0.00     0.031 A 
ATOM     41  C   UNL A   1      38.040  33.261  34.804  1.00  0.00     0.074 A 
ATOM     42  C   UNL A   1      37.710  31.782  32.851  1.00  0.00     0.049 A 
ATOM     43  N   UNL A   1      39.140  32.762  35.303  1.00  0.00    -0.248 NA
ATOM     44  C   UNL A   1      37.530  34.434  35.536  1.00  0.00     0.031 C 
ATOM     45  C   UNL A   1      37.087  31.299  31.617  1.00  0.00     0.029 A 
ATOM     46  N   UNL A   1      38.806  30.967  33.010  1.00  0.00    -0.354 N 
ATOM     47  C   UNL A   1      39.470  33.571  36.384  1.00  0.00     0.074 A 
ATOM     48  C   UNL A   1      38.472  34.615  36.451  1.00  0.00     0.031 C 
ATOM     49  C   UNL A   1      37.803  30.270  31.135  1.00  0.00     0.029 A 
ATOM     50  C   UNL A   1      38.954  30.038  32.005  1.00  0.00     0.049 A 
ATOM     51  H   UNL A   1      39.426  31.040  33.770  1.00  0.00     0.167 HD
ATOM     52  C   UNL A   1      40.491  33.437  37.261  1.00  0.00     0.034 A 
ATOM     53  C   UNL A   1      39.909  29.108  31.801  1.00  0.00     0.034 A 
ATOM     54  C   UNL A   1      41.449  32.366  37.223  1.00  0.00     0.049 A 
ATOM     55  C   UNL A   1      41.015  28.961  32.812  1.00  0.00     0.074 A 
ATOM     56  C   UNL A   1      42.460  32.092  38.128  1.00  0.00     0.029 A 
ATOM     57  N   UNL A   1      41.525  31.401  36.232  1.00  0.00    -0.354 N 
ATOM     58  N   UNL A   1      41.210  29.631  33.923  1.00  0.00    -0.248 NA
ATOM     59  C   UNL A   1      42.014  27.910  32.567  1.00  0.00     0.031 C 
ATOM     60  C   UNL A   1      43.170  30.984  37.664  1.00  0.00     0.029 A 
ATOM     61  C   UNL A   1      42.580  30.543  36.491  1.00  0.00     0.049 A 
ATOM     62  H   UNL A   1      40.919  31.336  35.459  1.00  0.00     0.167 HD
ATOM     63  C   UNL A   1      42.334  29.068  34.517  1.00  0.00     0.074 A 
ATOM     64  C   UNL A   1      42.760  27.982  33.661  1.00  0.00     0.031 C 
ATOM     65  C   UNL A   1      42.966  29.433  35.660  1.00  0.00     0.034 A 
BRANCH  52  66
ATOM     66  C   UNL A   1      40.604  34.430  38.388  1.00  0.00     0.023 A 
ATOM     67  C   UNL A   1      41.353  35.609  38.200  1.00  0.00     0.012 A 
ATOM     68  C   UNL A   1      39.864  34.260  39.574  1.00  0.00     0.148 A 
ATOM     69  C   UNL A   1      41.376  36.598  39.181  1.00  0.00     0.002 A 
ATOM     70  C   UNL A   1      39.853  35.272  40.527  1.00  0.00     0.091 A 
ATOM     71  F   UNL A   1      39.173  33.123  39.738  1.00  0.00    -0.205 F 
ATOM     72  C   UNL A   1      40.614  36.437  40.335  1.00  0.00     0.022 A 
BRANCH  70  73
ATOM     73  S   UNL A   1      38.832  35.206  42.003  1.00  0.00     0.127 S 
ATOM     74  O   UNL A   1      39.380  34.036  42.688  1.00  0.00    -0.237 OA
ATOM     75  O   UNL A   1      39.139  36.485  42.643  1.00  0.00    -0.237 OA
ATOM     76  O   UNL A   1      37.459  35.064  41.540  1.00  0.00    -0.744 OA
ENDBRANCH  70  73
ENDBRANCH  52  66
BRANCH  53  77
ATOM     77  C   UNL A   1      39.828  28.206  30.614  1.00  0.00     0.023 A 
ATOM     78  C   UNL A   1      38.940  27.114  30.631  1.00  0.00     0.012 A 
ATOM     79  C   UNL A   1      40.594  28.449  29.457  1.00  0.00     0.148 A 
ATOM     80  C   UNL A   1      38.837  26.263  29.529  1.00  0.00     0.002 A 
ATOM     81  C   UNL A   1      40.441  27.636  28.340  1.00  0.00     0.091 A 
ATOM     82  F   UNL A   1      41.446  29.484  29.465  1.00  0.00    -0.205 F 
ATOM     83  C   UNL A   1      39.577  26.530  28.380  1.00  0.00     0.022 A 
BRANCH  81  84
ATOM     84  S   UNL A   1      41.240  27.995  26.771  1.00  0.00     0.127 S 
ATOM     85  O   UNL A   1      40.575  29.233  26.372  1.00  0.00    -0.237 OA
ATOM     86  O   UNL A   1      42.639  28.147  27.174  1.00  0.00    -0.237 OA
ATOM     87  O   UNL A   1      40.983  26.837  25.925  1.00  0.00    -0.744 OA
ENDBRANCH  81  84
ENDBRANCH  53  77
BRANCH  65  88
ATOM     88  C   UNL A   1      44.189  28.657  36.077  1.00  0.00     0.023 A 
ATOM     89  C   UNL A   1      45.464  29.098  35.674  1.00  0.00     0.012 A 
ATOM     90  C   UNL A   1      44.082  27.573  36.972  1.00  0.00     0.148 A 
ATOM     91  C   UNL A   1      46.615  28.462  36.139  1.00  0.00     0.002 A 
ATOM     92  C   UNL A   1      45.234  26.978  37.474  1.00  0.00     0.091 A 
ATOM     93  F   UNL A   1      42.860  27.159  37.333  1.00  0.00    -0.205 F 
ATOM     94  C   UNL A   1      46.500  27.414  37.049  1.00  0.00     0.022 A 
BRANCH  92  95
ATOM     95  S   UNL A   1      45.193  25.697  38.734  1.00  0.00     0.127 S 
ATOM     96  O   UNL A   1      46.615  25.529  39.032  1.00  0.00    -0.237 OA
ATOM     97  O   UNL A   1      44.418  26.337  39.798  1.00  0.00    -0.237 OA
ATOM     98  O   UNL A   1      44.546  24.546  38.119  1.00  0.00    -0.744 OA
ENDBRANCH  92  95
ENDBRANCH  65  88
ENDBRANCH  39  40
ENDBRANCH  31  34
ENDBRANCH  29  30
ENDBRANCH  28  29
ENDBRANCH   1  28
TORSDOF 18
ENDMDL
MODEL 3
REMARK VINA RESULT:     -11.6      4.413      9.547
REMARK SMILES Cc1nn(C)c(=O)c(C(=O)N[C@H]2C=C[C@H](C(=O)NCCCCCCNC(=O)c3ccc(-c4c5nc(c(-c6cccc(S(=O)(=O)[O-])c6F)c6ccc([nH]6)c(-c6cccc(S(=O)(=O)[O-])c6F)c6nc(c(-c7cccc(S(=O)(=O)[O-])c7F)c7ccc4[nH]7)C=C6)C=C5)cc3)C2)c1C
REMARK SMILES IDX 22 1 21 2 20 3 19 4 18 5 16 6 17 7 15 9 12 10 13 11 91 12
REMARK SMILES IDX 14 13 11 14 9 15 10 16 8 18 1 19 2 20 3 21 92 22 4 23 93 24
REMARK SMILES IDX 5 25 6 26 7 27 23 28 24 29 25 30 26 31 27 33 28 34 29 35
REMARK SMILES IDX 90 36 30 37 89 38 31 39 32 40 33 41 83 42 34 43 88 44 82 45
REMARK SMILES IDX 84 46 35 47 87 48 81 49 80 50 36 52 68 53 48 54 67 55 49 56
REMARK SMILES IDX 52 57 66 58 85 59 50 60 51 61 65 63 86 64 53 65 37 66 38 67
REMARK SMILES IDX 46 68 39 69 41 70 47 71 40 72 42 73 43 74 44 75 45 76 69 77
REMARK SMILES IDX 70 78 78 79 71 80 73 81 79 82 72 83 74 84 75 85 76 86 77 87
REMARK SMILES IDX 54 88 55 89 63 90 56 91 58 92 64 93 57 94 59 95 60 96 61 97
REMARK SMILES IDX 62 98
REMARK H PARENT 18 8 11 17 25 32 84 51 52 62
REMARK Flexibility Score: inf
ROOT
ATOM      1  C   UNL A   1      35.634  18.984  24.605  1.00  0.00     0.002 C 
ENDROOT
BRANCH   1   2
ATOM      2  C   UNL A   1      34.272  18.310  24.796  1.00  0.00     0.002 C 
BRANCH   2   3
ATOM      3  C   UNL A   1      33.324  18.376  23.594  1.00  0.00     0.021 C 
BRANCH   3   4
ATOM      4  C   UNL A   1      32.160  19.353  23.730  1.00  0.00     0.116 C 
BRANCH   4   5
ATOM      5  N   UNL A   1      32.488  20.683  23.249  1.00  0.00    -0.356 N 
ATOM      6  C   UNL A   1      32.388  21.872  23.915  1.00  0.00     0.227 C 
ATOM      7  O   UNL A   1      32.768  22.894  23.342  1.00  0.00    -0.274 OA
ATOM      8  H   UNL A   1      32.826  20.734  22.325  1.00  0.00     0.163 HD
BRANCH   6   9
ATOM      9  C   UNL A   1      31.704  21.888  25.292  1.00  0.00     0.103 C 
ATOM     10  C   UNL A   1      31.913  24.148  26.062  1.00  0.00     0.106 C 
ATOM     11  C   UNL A   1      32.710  23.235  26.939  1.00  0.00    -0.006 C 
ATOM     12  C   UNL A   1      30.902  23.195  25.434  1.00  0.00     0.047 C 
ATOM     13  C   UNL A   1      32.661  21.988  26.451  1.00  0.00    -0.016 C 
BRANCH  10  14
ATOM     14  N   UNL A   1      31.397  25.270  26.789  1.00  0.00    -0.346 N 
ATOM     15  C   UNL A   1      31.481  26.616  26.574  1.00  0.00     0.257 C 
ATOM     16  O   UNL A   1      31.283  27.328  27.562  1.00  0.00    -0.269 OA
ATOM     17  H   UNL A   1      30.886  25.025  27.594  1.00  0.00     0.164 HD
BRANCH  15  18
ATOM     18  C   UNL A   1      31.725  27.252  25.230  1.00  0.00     0.111 A 
ATOM     19  C   UNL A   1      34.138  28.735  22.744  1.00  0.00     0.069 C 
ATOM     20  C   UNL A   1      32.823  28.466  23.447  1.00  0.00     0.062 A 
ATOM     21  N   UNL A   1      31.759  28.673  22.745  1.00  0.00    -0.175 NA
ATOM     22  C   UNL A   1      32.813  27.955  24.851  1.00  0.00    -0.010 A 
ATOM     23  N   UNL A   1      30.580  28.245  23.274  1.00  0.00    -0.232 N 
ATOM     24  C   UNL A   1      33.955  28.431  25.687  1.00  0.00     0.047 C 
ATOM     25  C   UNL A   1      29.393  28.625  22.527  1.00  0.00     0.178 C 
ATOM     26  C   UNL A   1      30.508  27.335  24.326  1.00  0.00     0.279 A 
ATOM     27  O   UNL A   1      29.494  26.676  24.552  1.00  0.00    -0.267 OA
ENDBRANCH  15  18
ENDBRANCH  10  14
ENDBRANCH   6   9
ENDBRANCH   4   5
ENDBRANCH   3   4
ENDBRANCH   2   3
ENDBRANCH   1   2
BRANCH   1  28
ATOM     28  C   UNL A   1      35.697  20.467  24.976  1.00  0.00     0.021 C 
BRANCH  28  29
ATOM     29  C   UNL A   1      37.101  21.041  25.124  1.00  0.00     0.116 C 
BRANCH  29  30
ATOM     30  N   UNL A   1      38.093  20.015  25.404  1.00  0.00    -0.352 N 
ATOM     31  C   UNL A   1      39.387  20.153  25.851  1.00  0.00     0.251 C 
ATOM     32  H   UNL A   1      37.796  19.089  25.252  1.00  0.00     0.163 HD
ATOM     33  O   UNL A   1      40.135  19.184  25.870  1.00  0.00    -0.269 OA
BRANCH  31  34
ATOM     34  C   UNL A   1      39.877  21.481  26.285  1.00  0.00     0.039 A 
ATOM     35  C   UNL A   1      41.058  21.554  27.027  1.00  0.00     0.014 A 
ATOM     36  C   UNL A   1      39.177  22.647  25.963  1.00  0.00     0.014 A 
ATOM     37  C   UNL A   1      41.567  22.802  27.396  1.00  0.00     0.010 A 
ATOM     38  C   UNL A   1      39.724  23.891  26.266  1.00  0.00     0.010 A 
ATOM     39  C   UNL A   1      40.921  23.982  26.994  1.00  0.00    -0.014 A 
BRANCH  39  40
ATOM     40  C   UNL A   1      41.484  25.316  27.329  1.00  0.00     0.031 A 
ATOM     41  C   UNL A   1      42.903  25.656  26.956  1.00  0.00     0.074 A 
ATOM     42  C   UNL A   1      40.740  26.201  28.022  1.00  0.00     0.049 A 
ATOM     43  N   UNL A   1      43.569  26.757  27.183  1.00  0.00    -0.248 NA
ATOM     44  C   UNL A   1      43.681  24.619  26.255  1.00  0.00     0.031 C 
ATOM     45  C   UNL A   1      39.378  25.962  28.506  1.00  0.00     0.029 A 
ATOM     46  N   UNL A   1      41.028  27.471  28.459  1.00  0.00    -0.354 N 
ATOM     47  C   UNL A   1      44.847  26.538  26.683  1.00  0.00     0.074 A 
ATOM     48  C   UNL A   1      44.876  25.187  26.169  1.00  0.00     0.031 C 
ATOM     49  C   UNL A   1      38.948  27.049  29.165  1.00  0.00     0.029 A 
ATOM     50  C   UNL A   1      40.010  28.052  29.181  1.00  0.00     0.049 A 
ATOM     51  H   UNL A   1      41.882  27.923  28.275  1.00  0.00     0.167 HD
ATOM     52  C   UNL A   1      45.892  27.396  26.627  1.00  0.00     0.034 A 
ATOM     53  C   UNL A   1      39.939  29.252  29.792  1.00  0.00     0.034 A 
ATOM     54  C   UNL A   1      45.842  28.756  27.091  1.00  0.00     0.049 A 
ATOM     55  C   UNL A   1      41.106  30.199  29.684  1.00  0.00     0.074 A 
ATOM     56  C   UNL A   1      46.820  29.730  26.986  1.00  0.00     0.029 A 
ATOM     57  N   UNL A   1      44.770  29.333  27.751  1.00  0.00    -0.354 N 
ATOM     58  N   UNL A   1      42.245  30.033  29.056  1.00  0.00    -0.248 NA
ATOM     59  C   UNL A   1      40.969  31.510  30.335  1.00  0.00     0.031 C 
ATOM     60  C   UNL A   1      46.353  30.884  27.616  1.00  0.00     0.029 A 
ATOM     61  C   UNL A   1      45.070  30.643  28.080  1.00  0.00     0.049 A 
ATOM     62  H   UNL A   1      43.922  28.878  27.956  1.00  0.00     0.167 HD
ATOM     63  C   UNL A   1      42.947  31.223  29.216  1.00  0.00     0.074 A 
ATOM     64  C   UNL A   1      42.094  32.113  29.972  1.00  0.00     0.031 C 
ATOM     65  C   UNL A   1      44.195  31.539  28.789  1.00  0.00     0.034 A 
BRANCH  52  66
ATOM     66  C   UNL A   1      47.171  26.927  25.985  1.00  0.00     0.023 A 
ATOM     67  C   UNL A   1      47.435  27.261  24.642  1.00  0.00     0.012 A 
ATOM     68  C   UNL A   1      48.163  26.277  26.747  1.00  0.00     0.148 A 
ATOM     69  C   UNL A   1      48.662  26.943  24.061  1.00  0.00     0.002 A 
ATOM     70  C   UNL A   1      49.400  26.007  26.175  1.00  0.00     0.091 A 
ATOM     71  F   UNL A   1      47.882  25.954  28.017  1.00  0.00    -0.205 F 
ATOM     72  C   UNL A   1      49.648  26.332  24.831  1.00  0.00     0.022 A 
BRANCH  70  73
ATOM     73  S   UNL A   1      50.769  25.310  27.104  1.00  0.00     0.127 S 
ATOM     74  O   UNL A   1      51.167  26.444  27.937  1.00  0.00    -0.237 OA
ATOM     75  O   UNL A   1      50.122  24.218  27.829  1.00  0.00    -0.237 OA
ATOM     76  O   UNL A   1      51.757  24.892  26.118  1.00  0.00    -0.744 OA
ENDBRANCH  70  73
ENDBRANCH  52  66
BRANCH  53  77
ATOM     77  C   UNL A   1      38.694  29.647  30.514  1.00  0.00     0.023 A 
ATOM     78  C   UNL A   1      38.483  29.198  31.831  1.00  0.00     0.012 A 
ATOM     79  C   UNL A   1      37.741  30.496  29.919  1.00  0.00     0.148 A 
ATOM     80  C   UNL A   1      37.331  29.563  32.532  1.00  0.00     0.002 A 
ATOM     81  C   UNL A   1      36.629  30.908  30.643  1.00  0.00     0.091 A 
ATOM     82  F   UNL A   1      37.951  30.902  28.658  1.00  0.00    -0.205 F 
ATOM     83  C   UNL A   1      36.412  30.427  31.944  1.00  0.00     0.022 A 
BRANCH  81  84
ATOM     84  S   UNL A   1      35.473  32.135  30.020  1.00  0.00     0.127 S 
ATOM     85  O   UNL A   1      34.913  31.456  28.855  1.00  0.00    -0.237 OA
ATOM     86  O   UNL A   1      34.554  32.283  31.150  1.00  0.00    -0.237 OA
ATOM     87  O   UNL A   1      36.271  33.321  29.739  1.00  0.00    -0.744 OA
ENDBRANCH  81  84
ENDBRANCH  53  77
BRANCH  65  88
ATOM     88  C   UNL A   1      44.733  32.910  29.114  1.00  0.00     0.023 A 
ATOM     89  C   UNL A   1      45.494  33.099  30.283  1.00  0.00     0.012 A 
ATOM     90  C   UNL A   1      44.595  33.972  28.198  1.00  0.00     0.148 A 
ATOM     91  C   UNL A   1      46.094  34.329  30.548  1.00  0.00     0.002 A 
ATOM     92  C   UNL A   1      45.240  35.179  28.441  1.00  0.00     0.091 A 
ATOM     93  F   UNL A   1      43.855  33.776  27.097  1.00  0.00    -0.205 F 
ATOM     94  C   UNL A   1      45.980  35.363  29.620  1.00  0.00     0.022 A 
BRANCH  92  95
ATOM     95  S   UNL A   1      45.247  36.530  27.255  1.00  0.00     0.127 S 
ATOM     96  O   UNL A   1      46.006  35.949  26.148  1.00  0.00    -0.237 OA
ATOM     97  O   UNL A   1      43.820  36.712  26.987  1.00  0.00    -0.237 OA
ATOM     98  O   UNL A   1      45.888  37.653  27.926  1.00  0.00    -0.744 OA
ENDBRANCH  92  95
ENDBRANCH  65  88
ENDBRANCH  39  40
ENDBRANCH  31  34
ENDBRANCH  29  30
ENDBRANCH  28  29
ENDBRANCH   1  28
TORSDOF 18
ENDMDL
