MODEL 1
REMARK VINA RESULT:     -11.5      0.000      0.000
REMARK SMILES Cc1ccc(NC(=O)c2cccn2CC(=O)NCCCCCCNC(=O)c2ccc(-c3c4nc(c(-c5cccc(S(=O)(=O)[O-])c5F)c5ccc([nH]5)c(-c5cccc(S(=O)(=O)[O-])c5F)c5nc(c(-c6cccc(S(=O)(=O)[O-])c6F)c6ccc3[nH]6)C=C5)C=C4)cc2)cc1
REMARK SMILES IDX 20 1 19 2 18 3 17 4 15 5 16 6 14 8 13 9 9 10 10 11 11 12
REMARK SMILES IDX 12 13 7 14 6 15 8 17 5 18 1 19 2 20 3 21 91 22 4 23 90 24
REMARK SMILES IDX 21 25 22 26 23 27 24 28 25 29 26 31 27 32 28 33 89 34 29 35
REMARK SMILES IDX 88 36 30 37 31 38 32 39 82 40 33 41 87 42 81 43 83 44 34 45
REMARK SMILES IDX 86 46 80 47 79 48 35 50 67 51 47 52 66 53 48 54 51 55 65 56
REMARK SMILES IDX 84 57 49 58 50 59 64 61 85 62 52 63 36 64 37 65 45 66 38 67
REMARK SMILES IDX 40 68 46 69 39 70 41 71 42 72 43 73 44 74 68 75 69 76 77 77
REMARK SMILES IDX 70 78 72 79 78 80 71 81 73 82 74 83 75 84 76 85 53 86 54 87
REMARK SMILES IDX 62 88 55 89 57 90 63 91 56 92 58 93 59 94 60 95 61 96
REMARK H PARENT 17 7 6 16 24 30 83 49 51 60
REMARK Flexibility Score: inf
ROOT
ATOM      1  C   UNL A   1      38.650  21.861  26.025  1.00  0.00     0.002 C 
ENDROOT
BRANCH   1   2
ATOM      2  C   UNL A   1      37.393  22.291  25.250  1.00  0.00     0.021 C 
BRANCH   2   3
ATOM      3  C   UNL A   1      36.169  21.370  25.316  1.00  0.00     0.116 C 
BRANCH   3   4
ATOM      4  N   UNL A   1      35.406  21.522  26.549  1.00  0.00    -0.355 N 
ATOM      5  C   UNL A   1      34.479  22.464  26.906  1.00  0.00     0.239 C 
ATOM      6  O   UNL A   1      33.934  22.356  28.009  1.00  0.00    -0.273 OA
ATOM      7  H   UNL A   1      35.586  20.838  27.234  1.00  0.00     0.163 HD
BRANCH   5   8
ATOM      8  C   UNL A   1      34.074  23.572  25.953  1.00  0.00     0.222 C 
BRANCH   8   9
ATOM      9  N   UNL A   1      32.991  23.219  25.041  1.00  0.00    -0.334 N 
ATOM     10  C   UNL A   1      31.654  23.537  25.207  1.00  0.00     0.107 A 
ATOM     11  C   UNL A   1      31.014  23.204  24.020  1.00  0.00     0.033 A 
ATOM     12  C   UNL A   1      31.952  22.557  23.183  1.00  0.00     0.020 A 
ATOM     13  C   UNL A   1      33.164  22.589  23.831  1.00  0.00     0.087 A 
BRANCH  10  14
ATOM     14  C   UNL A   1      31.086  24.149  26.381  1.00  0.00     0.272 C 
ATOM     15  N   UNL A   1      30.661  25.458  26.375  1.00  0.00    -0.321 N 
ATOM     16  H   UNL A   1      30.422  25.786  27.272  1.00  0.00     0.170 HD
ATOM     17  O   UNL A   1      30.931  23.511  27.429  1.00  0.00    -0.267 OA
BRANCH  15  18
ATOM     18  C   UNL A   1      30.490  26.435  25.371  1.00  0.00     0.041 A 
ATOM     19  C   UNL A   1      30.134  29.638  22.469  1.00  0.00     0.044 C 
ATOM     20  C   UNL A   1      30.255  28.555  23.500  1.00  0.00    -0.051 A 
ATOM     21  C   UNL A   1      29.460  27.416  23.395  1.00  0.00     0.005 A 
ATOM     22  C   UNL A   1      31.168  28.635  24.553  1.00  0.00     0.005 A 
ATOM     23  C   UNL A   1      29.572  26.376  24.324  1.00  0.00     0.026 A 
ATOM     24  C   UNL A   1      31.282  27.587  25.478  1.00  0.00     0.026 A 
ENDBRANCH  15  18
ENDBRANCH  10  14
ENDBRANCH   8   9
ENDBRANCH   5   8
ENDBRANCH   3   4
ENDBRANCH   2   3
ENDBRANCH   1   2
BRANCH   1  25
ATOM     25  C   UNL A   1      39.161  20.427  25.771  1.00  0.00     0.002 C 
BRANCH  25  26
ATOM     26  C   UNL A   1      40.627  20.078  26.145  1.00  0.00     0.021 C 
BRANCH  26  27
ATOM     27  C   UNL A   1      41.067  20.093  27.644  1.00  0.00     0.116 C 
BRANCH  27  28
ATOM     28  N   UNL A   1      42.355  20.754  27.900  1.00  0.00    -0.352 N 
ATOM     29  C   UNL A   1      42.957  21.742  27.126  1.00  0.00     0.251 C 
ATOM     30  H   UNL A   1      42.844  20.466  28.705  1.00  0.00     0.163 HD
ATOM     31  O   UNL A   1      43.941  21.427  26.449  1.00  0.00    -0.269 OA
BRANCH  29  32
ATOM     32  C   UNL A   1      42.556  23.211  27.191  1.00  0.00     0.039 A 
ATOM     33  C   UNL A   1      42.938  23.988  28.317  1.00  0.00     0.014 A 
ATOM     34  C   UNL A   1      41.767  23.855  26.250  1.00  0.00     0.014 A 
ATOM     35  C   UNL A   1      42.656  25.388  28.445  1.00  0.00     0.010 A 
ATOM     36  C   UNL A   1      41.444  25.238  26.407  1.00  0.00     0.010 A 
ATOM     37  C   UNL A   1      41.937  26.070  27.460  1.00  0.00    -0.014 A 
BRANCH  37  38
ATOM     38  C   UNL A   1      42.122  27.568  27.172  1.00  0.00     0.031 A 
ATOM     39  C   UNL A   1      40.879  28.287  27.435  1.00  0.00     0.074 A 
ATOM     40  C   UNL A   1      43.145  28.483  27.244  1.00  0.00     0.049 A 
ATOM     41  N   UNL A   1      40.517  28.356  28.664  1.00  0.00    -0.248 NA
ATOM     42  C   UNL A   1      40.072  29.033  26.496  1.00  0.00     0.031 C 
ATOM     43  C   UNL A   1      44.570  28.205  27.243  1.00  0.00     0.029 A 
ATOM     44  N   UNL A   1      43.084  29.904  27.523  1.00  0.00    -0.354 N 
ATOM     45  C   UNL A   1      39.590  29.331  28.748  1.00  0.00     0.074 A 
ATOM     46  C   UNL A   1      39.269  29.669  27.364  1.00  0.00     0.031 C 
ATOM     47  C   UNL A   1      45.243  29.317  27.613  1.00  0.00     0.029 A 
ATOM     48  C   UNL A   1      44.313  30.425  27.970  1.00  0.00     0.049 A 
ATOM     49  H   UNL A   1      42.271  30.448  27.410  1.00  0.00     0.167 HD
ATOM     50  C   UNL A   1      39.328  29.844  29.977  1.00  0.00     0.034 A 
ATOM     51  C   UNL A   1      44.602  31.278  29.022  1.00  0.00     0.034 A 
ATOM     52  C   UNL A   1      40.099  29.257  31.098  1.00  0.00     0.049 A 
ATOM     53  C   UNL A   1      44.833  30.290  30.098  1.00  0.00     0.074 A 
ATOM     54  C   UNL A   1      39.825  28.838  32.386  1.00  0.00     0.029 A 
ATOM     55  N   UNL A   1      41.452  28.952  30.932  1.00  0.00    -0.354 N 
ATOM     56  N   UNL A   1      43.833  29.596  30.520  1.00  0.00    -0.248 NA
ATOM     57  C   UNL A   1      46.102  30.037  30.745  1.00  0.00     0.031 C 
ATOM     58  C   UNL A   1      40.996  28.187  32.918  1.00  0.00     0.029 A 
ATOM     59  C   UNL A   1      42.014  28.225  31.978  1.00  0.00     0.049 A 
ATOM     60  H   UNL A   1      41.967  29.228  30.140  1.00  0.00     0.167 HD
ATOM     61  C   UNL A   1      44.301  28.740  31.466  1.00  0.00     0.074 A 
ATOM     62  C   UNL A   1      45.722  29.056  31.575  1.00  0.00     0.031 C 
ATOM     63  C   UNL A   1      43.446  27.800  31.952  1.00  0.00     0.034 A 
BRANCH  50  64
ATOM     64  C   UNL A   1      38.508  31.092  30.012  1.00  0.00     0.023 A 
ATOM     65  C   UNL A   1      39.164  32.316  30.212  1.00  0.00     0.012 A 
ATOM     66  C   UNL A   1      37.149  31.115  29.630  1.00  0.00     0.148 A 
ATOM     67  C   UNL A   1      38.512  33.524  29.948  1.00  0.00     0.002 A 
ATOM     68  C   UNL A   1      36.541  32.310  29.259  1.00  0.00     0.091 A 
ATOM     69  F   UNL A   1      36.468  29.958  29.561  1.00  0.00    -0.205 F 
ATOM     70  C   UNL A   1      37.219  33.521  29.427  1.00  0.00     0.022 A 
BRANCH  68  71
ATOM     71  S   UNL A   1      35.000  32.287  28.323  1.00  0.00     0.127 S 
ATOM     72  O   UNL A   1      33.985  32.299  29.371  1.00  0.00    -0.237 OA
ATOM     73  O   UNL A   1      35.075  33.514  27.528  1.00  0.00    -0.237 OA
ATOM     74  O   UNL A   1      35.078  31.069  27.519  1.00  0.00    -0.744 OA
ENDBRANCH  68  71
ENDBRANCH  50  64
BRANCH  51  75
ATOM     75  C   UNL A   1      44.108  32.597  29.635  1.00  0.00     0.023 A 
ATOM     76  C   UNL A   1      42.995  32.549  30.495  1.00  0.00     0.012 A 
ATOM     77  C   UNL A   1      44.438  33.899  29.119  1.00  0.00     0.148 A 
ATOM     78  C   UNL A   1      42.238  33.706  30.789  1.00  0.00     0.002 A 
ATOM     79  C   UNL A   1      43.659  35.032  29.378  1.00  0.00     0.091 A 
ATOM     80  F   UNL A   1      45.513  34.061  28.344  1.00  0.00    -0.205 F 
ATOM     81  C   UNL A   1      42.551  34.938  30.215  1.00  0.00     0.022 A 
BRANCH  79  82
ATOM     82  S   UNL A   1      43.935  36.608  28.524  1.00  0.00     0.127 S 
ATOM     83  O   UNL A   1      44.102  36.186  27.130  1.00  0.00    -0.237 OA
ATOM     84  O   UNL A   1      42.708  37.330  28.800  1.00  0.00    -0.237 OA
ATOM     85  O   UNL A   1      45.165  37.151  29.108  1.00  0.00    -0.744 OA
ENDBRANCH  79  82
ENDBRANCH  51  75
BRANCH  63  86
ATOM     86  C   UNL A   1      43.960  26.418  32.348  1.00  0.00     0.023 A 
ATOM     87  C   UNL A   1      44.427  25.467  31.402  1.00  0.00     0.012 A 
ATOM     88  C   UNL A   1      43.834  25.940  33.671  1.00  0.00     0.148 A 
ATOM     89  C   UNL A   1      44.833  24.172  31.736  1.00  0.00     0.002 A 
ATOM     90  C   UNL A   1      44.232  24.640  34.009  1.00  0.00     0.091 A 
ATOM     91  F   UNL A   1      43.260  26.716  34.597  1.00  0.00    -0.205 F 
ATOM     92  C   UNL A   1      44.749  23.762  33.049  1.00  0.00     0.022 A 
BRANCH  90  93
ATOM     93  S   UNL A   1      44.085  23.975  35.671  1.00  0.00     0.127 S 
ATOM     94  O   UNL A   1      44.949  24.876  36.436  1.00  0.00    -0.237 OA
ATOM     95  O   UNL A   1      42.655  24.147  35.929  1.00  0.00    -0.237 OA
ATOM     96  O   UNL A   1      44.544  22.595  35.612  1.00  0.00    -0.744 OA
ENDBRANCH  90  93
ENDBRANCH  63  86
ENDBRANCH  37  38
ENDBRANCH  29  32
ENDBRANCH  27  28
ENDBRANCH  26  27
ENDBRANCH  25  26
ENDBRANCH   1  25
TORSDOF 19
ENDMDL
MODEL 2
REMARK VINA RESULT:     -11.0      4.285      8.881
REMARK SMILES Cc1ccc(NC(=O)c2cccn2CC(=O)NCCCCCCNC(=O)c2ccc(-c3c4nc(c(-c5cccc(S(=O)(=O)[O-])c5F)c5ccc([nH]5)c(-c5cccc(S(=O)(=O)[O-])c5F)c5nc(c(-c6cccc(S(=O)(=O)[O-])c6F)c6ccc3[nH]6)C=C5)C=C4)cc2)cc1
REMARK SMILES IDX 20 1 19 2 18 3 17 4 15 5 16 6 14 8 13 9 9 10 10 11 11 12
REMARK SMILES IDX 12 13 7 14 6 15 8 17 5 18 1 19 2 20 3 21 91 22 4 23 90 24
REMARK SMILES IDX 21 25 22 26 23 27 24 28 25 29 26 31 27 32 28 33 89 34 29 35
REMARK SMILES IDX 88 36 30 37 31 38 32 39 82 40 33 41 87 42 81 43 83 44 34 45
REMARK SMILES IDX 86 46 80 47 79 48 35 50 67 51 47 52 66 53 48 54 51 55 65 56
REMARK SMILES IDX 84 57 49 58 50 59 64 61 85 62 52 63 36 64 37 65 45 66 38 67
REMARK SMILES IDX 40 68 46 69 39 70 41 71 42 72 43 73 44 74 68 75 69 76 77 77
REMARK SMILES IDX 70 78 72 79 78 80 71 81 73 82 74 83 75 84 76 85 53 86 54 87
REMARK SMILES IDX 62 88 55 89 57 90 63 91 56 92 58 93 59 94 60 95 61 96
REMARK H PARENT 17 7 6 16 24 30 83 49 51 60
REMARK Flexibility Score: inf
ROOT
ATOM      1  C   UNL A   1      33.295  25.112  25.087  1.00  0.00     0.002 C 
ENDROOT
BRANCH   1   2
ATOM      2  C   UNL A   1      32.058  25.881  24.596  1.00  0.00     0.021 C 
BRANCH   2   3
ATOM      3  C   UNL A   1      30.715  25.142  24.597  1.00  0.00     0.116 C 
BRANCH   3   4
ATOM      4  N   UNL A   1      30.301  24.712  25.927  1.00  0.00    -0.355 N 
ATOM      5  C   UNL A   1      30.227  23.457  26.468  1.00  0.00     0.239 C 
ATOM      6  O   UNL A   1      29.879  23.351  27.648  1.00  0.00    -0.273 OA
ATOM      7  H   UNL A   1      30.032  25.440  26.533  1.00  0.00     0.163 HD
BRANCH   5   8
ATOM      8  C   UNL A   1      30.629  22.230  25.672  1.00  0.00     0.222 C 
BRANCH   8   9
ATOM      9  N   UNL A   1      32.011  21.807  25.870  1.00  0.00    -0.334 N 
ATOM     10  C   UNL A   1      32.869  21.344  24.887  1.00  0.00     0.107 A 
ATOM     11  C   UNL A   1      34.129  21.261  25.463  1.00  0.00     0.033 A 
ATOM     12  C   UNL A   1      34.002  21.549  26.842  1.00  0.00     0.020 A 
ATOM     13  C   UNL A   1      32.689  21.893  27.064  1.00  0.00     0.087 A 
BRANCH  10  14
ATOM     14  C   UNL A   1      32.495  21.069  23.523  1.00  0.00     0.272 C 
ATOM     15  N   UNL A   1      32.530  19.792  23.011  1.00  0.00    -0.321 N 
ATOM     16  H   UNL A   1      32.382  19.767  22.038  1.00  0.00     0.170 HD
ATOM     17  O   UNL A   1      32.097  21.968  22.771  1.00  0.00    -0.267 OA
BRANCH  15  18
ATOM     18  C   UNL A   1      32.732  18.512  23.568  1.00  0.00     0.041 A 
ATOM     19  C   UNL A   1      33.244  14.692  25.556  1.00  0.00     0.044 C 
ATOM     20  C   UNL A   1      33.076  16.031  24.900  1.00  0.00    -0.051 A 
ATOM     21  C   UNL A   1      33.662  16.263  23.658  1.00  0.00     0.005 A 
ATOM     22  C   UNL A   1      32.320  17.049  25.481  1.00  0.00     0.005 A 
ATOM     23  C   UNL A   1      33.498  17.491  23.008  1.00  0.00     0.026 A 
ATOM     24  C   UNL A   1      32.152  18.276  24.822  1.00  0.00     0.026 A 
ENDBRANCH  15  18
ENDBRANCH  10  14
ENDBRANCH   8   9
ENDBRANCH   5   8
ENDBRANCH   3   4
ENDBRANCH   2   3
ENDBRANCH   1   2
BRANCH   1  25
ATOM     25  C   UNL A   1      34.385  24.811  24.037  1.00  0.00     0.002 C 
BRANCH  25  26
ATOM     26  C   UNL A   1      35.635  23.999  24.468  1.00  0.00     0.021 C 
BRANCH  26  27
ATOM     27  C   UNL A   1      36.382  24.371  25.788  1.00  0.00     0.116 C 
BRANCH  27  28
ATOM     28  N   UNL A   1      36.860  23.221  26.570  1.00  0.00    -0.352 N 
ATOM     29  C   UNL A   1      37.865  22.326  26.212  1.00  0.00     0.251 C 
ATOM     30  H   UNL A   1      36.421  23.066  27.438  1.00  0.00     0.163 HD
ATOM     31  O   UNL A   1      37.531  21.187  25.872  1.00  0.00    -0.269 OA
BRANCH  29  32
ATOM     32  C   UNL A   1      39.350  22.637  26.365  1.00  0.00     0.039 A 
ATOM     33  C   UNL A   1      39.749  23.786  27.098  1.00  0.00     0.014 A 
ATOM     34  C   UNL A   1      40.372  21.911  25.773  1.00  0.00     0.014 A 
ATOM     35  C   UNL A   1      41.119  24.133  27.343  1.00  0.00     0.010 A 
ATOM     36  C   UNL A   1      41.734  22.290  25.976  1.00  0.00     0.010 A 
ATOM     37  C   UNL A   1      42.159  23.358  26.826  1.00  0.00    -0.014 A 
BRANCH  37  38
ATOM     38  C   UNL A   1      43.534  23.241  27.502  1.00  0.00     0.031 A 
ATOM     39  C   UNL A   1      44.583  23.684  26.588  1.00  0.00     0.074 A 
ATOM     40  C   UNL A   1      44.036  23.346  28.778  1.00  0.00     0.049 A 
ATOM     41  N   UNL A   1      44.596  24.936  26.309  1.00  0.00    -0.248 NA
ATOM     42  C   UNL A   1      45.680  22.907  26.055  1.00  0.00     0.031 C 
ATOM     43  C   UNL A   1      43.301  23.201  30.021  1.00  0.00     0.029 A 
ATOM     44  N   UNL A   1      45.341  23.799  29.214  1.00  0.00    -0.354 N 
ATOM     45  C   UNL A   1      45.802  25.209  25.774  1.00  0.00     0.074 A 
ATOM     46  C   UNL A   1      46.419  23.905  25.545  1.00  0.00     0.031 C 
ATOM     47  C   UNL A   1      44.061  23.651  31.044  1.00  0.00     0.029 A 
ATOM     48  C   UNL A   1      45.353  24.211  30.560  1.00  0.00     0.049 A 
ATOM     49  H   UNL A   1      46.135  23.816  28.632  1.00  0.00     0.167 HD
ATOM     50  C   UNL A   1      46.196  26.508  25.740  1.00  0.00     0.034 A 
ATOM     51  C   UNL A   1      45.904  25.333  31.155  1.00  0.00     0.034 A 
ATOM     52  C   UNL A   1      45.233  27.487  26.299  1.00  0.00     0.049 A 
ATOM     53  C   UNL A   1      44.755  26.261  31.068  1.00  0.00     0.074 A 
ATOM     54  C   UNL A   1      44.753  28.731  25.938  1.00  0.00     0.029 A 
ATOM     55  N   UNL A   1      44.520  27.182  27.460  1.00  0.00    -0.354 N 
ATOM     56  N   UNL A   1      44.383  26.670  29.904  1.00  0.00    -0.248 NA
ATOM     57  C   UNL A   1      44.004  26.772  32.194  1.00  0.00     0.031 C 
ATOM     58  C   UNL A   1      43.680  29.089  26.832  1.00  0.00     0.029 A 
ATOM     59  C   UNL A   1      43.508  28.085  27.772  1.00  0.00     0.049 A 
ATOM     60  H   UNL A   1      44.717  26.393  28.015  1.00  0.00     0.167 HD
ATOM     61  C   UNL A   1      43.296  27.466  30.081  1.00  0.00     0.074 A 
ATOM     62  C   UNL A   1      43.100  27.504  31.527  1.00  0.00     0.031 C 
ATOM     63  C   UNL A   1      42.637  27.898  28.972  1.00  0.00     0.034 A 
BRANCH  50  64
ATOM     64  C   UNL A   1      47.627  26.758  25.397  1.00  0.00     0.023 A 
ATOM     65  C   UNL A   1      48.616  26.265  26.261  1.00  0.00     0.012 A 
ATOM     66  C   UNL A   1      48.027  27.262  24.140  1.00  0.00     0.148 A 
ATOM     67  C   UNL A   1      49.950  26.191  25.848  1.00  0.00     0.002 A 
ATOM     68  C   UNL A   1      49.331  27.082  23.691  1.00  0.00     0.091 A 
ATOM     69  F   UNL A   1      47.114  27.858  23.353  1.00  0.00    -0.205 F 
ATOM     70  C   UNL A   1      50.300  26.554  24.548  1.00  0.00     0.022 A 
BRANCH  68  71
ATOM     71  S   UNL A   1      49.717  27.274  21.939  1.00  0.00     0.127 S 
ATOM     72  O   UNL A   1      51.130  26.916  21.879  1.00  0.00    -0.237 OA
ATOM     73  O   UNL A   1      48.814  26.319  21.293  1.00  0.00    -0.237 OA
ATOM     74  O   UNL A   1      49.394  28.668  21.644  1.00  0.00    -0.744 OA
ENDBRANCH  68  71
ENDBRANCH  50  64
BRANCH  51  75
ATOM     75  C   UNL A   1      47.213  26.139  31.160  1.00  0.00     0.023 A 
ATOM     76  C   UNL A   1      47.384  27.127  30.172  1.00  0.00     0.012 A 
ATOM     77  C   UNL A   1      48.412  25.721  31.834  1.00  0.00     0.148 A 
ATOM     78  C   UNL A   1      48.662  27.635  29.848  1.00  0.00     0.002 A 
ATOM     79  C   UNL A   1      49.680  26.195  31.479  1.00  0.00     0.091 A 
ATOM     80  F   UNL A   1      48.349  24.833  32.830  1.00  0.00    -0.205 F 
ATOM     81  C   UNL A   1      49.809  27.155  30.480  1.00  0.00     0.022 A 
BRANCH  79  82
ATOM     82  S   UNL A   1      51.203  25.480  32.158  1.00  0.00     0.127 S 
ATOM     83  O   UNL A   1      51.075  24.064  31.797  1.00  0.00    -0.237 OA
ATOM     84  O   UNL A   1      52.234  26.202  31.437  1.00  0.00    -0.237 OA
ATOM     85  O   UNL A   1      51.124  25.710  33.603  1.00  0.00    -0.744 OA
ENDBRANCH  79  82
ENDBRANCH  51  75
BRANCH  63  86
ATOM     86  C   UNL A   1      41.122  28.083  28.995  1.00  0.00     0.023 A 
ATOM     87  C   UNL A   1      40.233  27.270  28.243  1.00  0.00     0.012 A 
ATOM     88  C   UNL A   1      40.528  29.194  29.633  1.00  0.00     0.148 A 
ATOM     89  C   UNL A   1      38.850  27.469  28.193  1.00  0.00     0.002 A 
ATOM     90  C   UNL A   1      39.144  29.401  29.580  1.00  0.00     0.091 A 
ATOM     91  F   UNL A   1      41.307  30.097  30.238  1.00  0.00    -0.205 F 
ATOM     92  C   UNL A   1      38.302  28.531  28.877  1.00  0.00     0.022 A 
BRANCH  90  93
ATOM     93  S   UNL A   1      38.335  30.801  30.364  1.00  0.00     0.127 S 
ATOM     94  O   UNL A   1      36.923  30.428  30.268  1.00  0.00    -0.237 OA
ATOM     95  O   UNL A   1      38.886  30.735  31.719  1.00  0.00    -0.237 OA
ATOM     96  O   UNL A   1      38.706  31.982  29.599  1.00  0.00    -0.744 OA
ENDBRANCH  90  93
ENDBRANCH  63  86
ENDBRANCH  37  38
ENDBRANCH  29  32
ENDBRANCH  27  28
ENDBRANCH  26  27
ENDBRANCH  25  26
ENDBRANCH   1  25
TORSDOF 19
ENDMDL
MODEL 3
REMARK VINA RESULT:     -10.9      5.167      8.187
REMARK SMILES Cc1ccc(NC(=O)c2cccn2CC(=O)NCCCCCCNC(=O)c2ccc(-c3c4nc(c(-c5cccc(S(=O)(=O)[O-])c5F)c5ccc([nH]5)c(-c5cccc(S(=O)(=O)[O-])c5F)c5nc(c(-c6cccc(S(=O)(=O)[O-])c6F)c6ccc3[nH]6)C=C5)C=C4)cc2)cc1
REMARK SMILES IDX 20 1 19 2 18 3 17 4 15 5 16 6 14 8 13 9 9 10 10 11 11 12
REMARK SMILES IDX 12 13 7 14 6 15 8 17 5 18 1 19 2 20 3 21 91 22 4 23 90 24
REMARK SMILES IDX 21 25 22 26 23 27 24 28 25 29 26 31 27 32 28 33 89 34 29 35
REMARK SMILES IDX 88 36 30 37 31 38 32 39 82 40 33 41 87 42 81 43 83 44 34 45
REMARK SMILES IDX 86 46 80 47 79 48 35 50 67 51 47 52 66 53 48 54 51 55 65 56
REMARK SMILES IDX 84 57 49 58 50 59 64 61 85 62 52 63 36 64 37 65 45 66 38 67
REMARK SMILES IDX 40 68 46 69 39 70 41 71 42 72 43 73 44 74 68 75 69 76 77 77
REMARK SMILES IDX 70 78 72 79 78 80 71 81 73 82 74 83 75 84 76 85 53 86 54 87
REMARK SMILES IDX 62 88 55 89 57 90 63 91 56 92 58 93 59 94 60 95 61 96
REMARK H PARENT 17 7 6 16 24 30 83 49 51 60
REMARK Flexibility Score: inf
ROOT
ATOM      1  C   UNL A   1      49.673  26.904  25.653  1.00  0.00     0.002 C 
ENDROOT
BRANCH   1   2
ATOM      2  C   UNL A   1      48.534  27.435  24.769  1.00  0.00     0.021 C 
BRANCH   2   3
ATOM      3  C   UNL A   1      47.262  26.585  24.662  1.00  0.00     0.116 C 
BRANCH   3   4
ATOM      4  N   UNL A   1      46.044  27.383  24.611  1.00  0.00    -0.355 N 
ATOM      5  C   UNL A   1      44.933  27.356  25.410  1.00  0.00     0.239 C 
ATOM      6  O   UNL A   1      44.033  28.172  25.186  1.00  0.00    -0.273 OA
ATOM      7  H   UNL A   1      46.015  28.049  23.885  1.00  0.00     0.163 HD
BRANCH   5   8
ATOM      8  C   UNL A   1      44.831  26.402  26.586  1.00  0.00     0.222 C 
BRANCH   8   9
ATOM      9  N   UNL A   1      44.042  25.204  26.325  1.00  0.00    -0.334 N 
ATOM     10  C   UNL A   1      43.358  24.459  27.270  1.00  0.00     0.107 A 
ATOM     11  C   UNL A   1      42.578  23.547  26.573  1.00  0.00     0.033 A 
ATOM     12  C   UNL A   1      42.897  23.656  25.200  1.00  0.00     0.020 A 
ATOM     13  C   UNL A   1      43.793  24.691  25.073  1.00  0.00     0.087 A 
BRANCH  10  14
ATOM     14  C   UNL A   1      43.427  24.664  28.695  1.00  0.00     0.272 C 
ATOM     15  N   UNL A   1      42.710  25.664  29.313  1.00  0.00    -0.321 N 
ATOM     16  H   UNL A   1      42.953  25.777  30.261  1.00  0.00     0.170 HD
ATOM     17  O   UNL A   1      44.109  23.929  29.419  1.00  0.00    -0.267 OA
BRANCH  15  18
ATOM     18  C   UNL A   1      41.707  26.562  28.893  1.00  0.00     0.041 A 
ATOM     19  C   UNL A   1      38.800  29.560  27.723  1.00  0.00     0.044 C 
ATOM     20  C   UNL A   1      39.813  28.543  28.158  1.00  0.00    -0.051 A 
ATOM     21  C   UNL A   1      39.479  27.191  28.138  1.00  0.00     0.005 A 
ATOM     22  C   UNL A   1      41.101  28.905  28.556  1.00  0.00     0.005 A 
ATOM     23  C   UNL A   1      40.412  26.217  28.510  1.00  0.00     0.026 A 
ATOM     24  C   UNL A   1      42.036  27.925  28.920  1.00  0.00     0.026 A 
ENDBRANCH  15  18
ENDBRANCH  10  14
ENDBRANCH   8   9
ENDBRANCH   5   8
ENDBRANCH   3   4
ENDBRANCH   2   3
ENDBRANCH   1   2
BRANCH   1  25
ATOM     25  C   UNL A   1      49.863  27.590  27.022  1.00  0.00     0.002 C 
BRANCH  25  26
ATOM     26  C   UNL A   1      48.652  28.310  27.672  1.00  0.00     0.021 C 
BRANCH  26  27
ATOM     27  C   UNL A   1      48.783  29.803  28.111  1.00  0.00     0.116 C 
BRANCH  27  28
ATOM     28  N   UNL A   1      48.037  30.757  27.278  1.00  0.00    -0.352 N 
ATOM     29  C   UNL A   1      46.701  30.667  26.895  1.00  0.00     0.251 C 
ATOM     30  H   UNL A   1      48.534  31.543  26.955  1.00  0.00     0.163 HD
ATOM     31  O   UNL A   1      46.455  30.376  25.720  1.00  0.00    -0.269 OA
BRANCH  29  32
ATOM     32  C   UNL A   1      45.544  31.054  27.810  1.00  0.00     0.039 A 
ATOM     33  C   UNL A   1      45.548  30.618  29.161  1.00  0.00     0.014 A 
ATOM     34  C   UNL A   1      44.421  31.760  27.404  1.00  0.00     0.014 A 
ATOM     35  C   UNL A   1      44.535  30.974  30.111  1.00  0.00     0.010 A 
ATOM     36  C   UNL A   1      43.389  32.069  28.341  1.00  0.00     0.010 A 
ATOM     37  C   UNL A   1      43.442  31.760  29.736  1.00  0.00    -0.014 A 
BRANCH  37  38
ATOM     38  C   UNL A   1      42.702  32.687  30.712  1.00  0.00     0.031 A 
ATOM     39  C   UNL A   1      41.280  32.727  30.386  1.00  0.00     0.074 A 
ATOM     40  C   UNL A   1      42.828  33.064  32.028  1.00  0.00     0.049 A 
ATOM     41  N   UNL A   1      40.623  31.645  30.592  1.00  0.00    -0.248 NA
ATOM     42  C   UNL A   1      40.497  33.872  29.974  1.00  0.00     0.031 C 
ATOM     43  C   UNL A   1      44.024  32.991  32.848  1.00  0.00     0.029 A 
ATOM     44  N   UNL A   1      41.798  33.441  32.975  1.00  0.00    -0.354 N 
ATOM     45  C   UNL A   1      39.315  31.969  30.587  1.00  0.00     0.074 A 
ATOM     46  C   UNL A   1      39.268  33.348  30.107  1.00  0.00     0.031 C 
ATOM     47  C   UNL A   1      43.689  33.175  34.144  1.00  0.00     0.029 A 
ATOM     48  C   UNL A   1      42.216  33.313  34.314  1.00  0.00     0.049 A 
ATOM     49  H   UNL A   1      40.903  33.754  32.711  1.00  0.00     0.167 HD
ATOM     50  C   UNL A   1      38.447  31.086  31.143  1.00  0.00     0.034 A 
ATOM     51  C   UNL A   1      41.576  32.759  35.409  1.00  0.00     0.034 A 
ATOM     52  C   UNL A   1      39.050  29.848  31.691  1.00  0.00     0.049 A 
ATOM     53  C   UNL A   1      42.061  31.365  35.312  1.00  0.00     0.074 A 
ATOM     54  C   UNL A   1      38.751  28.500  31.672  1.00  0.00     0.029 A 
ATOM     55  N   UNL A   1      40.258  29.908  32.388  1.00  0.00    -0.354 N 
ATOM     56  N   UNL A   1      41.668  30.645  34.318  1.00  0.00    -0.248 NA
ATOM     57  C   UNL A   1      42.943  30.717  36.258  1.00  0.00     0.031 C 
ATOM     58  C   UNL A   1      39.849  27.774  32.260  1.00  0.00     0.029 A 
ATOM     59  C   UNL A   1      40.823  28.669  32.677  1.00  0.00     0.049 A 
ATOM     60  H   UNL A   1      40.678  30.758  32.655  1.00  0.00     0.167 HD
ATOM     61  C   UNL A   1      42.275  29.435  34.427  1.00  0.00     0.074 A 
ATOM     62  C   UNL A   1      43.058  29.526  35.655  1.00  0.00     0.031 C 
ATOM     63  C   UNL A   1      42.124  28.554  33.401  1.00  0.00     0.034 A 
BRANCH  50  64
ATOM     64  C   UNL A   1      37.056  31.579  31.368  1.00  0.00     0.023 A 
ATOM     65  C   UNL A   1      36.667  31.906  32.676  1.00  0.00     0.012 A 
ATOM     66  C   UNL A   1      36.199  31.941  30.305  1.00  0.00     0.148 A 
ATOM     67  C   UNL A   1      35.509  32.654  32.908  1.00  0.00     0.002 A 
ATOM     68  C   UNL A   1      35.113  32.780  30.529  1.00  0.00     0.091 A 
ATOM     69  F   UNL A   1      36.488  31.522  29.061  1.00  0.00    -0.205 F 
ATOM     70  C   UNL A   1      34.757  33.131  31.835  1.00  0.00     0.022 A 
BRANCH  68  71
ATOM     71  S   UNL A   1      34.325  33.627  29.145  1.00  0.00     0.127 S 
ATOM     72  O   UNL A   1      33.920  32.524  28.280  1.00  0.00    -0.237 OA
ATOM     73  O   UNL A   1      33.220  34.346  29.781  1.00  0.00    -0.237 OA
ATOM     74  O   UNL A   1      35.363  34.509  28.618  1.00  0.00    -0.744 OA
ENDBRANCH  68  71
ENDBRANCH  50  64
BRANCH  51  75
ATOM     75  C   UNL A   1      40.204  32.776  36.102  1.00  0.00     0.023 A 
ATOM     76  C   UNL A   1      39.095  33.223  35.361  1.00  0.00     0.012 A 
ATOM     77  C   UNL A   1      40.023  32.739  37.529  1.00  0.00     0.148 A 
ATOM     78  C   UNL A   1      37.903  33.643  35.993  1.00  0.00     0.002 A 
ATOM     79  C   UNL A   1      38.857  33.197  38.153  1.00  0.00     0.091 A 
ATOM     80  F   UNL A   1      40.995  32.272  38.318  1.00  0.00    -0.205 F 
ATOM     81  C   UNL A   1      37.791  33.654  37.384  1.00  0.00     0.022 A 
BRANCH  79  82
ATOM     82  S   UNL A   1      38.734  33.382  39.953  1.00  0.00     0.127 S 
ATOM     83  O   UNL A   1      39.757  34.394  40.236  1.00  0.00    -0.237 OA
ATOM     84  O   UNL A   1      37.367  33.833  40.127  1.00  0.00    -0.237 OA
ATOM     85  O   UNL A   1      39.069  32.064  40.498  1.00  0.00    -0.744 OA
ENDBRANCH  79  82
ENDBRANCH  51  75
BRANCH  63  86
ATOM     86  C   UNL A   1      43.259  27.604  33.024  1.00  0.00     0.023 A 
ATOM     87  C   UNL A   1      44.083  27.799  31.883  1.00  0.00     0.012 A 
ATOM     88  C   UNL A   1      43.440  26.374  33.693  1.00  0.00     0.148 A 
ATOM     89  C   UNL A   1      45.078  26.905  31.479  1.00  0.00     0.002 A 
ATOM     90  C   UNL A   1      44.431  25.471  33.288  1.00  0.00     0.091 A 
ATOM     91  F   UNL A   1      42.607  26.038  34.684  1.00  0.00    -0.205 F 
ATOM     92  C   UNL A   1      45.262  25.742  32.195  1.00  0.00     0.022 A 
BRANCH  90  93
ATOM     93  S   UNL A   1      44.700  23.889  34.095  1.00  0.00     0.127 S 
ATOM     94  O   UNL A   1      45.674  23.256  33.206  1.00  0.00    -0.237 OA
ATOM     95  O   UNL A   1      45.245  24.309  35.387  1.00  0.00    -0.237 OA
ATOM     96  O   UNL A   1      43.407  23.223  34.154  1.00  0.00    -0.744 OA
ENDBRANCH  90  93
ENDBRANCH  63  86
ENDBRANCH  37  38
ENDBRANCH  29  32
ENDBRANCH  27  28
ENDBRANCH  26  27
ENDBRANCH  25  26
ENDBRANCH   1  25
TORSDOF 19
ENDMDL
