MODEL 1
REMARK VINA RESULT:      -9.9      0.000      0.000
REMARK SMILES NS(=O)(=O)c1ccc(-c2coc(=O)n2-c2ccc(C(=O)NCCCCCCNC(=O)c3ccc(-c4c5nc(c(-c6cccc(S(=O)(=O)[O-])c6F)c6ccc([nH]6)c(-c6cccc(S(=O)(=O)[O-])c6F)c6nc(c(-c7cccc(S(=O)(=O)[O-])c7F)c7ccc4[nH]7)C=C6)C=C5)cc3)cc2)cc1
REMARK SMILES IDX 24 1 23 2 22 3 21 4 19 5 20 6 18 8 15 9 16 10 95 11 17 12
REMARK SMILES IDX 94 13 14 14 9 15 10 16 11 17 12 18 13 19 8 20 5 21 6 22
REMARK SMILES IDX 97 23 7 24 96 25 2 26 3 27 4 28 1 29 25 32 26 33 27 34 28 35
REMARK SMILES IDX 29 36 30 38 31 39 32 40 93 41 33 42 92 43 34 44 35 45 36 46
REMARK SMILES IDX 86 47 37 48 91 49 85 50 87 51 38 52 90 53 84 54 83 55 39 57
REMARK SMILES IDX 71 58 51 59 70 60 52 61 55 62 69 63 88 64 53 65 54 66 68 68
REMARK SMILES IDX 89 69 56 70 40 71 41 72 49 73 42 74 44 75 50 76 43 77 45 78
REMARK SMILES IDX 46 79 47 80 48 81 72 82 73 83 81 84 74 85 76 86 82 87 75 88
REMARK SMILES IDX 77 89 78 90 79 91 80 92 57 93 58 94 66 95 59 96 61 97 67 98
REMARK SMILES IDX 60 99 62 100 63 101 64 102 65 103
REMARK H PARENT 21 7 1 30 1 31 28 37 87 56 55 67
REMARK Flexibility Score: inf
ROOT
ATOM      1  C   UNL A   1      34.420  35.981  33.586  1.00  0.00     0.002 C 
ENDROOT
BRANCH   1   2
ATOM      2  C   UNL A   1      35.141  34.802  32.917  1.00  0.00     0.021 C 
BRANCH   2   3
ATOM      3  C   UNL A   1      34.942  33.475  33.654  1.00  0.00     0.116 C 
BRANCH   3   4
ATOM      4  N   UNL A   1      35.955  32.515  33.259  1.00  0.00    -0.352 N 
ATOM      5  C   UNL A   1      37.038  31.975  33.906  1.00  0.00     0.251 C 
ATOM      6  O   UNL A   1      37.692  31.130  33.289  1.00  0.00    -0.269 OA
ATOM      7  H   UNL A   1      35.843  32.184  32.339  1.00  0.00     0.163 HD
BRANCH   5   8
ATOM      8  C   UNL A   1      37.389  32.272  35.325  1.00  0.00     0.039 A 
ATOM      9  C   UNL A   1      38.233  33.121  37.869  1.00  0.00     0.053 A 
ATOM     10  C   UNL A   1      37.401  33.941  37.111  1.00  0.00     0.028 A 
ATOM     11  C   UNL A   1      38.549  31.841  37.407  1.00  0.00     0.028 A 
ATOM     12  C   UNL A   1      37.014  33.530  35.830  1.00  0.00     0.016 A 
ATOM     13  C   UNL A   1      38.069  31.398  36.174  1.00  0.00     0.016 A 
BRANCH   9  14
ATOM     14  N   UNL A   1      38.779  33.565  39.084  1.00  0.00    -0.242 N 
ATOM     15  C   UNL A   1      39.969  34.205  39.283  1.00  0.00     0.095 A 
ATOM     16  C   UNL A   1      40.148  34.234  40.598  1.00  0.00     0.228 A 
ATOM     17  O   UNL A   1      39.114  33.656  41.334  1.00  0.00    -0.415 OA
ATOM     18  C   UNL A   1      38.230  33.263  40.326  1.00  0.00     0.424 A 
ATOM     19  O   UNL A   1      37.150  32.742  40.566  1.00  0.00    -0.223 OA
BRANCH  15  20
ATOM     20  C   UNL A   1      40.749  34.910  38.263  1.00  0.00     0.002 A 
ATOM     21  C   UNL A   1      42.279  36.127  36.248  1.00  0.00     0.082 A 
ATOM     22  C   UNL A   1      42.902  35.292  37.175  1.00  0.00     0.022 A 
ATOM     23  C   UNL A   1      40.904  36.366  36.320  1.00  0.00     0.022 A 
ATOM     24  C   UNL A   1      42.135  34.688  38.175  1.00  0.00     0.012 A 
ATOM     25  C   UNL A   1      40.141  35.753  37.323  1.00  0.00     0.012 A 
BRANCH  21  26
ATOM     26  S   UNL A   1      43.248  36.875  34.973  1.00  0.00     0.238 S 
ATOM     27  O   UNL A   1      44.588  37.126  35.472  1.00  0.00    -0.207 OA
ATOM     28  O   UNL A   1      42.462  37.888  34.325  1.00  0.00    -0.207 OA
BRANCH  26  29
ATOM     29  N   UNL A   1      43.432  35.635  33.853  1.00  0.00    -0.225 NA
ATOM     30  H   UNL A   1      42.545  35.143  33.742  1.00  0.00     0.137 HD
ATOM     31  H   UNL A   1      44.144  34.983  34.181  1.00  0.00     0.137 HD
ENDBRANCH  26  29
ENDBRANCH  21  26
ENDBRANCH  15  20
ENDBRANCH   9  14
ENDBRANCH   5   8
ENDBRANCH   3   4
ENDBRANCH   2   3
ENDBRANCH   1   2
BRANCH   1  32
ATOM     32  C   UNL A   1      33.971  37.105  32.638  1.00  0.00     0.002 C 
BRANCH  32  33
ATOM     33  C   UNL A   1      32.840  36.746  31.661  1.00  0.00     0.021 C 
BRANCH  33  34
ATOM     34  C   UNL A   1      33.282  36.752  30.204  1.00  0.00     0.116 C 
BRANCH  34  35
ATOM     35  N   UNL A   1      32.538  35.768  29.415  1.00  0.00    -0.352 N 
ATOM     36  C   UNL A   1      33.010  34.652  28.762  1.00  0.00     0.251 C 
ATOM     37  H   UNL A   1      31.569  35.926  29.343  1.00  0.00     0.163 HD
ATOM     38  O   UNL A   1      32.354  34.125  27.870  1.00  0.00    -0.269 OA
BRANCH  36  39
ATOM     39  C   UNL A   1      34.316  34.102  29.153  1.00  0.00     0.039 A 
ATOM     40  C   UNL A   1      34.406  32.943  29.932  1.00  0.00     0.014 A 
ATOM     41  C   UNL A   1      35.461  34.755  28.705  1.00  0.00     0.014 A 
ATOM     42  C   UNL A   1      35.663  32.402  30.188  1.00  0.00     0.010 A 
ATOM     43  C   UNL A   1      36.680  34.142  28.830  1.00  0.00     0.010 A 
ATOM     44  C   UNL A   1      36.796  33.000  29.619  1.00  0.00    -0.014 A 
BRANCH  44  45
ATOM     45  C   UNL A   1      38.111  32.380  29.738  1.00  0.00     0.031 A 
ATOM     46  C   UNL A   1      38.167  30.949  29.332  1.00  0.00     0.074 A 
ATOM     47  C   UNL A   1      39.225  33.117  29.939  1.00  0.00     0.049 A 
ATOM     48  N   UNL A   1      38.451  29.925  30.068  1.00  0.00    -0.248 NA
ATOM     49  C   UNL A   1      37.724  30.597  27.972  1.00  0.00     0.031 C 
ATOM     50  C   UNL A   1      39.323  34.582  30.021  1.00  0.00     0.029 A 
ATOM     51  N   UNL A   1      40.530  32.730  29.931  1.00  0.00    -0.354 N 
ATOM     52  C   UNL A   1      38.466  28.832  29.201  1.00  0.00     0.074 A 
ATOM     53  C   UNL A   1      37.801  29.265  28.001  1.00  0.00     0.031 C 
ATOM     54  C   UNL A   1      40.594  34.961  29.770  1.00  0.00     0.029 A 
ATOM     55  C   UNL A   1      41.421  33.774  29.695  1.00  0.00     0.049 A 
ATOM     56  H   UNL A   1      40.816  31.800  30.079  1.00  0.00     0.167 HD
ATOM     57  C   UNL A   1      39.269  27.756  29.434  1.00  0.00     0.034 A 
ATOM     58  C   UNL A   1      42.739  33.669  29.404  1.00  0.00     0.034 A 
ATOM     59  C   UNL A   1      39.776  27.767  30.783  1.00  0.00     0.049 A 
ATOM     60  C   UNL A   1      43.177  32.328  29.842  1.00  0.00     0.074 A 
ATOM     61  C   UNL A   1      39.220  27.767  32.046  1.00  0.00     0.029 A 
ATOM     62  N   UNL A   1      41.081  28.168  30.939  1.00  0.00    -0.354 N 
ATOM     63  N   UNL A   1      43.213  31.956  31.090  1.00  0.00    -0.248 NA
ATOM     64  C   UNL A   1      43.187  31.252  28.866  1.00  0.00     0.031 C 
ATOM     65  C   UNL A   1      40.076  28.604  32.823  1.00  0.00     0.029 A 
ATOM     66  C   UNL A   1      41.137  29.013  32.012  1.00  0.00     0.049 A 
ATOM     67  H   UNL A   1      41.841  27.893  30.378  1.00  0.00     0.167 HD
ATOM     68  C   UNL A   1      42.774  30.640  31.066  1.00  0.00     0.074 A 
ATOM     69  C   UNL A   1      42.914  30.223  29.673  1.00  0.00     0.031 C 
ATOM     70  C   UNL A   1      42.060  30.123  32.110  1.00  0.00     0.034 A 
BRANCH  57  71
ATOM     71  C   UNL A   1      39.938  26.909  28.365  1.00  0.00     0.023 A 
ATOM     72  C   UNL A   1      39.753  25.508  28.450  1.00  0.00     0.012 A 
ATOM     73  C   UNL A   1      40.949  27.360  27.486  1.00  0.00     0.148 A 
ATOM     74  C   UNL A   1      40.578  24.609  27.764  1.00  0.00     0.002 A 
ATOM     75  C   UNL A   1      41.713  26.466  26.744  1.00  0.00     0.091 A 
ATOM     76  F   UNL A   1      41.285  28.652  27.452  1.00  0.00    -0.205 F 
ATOM     77  C   UNL A   1      41.557  25.089  26.906  1.00  0.00     0.022 A 
BRANCH  75  78
ATOM     78  S   UNL A   1      42.960  27.037  25.580  1.00  0.00     0.127 S 
ATOM     79  O   UNL A   1      43.952  27.620  26.478  1.00  0.00    -0.237 OA
ATOM     80  O   UNL A   1      43.363  25.788  24.935  1.00  0.00    -0.237 OA
ATOM     81  O   UNL A   1      42.269  27.967  24.694  1.00  0.00    -0.744 OA
ENDBRANCH  75  78
ENDBRANCH  57  71
BRANCH  58  82
ATOM     82  C   UNL A   1      43.603  34.549  28.585  1.00  0.00     0.023 A 
ATOM     83  C   UNL A   1      43.421  34.602  27.191  1.00  0.00     0.012 A 
ATOM     84  C   UNL A   1      44.410  35.535  29.195  1.00  0.00     0.148 A 
ATOM     85  C   UNL A   1      43.993  35.627  26.429  1.00  0.00     0.002 A 
ATOM     86  C   UNL A   1      44.980  36.550  28.433  1.00  0.00     0.091 A 
ATOM     87  F   UNL A   1      44.540  35.529  30.529  1.00  0.00    -0.205 F 
ATOM     88  C   UNL A   1      44.763  36.607  27.051  1.00  0.00     0.022 A 
BRANCH  86  89
ATOM     89  S   UNL A   1      45.957  37.867  29.170  1.00  0.00     0.127 S 
ATOM     90  O   UNL A   1      44.948  38.597  29.936  1.00  0.00    -0.237 OA
ATOM     91  O   UNL A   1      46.916  37.115  29.975  1.00  0.00    -0.237 OA
ATOM     92  O   UNL A   1      46.522  38.616  28.053  1.00  0.00    -0.744 OA
ENDBRANCH  86  89
ENDBRANCH  58  82
BRANCH  70  93
ATOM     93  C   UNL A   1      42.019  30.910  33.396  1.00  0.00     0.023 A 
ATOM     94  C   UNL A   1      41.144  32.000  33.591  1.00  0.00     0.012 A 
ATOM     95  C   UNL A   1      42.756  30.431  34.491  1.00  0.00     0.148 A 
ATOM     96  C   UNL A   1      41.026  32.612  34.842  1.00  0.00     0.002 A 
ATOM     97  C   UNL A   1      42.600  31.009  35.744  1.00  0.00     0.091 A 
ATOM     98  F   UNL A   1      43.580  29.391  34.292  1.00  0.00    -0.205 F 
ATOM     99  C   UNL A   1      41.744  32.107  35.923  1.00  0.00     0.022 A 
BRANCH  97 100
ATOM    100  S   UNL A   1      43.396  30.319  37.196  1.00  0.00     0.127 S 
ATOM    101  O   UNL A   1      43.014  28.911  37.114  1.00  0.00    -0.237 OA
ATOM    102  O   UNL A   1      44.812  30.585  36.935  1.00  0.00    -0.237 OA
ATOM    103  O   UNL A   1      42.855  31.052  38.333  1.00  0.00    -0.744 OA
ENDBRANCH  97 100
ENDBRANCH  70  93
ENDBRANCH  44  45
ENDBRANCH  36  39
ENDBRANCH  34  35
ENDBRANCH  33  34
ENDBRANCH  32  33
ENDBRANCH   1  32
TORSDOF 20
ENDMDL
MODEL 2
REMARK VINA RESULT:      -9.8      5.628     11.752
REMARK SMILES NS(=O)(=O)c1ccc(-c2coc(=O)n2-c2ccc(C(=O)NCCCCCCNC(=O)c3ccc(-c4c5nc(c(-c6cccc(S(=O)(=O)[O-])c6F)c6ccc([nH]6)c(-c6cccc(S(=O)(=O)[O-])c6F)c6nc(c(-c7cccc(S(=O)(=O)[O-])c7F)c7ccc4[nH]7)C=C6)C=C5)cc3)cc2)cc1
REMARK SMILES IDX 24 1 23 2 22 3 21 4 19 5 20 6 18 8 15 9 16 10 95 11 17 12
REMARK SMILES IDX 94 13 14 14 9 15 10 16 11 17 12 18 13 19 8 20 5 21 6 22
REMARK SMILES IDX 97 23 7 24 96 25 2 26 3 27 4 28 1 29 25 32 26 33 27 34 28 35
REMARK SMILES IDX 29 36 30 38 31 39 32 40 93 41 33 42 92 43 34 44 35 45 36 46
REMARK SMILES IDX 86 47 37 48 91 49 85 50 87 51 38 52 90 53 84 54 83 55 39 57
REMARK SMILES IDX 71 58 51 59 70 60 52 61 55 62 69 63 88 64 53 65 54 66 68 68
REMARK SMILES IDX 89 69 56 70 40 71 41 72 49 73 42 74 44 75 50 76 43 77 45 78
REMARK SMILES IDX 46 79 47 80 48 81 72 82 73 83 81 84 74 85 76 86 82 87 75 88
REMARK SMILES IDX 77 89 78 90 79 91 80 92 57 93 58 94 66 95 59 96 61 97 67 98
REMARK SMILES IDX 60 99 62 100 63 101 64 102 65 103
REMARK H PARENT 21 7 1 30 1 31 28 37 87 56 55 67
REMARK Flexibility Score: inf
ROOT
ATOM      1  C   UNL A   1      33.083  33.538  28.220  1.00  0.00     0.002 C 
ENDROOT
BRANCH   1   2
ATOM      2  C   UNL A   1      32.195  33.037  27.073  1.00  0.00     0.021 C 
BRANCH   2   3
ATOM      3  C   UNL A   1      32.267  31.522  26.870  1.00  0.00     0.116 C 
BRANCH   3   4
ATOM      4  N   UNL A   1      33.471  30.983  27.474  1.00  0.00    -0.352 N 
ATOM      5  C   UNL A   1      34.020  29.726  27.514  1.00  0.00     0.251 C 
ATOM      6  O   UNL A   1      35.104  29.608  28.089  1.00  0.00    -0.269 OA
ATOM      7  H   UNL A   1      34.004  31.658  27.952  1.00  0.00     0.163 HD
BRANCH   5   8
ATOM      8  C   UNL A   1      33.433  28.544  26.817  1.00  0.00     0.039 A 
ATOM      9  C   UNL A   1      32.293  26.536  25.214  1.00  0.00     0.053 A 
ATOM     10  C   UNL A   1      33.519  27.090  24.854  1.00  0.00     0.028 A 
ATOM     11  C   UNL A   1      31.697  26.902  26.422  1.00  0.00     0.028 A 
ATOM     12  C   UNL A   1      34.065  28.116  25.635  1.00  0.00     0.016 A 
ATOM     13  C   UNL A   1      32.303  27.849  27.249  1.00  0.00     0.016 A 
BRANCH   9  14
ATOM     14  N   UNL A   1      31.632  25.627  24.371  1.00  0.00    -0.242 N 
ATOM     15  C   UNL A   1      30.474  25.822  23.674  1.00  0.00     0.095 A 
ATOM     16  C   UNL A   1      30.135  24.630  23.196  1.00  0.00     0.228 A 
ATOM     17  O   UNL A   1      31.027  23.607  23.515  1.00  0.00    -0.415 OA
ATOM     18  C   UNL A   1      32.000  24.291  24.248  1.00  0.00     0.424 A 
ATOM     19  O   UNL A   1      33.003  23.742  24.682  1.00  0.00    -0.223 OA
BRANCH  15  20
ATOM     20  C   UNL A   1      29.879  27.117  23.338  1.00  0.00     0.002 A 
ATOM     21  C   UNL A   1      28.770  29.573  22.549  1.00  0.00     0.082 A 
ATOM     22  C   UNL A   1      30.130  29.337  22.350  1.00  0.00     0.022 A 
ATOM     23  C   UNL A   1      27.960  28.601  23.141  1.00  0.00     0.022 A 
ATOM     24  C   UNL A   1      30.677  28.113  22.744  1.00  0.00     0.012 A 
ATOM     25  C   UNL A   1      28.515  27.374  23.529  1.00  0.00     0.012 A 
BRANCH  21  26
ATOM     26  S   UNL A   1      28.079  31.116  22.032  1.00  0.00     0.238 S 
ATOM     27  O   UNL A   1      27.197  31.619  23.070  1.00  0.00    -0.207 OA
ATOM     28  O   UNL A   1      27.672  31.007  20.659  1.00  0.00    -0.207 OA
BRANCH  26  29
ATOM     29  N   UNL A   1      29.401  32.154  22.050  1.00  0.00    -0.225 NA
ATOM     30  H   UNL A   1      30.200  31.679  22.468  1.00  0.00     0.137 HD
ATOM     31  H   UNL A   1      29.174  32.984  22.597  1.00  0.00     0.137 HD
ENDBRANCH  26  29
ENDBRANCH  21  26
ENDBRANCH  15  20
ENDBRANCH   9  14
ENDBRANCH   5   8
ENDBRANCH   3   4
ENDBRANCH   2   3
ENDBRANCH   1   2
BRANCH   1  32
ATOM     32  C   UNL A   1      34.365  34.270  27.793  1.00  0.00     0.002 C 
BRANCH  32  33
ATOM     33  C   UNL A   1      35.673  33.479  27.948  1.00  0.00     0.021 C 
BRANCH  33  34
ATOM     34  C   UNL A   1      36.473  33.876  29.180  1.00  0.00     0.116 C 
BRANCH  34  35
ATOM     35  N   UNL A   1      35.914  33.280  30.395  1.00  0.00    -0.352 N 
ATOM     36  C   UNL A   1      36.260  32.099  31.015  1.00  0.00     0.251 C 
ATOM     37  H   UNL A   1      35.194  33.793  30.828  1.00  0.00     0.163 HD
ATOM     38  O   UNL A   1      35.492  31.559  31.805  1.00  0.00    -0.269 OA
BRANCH  36  39
ATOM     39  C   UNL A   1      37.567  31.497  30.713  1.00  0.00     0.039 A 
ATOM     40  C   UNL A   1      38.753  32.209  30.922  1.00  0.00     0.014 A 
ATOM     41  C   UNL A   1      37.589  30.190  30.236  1.00  0.00     0.014 A 
ATOM     42  C   UNL A   1      39.969  31.561  30.722  1.00  0.00     0.010 A 
ATOM     43  C   UNL A   1      38.779  29.511  30.184  1.00  0.00     0.010 A 
ATOM     44  C   UNL A   1      39.973  30.205  30.368  1.00  0.00    -0.014 A 
BRANCH  44  45
ATOM     45  C   UNL A   1      41.220  29.452  30.295  1.00  0.00     0.031 A 
ATOM     46  C   UNL A   1      41.808  29.088  31.613  1.00  0.00     0.074 A 
ATOM     47  C   UNL A   1      41.650  28.904  29.137  1.00  0.00     0.049 A 
ATOM     48  N   UNL A   1      42.942  29.463  32.107  1.00  0.00    -0.248 NA
ATOM     49  C   UNL A   1      40.977  28.319  32.554  1.00  0.00     0.031 C 
ATOM     50  C   UNL A   1      40.967  28.920  27.834  1.00  0.00     0.029 A 
ATOM     51  N   UNL A   1      42.696  28.062  28.915  1.00  0.00    -0.354 N 
ATOM     52  C   UNL A   1      43.073  28.775  33.313  1.00  0.00     0.074 A 
ATOM     53  C   UNL A   1      41.761  28.278  33.633  1.00  0.00     0.031 C 
ATOM     54  C   UNL A   1      41.447  27.921  27.065  1.00  0.00     0.029 A 
ATOM     55  C   UNL A   1      42.580  27.323  27.740  1.00  0.00     0.049 A 
ATOM     56  H   UNL A   1      43.462  27.984  29.528  1.00  0.00     0.167 HD
ATOM     57  C   UNL A   1      44.298  28.430  33.802  1.00  0.00     0.034 A 
ATOM     58  C   UNL A   1      43.329  26.257  27.372  1.00  0.00     0.034 A 
ATOM     59  C   UNL A   1      45.349  29.147  33.124  1.00  0.00     0.049 A 
ATOM     60  C   UNL A   1      44.572  26.301  28.168  1.00  0.00     0.074 A 
ATOM     61  C   UNL A   1      45.673  30.474  32.932  1.00  0.00     0.029 A 
ATOM     62  N   UNL A   1      46.059  28.440  32.185  1.00  0.00    -0.354 N 
ATOM     63  N   UNL A   1      45.472  27.236  28.046  1.00  0.00    -0.248 NA
ATOM     64  C   UNL A   1      44.631  25.533  29.400  1.00  0.00     0.031 C 
ATOM     65  C   UNL A   1      46.195  30.537  31.606  1.00  0.00     0.029 A 
ATOM     66  C   UNL A   1      46.219  29.240  31.088  1.00  0.00     0.049 A 
ATOM     67  H   UNL A   1      46.394  27.520  32.285  1.00  0.00     0.167 HD
ATOM     68  C   UNL A   1      45.885  27.484  29.347  1.00  0.00     0.074 A 
ATOM     69  C   UNL A   1      45.447  26.318  30.109  1.00  0.00     0.031 C 
ATOM     70  C   UNL A   1      46.269  28.738  29.731  1.00  0.00     0.034 A 
BRANCH  57  71
ATOM     71  C   UNL A   1      44.608  27.172  34.593  1.00  0.00     0.023 A 
ATOM     72  C   UNL A   1      45.527  27.299  35.663  1.00  0.00     0.012 A 
ATOM     73  C   UNL A   1      44.296  25.856  34.182  1.00  0.00     0.148 A 
ATOM     74  C   UNL A   1      46.158  26.187  36.233  1.00  0.00     0.002 A 
ATOM     75  C   UNL A   1      44.864  24.750  34.806  1.00  0.00     0.091 A 
ATOM     76  F   UNL A   1      43.552  25.649  33.093  1.00  0.00    -0.205 F 
ATOM     77  C   UNL A   1      45.823  24.910  35.807  1.00  0.00     0.022 A 
BRANCH  75  78
ATOM     78  S   UNL A   1      44.425  23.074  34.325  1.00  0.00     0.127 S 
ATOM     79  O   UNL A   1      42.984  23.070  34.557  1.00  0.00    -0.237 OA
ATOM     80  O   UNL A   1      44.829  23.050  32.919  1.00  0.00    -0.237 OA
ATOM     81  O   UNL A   1      45.216  22.201  35.184  1.00  0.00    -0.744 OA
ENDBRANCH  75  78
ENDBRANCH  57  71
BRANCH  58  82
ATOM     82  C   UNL A   1      42.969  25.086  26.543  1.00  0.00     0.023 A 
ATOM     83  C   UNL A   1      43.675  24.830  25.353  1.00  0.00     0.012 A 
ATOM     84  C   UNL A   1      42.130  24.072  27.057  1.00  0.00     0.148 A 
ATOM     85  C   UNL A   1      43.579  23.590  24.711  1.00  0.00     0.002 A 
ATOM     86  C   UNL A   1      42.035  22.842  26.412  1.00  0.00     0.091 A 
ATOM     87  F   UNL A   1      41.501  24.282  28.221  1.00  0.00    -0.205 F 
ATOM     88  C   UNL A   1      42.768  22.593  25.246  1.00  0.00     0.022 A 
BRANCH  86  89
ATOM     89  S   UNL A   1      41.035  21.495  27.063  1.00  0.00     0.127 S 
ATOM     90  O   UNL A   1      39.879  21.519  26.169  1.00  0.00    -0.237 OA
ATOM     91  O   UNL A   1      41.925  20.351  26.889  1.00  0.00    -0.237 OA
ATOM     92  O   UNL A   1      40.734  21.855  28.444  1.00  0.00    -0.744 OA
ENDBRANCH  86  89
ENDBRANCH  58  82
BRANCH  70  93
ATOM     93  C   UNL A   1      46.513  29.763  28.652  1.00  0.00     0.023 A 
ATOM     94  C   UNL A   1      45.494  30.608  28.163  1.00  0.00     0.012 A 
ATOM     95  C   UNL A   1      47.838  29.997  28.247  1.00  0.00     0.148 A 
ATOM     96  C   UNL A   1      45.786  31.645  27.272  1.00  0.00     0.002 A 
ATOM     97  C   UNL A   1      48.132  31.059  27.401  1.00  0.00     0.091 A 
ATOM     98  F   UNL A   1      48.797  29.190  28.725  1.00  0.00    -0.205 F 
ATOM     99  C   UNL A   1      47.108  31.879  26.901  1.00  0.00     0.022 A 
BRANCH  97 100
ATOM    100  S   UNL A   1      49.825  31.488  26.997  1.00  0.00     0.127 S 
ATOM    101  O   UNL A   1      50.408  31.712  28.318  1.00  0.00    -0.237 OA
ATOM    102  O   UNL A   1      50.302  30.285  26.314  1.00  0.00    -0.237 OA
ATOM    103  O   UNL A   1      49.744  32.664  26.139  1.00  0.00    -0.744 OA
ENDBRANCH  97 100
ENDBRANCH  70  93
ENDBRANCH  44  45
ENDBRANCH  36  39
ENDBRANCH  34  35
ENDBRANCH  33  34
ENDBRANCH  32  33
ENDBRANCH   1  32
TORSDOF 20
ENDMDL
MODEL 3
REMARK VINA RESULT:      -9.7      5.566     12.989
REMARK SMILES NS(=O)(=O)c1ccc(-c2coc(=O)n2-c2ccc(C(=O)NCCCCCCNC(=O)c3ccc(-c4c5nc(c(-c6cccc(S(=O)(=O)[O-])c6F)c6ccc([nH]6)c(-c6cccc(S(=O)(=O)[O-])c6F)c6nc(c(-c7cccc(S(=O)(=O)[O-])c7F)c7ccc4[nH]7)C=C6)C=C5)cc3)cc2)cc1
REMARK SMILES IDX 24 1 23 2 22 3 21 4 19 5 20 6 18 8 15 9 16 10 95 11 17 12
REMARK SMILES IDX 94 13 14 14 9 15 10 16 11 17 12 18 13 19 8 20 5 21 6 22
REMARK SMILES IDX 97 23 7 24 96 25 2 26 3 27 4 28 1 29 25 32 26 33 27 34 28 35
REMARK SMILES IDX 29 36 30 38 31 39 32 40 93 41 33 42 92 43 34 44 35 45 36 46
REMARK SMILES IDX 86 47 37 48 91 49 85 50 87 51 38 52 90 53 84 54 83 55 39 57
REMARK SMILES IDX 71 58 51 59 70 60 52 61 55 62 69 63 88 64 53 65 54 66 68 68
REMARK SMILES IDX 89 69 56 70 40 71 41 72 49 73 42 74 44 75 50 76 43 77 45 78
REMARK SMILES IDX 46 79 47 80 48 81 72 82 73 83 81 84 74 85 76 86 82 87 75 88
REMARK SMILES IDX 77 89 78 90 79 91 80 92 57 93 58 94 66 95 59 96 61 97 67 98
REMARK SMILES IDX 60 99 62 100 63 101 64 102 65 103
REMARK H PARENT 21 7 1 30 1 31 28 37 87 56 55 67
REMARK Flexibility Score: inf
ROOT
ATOM      1  C   UNL A   1      40.448  19.541  25.751  1.00  0.00     0.002 C 
ENDROOT
BRANCH   1   2
ATOM      2  C   UNL A   1      38.914  19.557  25.807  1.00  0.00     0.021 C 
BRANCH   2   3
ATOM      3  C   UNL A   1      38.295  20.742  25.062  1.00  0.00     0.116 C 
BRANCH   3   4
ATOM      4  N   UNL A   1      38.661  21.993  25.700  1.00  0.00    -0.352 N 
ATOM      5  C   UNL A   1      38.018  23.197  25.844  1.00  0.00     0.251 C 
ATOM      6  O   UNL A   1      38.602  24.067  26.495  1.00  0.00    -0.269 OA
ATOM      7  H   UNL A   1      39.554  21.974  26.114  1.00  0.00     0.163 HD
BRANCH   5   8
ATOM      8  C   UNL A   1      36.634  23.460  25.354  1.00  0.00     0.039 A 
ATOM      9  C   UNL A   1      33.929  23.652  24.612  1.00  0.00     0.053 A 
ATOM     10  C   UNL A   1      34.281  23.736  25.957  1.00  0.00     0.028 A 
ATOM     11  C   UNL A   1      34.928  23.585  23.639  1.00  0.00     0.028 A 
ATOM     12  C   UNL A   1      35.625  23.603  26.325  1.00  0.00     0.016 A 
ATOM     13  C   UNL A   1      36.273  23.561  24.010  1.00  0.00     0.016 A 
BRANCH   9  14
ATOM     14  N   UNL A   1      32.582  23.613  24.216  1.00  0.00    -0.242 N 
ATOM     15  C   UNL A   1      31.880  22.542  23.742  1.00  0.00     0.095 A 
ATOM     16  C   UNL A   1      30.724  23.031  23.308  1.00  0.00     0.228 A 
ATOM     17  O   UNL A   1      30.580  24.407  23.480  1.00  0.00    -0.415 OA
ATOM     18  C   UNL A   1      31.785  24.747  24.099  1.00  0.00     0.424 A 
ATOM     19  O   UNL A   1      32.038  25.887  24.464  1.00  0.00    -0.223 OA
BRANCH  15  20
ATOM     20  C   UNL A   1      32.244  21.133  23.905  1.00  0.00     0.002 A 
ATOM     21  C   UNL A   1      33.054  18.452  24.117  1.00  0.00     0.082 A 
ATOM     22  C   UNL A   1      32.564  18.929  22.902  1.00  0.00     0.022 A 
ATOM     23  C   UNL A   1      33.138  19.296  25.228  1.00  0.00     0.022 A 
ATOM     24  C   UNL A   1      32.163  20.264  22.801  1.00  0.00     0.012 A 
ATOM     25  C   UNL A   1      32.739  20.635  25.118  1.00  0.00     0.012 A 
BRANCH  21  26
ATOM     26  S   UNL A   1      33.577  16.768  24.235  1.00  0.00     0.238 S 
ATOM     27  O   UNL A   1      34.055  16.321  22.939  1.00  0.00    -0.207 OA
ATOM     28  O   UNL A   1      32.606  16.032  24.996  1.00  0.00    -0.207 OA
BRANCH  26  29
ATOM     29  N   UNL A   1      34.954  16.860  25.194  1.00  0.00    -0.225 NA
ATOM     30  H   UNL A   1      35.743  17.172  24.627  1.00  0.00     0.137 HD
ATOM     31  H   UNL A   1      35.159  15.941  25.585  1.00  0.00     0.137 HD
ENDBRANCH  26  29
ENDBRANCH  21  26
ENDBRANCH  15  20
ENDBRANCH   9  14
ENDBRANCH   5   8
ENDBRANCH   3   4
ENDBRANCH   2   3
ENDBRANCH   1   2
BRANCH   1  32
ATOM     32  C   UNL A   1      41.142  20.817  26.254  1.00  0.00     0.002 C 
BRANCH  32  33
ATOM     33  C   UNL A   1      41.128  21.032  27.776  1.00  0.00     0.021 C 
BRANCH  33  34
ATOM     34  C   UNL A   1      41.801  22.328  28.205  1.00  0.00     0.116 C 
BRANCH  34  35
ATOM     35  N   UNL A   1      42.952  22.641  27.356  1.00  0.00    -0.352 N 
ATOM     36  C   UNL A   1      43.360  23.865  26.874  1.00  0.00     0.251 C 
ATOM     37  H   UNL A   1      43.509  21.873  27.094  1.00  0.00     0.163 HD
ATOM     38  O   UNL A   1      44.116  23.937  25.910  1.00  0.00    -0.269 OA
BRANCH  36  39
ATOM     39  C   UNL A   1      42.876  25.085  27.536  1.00  0.00     0.039 A 
ATOM     40  C   UNL A   1      43.454  25.536  28.727  1.00  0.00     0.014 A 
ATOM     41  C   UNL A   1      41.840  25.790  26.929  1.00  0.00     0.014 A 
ATOM     42  C   UNL A   1      43.032  26.751  29.260  1.00  0.00     0.010 A 
ATOM     43  C   UNL A   1      41.533  27.051  27.371  1.00  0.00     0.010 A 
ATOM     44  C   UNL A   1      42.081  27.511  28.565  1.00  0.00    -0.014 A 
BRANCH  44  45
ATOM     45  C   UNL A   1      41.724  28.854  29.009  1.00  0.00     0.031 A 
ATOM     46  C   UNL A   1      42.779  29.883  28.801  1.00  0.00     0.074 A 
ATOM     47  C   UNL A   1      40.452  29.180  29.328  1.00  0.00     0.049 A 
ATOM     48  N   UNL A   1      43.408  30.569  29.698  1.00  0.00    -0.248 NA
ATOM     49  C   UNL A   1      43.295  30.080  27.436  1.00  0.00     0.031 C 
ATOM     50  C   UNL A   1      39.263  28.317  29.246  1.00  0.00     0.029 A 
ATOM     51  N   UNL A   1      39.918  30.397  29.618  1.00  0.00    -0.354 N 
ATOM     52  C   UNL A   1      44.216  31.460  28.992  1.00  0.00     0.074 A 
ATOM     53  C   UNL A   1      44.273  30.964  27.643  1.00  0.00     0.031 C 
ATOM     54  C   UNL A   1      38.155  29.086  29.198  1.00  0.00     0.029 A 
ATOM     55  C   UNL A   1      38.540  30.463  29.430  1.00  0.00     0.049 A 
ATOM     56  H   UNL A   1      40.457  31.160  29.931  1.00  0.00     0.167 HD
ATOM     57  C   UNL A   1      44.540  32.681  29.505  1.00  0.00     0.034 A 
ATOM     58  C   UNL A   1      37.773  31.579  29.411  1.00  0.00     0.034 A 
ATOM     59  C   UNL A   1      44.245  32.747  30.914  1.00  0.00     0.049 A 
ATOM     60  C   UNL A   1      38.539  32.646  30.086  1.00  0.00     0.074 A 
ATOM     61  C   UNL A   1      44.634  32.047  32.038  1.00  0.00     0.029 A 
ATOM     62  N   UNL A   1      43.110  33.436  31.267  1.00  0.00    -0.354 N 
ATOM     63  N   UNL A   1      38.838  32.624  31.355  1.00  0.00    -0.248 NA
ATOM     64  C   UNL A   1      39.335  33.547  29.271  1.00  0.00     0.031 C 
ATOM     65  C   UNL A   1      43.467  31.987  32.855  1.00  0.00     0.029 A 
ATOM     66  C   UNL A   1      42.453  32.706  32.218  1.00  0.00     0.049 A 
ATOM     67  H   UNL A   1      42.822  34.302  30.900  1.00  0.00     0.167 HD
ATOM     68  C   UNL A   1      40.130  33.124  31.409  1.00  0.00     0.074 A 
ATOM     69  C   UNL A   1      40.324  33.805  30.131  1.00  0.00     0.031 C 
ATOM     70  C   UNL A   1      41.012  32.679  32.353  1.00  0.00     0.034 A 
BRANCH  57  71
ATOM     71  C   UNL A   1      44.736  33.951  28.697  1.00  0.00     0.023 A 
ATOM     72  C   UNL A   1      43.576  34.713  28.409  1.00  0.00     0.012 A 
ATOM     73  C   UNL A   1      45.903  34.280  27.970  1.00  0.00     0.148 A 
ATOM     74  C   UNL A   1      43.560  35.685  27.403  1.00  0.00     0.002 A 
ATOM     75  C   UNL A   1      45.903  35.304  27.029  1.00  0.00     0.091 A 
ATOM     76  F   UNL A   1      46.998  33.524  28.076  1.00  0.00    -0.205 F 
ATOM     77  C   UNL A   1      44.727  35.985  26.714  1.00  0.00     0.022 A 
BRANCH  75  78
ATOM     78  S   UNL A   1      47.401  35.765  26.145  1.00  0.00     0.127 S 
ATOM     79  O   UNL A   1      46.982  36.997  25.484  1.00  0.00    -0.237 OA
ATOM     80  O   UNL A   1      48.354  35.941  27.241  1.00  0.00    -0.237 OA
ATOM     81  O   UNL A   1      47.702  34.637  25.272  1.00  0.00    -0.744 OA
ENDBRANCH  75  78
ENDBRANCH  57  71
BRANCH  58  82
ATOM     82  C   UNL A   1      36.523  31.858  28.671  1.00  0.00     0.023 A 
ATOM     83  C   UNL A   1      35.907  30.832  27.930  1.00  0.00     0.012 A 
ATOM     84  C   UNL A   1      35.790  33.041  28.916  1.00  0.00     0.148 A 
ATOM     85  C   UNL A   1      34.589  30.963  27.477  1.00  0.00     0.002 A 
ATOM     86  C   UNL A   1      34.481  33.168  28.460  1.00  0.00     0.091 A 
ATOM     87  F   UNL A   1      36.344  33.998  29.673  1.00  0.00    -0.205 F 
ATOM     88  C   UNL A   1      33.873  32.125  27.751  1.00  0.00     0.022 A 
BRANCH  86  89
ATOM     89  S   UNL A   1      33.484  34.623  28.806  1.00  0.00     0.127 S 
ATOM     90  O   UNL A   1      32.285  34.362  28.010  1.00  0.00    -0.237 OA
ATOM     91  O   UNL A   1      33.298  34.523  30.250  1.00  0.00    -0.237 OA
ATOM     92  O   UNL A   1      34.271  35.762  28.349  1.00  0.00    -0.744 OA
ENDBRANCH  86  89
ENDBRANCH  58  82
BRANCH  70  93
ATOM     93  C   UNL A   1      40.468  31.865  33.501  1.00  0.00     0.023 A 
ATOM     94  C   UNL A   1      40.601  30.462  33.566  1.00  0.00     0.012 A 
ATOM     95  C   UNL A   1      39.965  32.550  34.619  1.00  0.00     0.148 A 
ATOM     96  C   UNL A   1      40.218  29.756  34.710  1.00  0.00     0.002 A 
ATOM     97  C   UNL A   1      39.631  31.851  35.773  1.00  0.00     0.091 A 
ATOM     98  F   UNL A   1      39.850  33.884  34.545  1.00  0.00    -0.205 F 
ATOM     99  C   UNL A   1      39.745  30.453  35.820  1.00  0.00     0.022 A 
BRANCH  97 100
ATOM    100  S   UNL A   1      39.146  32.706  37.273  1.00  0.00     0.127 S 
ATOM    101  O   UNL A   1      38.455  33.881  36.746  1.00  0.00    -0.237 OA
ATOM    102  O   UNL A   1      38.276  31.726  37.926  1.00  0.00    -0.237 OA
ATOM    103  O   UNL A   1      40.382  32.976  37.996  1.00  0.00    -0.744 OA
ENDBRANCH  97 100
ENDBRANCH  70  93
ENDBRANCH  44  45
ENDBRANCH  36  39
ENDBRANCH  34  35
ENDBRANCH  33  34
ENDBRANCH  32  33
ENDBRANCH   1  32
TORSDOF 20
ENDMDL
