MODEL 1
REMARK VINA RESULT:     -11.2      0.000      0.000
REMARK SMILES O=C(NCCCCCCNC(=O)[C@@]1([NH2+]C2CC2)CCC[C@H]1CCn1ccnc1)c1ccc(-c2c3nc(c(-c4cccc(S(=O)(=O)[O-])c4F)c4ccc([nH]4)c(-c4cccc(S(=O)(=O)[O-])c4F)c4nc(c(-c5cccc(S(=O)(=O)[O-])c5F)c5ccc2[nH]5)C=C4)C=C3)cc1
REMARK SMILES IDX 6 1 5 2 4 3 3 4 1 5 2 6 29 8 30 9 91 10 31 11 90 12 32 13
REMARK SMILES IDX 33 14 34 15 84 16 35 17 89 18 83 19 85 20 36 21 88 22 82 23
REMARK SMILES IDX 81 24 37 26 69 27 49 28 68 29 50 30 53 31 67 32 86 33 51 34
REMARK SMILES IDX 52 35 66 37 87 38 54 39 38 40 39 41 47 42 40 43 42 44 48 45
REMARK SMILES IDX 41 46 43 47 44 48 45 49 46 50 70 51 71 52 79 53 72 54 74 55
REMARK SMILES IDX 80 56 73 57 75 58 76 59 77 60 78 61 55 62 56 63 64 64 57 65
REMARK SMILES IDX 59 66 65 67 58 68 60 69 61 70 62 71 63 72 7 73 8 74 9 75
REMARK SMILES IDX 10 76 11 77 12 79 13 80 18 81 21 82 19 83 20 84 14 85 15 88
REMARK SMILES IDX 16 89 17 90 22 91 23 92 24 93 25 94 28 95 26 96 27 97
REMARK H PARENT 3 7 85 25 53 36 10 78 14 86 14 87
REMARK Flexibility Score: inf
ROOT
ATOM      1  C   UNL A   1      32.476  28.827  27.091  1.00  0.00     0.002 C 
ENDROOT
BRANCH   1   2
ATOM      2  C   UNL A   1      32.658  30.345  26.966  1.00  0.00     0.021 C 
BRANCH   2   3
ATOM      3  C   UNL A   1      34.032  30.901  27.329  1.00  0.00     0.116 C 
BRANCH   3   4
ATOM      4  N   UNL A   1      34.092  31.612  28.583  1.00  0.00    -0.352 N 
ATOM      5  O   UNL A   1      34.725  32.561  30.466  1.00  0.00    -0.269 OA
ATOM      6  C   UNL A   1      35.024  31.768  29.569  1.00  0.00     0.251 C 
ATOM      7  H   UNL A   1      33.260  32.104  28.774  1.00  0.00     0.163 HD
BRANCH   6   8
ATOM      8  C   UNL A   1      36.309  31.028  29.656  1.00  0.00     0.039 A 
ATOM      9  C   UNL A   1      36.445  29.640  29.732  1.00  0.00     0.014 A 
ATOM     10  C   UNL A   1      37.471  31.821  29.626  1.00  0.00     0.014 A 
ATOM     11  C   UNL A   1      37.707  29.061  29.838  1.00  0.00     0.010 A 
ATOM     12  C   UNL A   1      38.733  31.248  29.716  1.00  0.00     0.010 A 
ATOM     13  C   UNL A   1      38.849  29.867  29.842  1.00  0.00    -0.014 A 
BRANCH  13  14
ATOM     14  C   UNL A   1      40.156  29.214  29.826  1.00  0.00     0.031 A 
ATOM     15  C   UNL A   1      40.775  28.987  31.166  1.00  0.00     0.074 A 
ATOM     16  C   UNL A   1      40.702  28.682  28.716  1.00  0.00     0.049 A 
ATOM     17  N   UNL A   1      41.910  29.423  31.610  1.00  0.00    -0.248 NA
ATOM     18  C   UNL A   1      39.986  28.250  32.164  1.00  0.00     0.031 C 
ATOM     19  C   UNL A   1      40.070  28.525  27.404  1.00  0.00     0.029 A 
ATOM     20  N   UNL A   1      41.889  28.023  28.573  1.00  0.00    -0.354 N 
ATOM     21  C   UNL A   1      42.071  28.847  32.873  1.00  0.00     0.074 A 
ATOM     22  C   UNL A   1      40.801  28.266  33.219  1.00  0.00     0.031 C 
ATOM     23  C   UNL A   1      40.758  27.605  26.693  1.00  0.00     0.029 A 
ATOM     24  C   UNL A   1      41.936  27.211  27.445  1.00  0.00     0.049 A 
ATOM     25  H   UNL A   1      42.638  28.113  29.208  1.00  0.00     0.167 HD
ATOM     26  C   UNL A   1      43.292  28.711  33.460  1.00  0.00     0.034 A 
ATOM     27  C   UNL A   1      42.826  26.221  27.196  1.00  0.00     0.034 A 
ATOM     28  C   UNL A   1      44.294  29.512  32.814  1.00  0.00     0.049 A 
ATOM     29  C   UNL A   1      44.004  26.435  28.065  1.00  0.00     0.074 A 
ATOM     30  C   UNL A   1      44.484  30.858  32.578  1.00  0.00     0.029 A 
ATOM     31  N   UNL A   1      45.189  28.856  32.007  1.00  0.00    -0.354 N 
ATOM     32  N   UNL A   1      44.839  27.424  27.926  1.00  0.00    -0.248 NA
ATOM     33  C   UNL A   1      44.059  25.742  29.342  1.00  0.00     0.031 C 
ATOM     34  C   UNL A   1      45.141  30.919  31.315  1.00  0.00     0.029 A 
ATOM     35  C   UNL A   1      45.337  29.608  30.875  1.00  0.00     0.049 A 
ATOM     36  H   UNL A   1      45.640  28.003  32.206  1.00  0.00     0.167 HD
ATOM     37  C   UNL A   1      45.197  27.758  29.225  1.00  0.00     0.074 A 
ATOM     38  C   UNL A   1      44.795  26.613  30.034  1.00  0.00     0.031 C 
ATOM     39  C   UNL A   1      45.515  29.044  29.557  1.00  0.00     0.034 A 
BRANCH  26  40
ATOM     40  C   UNL A   1      43.690  27.604  34.412  1.00  0.00     0.023 A 
ATOM     41  C   UNL A   1      44.346  27.981  35.608  1.00  0.00     0.012 A 
ATOM     42  C   UNL A   1      43.722  26.234  34.071  1.00  0.00     0.148 A 
ATOM     43  C   UNL A   1      45.046  27.054  36.389  1.00  0.00     0.002 A 
ATOM     44  C   UNL A   1      44.350  25.304  34.893  1.00  0.00     0.091 A 
ATOM     45  F   UNL A   1      43.264  25.832  32.882  1.00  0.00    -0.205 F 
ATOM     46  C   UNL A   1      45.044  25.712  36.034  1.00  0.00     0.022 A 
BRANCH  44  47
ATOM     47  S   UNL A   1      44.327  23.548  34.514  1.00  0.00     0.127 S 
ATOM     48  O   UNL A   1      45.176  23.492  33.329  1.00  0.00    -0.237 OA
ATOM     49  O   UNL A   1      44.911  22.971  35.725  1.00  0.00    -0.237 OA
ATOM     50  O   UNL A   1      42.920  23.216  34.318  1.00  0.00    -0.744 OA
ENDBRANCH  44  47
ENDBRANCH  26  40
BRANCH  27  51
ATOM     51  C   UNL A   1      42.642  24.963  26.435  1.00  0.00     0.023 A 
ATOM     52  C   UNL A   1      43.576  24.604  25.445  1.00  0.00     0.012 A 
ATOM     53  C   UNL A   1      41.708  23.991  26.855  1.00  0.00     0.148 A 
ATOM     54  C   UNL A   1      43.598  23.310  24.909  1.00  0.00     0.002 A 
ATOM     55  C   UNL A   1      41.724  22.710  26.312  1.00  0.00     0.091 A 
ATOM     56  F   UNL A   1      40.867  24.291  27.854  1.00  0.00    -0.205 F 
ATOM     57  C   UNL A   1      42.677  22.362  25.346  1.00  0.00     0.022 A 
BRANCH  55  58
ATOM     58  S   UNL A   1      40.575  21.433  26.842  1.00  0.00     0.127 S 
ATOM     59  O   UNL A   1      41.032  20.274  26.074  1.00  0.00    -0.237 OA
ATOM     60  O   UNL A   1      40.844  21.362  28.276  1.00  0.00    -0.237 OA
ATOM     61  O   UNL A   1      39.250  21.912  26.469  1.00  0.00    -0.744 OA
ENDBRANCH  55  58
ENDBRANCH  27  51
BRANCH  39  62
ATOM     62  C   UNL A   1      45.769  30.028  28.446  1.00  0.00     0.023 A 
ATOM     63  C   UNL A   1      44.723  30.736  27.818  1.00  0.00     0.012 A 
ATOM     64  C   UNL A   1      47.099  30.384  28.160  1.00  0.00     0.148 A 
ATOM     65  C   UNL A   1      44.997  31.756  26.904  1.00  0.00     0.002 A 
ATOM     66  C   UNL A   1      47.367  31.435  27.291  1.00  0.00     0.091 A 
ATOM     67  F   UNL A   1      48.083  29.707  28.770  1.00  0.00    -0.205 F 
ATOM     68  C   UNL A   1      46.319  32.116  26.652  1.00  0.00     0.022 A 
BRANCH  66  69
ATOM     69  S   UNL A   1      49.039  32.036  27.043  1.00  0.00     0.127 S 
ATOM     70  O   UNL A   1      48.828  33.153  26.119  1.00  0.00    -0.237 OA
ATOM     71  O   UNL A   1      49.434  32.435  28.398  1.00  0.00    -0.237 OA
ATOM     72  O   UNL A   1      49.794  30.914  26.513  1.00  0.00    -0.744 OA
ENDBRANCH  66  69
ENDBRANCH  39  62
ENDBRANCH  13  14
ENDBRANCH   6   8
ENDBRANCH   3   4
ENDBRANCH   2   3
ENDBRANCH   1   2
BRANCH   1  73
ATOM     73  C   UNL A   1      31.724  28.084  25.979  1.00  0.00     0.002 C 
BRANCH  73  74
ATOM     74  C   UNL A   1      30.986  26.787  26.337  1.00  0.00     0.021 C 
BRANCH  74  75
ATOM     75  C   UNL A   1      30.277  26.095  25.182  1.00  0.00     0.116 C 
BRANCH  75  76
ATOM     76  N   UNL A   1      30.056  24.679  25.393  1.00  0.00    -0.351 N 
ATOM     77  C   UNL A   1      30.914  23.636  25.593  1.00  0.00     0.281 C 
ATOM     78  H   UNL A   1      29.107  24.420  25.391  1.00  0.00     0.163 HD
ATOM     79  O   UNL A   1      30.397  22.692  26.208  1.00  0.00    -0.268 OA
BRANCH  77  80
ATOM     80  C   UNL A   1      32.419  23.619  25.141  1.00  0.00     0.178 C 
ATOM     81  C   UNL A   1      33.429  23.632  26.307  1.00  0.00     0.079 C 
ATOM     82  C   UNL A   1      32.893  22.418  24.229  1.00  0.00     0.062 C 
ATOM     83  C   UNL A   1      34.748  23.177  25.706  1.00  0.00     0.008 C 
ATOM     84  C   UNL A   1      34.353  22.120  24.687  1.00  0.00     0.011 C 
BRANCH  80  85
ATOM     85  N   UNL A   1      32.725  24.819  24.293  1.00  0.00    -0.331 N 
ATOM     86  H   UNL A   1      33.664  25.117  24.557  1.00  0.00     0.347 HD
ATOM     87  H   UNL A   1      31.922  25.415  24.492  1.00  0.00     0.347 HD
BRANCH  85  88
ATOM     88  C   UNL A   1      32.709  24.794  22.834  1.00  0.00     0.183 C 
ATOM     89  C   UNL A   1      31.950  25.719  21.930  1.00  0.00     0.071 C 
ATOM     90  C   UNL A   1      33.429  25.892  22.089  1.00  0.00     0.071 C 
ENDBRANCH  85  88
ENDBRANCH  80  85
BRANCH  82  91
ATOM     91  C   UNL A   1      32.146  21.071  24.134  1.00  0.00     0.032 C 
BRANCH  91  92
ATOM     92  C   UNL A   1      32.697  19.872  24.912  1.00  0.00     0.123 C 
BRANCH  92  93
ATOM     93  N   UNL A   1      33.213  18.789  24.107  1.00  0.00    -0.337 N 
ATOM     94  C   UNL A   1      34.371  18.105  24.347  1.00  0.00     0.107 A 
ATOM     95  C   UNL A   1      32.528  18.124  23.132  1.00  0.00     0.199 A 
ATOM     96  C   UNL A   1      34.333  17.036  23.483  1.00  0.00     0.130 A 
ATOM     97  N   UNL A   1      33.192  17.067  22.720  1.00  0.00    -0.245 NA
ENDBRANCH  92  93
ENDBRANCH  91  92
ENDBRANCH  82  91
ENDBRANCH  77  80
ENDBRANCH  75  76
ENDBRANCH  74  75
ENDBRANCH  73  74
ENDBRANCH   1  73
TORSDOF 21
ENDMDL
MODEL 2
REMARK VINA RESULT:     -11.2      3.271      8.436
REMARK SMILES O=C(NCCCCCCNC(=O)[C@@]1([NH2+]C2CC2)CCC[C@H]1CCn1ccnc1)c1ccc(-c2c3nc(c(-c4cccc(S(=O)(=O)[O-])c4F)c4ccc([nH]4)c(-c4cccc(S(=O)(=O)[O-])c4F)c4nc(c(-c5cccc(S(=O)(=O)[O-])c5F)c5ccc2[nH]5)C=C4)C=C3)cc1
REMARK SMILES IDX 6 1 5 2 4 3 3 4 1 5 2 6 29 8 30 9 91 10 31 11 90 12 32 13
REMARK SMILES IDX 33 14 34 15 84 16 35 17 89 18 83 19 85 20 36 21 88 22 82 23
REMARK SMILES IDX 81 24 37 26 69 27 49 28 68 29 50 30 53 31 67 32 86 33 51 34
REMARK SMILES IDX 52 35 66 37 87 38 54 39 38 40 39 41 47 42 40 43 42 44 48 45
REMARK SMILES IDX 41 46 43 47 44 48 45 49 46 50 70 51 71 52 79 53 72 54 74 55
REMARK SMILES IDX 80 56 73 57 75 58 76 59 77 60 78 61 55 62 56 63 64 64 57 65
REMARK SMILES IDX 59 66 65 67 58 68 60 69 61 70 62 71 63 72 7 73 8 74 9 75
REMARK SMILES IDX 10 76 11 77 12 79 13 80 18 81 21 82 19 83 20 84 14 85 15 88
REMARK SMILES IDX 16 89 17 90 22 91 23 92 24 93 25 94 28 95 26 96 27 97
REMARK H PARENT 3 7 85 25 53 36 10 78 14 86 14 87
REMARK Flexibility Score: inf
ROOT
ATOM      1  C   UNL A   1      35.537  21.669  25.802  1.00  0.00     0.002 C 
ENDROOT
BRANCH   1   2
ATOM      2  C   UNL A   1      36.983  21.523  25.310  1.00  0.00     0.021 C 
BRANCH   2   3
ATOM      3  C   UNL A   1      37.980  22.568  25.802  1.00  0.00     0.116 C 
BRANCH   3   4
ATOM      4  N   UNL A   1      39.206  22.035  26.347  1.00  0.00    -0.352 N 
ATOM      5  O   UNL A   1      41.046  21.678  27.501  1.00  0.00    -0.269 OA
ATOM      6  C   UNL A   1      40.177  22.496  27.188  1.00  0.00     0.251 C 
ATOM      7  H   UNL A   1      39.385  21.118  26.037  1.00  0.00     0.163 HD
BRANCH   6   8
ATOM      8  C   UNL A   1      40.281  23.890  27.692  1.00  0.00     0.039 A 
ATOM      9  C   UNL A   1      39.264  24.846  27.658  1.00  0.00     0.014 A 
ATOM     10  C   UNL A   1      41.514  24.236  28.275  1.00  0.00     0.014 A 
ATOM     11  C   UNL A   1      39.491  26.133  28.138  1.00  0.00     0.010 A 
ATOM     12  C   UNL A   1      41.741  25.514  28.769  1.00  0.00     0.010 A 
ATOM     13  C   UNL A   1      40.733  26.469  28.681  1.00  0.00    -0.014 A 
BRANCH  13  14
ATOM     14  C   UNL A   1      40.889  27.789  29.288  1.00  0.00     0.031 A 
ATOM     15  C   UNL A   1      41.874  28.689  28.618  1.00  0.00     0.074 A 
ATOM     16  C   UNL A   1      40.086  28.251  30.266  1.00  0.00     0.049 A 
ATOM     17  N   UNL A   1      42.934  29.236  29.122  1.00  0.00    -0.248 NA
ATOM     18  C   UNL A   1      41.696  28.943  27.180  1.00  0.00     0.031 C 
ATOM     19  C   UNL A   1      38.872  27.621  30.789  1.00  0.00     0.029 A 
ATOM     20  N   UNL A   1      40.105  29.465  30.890  1.00  0.00    -0.354 N 
ATOM     21  C   UNL A   1      43.447  30.064  28.121  1.00  0.00     0.074 A 
ATOM     22  C   UNL A   1      42.739  29.729  26.913  1.00  0.00     0.031 C 
ATOM     23  C   UNL A   1      38.142  28.552  31.442  1.00  0.00     0.029 A 
ATOM     24  C   UNL A   1      38.894  29.794  31.490  1.00  0.00     0.049 A 
ATOM     25  H   UNL A   1      40.897  30.051  30.912  1.00  0.00     0.167 HD
ATOM     26  C   UNL A   1      44.275  31.110  28.395  1.00  0.00     0.034 A 
ATOM     27  C   UNL A   1      38.503  31.022  31.908  1.00  0.00     0.034 A 
ATOM     28  C   UNL A   1      44.811  31.039  29.726  1.00  0.00     0.049 A 
ATOM     29  C   UNL A   1      39.713  31.860  32.059  1.00  0.00     0.074 A 
ATOM     30  C   UNL A   1      45.593  30.148  30.431  1.00  0.00     0.029 A 
ATOM     31  N   UNL A   1      44.278  31.895  30.657  1.00  0.00    -0.354 N 
ATOM     32  N   UNL A   1      40.618  31.671  32.976  1.00  0.00    -0.248 NA
ATOM     33  C   UNL A   1      40.114  32.705  30.947  1.00  0.00     0.031 C 
ATOM     34  C   UNL A   1      45.117  30.224  31.771  1.00  0.00     0.029 A 
ATOM     35  C   UNL A   1      44.096  31.176  31.806  1.00  0.00     0.049 A 
ATOM     36  H   UNL A   1      44.066  32.847  30.523  1.00  0.00     0.167 HD
ATOM     37  C   UNL A   1      41.815  31.991  32.351  1.00  0.00     0.074 A 
ATOM     38  C   UNL A   1      41.431  32.742  31.160  1.00  0.00     0.031 C 
ATOM     39  C   UNL A   1      42.979  31.368  32.701  1.00  0.00     0.034 A 
BRANCH  26  40
ATOM     40  C   UNL A   1      44.359  32.396  27.601  1.00  0.00     0.023 A 
ATOM     41  C   UNL A   1      45.429  32.523  26.683  1.00  0.00     0.012 A 
ATOM     42  C   UNL A   1      43.640  33.571  27.911  1.00  0.00     0.148 A 
ATOM     43  C   UNL A   1      45.801  33.763  26.151  1.00  0.00     0.002 A 
ATOM     44  C   UNL A   1      43.962  34.787  27.316  1.00  0.00     0.091 A 
ATOM     45  F   UNL A   1      42.725  33.556  28.884  1.00  0.00    -0.205 F 
ATOM     46  C   UNL A   1      45.063  34.896  26.463  1.00  0.00     0.022 A 
BRANCH  44  47
ATOM     47  S   UNL A   1      43.004  36.272  27.637  1.00  0.00     0.127 S 
ATOM     48  O   UNL A   1      43.693  37.252  26.803  1.00  0.00    -0.237 OA
ATOM     49  O   UNL A   1      41.675  35.881  27.167  1.00  0.00    -0.237 OA
ATOM     50  O   UNL A   1      43.087  36.478  29.078  1.00  0.00    -0.744 OA
ENDBRANCH  44  47
ENDBRANCH  26  40
BRANCH  27  51
ATOM     51  C   UNL A   1      37.143  31.607  31.962  1.00  0.00     0.023 A 
ATOM     52  C   UNL A   1      36.584  31.961  33.204  1.00  0.00     0.012 A 
ATOM     53  C   UNL A   1      36.503  32.061  30.787  1.00  0.00     0.148 A 
ATOM     54  C   UNL A   1      35.440  32.765  33.278  1.00  0.00     0.002 A 
ATOM     55  C   UNL A   1      35.358  32.848  30.864  1.00  0.00     0.091 A 
ATOM     56  F   UNL A   1      37.067  31.802  29.601  1.00  0.00    -0.205 F 
ATOM     57  C   UNL A   1      34.830  33.213  32.109  1.00  0.00     0.022 A 
BRANCH  55  58
ATOM     58  S   UNL A   1      34.530  33.475  29.396  1.00  0.00     0.127 S 
ATOM     59  O   UNL A   1      35.592  34.257  28.760  1.00  0.00    -0.237 OA
ATOM     60  O   UNL A   1      34.177  32.242  28.699  1.00  0.00    -0.237 OA
ATOM     61  O   UNL A   1      33.411  34.272  29.881  1.00  0.00    -0.744 OA
ENDBRANCH  55  58
ENDBRANCH  27  51
BRANCH  39  62
ATOM     62  C   UNL A   1      43.004  30.559  33.971  1.00  0.00     0.023 A 
ATOM     63  C   UNL A   1      43.251  31.147  35.229  1.00  0.00     0.012 A 
ATOM     64  C   UNL A   1      42.585  29.218  33.918  1.00  0.00     0.148 A 
ATOM     65  C   UNL A   1      43.111  30.407  36.405  1.00  0.00     0.002 A 
ATOM     66  C   UNL A   1      42.396  28.501  35.093  1.00  0.00     0.091 A 
ATOM     67  F   UNL A   1      42.346  28.675  32.715  1.00  0.00    -0.205 F 
ATOM     68  C   UNL A   1      42.669  29.088  36.338  1.00  0.00     0.022 A 
BRANCH  66  69
ATOM     69  S   UNL A   1      41.690  26.851  35.074  1.00  0.00     0.127 S 
ATOM     70  O   UNL A   1      41.310  26.666  36.476  1.00  0.00    -0.237 OA
ATOM     71  O   UNL A   1      40.559  27.004  34.153  1.00  0.00    -0.237 OA
ATOM     72  O   UNL A   1      42.738  25.972  34.584  1.00  0.00    -0.744 OA
ENDBRANCH  66  69
ENDBRANCH  39  62
ENDBRANCH  13  14
ENDBRANCH   6   8
ENDBRANCH   3   4
ENDBRANCH   2   3
ENDBRANCH   1   2
BRANCH   1  73
ATOM     73  C   UNL A   1      34.879  23.054  25.744  1.00  0.00     0.002 C 
BRANCH  73  74
ATOM     74  C   UNL A   1      33.974  23.482  26.908  1.00  0.00     0.021 C 
BRANCH  74  75
ATOM     75  C   UNL A   1      32.509  23.094  26.778  1.00  0.00     0.116 C 
BRANCH  75  76
ATOM     76  N   UNL A   1      31.593  24.206  26.918  1.00  0.00    -0.351 N 
ATOM     77  C   UNL A   1      31.009  25.037  26.005  1.00  0.00     0.281 C 
ATOM     78  H   UNL A   1      31.345  24.402  27.850  1.00  0.00     0.163 HD
ATOM     79  O   UNL A   1      29.945  25.530  26.406  1.00  0.00    -0.268 OA
BRANCH  77  80
ATOM     80  C   UNL A   1      31.579  25.326  24.569  1.00  0.00     0.178 C 
ATOM     81  C   UNL A   1      33.043  25.814  24.558  1.00  0.00     0.079 C 
ATOM     82  C   UNL A   1      31.556  24.141  23.523  1.00  0.00     0.062 C 
ATOM     83  C   UNL A   1      33.526  25.613  23.132  1.00  0.00     0.008 C 
ATOM     84  C   UNL A   1      32.860  24.322  22.687  1.00  0.00     0.011 C 
BRANCH  80  85
ATOM     85  N   UNL A   1      30.766  26.387  23.886  1.00  0.00    -0.331 N 
ATOM     86  H   UNL A   1      29.790  26.134  24.040  1.00  0.00     0.347 HD
ATOM     87  H   UNL A   1      31.159  26.366  22.945  1.00  0.00     0.347 HD
BRANCH  85  88
ATOM     88  C   UNL A   1      30.869  27.806  24.208  1.00  0.00     0.183 C 
ATOM     89  C   UNL A   1      31.521  28.869  23.377  1.00  0.00     0.071 C 
ATOM     90  C   UNL A   1      30.028  28.783  23.423  1.00  0.00     0.071 C 
ENDBRANCH  85  88
ENDBRANCH  80  85
BRANCH  82  91
ATOM     91  C   UNL A   1      31.453  22.654  23.919  1.00  0.00     0.032 C 
BRANCH  91  92
ATOM     92  C   UNL A   1      32.398  21.651  23.251  1.00  0.00     0.123 C 
BRANCH  92  93
ATOM     93  N   UNL A   1      32.297  20.289  23.720  1.00  0.00    -0.337 N 
ATOM     94  C   UNL A   1      32.332  19.174  22.932  1.00  0.00     0.107 A 
ATOM     95  C   UNL A   1      32.389  19.886  25.021  1.00  0.00     0.199 A 
ATOM     96  C   UNL A   1      32.441  18.124  23.814  1.00  0.00     0.130 A 
ATOM     97  N   UNL A   1      32.457  18.576  25.110  1.00  0.00    -0.245 NA
ENDBRANCH  92  93
ENDBRANCH  91  92
ENDBRANCH  82  91
ENDBRANCH  77  80
ENDBRANCH  75  76
ENDBRANCH  74  75
ENDBRANCH  73  74
ENDBRANCH   1  73
TORSDOF 21
ENDMDL
MODEL 3
REMARK VINA RESULT:     -11.2      3.623      8.465
REMARK SMILES O=C(NCCCCCCNC(=O)[C@@]1([NH2+]C2CC2)CCC[C@H]1CCn1ccnc1)c1ccc(-c2c3nc(c(-c4cccc(S(=O)(=O)[O-])c4F)c4ccc([nH]4)c(-c4cccc(S(=O)(=O)[O-])c4F)c4nc(c(-c5cccc(S(=O)(=O)[O-])c5F)c5ccc2[nH]5)C=C4)C=C3)cc1
REMARK SMILES IDX 6 1 5 2 4 3 3 4 1 5 2 6 29 8 30 9 91 10 31 11 90 12 32 13
REMARK SMILES IDX 33 14 34 15 84 16 35 17 89 18 83 19 85 20 36 21 88 22 82 23
REMARK SMILES IDX 81 24 37 26 69 27 49 28 68 29 50 30 53 31 67 32 86 33 51 34
REMARK SMILES IDX 52 35 66 37 87 38 54 39 38 40 39 41 47 42 40 43 42 44 48 45
REMARK SMILES IDX 41 46 43 47 44 48 45 49 46 50 70 51 71 52 79 53 72 54 74 55
REMARK SMILES IDX 80 56 73 57 75 58 76 59 77 60 78 61 55 62 56 63 64 64 57 65
REMARK SMILES IDX 59 66 65 67 58 68 60 69 61 70 62 71 63 72 7 73 8 74 9 75
REMARK SMILES IDX 10 76 11 77 12 79 13 80 18 81 21 82 19 83 20 84 14 85 15 88
REMARK SMILES IDX 16 89 17 90 22 91 23 92 24 93 25 94 28 95 26 96 27 97
REMARK H PARENT 3 7 85 25 53 36 10 78 14 86 14 87
REMARK Flexibility Score: inf
ROOT
ATOM      1  C   UNL A   1      39.094  23.175  26.610  1.00  0.00     0.002 C 
ENDROOT
BRANCH   1   2
ATOM      2  C   UNL A   1      39.653  21.776  26.319  1.00  0.00     0.021 C 
BRANCH   2   3
ATOM      3  C   UNL A   1      41.150  21.581  26.535  1.00  0.00     0.116 C 
BRANCH   3   4
ATOM      4  N   UNL A   1      41.995  22.166  25.523  1.00  0.00    -0.352 N 
ATOM      5  O   UNL A   1      43.379  23.441  24.378  1.00  0.00    -0.269 OA
ATOM      6  C   UNL A   1      42.658  23.351  25.376  1.00  0.00     0.251 C 
ATOM      7  H   UNL A   1      42.126  21.567  24.752  1.00  0.00     0.163 HD
BRANCH   6   8
ATOM      8  C   UNL A   1      42.529  24.521  26.282  1.00  0.00     0.039 A 
ATOM      9  C   UNL A   1      43.148  24.661  27.525  1.00  0.00     0.014 A 
ATOM     10  C   UNL A   1      41.730  25.577  25.803  1.00  0.00     0.014 A 
ATOM     11  C   UNL A   1      42.929  25.798  28.299  1.00  0.00     0.010 A 
ATOM     12  C   UNL A   1      41.519  26.720  26.563  1.00  0.00     0.010 A 
ATOM     13  C   UNL A   1      42.104  26.820  27.822  1.00  0.00    -0.014 A 
BRANCH  13  14
ATOM     14  C   UNL A   1      42.001  28.048  28.606  1.00  0.00     0.031 A 
ATOM     15  C   UNL A   1      42.965  29.127  28.236  1.00  0.00     0.074 A 
ATOM     16  C   UNL A   1      41.003  28.285  29.479  1.00  0.00     0.049 A 
ATOM     17  N   UNL A   1      43.857  29.697  28.981  1.00  0.00    -0.248 NA
ATOM     18  C   UNL A   1      42.990  29.565  26.832  1.00  0.00     0.031 C 
ATOM     19  C   UNL A   1      39.805  27.472  29.699  1.00  0.00     0.029 A 
ATOM     20  N   UNL A   1      40.775  29.394  30.243  1.00  0.00    -0.354 N 
ATOM     21  C   UNL A   1      44.420  30.706  28.196  1.00  0.00     0.074 A 
ATOM     22  C   UNL A   1      43.960  30.480  26.852  1.00  0.00     0.031 C 
ATOM     23  C   UNL A   1      38.874  28.224  30.325  1.00  0.00     0.029 A 
ATOM     24  C   UNL A   1      39.453  29.513  30.658  1.00  0.00     0.049 A 
ATOM     25  H   UNL A   1      41.477  30.045  30.476  1.00  0.00     0.167 HD
ATOM     26  C   UNL A   1      45.062  31.777  28.739  1.00  0.00     0.034 A 
ATOM     27  C   UNL A   1      38.856  30.625  31.151  1.00  0.00     0.034 A 
ATOM     28  C   UNL A   1      45.383  31.569  30.123  1.00  0.00     0.049 A 
ATOM     29  C   UNL A   1      39.916  31.546  31.614  1.00  0.00     0.074 A 
ATOM     30  C   UNL A   1      46.144  30.668  30.838  1.00  0.00     0.029 A 
ATOM     31  N   UNL A   1      44.609  32.227  31.047  1.00  0.00    -0.354 N 
ATOM     32  N   UNL A   1      40.679  31.318  32.645  1.00  0.00    -0.248 NA
ATOM     33  C   UNL A   1      40.385  32.578  30.703  1.00  0.00     0.031 C 
ATOM     34  C   UNL A   1      45.453  30.504  32.073  1.00  0.00     0.029 A 
ATOM     35  C   UNL A   1      44.334  31.337  32.047  1.00  0.00     0.049 A 
ATOM     36  H   UNL A   1      44.308  33.163  30.997  1.00  0.00     0.167 HD
ATOM     37  C   UNL A   1      41.914  31.839  32.283  1.00  0.00     0.074 A 
ATOM     38  C   UNL A   1      41.637  32.711  31.146  1.00  0.00     0.031 C 
ATOM     39  C   UNL A   1      43.072  31.289  32.750  1.00  0.00     0.034 A 
BRANCH  26  40
ATOM     40  C   UNL A   1      45.117  33.166  28.138  1.00  0.00     0.023 A 
ATOM     41  C   UNL A   1      46.397  33.716  27.891  1.00  0.00     0.012 A 
ATOM     42  C   UNL A   1      44.019  34.051  28.080  1.00  0.00     0.148 A 
ATOM     43  C   UNL A   1      46.580  35.084  27.659  1.00  0.00     0.002 A 
ATOM     44  C   UNL A   1      44.197  35.396  27.769  1.00  0.00     0.091 A 
ATOM     45  F   UNL A   1      42.806  33.637  28.457  1.00  0.00    -0.205 F 
ATOM     46  C   UNL A   1      45.478  35.925  27.592  1.00  0.00     0.022 A 
BRANCH  44  47
ATOM     47  S   UNL A   1      42.802  36.516  27.610  1.00  0.00     0.127 S 
ATOM     48  O   UNL A   1      41.912  35.756  26.739  1.00  0.00    -0.237 OA
ATOM     49  O   UNL A   1      42.356  36.641  28.998  1.00  0.00    -0.237 OA
ATOM     50  O   UNL A   1      43.358  37.744  27.054  1.00  0.00    -0.744 OA
ENDBRANCH  44  47
ENDBRANCH  26  40
BRANCH  27  51
ATOM     51  C   UNL A   1      37.445  31.060  31.039  1.00  0.00     0.023 A 
ATOM     52  C   UNL A   1      36.731  31.421  32.198  1.00  0.00     0.012 A 
ATOM     53  C   UNL A   1      36.881  31.376  29.783  1.00  0.00     0.148 A 
ATOM     54  C   UNL A   1      35.509  32.098  32.111  1.00  0.00     0.002 A 
ATOM     55  C   UNL A   1      35.659  32.038  29.700  1.00  0.00     0.091 A 
ATOM     56  F   UNL A   1      37.585  31.114  28.673  1.00  0.00    -0.205 F 
ATOM     57  C   UNL A   1      34.976  32.411  30.863  1.00  0.00     0.022 A 
BRANCH  55  58
ATOM     58  S   UNL A   1      34.923  32.488  28.122  1.00  0.00     0.127 S 
ATOM     59  O   UNL A   1      33.704  33.181  28.543  1.00  0.00    -0.237 OA
ATOM     60  O   UNL A   1      35.950  33.349  27.545  1.00  0.00    -0.237 OA
ATOM     61  O   UNL A   1      34.683  31.231  27.424  1.00  0.00    -0.744 OA
ENDBRANCH  55  58
ENDBRANCH  27  51
BRANCH  39  62
ATOM     62  C   UNL A   1      42.991  30.313  33.895  1.00  0.00     0.023 A 
ATOM     63  C   UNL A   1      42.617  28.967  33.707  1.00  0.00     0.012 A 
ATOM     64  C   UNL A   1      43.482  30.714  35.150  1.00  0.00     0.148 A 
ATOM     65  C   UNL A   1      42.703  28.047  34.754  1.00  0.00     0.002 A 
ATOM     66  C   UNL A   1      43.616  29.783  36.174  1.00  0.00     0.091 A 
ATOM     67  F   UNL A   1      43.841  31.996  35.312  1.00  0.00    -0.205 F 
ATOM     68  C   UNL A   1      43.217  28.451  35.983  1.00  0.00     0.022 A 
BRANCH  66  69
ATOM     69  S   UNL A   1      44.407  30.213  37.726  1.00  0.00     0.127 S 
ATOM     70  O   UNL A   1      45.630  30.878  37.271  1.00  0.00    -0.237 OA
ATOM     71  O   UNL A   1      43.422  31.108  38.343  1.00  0.00    -0.237 OA
ATOM     72  O   UNL A   1      44.598  28.962  38.438  1.00  0.00    -0.744 OA
ENDBRANCH  66  69
ENDBRANCH  39  62
ENDBRANCH  13  14
ENDBRANCH   6   8
ENDBRANCH   3   4
ENDBRANCH   2   3
ENDBRANCH   1   2
BRANCH   1  73
ATOM     73  C   UNL A   1      37.791  23.602  25.920  1.00  0.00     0.002 C 
BRANCH  73  74
ATOM     74  C   UNL A   1      37.073  22.583  25.022  1.00  0.00     0.021 C 
BRANCH  74  75
ATOM     75  C   UNL A   1      36.119  21.637  25.736  1.00  0.00     0.116 C 
BRANCH  75  76
ATOM     76  N   UNL A   1      35.211  22.300  26.649  1.00  0.00    -0.351 N 
ATOM     77  C   UNL A   1      33.850  22.400  26.679  1.00  0.00     0.281 C 
ATOM     78  H   UNL A   1      35.661  22.768  27.388  1.00  0.00     0.163 HD
ATOM     79  O   UNL A   1      33.401  22.602  27.817  1.00  0.00    -0.268 OA
BRANCH  77  80
ATOM     80  C   UNL A   1      32.915  22.238  25.426  1.00  0.00     0.178 C 
ATOM     81  C   UNL A   1      33.535  22.741  24.106  1.00  0.00     0.079 C 
ATOM     82  C   UNL A   1      32.399  20.784  25.084  1.00  0.00     0.062 C 
ATOM     83  C   UNL A   1      32.702  22.115  23.002  1.00  0.00     0.008 C 
ATOM     84  C   UNL A   1      32.362  20.730  23.526  1.00  0.00     0.011 C 
BRANCH  80  85
ATOM     85  N   UNL A   1      31.639  23.004  25.621  1.00  0.00    -0.331 N 
ATOM     86  H   UNL A   1      31.373  22.861  26.595  1.00  0.00     0.347 HD
ATOM     87  H   UNL A   1      31.061  22.626  24.870  1.00  0.00     0.347 HD
BRANCH  85  88
ATOM     88  C   UNL A   1      31.520  24.438  25.380  1.00  0.00     0.183 C 
ATOM     89  C   UNL A   1      30.582  25.111  24.424  1.00  0.00     0.071 C 
ATOM     90  C   UNL A   1      30.294  25.153  25.892  1.00  0.00     0.071 C 
ENDBRANCH  85  88
ENDBRANCH  80  85
BRANCH  82  91
ATOM     91  C   UNL A   1      33.085  19.495  25.583  1.00  0.00     0.032 C 
BRANCH  91  92
ATOM     92  C   UNL A   1      33.539  18.459  24.549  1.00  0.00     0.123 C 
BRANCH  92  93
ATOM     93  N   UNL A   1      33.567  17.090  25.007  1.00  0.00    -0.337 N 
ATOM     94  C   UNL A   1      32.476  16.357  25.380  1.00  0.00     0.107 A 
ATOM     95  C   UNL A   1      34.632  16.242  24.918  1.00  0.00     0.199 A 
ATOM     96  C   UNL A   1      32.944  15.071  25.507  1.00  0.00     0.130 A 
ATOM     97  N   UNL A   1      34.288  15.013  25.236  1.00  0.00    -0.245 NA
ENDBRANCH  92  93
ENDBRANCH  91  92
ENDBRANCH  82  91
ENDBRANCH  77  80
ENDBRANCH  75  76
ENDBRANCH  74  75
ENDBRANCH  73  74
ENDBRANCH   1  73
TORSDOF 21
ENDMDL
