MODEL 1
REMARK VINA RESULT:     -11.1      0.000      0.000
REMARK SMILES CC1(C(=O)N2CC[C@H](C(=O)NCCCCCCNC(=O)c3ccc(-c4c5nc(c(-c6cccc(S(=O)(=O)[O-])c6F)c6ccc([nH]6)c(-c6cccc(S(=O)(=O)[O-])c6F)c6nc(c(-c7cccc(S(=O)(=O)[O-])c7F)c7ccc4[nH]7)C=C6)C=C5)cc3)C2)CCCC1
REMARK SMILES IDX 15 1 14 2 13 3 12 4 11 5 9 6 10 7 8 9 5 10 6 11 84 12 7 13
REMARK SMILES IDX 3 14 4 15 2 16 1 17 85 18 88 19 86 20 87 21 16 22 17 23
REMARK SMILES IDX 18 24 19 25 20 27 21 28 22 29 83 30 23 31 82 32 24 33 25 34
REMARK SMILES IDX 26 35 76 36 27 37 81 38 75 39 77 40 28 41 80 42 74 43 73 44
REMARK SMILES IDX 29 46 61 47 41 48 60 49 42 50 45 51 59 52 78 53 43 54 44 55
REMARK SMILES IDX 58 57 79 58 46 59 30 60 31 61 39 62 32 63 34 64 40 65 33 66
REMARK SMILES IDX 35 67 36 68 37 69 38 70 62 71 63 72 71 73 64 74 66 75 72 76
REMARK SMILES IDX 65 77 67 78 68 79 69 80 70 81 47 82 48 83 56 84 49 85 51 86
REMARK SMILES IDX 57 87 50 88 52 89 53 90 54 91 55 92
REMARK H PARENT 11 8 18 26 77 45 45 56
REMARK Flexibility Score: inf
ROOT
ATOM      1  C   UNL A   1      31.506  29.687  25.269  1.00  0.00     0.002 C 
ENDROOT
BRANCH   1   2
ATOM      2  C   UNL A   1      30.722  29.000  24.146  1.00  0.00     0.002 C 
BRANCH   2   3
ATOM      3  C   UNL A   1      31.376  29.064  22.764  1.00  0.00     0.021 C 
BRANCH   3   4
ATOM      4  C   UNL A   1      32.882  28.817  22.767  1.00  0.00     0.116 C 
BRANCH   4   5
ATOM      5  N   UNL A   1      33.258  27.697  21.927  1.00  0.00    -0.356 N 
ATOM      6  C   UNL A   1      33.082  26.360  22.106  1.00  0.00     0.224 C 
ATOM      7  O   UNL A   1      33.508  25.609  21.223  1.00  0.00    -0.275 OA
ATOM      8  H   UNL A   1      33.715  27.944  21.091  1.00  0.00     0.163 HD
BRANCH   6   9
ATOM      9  C   UNL A   1      32.414  25.775  23.342  1.00  0.00     0.099 C 
ATOM     10  N   UNL A   1      33.300  24.141  24.813  1.00  0.00    -0.341 N 
ATOM     11  C   UNL A   1      32.026  23.624  24.360  1.00  0.00     0.120 C 
ATOM     12  C   UNL A   1      33.368  25.565  24.518  1.00  0.00     0.133 C 
ATOM     13  C   UNL A   1      31.729  24.425  23.103  1.00  0.00     0.037 C 
BRANCH  10  14
ATOM     14  C   UNL A   1      34.162  23.597  25.746  1.00  0.00     0.228 C 
ATOM     15  O   UNL A   1      33.821  23.585  26.933  1.00  0.00    -0.274 OA
BRANCH  14  16
ATOM     16  C   UNL A   1      35.620  23.261  25.324  1.00  0.00     0.047 C 
ATOM     17  C   UNL A   1      36.710  24.117  25.978  1.00  0.00     0.022 C 
ATOM     18  C   UNL A   1      35.777  23.322  23.787  1.00  0.00     0.016 C 
ATOM     19  C   UNL A   1      35.872  21.760  25.572  1.00  0.00     0.016 C 
ATOM     20  C   UNL A   1      36.913  22.357  23.450  1.00  0.00     0.001 C 
ATOM     21  C   UNL A   1      36.935  21.325  24.570  1.00  0.00     0.001 C 
ENDBRANCH  14  16
ENDBRANCH  10  14
ENDBRANCH   6   9
ENDBRANCH   4   5
ENDBRANCH   3   4
ENDBRANCH   2   3
ENDBRANCH   1   2
BRANCH   1  22
ATOM     22  C   UNL A   1      32.030  28.759  26.370  1.00  0.00     0.021 C 
BRANCH  22  23
ATOM     23  C   UNL A   1      33.435  29.081  26.871  1.00  0.00     0.116 C 
BRANCH  23  24
ATOM     24  N   UNL A   1      33.597  30.492  27.190  1.00  0.00    -0.352 N 
ATOM     25  C   UNL A   1      34.593  31.121  27.896  1.00  0.00     0.251 C 
ATOM     26  H   UNL A   1      32.887  31.083  26.850  1.00  0.00     0.163 HD
ATOM     27  O   UNL A   1      34.461  32.298  28.228  1.00  0.00    -0.269 OA
BRANCH  25  28
ATOM     28  C   UNL A   1      35.814  30.379  28.274  1.00  0.00     0.039 A 
ATOM     29  C   UNL A   1      36.910  30.397  27.409  1.00  0.00     0.014 A 
ATOM     30  C   UNL A   1      35.883  29.681  29.482  1.00  0.00     0.014 A 
ATOM     31  C   UNL A   1      38.105  29.786  27.795  1.00  0.00     0.010 A 
ATOM     32  C   UNL A   1      37.094  29.130  29.895  1.00  0.00     0.010 A 
ATOM     33  C   UNL A   1      38.222  29.191  29.062  1.00  0.00    -0.014 A 
BRANCH  33  34
ATOM     34  C   UNL A   1      39.535  28.702  29.560  1.00  0.00     0.031 A 
ATOM     35  C   UNL A   1      40.274  29.439  30.642  1.00  0.00     0.074 A 
ATOM     36  C   UNL A   1      40.105  27.638  28.960  1.00  0.00     0.049 A 
ATOM     37  N   UNL A   1      41.453  29.187  31.149  1.00  0.00    -0.248 NA
ATOM     38  C   UNL A   1      39.615  30.623  31.215  1.00  0.00     0.031 C 
ATOM     39  C   UNL A   1      39.526  26.887  27.845  1.00  0.00     0.029 A 
ATOM     40  N   UNL A   1      41.314  27.023  29.181  1.00  0.00    -0.354 N 
ATOM     41  C   UNL A   1      41.690  30.190  32.080  1.00  0.00     0.074 A 
ATOM     42  C   UNL A   1      40.544  31.074  32.046  1.00  0.00     0.031 C 
ATOM     43  C   UNL A   1      40.376  25.917  27.477  1.00  0.00     0.029 A 
ATOM     44  C   UNL A   1      41.578  25.999  28.301  1.00  0.00     0.049 A 
ATOM     45  H   UNL A   1      41.931  27.289  29.900  1.00  0.00     0.167 HD
ATOM     46  C   UNL A   1      42.755  30.348  32.905  1.00  0.00     0.034 A 
ATOM     47  C   UNL A   1      42.672  25.227  28.153  1.00  0.00     0.034 A 
ATOM     48  C   UNL A   1      43.883  29.457  32.949  1.00  0.00     0.049 A 
ATOM     49  C   UNL A   1      43.836  25.421  29.085  1.00  0.00     0.074 A 
ATOM     50  C   UNL A   1      44.967  29.486  33.810  1.00  0.00     0.029 A 
ATOM     51  N   UNL A   1      44.088  28.390  32.088  1.00  0.00    -0.354 N 
ATOM     52  N   UNL A   1      43.968  26.272  30.072  1.00  0.00    -0.248 NA
ATOM     53  C   UNL A   1      44.990  24.529  28.901  1.00  0.00     0.031 C 
ATOM     54  C   UNL A   1      45.845  28.460  33.443  1.00  0.00     0.029 A 
ATOM     55  C   UNL A   1      45.292  27.769  32.378  1.00  0.00     0.049 A 
ATOM     56  H   UNL A   1      43.468  28.114  31.374  1.00  0.00     0.167 HD
ATOM     57  C   UNL A   1      45.208  26.005  30.642  1.00  0.00     0.074 A 
ATOM     58  C   UNL A   1      45.772  24.891  29.909  1.00  0.00     0.031 C 
ATOM     59  C   UNL A   1      45.831  26.639  31.666  1.00  0.00     0.034 A 
BRANCH  46  60
ATOM     60  C   UNL A   1      42.731  31.511  33.864  1.00  0.00     0.023 A 
ATOM     61  C   UNL A   1      43.192  32.774  33.438  1.00  0.00     0.012 A 
ATOM     62  C   UNL A   1      42.190  31.374  35.158  1.00  0.00     0.148 A 
ATOM     63  C   UNL A   1      43.148  33.873  34.295  1.00  0.00     0.002 A 
ATOM     64  C   UNL A   1      42.106  32.485  35.989  1.00  0.00     0.091 A 
ATOM     65  F   UNL A   1      41.773  30.163  35.551  1.00  0.00    -0.205 F 
ATOM     66  C   UNL A   1      42.595  33.731  35.565  1.00  0.00     0.022 A 
BRANCH  64  67
ATOM     67  S   UNL A   1      41.343  32.426  37.614  1.00  0.00     0.127 S 
ATOM     68  O   UNL A   1      41.372  33.835  38.005  1.00  0.00    -0.237 OA
ATOM     69  O   UNL A   1      40.009  31.907  37.307  1.00  0.00    -0.237 OA
ATOM     70  O   UNL A   1      42.172  31.539  38.418  1.00  0.00    -0.744 OA
ENDBRANCH  64  67
ENDBRANCH  46  60
BRANCH  47  71
ATOM     71  C   UNL A   1      42.706  24.181  27.093  1.00  0.00     0.023 A 
ATOM     72  C   UNL A   1      43.370  24.439  25.879  1.00  0.00     0.012 A 
ATOM     73  C   UNL A   1      42.106  22.923  27.295  1.00  0.00     0.148 A 
ATOM     74  C   UNL A   1      43.406  23.474  24.870  1.00  0.00     0.002 A 
ATOM     75  C   UNL A   1      42.197  21.947  26.312  1.00  0.00     0.091 A 
ATOM     76  F   UNL A   1      41.467  22.703  28.453  1.00  0.00    -0.205 F 
ATOM     77  C   UNL A   1      42.830  22.226  25.091  1.00  0.00     0.022 A 
BRANCH  75  78
ATOM     78  S   UNL A   1      41.607  20.270  26.566  1.00  0.00     0.127 S 
ATOM     79  O   UNL A   1      40.160  20.461  26.575  1.00  0.00    -0.237 OA
ATOM     80  O   UNL A   1      42.133  19.585  25.384  1.00  0.00    -0.237 OA
ATOM     81  O   UNL A   1      42.198  19.833  27.824  1.00  0.00    -0.744 OA
ENDBRANCH  75  78
ENDBRANCH  47  71
BRANCH  59  82
ATOM     82  C   UNL A   1      47.193  26.136  32.070  1.00  0.00     0.023 A 
ATOM     83  C   UNL A   1      48.342  26.626  31.417  1.00  0.00     0.012 A 
ATOM     84  C   UNL A   1      47.341  25.228  33.137  1.00  0.00     0.148 A 
ATOM     85  C   UNL A   1      49.613  26.195  31.795  1.00  0.00     0.002 A 
ATOM     86  C   UNL A   1      48.613  24.843  33.543  1.00  0.00     0.091 A 
ATOM     87  F   UNL A   1      46.236  24.761  33.735  1.00  0.00    -0.205 F 
ATOM     88  C   UNL A   1      49.748  25.313  32.865  1.00  0.00     0.022 A 
BRANCH  86  89
ATOM     89  S   UNL A   1      48.896  23.784  34.967  1.00  0.00     0.127 S 
ATOM     90  O   UNL A   1      48.266  22.535  34.539  1.00  0.00    -0.237 OA
ATOM     91  O   UNL A   1      50.356  23.740  35.033  1.00  0.00    -0.237 OA
ATOM     92  O   UNL A   1      48.257  24.446  36.096  1.00  0.00    -0.744 OA
ENDBRANCH  86  89
ENDBRANCH  59  82
ENDBRANCH  33  34
ENDBRANCH  25  28
ENDBRANCH  23  24
ENDBRANCH  22  23
ENDBRANCH   1  22
TORSDOF 18
ENDMDL
MODEL 2
REMARK VINA RESULT:     -11.0      1.638      2.317
REMARK SMILES CC1(C(=O)N2CC[C@H](C(=O)NCCCCCCNC(=O)c3ccc(-c4c5nc(c(-c6cccc(S(=O)(=O)[O-])c6F)c6ccc([nH]6)c(-c6cccc(S(=O)(=O)[O-])c6F)c6nc(c(-c7cccc(S(=O)(=O)[O-])c7F)c7ccc4[nH]7)C=C6)C=C5)cc3)C2)CCCC1
REMARK SMILES IDX 15 1 14 2 13 3 12 4 11 5 9 6 10 7 8 9 5 10 6 11 84 12 7 13
REMARK SMILES IDX 3 14 4 15 2 16 1 17 85 18 88 19 86 20 87 21 16 22 17 23
REMARK SMILES IDX 18 24 19 25 20 27 21 28 22 29 83 30 23 31 82 32 24 33 25 34
REMARK SMILES IDX 26 35 76 36 27 37 81 38 75 39 77 40 28 41 80 42 74 43 73 44
REMARK SMILES IDX 29 46 61 47 41 48 60 49 42 50 45 51 59 52 78 53 43 54 44 55
REMARK SMILES IDX 58 57 79 58 46 59 30 60 31 61 39 62 32 63 34 64 40 65 33 66
REMARK SMILES IDX 35 67 36 68 37 69 38 70 62 71 63 72 71 73 64 74 66 75 72 76
REMARK SMILES IDX 65 77 67 78 68 79 69 80 70 81 47 82 48 83 56 84 49 85 51 86
REMARK SMILES IDX 57 87 50 88 52 89 53 90 54 91 55 92
REMARK H PARENT 11 8 18 26 77 45 45 56
REMARK Flexibility Score: inf
ROOT
ATOM      1  C   UNL A   1      32.025  27.025  26.796  1.00  0.00     0.002 C 
ENDROOT
BRANCH   1   2
ATOM      2  C   UNL A   1      30.664  26.664  26.191  1.00  0.00     0.002 C 
BRANCH   2   3
ATOM      3  C   UNL A   1      30.628  26.604  24.662  1.00  0.00     0.021 C 
BRANCH   3   4
ATOM      4  C   UNL A   1      31.001  25.246  24.075  1.00  0.00     0.116 C 
BRANCH   4   5
ATOM      5  N   UNL A   1      30.407  24.146  24.809  1.00  0.00    -0.356 N 
ATOM      6  C   UNL A   1      30.981  23.192  25.589  1.00  0.00     0.224 C 
ATOM      7  O   UNL A   1      30.233  22.354  26.104  1.00  0.00    -0.275 OA
ATOM      8  H   UNL A   1      29.427  24.080  24.729  1.00  0.00     0.163 HD
BRANCH   6   9
ATOM      9  C   UNL A   1      32.483  23.112  25.822  1.00  0.00     0.099 C 
ATOM     10  N   UNL A   1      33.847  21.175  25.739  1.00  0.00    -0.341 N 
ATOM     11  C   UNL A   1      34.071  21.767  27.040  1.00  0.00     0.120 C 
ATOM     12  C   UNL A   1      33.205  22.155  24.875  1.00  0.00     0.133 C 
ATOM     13  C   UNL A   1      32.874  22.682  27.241  1.00  0.00     0.037 C 
BRANCH  10  14
ATOM     14  C   UNL A   1      34.471  20.077  25.178  1.00  0.00     0.228 C 
ATOM     15  O   UNL A   1      35.662  20.170  24.863  1.00  0.00    -0.274 OA
BRANCH  14  16
ATOM     16  C   UNL A   1      33.610  18.865  24.725  1.00  0.00     0.047 C 
ATOM     17  C   UNL A   1      32.683  18.279  25.795  1.00  0.00     0.022 C 
ATOM     18  C   UNL A   1      34.502  17.740  24.150  1.00  0.00     0.016 C 
ATOM     19  C   UNL A   1      32.817  19.267  23.465  1.00  0.00     0.016 C 
ATOM     20  C   UNL A   1      33.622  16.986  23.153  1.00  0.00     0.001 C 
ATOM     21  C   UNL A   1      32.575  17.985  22.676  1.00  0.00     0.001 C 
ENDBRANCH  14  16
ENDBRANCH  10  14
ENDBRANCH   6   9
ENDBRANCH   4   5
ENDBRANCH   3   4
ENDBRANCH   2   3
ENDBRANCH   1   2
BRANCH   1  22
ATOM     22  C   UNL A   1      32.214  28.500  27.160  1.00  0.00     0.021 C 
BRANCH  22  23
ATOM     23  C   UNL A   1      33.530  29.117  26.695  1.00  0.00     0.116 C 
BRANCH  23  24
ATOM     24  N   UNL A   1      33.657  30.512  27.095  1.00  0.00    -0.352 N 
ATOM     25  C   UNL A   1      34.612  31.115  27.875  1.00  0.00     0.251 C 
ATOM     26  H   UNL A   1      32.954  31.111  26.755  1.00  0.00     0.163 HD
ATOM     27  O   UNL A   1      34.448  32.271  28.263  1.00  0.00    -0.269 OA
BRANCH  25  28
ATOM     28  C   UNL A   1      35.826  30.369  28.268  1.00  0.00     0.039 A 
ATOM     29  C   UNL A   1      36.925  30.367  27.406  1.00  0.00     0.014 A 
ATOM     30  C   UNL A   1      35.886  29.688  29.486  1.00  0.00     0.014 A 
ATOM     31  C   UNL A   1      38.114  29.752  27.804  1.00  0.00     0.010 A 
ATOM     32  C   UNL A   1      37.092  29.135  29.911  1.00  0.00     0.010 A 
ATOM     33  C   UNL A   1      38.223  29.174  29.080  1.00  0.00    -0.014 A 
BRANCH  33  34
ATOM     34  C   UNL A   1      39.530  28.683  29.589  1.00  0.00     0.031 A 
ATOM     35  C   UNL A   1      40.270  29.426  30.666  1.00  0.00     0.074 A 
ATOM     36  C   UNL A   1      40.097  27.610  29.003  1.00  0.00     0.049 A 
ATOM     37  N   UNL A   1      41.445  29.172  31.181  1.00  0.00    -0.248 NA
ATOM     38  C   UNL A   1      39.615  30.620  31.224  1.00  0.00     0.031 C 
ATOM     39  C   UNL A   1      39.518  26.850  27.892  1.00  0.00     0.029 A 
ATOM     40  N   UNL A   1      41.301  26.989  29.234  1.00  0.00    -0.354 N 
ATOM     41  C   UNL A   1      41.684  30.184  32.103  1.00  0.00     0.074 A 
ATOM     42  C   UNL A   1      40.543  31.074  32.055  1.00  0.00     0.031 C 
ATOM     43  C   UNL A   1      40.365  25.872  27.537  1.00  0.00     0.029 A 
ATOM     44  C   UNL A   1      41.563  25.955  28.366  1.00  0.00     0.049 A 
ATOM     45  H   UNL A   1      41.917  27.259  29.953  1.00  0.00     0.167 HD
ATOM     46  C   UNL A   1      42.745  30.344  32.931  1.00  0.00     0.034 A 
ATOM     47  C   UNL A   1      42.653  25.175  28.231  1.00  0.00     0.034 A 
ATOM     48  C   UNL A   1      43.868  29.446  32.990  1.00  0.00     0.049 A 
ATOM     49  C   UNL A   1      43.814  25.372  29.166  1.00  0.00     0.074 A 
ATOM     50  C   UNL A   1      44.949  29.478  33.854  1.00  0.00     0.029 A 
ATOM     51  N   UNL A   1      44.071  28.370  32.140  1.00  0.00    -0.354 N 
ATOM     52  N   UNL A   1      43.947  26.232  30.145  1.00  0.00    -0.248 NA
ATOM     53  C   UNL A   1      44.964  24.471  28.997  1.00  0.00     0.031 C 
ATOM     54  C   UNL A   1      45.822  28.443  33.502  1.00  0.00     0.029 A 
ATOM     55  C   UNL A   1      45.269  27.745  32.442  1.00  0.00     0.049 A 
ATOM     56  H   UNL A   1      43.452  28.090  31.426  1.00  0.00     0.167 HD
ATOM     57  C   UNL A   1      45.183  25.964  30.723  1.00  0.00     0.074 A 
ATOM     58  C   UNL A   1      45.744  24.839  30.005  1.00  0.00     0.031 C 
ATOM     59  C   UNL A   1      45.805  26.605  31.743  1.00  0.00     0.034 A 
BRANCH  46  60
ATOM     60  C   UNL A   1      42.724  31.517  33.878  1.00  0.00     0.023 A 
ATOM     61  C   UNL A   1      43.209  32.769  33.446  1.00  0.00     0.012 A 
ATOM     62  C   UNL A   1      42.164  31.400  35.165  1.00  0.00     0.148 A 
ATOM     63  C   UNL A   1      43.167  33.878  34.291  1.00  0.00     0.002 A 
ATOM     64  C   UNL A   1      42.084  32.520  35.985  1.00  0.00     0.091 A 
ATOM     65  F   UNL A   1      41.725  30.198  35.565  1.00  0.00    -0.205 F 
ATOM     66  C   UNL A   1      42.595  33.756  35.555  1.00  0.00     0.022 A 
BRANCH  64  67
ATOM     67  S   UNL A   1      41.298  32.488  37.600  1.00  0.00     0.127 S 
ATOM     68  O   UNL A   1      42.152  31.548  38.325  1.00  0.00    -0.237 OA
ATOM     69  O   UNL A   1      41.424  33.881  38.029  1.00  0.00    -0.237 OA
ATOM     70  O   UNL A   1      39.931  32.042  37.374  1.00  0.00    -0.744 OA
ENDBRANCH  64  67
ENDBRANCH  46  60
BRANCH  47  71
ATOM     71  C   UNL A   1      42.686  24.118  27.182  1.00  0.00     0.023 A 
ATOM     72  C   UNL A   1      43.361  24.357  25.970  1.00  0.00     0.012 A 
ATOM     73  C   UNL A   1      42.072  22.868  27.392  1.00  0.00     0.148 A 
ATOM     74  C   UNL A   1      43.396  23.382  24.972  1.00  0.00     0.002 A 
ATOM     75  C   UNL A   1      42.162  21.881  26.419  1.00  0.00     0.091 A 
ATOM     76  F   UNL A   1      41.422  22.666  28.547  1.00  0.00    -0.205 F 
ATOM     77  C   UNL A   1      42.807  22.142  25.201  1.00  0.00     0.022 A 
BRANCH  75  78
ATOM     78  S   UNL A   1      41.554  20.212  26.685  1.00  0.00     0.127 S 
ATOM     79  O   UNL A   1      40.134  20.449  26.936  1.00  0.00    -0.237 OA
ATOM     80  O   UNL A   1      41.858  19.575  25.403  1.00  0.00    -0.237 OA
ATOM     81  O   UNL A   1      42.319  19.691  27.810  1.00  0.00    -0.744 OA
ENDBRANCH  75  78
ENDBRANCH  47  71
BRANCH  59  82
ATOM     82  C   UNL A   1      47.163  26.098  32.158  1.00  0.00     0.023 A 
ATOM     83  C   UNL A   1      48.320  26.610  31.539  1.00  0.00     0.012 A 
ATOM     84  C   UNL A   1      47.296  25.163  33.205  1.00  0.00     0.148 A 
ATOM     85  C   UNL A   1      49.586  26.175  31.929  1.00  0.00     0.002 A 
ATOM     86  C   UNL A   1      48.563  24.774  33.623  1.00  0.00     0.091 A 
ATOM     87  F   UNL A   1      46.183  24.676  33.771  1.00  0.00    -0.205 F 
ATOM     88  C   UNL A   1      49.707  25.267  32.978  1.00  0.00     0.022 A 
BRANCH  86  89
ATOM     89  S   UNL A   1      48.825  23.680  35.025  1.00  0.00     0.127 S 
ATOM     90  O   UNL A   1      48.211  22.439  34.553  1.00  0.00    -0.237 OA
ATOM     91  O   UNL A   1      50.285  23.643  35.116  1.00  0.00    -0.237 OA
ATOM     92  O   UNL A   1      48.162  24.309  36.158  1.00  0.00    -0.744 OA
ENDBRANCH  86  89
ENDBRANCH  59  82
ENDBRANCH  33  34
ENDBRANCH  25  28
ENDBRANCH  23  24
ENDBRANCH  22  23
ENDBRANCH   1  22
TORSDOF 18
ENDMDL
MODEL 3
REMARK VINA RESULT:     -10.8      2.879      8.356
REMARK SMILES CC1(C(=O)N2CC[C@H](C(=O)NCCCCCCNC(=O)c3ccc(-c4c5nc(c(-c6cccc(S(=O)(=O)[O-])c6F)c6ccc([nH]6)c(-c6cccc(S(=O)(=O)[O-])c6F)c6nc(c(-c7cccc(S(=O)(=O)[O-])c7F)c7ccc4[nH]7)C=C6)C=C5)cc3)C2)CCCC1
REMARK SMILES IDX 15 1 14 2 13 3 12 4 11 5 9 6 10 7 8 9 5 10 6 11 84 12 7 13
REMARK SMILES IDX 3 14 4 15 2 16 1 17 85 18 88 19 86 20 87 21 16 22 17 23
REMARK SMILES IDX 18 24 19 25 20 27 21 28 22 29 83 30 23 31 82 32 24 33 25 34
REMARK SMILES IDX 26 35 76 36 27 37 81 38 75 39 77 40 28 41 80 42 74 43 73 44
REMARK SMILES IDX 29 46 61 47 41 48 60 49 42 50 45 51 59 52 78 53 43 54 44 55
REMARK SMILES IDX 58 57 79 58 46 59 30 60 31 61 39 62 32 63 34 64 40 65 33 66
REMARK SMILES IDX 35 67 36 68 37 69 38 70 62 71 63 72 71 73 64 74 66 75 72 76
REMARK SMILES IDX 65 77 67 78 68 79 69 80 70 81 47 82 48 83 56 84 49 85 51 86
REMARK SMILES IDX 57 87 50 88 52 89 53 90 54 91 55 92
REMARK H PARENT 11 8 18 26 77 45 45 56
REMARK Flexibility Score: inf
ROOT
ATOM      1  C   UNL A   1      31.686  28.715  27.150  1.00  0.00     0.002 C 
ENDROOT
BRANCH   1   2
ATOM      2  C   UNL A   1      31.942  27.605  26.124  1.00  0.00     0.002 C 
BRANCH   2   3
ATOM      3  C   UNL A   1      30.794  27.347  25.146  1.00  0.00     0.021 C 
BRANCH   3   4
ATOM      4  C   UNL A   1      30.154  25.967  25.276  1.00  0.00     0.116 C 
BRANCH   4   5
ATOM      5  N   UNL A   1      30.680  25.219  26.401  1.00  0.00    -0.356 N 
ATOM      6  C   UNL A   1      31.289  24.004  26.447  1.00  0.00     0.224 C 
ATOM      7  O   UNL A   1      31.642  23.588  27.555  1.00  0.00    -0.275 OA
ATOM      8  H   UNL A   1      30.580  25.664  27.274  1.00  0.00     0.163 HD
BRANCH   6   9
ATOM      9  C   UNL A   1      31.519  23.150  25.208  1.00  0.00     0.099 C 
ATOM     10  N   UNL A   1      33.275  21.601  24.839  1.00  0.00    -0.341 N 
ATOM     11  C   UNL A   1      33.319  22.529  23.730  1.00  0.00     0.120 C 
ATOM     12  C   UNL A   1      31.992  21.730  25.515  1.00  0.00     0.133 C 
ATOM     13  C   UNL A   1      32.540  23.736  24.225  1.00  0.00     0.037 C 
BRANCH  10  14
ATOM     14  C   UNL A   1      34.039  20.467  25.039  1.00  0.00     0.228 C 
ATOM     15  O   UNL A   1      35.242  20.599  25.284  1.00  0.00    -0.274 OA
BRANCH  14  16
ATOM     16  C   UNL A   1      33.434  19.076  24.700  1.00  0.00     0.047 C 
ATOM     17  C   UNL A   1      32.608  18.428  25.816  1.00  0.00     0.022 C 
ATOM     18  C   UNL A   1      34.536  18.093  24.242  1.00  0.00     0.016 C 
ATOM     19  C   UNL A   1      32.610  19.199  23.402  1.00  0.00     0.016 C 
ATOM     20  C   UNL A   1      33.839  17.095  23.318  1.00  0.00     0.001 C 
ATOM     21  C   UNL A   1      32.635  17.827  22.739  1.00  0.00     0.001 C 
ENDBRANCH  14  16
ENDBRANCH  10  14
ENDBRANCH   6   9
ENDBRANCH   4   5
ENDBRANCH   3   4
ENDBRANCH   2   3
ENDBRANCH   1   2
BRANCH   1  22
ATOM     22  C   UNL A   1      31.691  30.142  26.593  1.00  0.00     0.021 C 
BRANCH  22  23
ATOM     23  C   UNL A   1      32.942  30.956  26.912  1.00  0.00     0.116 C 
BRANCH  23  24
ATOM     24  N   UNL A   1      32.655  32.377  27.048  1.00  0.00    -0.352 N 
ATOM     25  C   UNL A   1      33.239  33.314  27.863  1.00  0.00     0.251 C 
ATOM     26  H   UNL A   1      31.935  32.716  26.469  1.00  0.00     0.163 HD
ATOM     27  O   UNL A   1      32.733  34.430  27.977  1.00  0.00    -0.269 OA
BRANCH  25  28
ATOM     28  C   UNL A   1      34.464  32.976  28.620  1.00  0.00     0.039 A 
ATOM     29  C   UNL A   1      34.338  32.351  29.861  1.00  0.00     0.014 A 
ATOM     30  C   UNL A   1      35.729  33.262  28.100  1.00  0.00     0.014 A 
ATOM     31  C   UNL A   1      35.483  31.935  30.545  1.00  0.00     0.010 A 
ATOM     32  C   UNL A   1      36.866  32.787  28.749  1.00  0.00     0.010 A 
ATOM     33  C   UNL A   1      36.754  32.105  29.971  1.00  0.00    -0.014 A 
BRANCH  33  34
ATOM     34  C   UNL A   1      37.962  31.505  30.594  1.00  0.00     0.031 A 
ATOM     35  C   UNL A   1      38.741  30.428  29.892  1.00  0.00     0.074 A 
ATOM     36  C   UNL A   1      38.300  31.869  31.847  1.00  0.00     0.049 A 
ATOM     37  N   UNL A   1      39.779  29.755  30.317  1.00  0.00    -0.248 NA
ATOM     38  C   UNL A   1      38.285  30.042  28.547  1.00  0.00     0.031 C 
ATOM     39  C   UNL A   1      37.576  32.844  32.666  1.00  0.00     0.029 A 
ATOM     40  N   UNL A   1      39.316  31.441  32.666  1.00  0.00    -0.354 N 
ATOM     41  C   UNL A   1      40.086  28.850  29.308  1.00  0.00     0.074 A 
ATOM     42  C   UNL A   1      39.105  29.040  28.261  1.00  0.00     0.031 C 
ATOM     43  C   UNL A   1      38.166  32.938  33.867  1.00  0.00     0.029 A 
ATOM     44  C   UNL A   1      39.286  32.003  33.921  1.00  0.00     0.049 A 
ATOM     45  H   UNL A   1      40.001  30.794  32.381  1.00  0.00     0.167 HD
ATOM     46  C   UNL A   1      41.107  27.960  29.248  1.00  0.00     0.034 A 
ATOM     47  C   UNL A   1      40.054  31.777  35.004  1.00  0.00     0.034 A 
ATOM     48  C   UNL A   1      42.092  27.788  30.283  1.00  0.00     0.049 A 
ATOM     49  C   UNL A   1      41.182  30.787  34.909  1.00  0.00     0.074 A 
ATOM     50  C   UNL A   1      43.211  26.973  30.276  1.00  0.00     0.029 A 
ATOM     51  N   UNL A   1      42.069  28.422  31.516  1.00  0.00    -0.354 N 
ATOM     52  N   UNL A   1      41.557  30.063  33.883  1.00  0.00    -0.248 NA
ATOM     53  C   UNL A   1      42.010  30.605  36.110  1.00  0.00     0.031 C 
ATOM     54  C   UNL A   1      43.843  27.086  31.520  1.00  0.00     0.029 A 
ATOM     55  C   UNL A   1      43.139  27.998  32.287  1.00  0.00     0.049 A 
ATOM     56  H   UNL A   1      41.392  29.077  31.800  1.00  0.00     0.167 HD
ATOM     57  C   UNL A   1      42.677  29.355  34.307  1.00  0.00     0.074 A 
ATOM     58  C   UNL A   1      42.938  29.765  35.671  1.00  0.00     0.031 C 
ATOM     59  C   UNL A   1      43.411  28.435  33.633  1.00  0.00     0.034 A 
BRANCH  46  60
ATOM     60  C   UNL A   1      41.237  27.126  27.999  1.00  0.00     0.023 A 
ATOM     61  C   UNL A   1      41.857  27.676  26.858  1.00  0.00     0.012 A 
ATOM     62  C   UNL A   1      40.813  25.783  27.975  1.00  0.00     0.148 A 
ATOM     63  C   UNL A   1      42.022  26.913  25.701  1.00  0.00     0.002 A 
ATOM     64  C   UNL A   1      41.022  25.016  26.835  1.00  0.00     0.091 A 
ATOM     65  F   UNL A   1      40.210  25.284  29.063  1.00  0.00    -0.205 F 
ATOM     66  C   UNL A   1      41.615  25.582  25.694  1.00  0.00     0.022 A 
BRANCH  64  67
ATOM     67  S   UNL A   1      40.605  23.270  26.748  1.00  0.00     0.127 S 
ATOM     68  O   UNL A   1      41.028  22.801  28.067  1.00  0.00    -0.237 OA
ATOM     69  O   UNL A   1      39.155  23.312  26.553  1.00  0.00    -0.237 OA
ATOM     70  O   UNL A   1      41.357  22.732  25.624  1.00  0.00    -0.744 OA
ENDBRANCH  64  67
ENDBRANCH  46  60
BRANCH  47  71
ATOM     71  C   UNL A   1      39.797  32.524  36.267  1.00  0.00     0.023 A 
ATOM     72  C   UNL A   1      40.560  33.667  36.571  1.00  0.00     0.012 A 
ATOM     73  C   UNL A   1      38.781  32.119  37.155  1.00  0.00     0.148 A 
ATOM     74  C   UNL A   1      40.339  34.375  37.754  1.00  0.00     0.002 A 
ATOM     75  C   UNL A   1      38.526  32.863  38.300  1.00  0.00     0.091 A 
ATOM     76  F   UNL A   1      38.075  31.020  36.854  1.00  0.00    -0.205 F 
ATOM     77  C   UNL A   1      39.316  33.980  38.611  1.00  0.00     0.022 A 
BRANCH  75  78
ATOM     78  S   UNL A   1      37.141  32.508  39.387  1.00  0.00     0.127 S 
ATOM     79  O   UNL A   1      37.429  31.137  39.799  1.00  0.00    -0.237 OA
ATOM     80  O   UNL A   1      37.315  33.517  40.432  1.00  0.00    -0.237 OA
ATOM     81  O   UNL A   1      35.947  32.689  38.572  1.00  0.00    -0.744 OA
ENDBRANCH  75  78
ENDBRANCH  47  71
BRANCH  59  82
ATOM     82  C   UNL A   1      44.579  27.813  34.354  1.00  0.00     0.023 A 
ATOM     83  C   UNL A   1      45.843  28.434  34.304  1.00  0.00     0.012 A 
ATOM     84  C   UNL A   1      44.411  26.651  35.133  1.00  0.00     0.148 A 
ATOM     85  C   UNL A   1      46.929  27.889  34.988  1.00  0.00     0.002 A 
ATOM     86  C   UNL A   1      45.485  26.143  35.854  1.00  0.00     0.091 A 
ATOM     87  F   UNL A   1      43.205  26.066  35.156  1.00  0.00    -0.205 F 
ATOM     88  C   UNL A   1      46.747  26.752  35.772  1.00  0.00     0.022 A 
BRANCH  86  89
ATOM     89  S   UNL A   1      45.329  24.738  36.963  1.00  0.00     0.127 S 
ATOM     90  O   UNL A   1      46.675  24.656  37.530  1.00  0.00    -0.237 OA
ATOM     91  O   UNL A   1      44.300  25.195  37.896  1.00  0.00    -0.237 OA
ATOM     92  O   UNL A   1      44.937  23.609  36.131  1.00  0.00    -0.744 OA
ENDBRANCH  86  89
ENDBRANCH  59  82
ENDBRANCH  33  34
ENDBRANCH  25  28
ENDBRANCH  23  24
ENDBRANCH  22  23
ENDBRANCH   1  22
TORSDOF 18
ENDMDL
