MODEL 1
REMARK VINA RESULT:     -12.2      0.000      0.000
REMARK SMILES Cc1cc2c(c(C)c1Cl)C=C(C(=O)NCCCCCCNC(=O)c1ccc(-c3c4nc(c(-c5cccc(S(=O)(=O)[O-])c5F)c5ccc([nH]5)c(-c5cccc(S(=O)(=O)[O-])c5F)c5nc(c(-c6cccc(S(=O)(=O)[O-])c6F)c6ccc3[nH]6)C=C5)C=C4)cc1)[C@@H](C(F)(F)F)O2
REMARK SMILES IDX 18 1 17 2 16 3 15 4 14 5 12 6 13 7 11 9 1 10 2 11 3 12 8 13
REMARK SMILES IDX 4 14 6 15 9 16 5 17 92 18 7 19 10 20 87 21 88 22 89 23 90 24
REMARK SMILES IDX 91 25 19 26 20 27 21 28 22 29 23 31 24 32 25 33 86 34 26 35
REMARK SMILES IDX 85 36 27 37 28 38 29 39 79 40 30 41 84 42 78 43 80 44 31 45
REMARK SMILES IDX 83 46 77 47 76 48 32 50 64 51 44 52 63 53 45 54 48 55 62 56
REMARK SMILES IDX 81 57 46 58 47 59 61 61 82 62 49 63 33 64 34 65 42 66 35 67
REMARK SMILES IDX 37 68 43 69 36 70 38 71 39 72 40 73 41 74 65 75 66 76 74 77
REMARK SMILES IDX 67 78 69 79 75 80 68 81 70 82 71 83 72 84 73 85 50 86 51 87
REMARK SMILES IDX 59 88 52 89 54 90 60 91 53 92 55 93 56 94 57 95 58 96
REMARK H PARENT 14 8 21 30 80 49 48 60
REMARK Flexibility Score: inf
ROOT
ATOM      1  C   UNL A   1      31.540  30.823  26.205  1.00  0.00     0.002 C 
ENDROOT
BRANCH   1   2
ATOM      2  C   UNL A   1      32.850  30.090  26.525  1.00  0.00     0.002 C 
BRANCH   2   3
ATOM      3  C   UNL A   1      32.707  28.582  26.750  1.00  0.00     0.021 C 
BRANCH   3   4
ATOM      4  C   UNL A   1      33.914  27.779  26.280  1.00  0.00     0.116 C 
BRANCH   4   5
ATOM      5  N   UNL A   1      33.967  27.688  24.831  1.00  0.00    -0.352 N 
ATOM      6  C   UNL A   1      33.734  26.745  23.890  1.00  0.00     0.251 C 
ATOM      7  O   UNL A   1      33.888  27.118  22.720  1.00  0.00    -0.270 OA
ATOM      8  H   UNL A   1      34.250  28.540  24.426  1.00  0.00     0.163 HD
BRANCH   6   9
ATOM      9  C   UNL A   1      33.322  25.336  24.166  1.00  0.00     0.067 C 
ATOM     10  C   UNL A   1      32.875  19.005  25.625  1.00  0.00     0.046 C 
ATOM     11  C   UNL A   1      33.307  20.382  25.201  1.00  0.00    -0.028 A 
ATOM     12  C   UNL A   1      32.362  21.408  25.227  1.00  0.00     0.052 A 
ATOM     13  C   UNL A   1      34.625  20.682  24.804  1.00  0.00     0.047 A 
ATOM     14  C   UNL A   1      32.716  22.704  24.872  1.00  0.00     0.128 A 
ATOM     15  C   UNL A   1      34.998  22.000  24.438  1.00  0.00    -0.021 A 
ATOM     16  Cl  UNL A   1      35.794  19.396  24.795  1.00  0.00    -0.084 Cl
ATOM     17  C   UNL A   1      34.021  23.024  24.495  1.00  0.00     0.022 A 
ATOM     18  O   UNL A   1      31.709  23.614  24.974  1.00  0.00    -0.475 OA
ATOM     19  C   UNL A   1      36.406  22.340  24.006  1.00  0.00     0.047 C 
ATOM     20  C   UNL A   1      34.321  24.436  24.231  1.00  0.00     0.026 C 
ATOM     21  C   UNL A   1      31.898  24.896  24.332  1.00  0.00     0.314 C 
BRANCH  21  22
ATOM     22  C   UNL A   1      31.110  24.923  23.010  1.00  0.00     0.429 C 
ATOM     23  F   UNL A   1      30.103  24.019  23.036  1.00  0.00    -0.167 F 
ATOM     24  F   UNL A   1      30.539  26.127  22.771  1.00  0.00    -0.167 F 
ATOM     25  F   UNL A   1      31.891  24.641  21.942  1.00  0.00    -0.167 F 
ENDBRANCH  21  22
ENDBRANCH   6   9
ENDBRANCH   4   5
ENDBRANCH   3   4
ENDBRANCH   2   3
ENDBRANCH   1   2
BRANCH   1  26
ATOM     26  C   UNL A   1      31.385  32.196  26.866  1.00  0.00     0.021 C 
BRANCH  26  27
ATOM     27  C   UNL A   1      32.689  32.804  27.368  1.00  0.00     0.116 C 
BRANCH  27  28
ATOM     28  N   UNL A   1      32.533  34.211  27.700  1.00  0.00    -0.352 N 
ATOM     29  C   UNL A   1      33.123  34.930  28.706  1.00  0.00     0.251 C 
ATOM     30  H   UNL A   1      31.918  34.717  27.121  1.00  0.00     0.163 HD
ATOM     31  O   UNL A   1      32.708  36.052  28.988  1.00  0.00    -0.269 OA
BRANCH  29  32
ATOM     32  C   UNL A   1      34.253  34.343  29.451  1.00  0.00     0.039 A 
ATOM     33  C   UNL A   1      33.990  33.497  30.529  1.00  0.00     0.014 A 
ATOM     34  C   UNL A   1      35.572  34.635  29.084  1.00  0.00     0.014 A 
ATOM     35  C   UNL A   1      35.052  32.907  31.215  1.00  0.00     0.010 A 
ATOM     36  C   UNL A   1      36.624  33.988  29.719  1.00  0.00     0.010 A 
ATOM     37  C   UNL A   1      36.376  33.131  30.801  1.00  0.00    -0.014 A 
BRANCH  37  38
ATOM     38  C   UNL A   1      37.514  32.489  31.503  1.00  0.00     0.031 A 
ATOM     39  C   UNL A   1      38.253  31.353  30.852  1.00  0.00     0.074 A 
ATOM     40  C   UNL A   1      37.845  32.892  32.745  1.00  0.00     0.049 A 
ATOM     41  N   UNL A   1      39.254  30.651  31.314  1.00  0.00    -0.248 NA
ATOM     42  C   UNL A   1      37.798  30.934  29.514  1.00  0.00     0.031 C 
ATOM     43  C   UNL A   1      37.161  33.943  33.501  1.00  0.00     0.029 A 
ATOM     44  N   UNL A   1      38.831  32.460  33.595  1.00  0.00    -0.354 N 
ATOM     45  C   UNL A   1      39.533  29.700  30.339  1.00  0.00     0.074 A 
ATOM     46  C   UNL A   1      38.568  29.882  29.279  1.00  0.00     0.031 C 
ATOM     47  C   UNL A   1      37.758  34.085  34.695  1.00  0.00     0.029 A 
ATOM     48  C   UNL A   1      38.845  33.117  34.804  1.00  0.00     0.049 A 
ATOM     49  H   UNL A   1      39.467  31.745  33.363  1.00  0.00     0.167 HD
ATOM     50  C   UNL A   1      40.529  28.783  30.312  1.00  0.00     0.034 A 
ATOM     51  C   UNL A   1      39.646  32.958  35.877  1.00  0.00     0.034 A 
ATOM     52  C   UNL A   1      41.511  28.636  31.352  1.00  0.00     0.049 A 
ATOM     53  C   UNL A   1      40.751  31.938  35.816  1.00  0.00     0.074 A 
ATOM     54  C   UNL A   1      42.599  27.783  31.388  1.00  0.00     0.029 A 
ATOM     55  N   UNL A   1      41.524  29.354  32.538  1.00  0.00    -0.354 N 
ATOM     56  N   UNL A   1      41.086  31.143  34.828  1.00  0.00    -0.248 NA
ATOM     57  C   UNL A   1      41.609  31.811  37.004  1.00  0.00     0.031 C 
ATOM     58  C   UNL A   1      43.255  27.965  32.608  1.00  0.00     0.029 A 
ATOM     59  C   UNL A   1      42.595  28.955  33.318  1.00  0.00     0.049 A 
ATOM     60  H   UNL A   1      40.870  30.045  32.787  1.00  0.00     0.167 HD
ATOM     61  C   UNL A   1      42.208  30.446  35.261  1.00  0.00     0.074 A 
ATOM     62  C   UNL A   1      42.511  30.930  36.593  1.00  0.00     0.031 C 
ATOM     63  C   UNL A   1      42.913  29.480  34.622  1.00  0.00     0.034 A 
BRANCH  50  64
ATOM     64  C   UNL A   1      40.655  27.911  29.090  1.00  0.00     0.023 A 
ATOM     65  C   UNL A   1      39.786  26.812  28.933  1.00  0.00     0.012 A 
ATOM     66  C   UNL A   1      41.558  28.231  28.058  1.00  0.00     0.148 A 
ATOM     67  C   UNL A   1      39.830  26.029  27.782  1.00  0.00     0.002 A 
ATOM     68  C   UNL A   1      41.563  27.475  26.891  1.00  0.00     0.091 A 
ATOM     69  F   UNL A   1      42.389  29.267  28.234  1.00  0.00    -0.205 F 
ATOM     70  C   UNL A   1      40.708  26.368  26.756  1.00  0.00     0.022 A 
BRANCH  68  71
ATOM     71  S   UNL A   1      42.592  27.877  25.475  1.00  0.00     0.127 S 
ATOM     72  O   UNL A   1      42.480  26.659  24.673  1.00  0.00    -0.237 OA
ATOM     73  O   UNL A   1      41.902  29.039  24.917  1.00  0.00    -0.237 OA
ATOM     74  O   UNL A   1      43.920  28.150  26.006  1.00  0.00    -0.744 OA
ENDBRANCH  68  71
ENDBRANCH  50  64
BRANCH  51  75
ATOM     75  C   UNL A   1      39.477  33.844  37.065  1.00  0.00     0.023 A 
ATOM     76  C   UNL A   1      39.886  35.190  36.985  1.00  0.00     0.012 A 
ATOM     77  C   UNL A   1      38.870  33.381  38.249  1.00  0.00     0.148 A 
ATOM     78  C   UNL A   1      39.716  36.051  38.069  1.00  0.00     0.002 A 
ATOM     79  C   UNL A   1      38.650  34.260  39.304  1.00  0.00     0.091 A 
ATOM     80  F   UNL A   1      38.498  32.095  38.311  1.00  0.00    -0.205 F 
ATOM     81  C   UNL A   1      39.089  35.592  39.222  1.00  0.00     0.022 A 
BRANCH  79  82
ATOM     82  S   UNL A   1      37.723  33.797  40.772  1.00  0.00     0.127 S 
ATOM     83  O   UNL A   1      36.528  33.190  40.191  1.00  0.00    -0.237 OA
ATOM     84  O   UNL A   1      38.639  32.859  41.421  1.00  0.00    -0.237 OA
ATOM     85  O   UNL A   1      37.506  35.034  41.509  1.00  0.00    -0.744 OA
ENDBRANCH  79  82
ENDBRANCH  51  75
BRANCH  63  86
ATOM     86  C   UNL A   1      44.096  28.875  35.335  1.00  0.00     0.023 A 
ATOM     87  C   UNL A   1      45.366  29.469  35.201  1.00  0.00     0.012 A 
ATOM     88  C   UNL A   1      43.924  27.798  36.229  1.00  0.00     0.148 A 
ATOM     89  C   UNL A   1      46.453  28.987  35.930  1.00  0.00     0.002 A 
ATOM     90  C   UNL A   1      45.000  27.360  36.992  1.00  0.00     0.091 A 
ATOM     91  F   UNL A   1      42.711  27.239  36.331  1.00  0.00    -0.205 F 
ATOM     92  C   UNL A   1      46.266  27.946  36.836  1.00  0.00     0.022 A 
BRANCH  90  93
ATOM     93  S   UNL A   1      44.835  26.100  38.263  1.00  0.00     0.127 S 
ATOM     94  O   UNL A   1      46.150  26.148  38.901  1.00  0.00    -0.237 OA
ATOM     95  O   UNL A   1      43.741  26.627  39.079  1.00  0.00    -0.237 OA
ATOM     96  O   UNL A   1      44.528  24.859  37.565  1.00  0.00    -0.744 OA
ENDBRANCH  90  93
ENDBRANCH  63  86
ENDBRANCH  37  38
ENDBRANCH  29  32
ENDBRANCH  27  28
ENDBRANCH  26  27
ENDBRANCH   1  26
TORSDOF 17
ENDMDL
MODEL 2
REMARK VINA RESULT:     -11.9      6.455      9.881
REMARK SMILES Cc1cc2c(c(C)c1Cl)C=C(C(=O)NCCCCCCNC(=O)c1ccc(-c3c4nc(c(-c5cccc(S(=O)(=O)[O-])c5F)c5ccc([nH]5)c(-c5cccc(S(=O)(=O)[O-])c5F)c5nc(c(-c6cccc(S(=O)(=O)[O-])c6F)c6ccc3[nH]6)C=C5)C=C4)cc1)[C@@H](C(F)(F)F)O2
REMARK SMILES IDX 18 1 17 2 16 3 15 4 14 5 12 6 13 7 11 9 1 10 2 11 3 12 8 13
REMARK SMILES IDX 4 14 6 15 9 16 5 17 92 18 7 19 10 20 87 21 88 22 89 23 90 24
REMARK SMILES IDX 91 25 19 26 20 27 21 28 22 29 23 31 24 32 25 33 86 34 26 35
REMARK SMILES IDX 85 36 27 37 28 38 29 39 79 40 30 41 84 42 78 43 80 44 31 45
REMARK SMILES IDX 83 46 77 47 76 48 32 50 64 51 44 52 63 53 45 54 48 55 62 56
REMARK SMILES IDX 81 57 46 58 47 59 61 61 82 62 49 63 33 64 34 65 42 66 35 67
REMARK SMILES IDX 37 68 43 69 36 70 38 71 39 72 40 73 41 74 65 75 66 76 74 77
REMARK SMILES IDX 67 78 69 79 75 80 68 81 70 82 71 83 72 84 73 85 50 86 51 87
REMARK SMILES IDX 59 88 52 89 54 90 60 91 53 92 55 93 56 94 57 95 58 96
REMARK H PARENT 14 8 21 30 80 49 48 60
REMARK Flexibility Score: inf
ROOT
ATOM      1  C   UNL A   1      36.898  20.061  24.743  1.00  0.00     0.002 C 
ENDROOT
BRANCH   1   2
ATOM      2  C   UNL A   1      37.116  21.572  24.590  1.00  0.00     0.002 C 
BRANCH   2   3
ATOM      3  C   UNL A   1      35.870  22.431  24.822  1.00  0.00     0.021 C 
BRANCH   3   4
ATOM      4  C   UNL A   1      35.876  23.166  26.158  1.00  0.00     0.116 C 
BRANCH   4   5
ATOM      5  N   UNL A   1      34.650  22.937  26.902  1.00  0.00    -0.352 N 
ATOM      6  C   UNL A   1      33.363  23.347  26.839  1.00  0.00     0.251 C 
ATOM      7  O   UNL A   1      32.613  22.866  27.697  1.00  0.00    -0.270 OA
ATOM      8  H   UNL A   1      34.795  22.318  27.655  1.00  0.00     0.163 HD
BRANCH   6   9
ATOM      9  C   UNL A   1      32.814  24.310  25.837  1.00  0.00     0.067 C 
ATOM     10  C   UNL A   1      30.855  29.467  22.376  1.00  0.00     0.046 C 
ATOM     11  C   UNL A   1      31.268  28.494  23.446  1.00  0.00    -0.028 A 
ATOM     12  C   UNL A   1      31.574  27.187  23.069  1.00  0.00     0.052 A 
ATOM     13  C   UNL A   1      31.380  28.853  24.805  1.00  0.00     0.047 A 
ATOM     14  C   UNL A   1      31.988  26.257  24.014  1.00  0.00     0.128 A 
ATOM     15  C   UNL A   1      31.799  27.912  25.779  1.00  0.00    -0.021 A 
ATOM     16  Cl  UNL A   1      31.011  30.491  25.255  1.00  0.00    -0.084 Cl
ATOM     17  C   UNL A   1      32.124  26.599  25.361  1.00  0.00     0.022 A 
ATOM     18  O   UNL A   1      32.288  25.030  23.508  1.00  0.00    -0.475 OA
ATOM     19  C   UNL A   1      31.921  28.278  27.240  1.00  0.00     0.047 C 
ATOM     20  C   UNL A   1      32.658  25.576  26.266  1.00  0.00     0.026 C 
ATOM     21  C   UNL A   1      32.415  23.933  24.442  1.00  0.00     0.314 C 
BRANCH  21  22
ATOM     22  C   UNL A   1      31.134  23.080  24.401  1.00  0.00     0.429 C 
ATOM     23  F   UNL A   1      30.339  23.363  25.460  1.00  0.00    -0.167 F 
ATOM     24  F   UNL A   1      30.393  23.310  23.291  1.00  0.00    -0.167 F 
ATOM     25  F   UNL A   1      31.400  21.754  24.426  1.00  0.00    -0.167 F 
ENDBRANCH  21  22
ENDBRANCH   6   9
ENDBRANCH   4   5
ENDBRANCH   3   4
ENDBRANCH   2   3
ENDBRANCH   1   2
BRANCH   1  26
ATOM     26  C   UNL A   1      38.162  19.247  25.036  1.00  0.00     0.021 C 
BRANCH  26  27
ATOM     27  C   UNL A   1      39.222  19.996  25.835  1.00  0.00     0.116 C 
BRANCH  27  28
ATOM     28  N   UNL A   1      40.422  19.197  26.016  1.00  0.00    -0.352 N 
ATOM     29  C   UNL A   1      41.707  19.612  26.251  1.00  0.00     0.251 C 
ATOM     30  H   UNL A   1      40.295  18.222  25.962  1.00  0.00     0.163 HD
ATOM     31  O   UNL A   1      42.640  18.818  26.150  1.00  0.00    -0.269 OA
BRANCH  29  32
ATOM     32  C   UNL A   1      41.960  21.019  26.616  1.00  0.00     0.039 A 
ATOM     33  C   UNL A   1      42.152  21.348  27.959  1.00  0.00     0.014 A 
ATOM     34  C   UNL A   1      42.004  22.010  25.629  1.00  0.00     0.014 A 
ATOM     35  C   UNL A   1      42.431  22.670  28.309  1.00  0.00     0.010 A 
ATOM     36  C   UNL A   1      42.356  23.310  25.972  1.00  0.00     0.010 A 
ATOM     37  C   UNL A   1      42.557  23.656  27.316  1.00  0.00    -0.014 A 
BRANCH  37  38
ATOM     38  C   UNL A   1      42.880  25.059  27.670  1.00  0.00     0.031 A 
ATOM     39  C   UNL A   1      44.297  25.553  27.567  1.00  0.00     0.074 A 
ATOM     40  C   UNL A   1      41.910  25.870  28.136  1.00  0.00     0.049 A 
ATOM     41  N   UNL A   1      44.779  26.733  27.854  1.00  0.00    -0.248 NA
ATOM     42  C   UNL A   1      45.311  24.590  27.100  1.00  0.00     0.031 C 
ATOM     43  C   UNL A   1      40.512  25.484  28.337  1.00  0.00     0.029 A 
ATOM     44  N   UNL A   1      41.953  27.181  28.536  1.00  0.00    -0.354 N 
ATOM     45  C   UNL A   1      46.147  26.650  27.622  1.00  0.00     0.074 A 
ATOM     46  C   UNL A   1      46.428  25.292  27.217  1.00  0.00     0.031 C 
ATOM     47  C   UNL A   1      39.828  26.540  28.806  1.00  0.00     0.029 A 
ATOM     48  C   UNL A   1      40.740  27.666  28.969  1.00  0.00     0.049 A 
ATOM     49  H   UNL A   1      42.774  27.724  28.516  1.00  0.00     0.167 HD
ATOM     50  C   UNL A   1      47.080  27.629  27.703  1.00  0.00     0.034 A 
ATOM     51  C   UNL A   1      40.403  28.884  29.442  1.00  0.00     0.034 A 
ATOM     52  C   UNL A   1      46.786  28.987  28.067  1.00  0.00     0.049 A 
ATOM     53  C   UNL A   1      41.458  29.955  29.513  1.00  0.00     0.074 A 
ATOM     54  C   UNL A   1      47.648  30.068  28.113  1.00  0.00     0.029 A 
ATOM     55  N   UNL A   1      45.537  29.454  28.450  1.00  0.00    -0.354 N 
ATOM     56  N   UNL A   1      42.719  29.896  29.156  1.00  0.00    -0.248 NA
ATOM     57  C   UNL A   1      41.040  31.271  30.020  1.00  0.00     0.031 C 
ATOM     58  C   UNL A   1      46.928  31.182  28.550  1.00  0.00     0.029 A 
ATOM     59  C   UNL A   1      45.609  30.804  28.745  1.00  0.00     0.049 A 
ATOM     60  H   UNL A   1      44.721  28.906  28.503  1.00  0.00     0.167 HD
ATOM     61  C   UNL A   1      43.236  31.169  29.367  1.00  0.00     0.074 A 
ATOM     62  C   UNL A   1      42.146  31.986  29.859  1.00  0.00     0.031 C 
ATOM     63  C   UNL A   1      44.504  31.616  29.187  1.00  0.00     0.034 A 
BRANCH  50  64
ATOM     64  C   UNL A   1      48.498  27.287  27.325  1.00  0.00     0.023 A 
ATOM     65  C   UNL A   1      49.313  26.601  28.248  1.00  0.00     0.012 A 
ATOM     66  C   UNL A   1      48.991  27.555  26.033  1.00  0.00     0.148 A 
ATOM     67  C   UNL A   1      50.605  26.209  27.903  1.00  0.00     0.002 A 
ATOM     68  C   UNL A   1      50.262  27.118  25.680  1.00  0.00     0.091 A 
ATOM     69  F   UNL A   1      48.208  28.225  25.177  1.00  0.00    -0.205 F 
ATOM     70  C   UNL A   1      51.074  26.455  26.616  1.00  0.00     0.022 A 
BRANCH  68  71
ATOM     71  S   UNL A   1      50.931  27.306  24.023  1.00  0.00     0.127 S 
ATOM     72  O   UNL A   1      51.043  28.760  23.913  1.00  0.00    -0.237 OA
ATOM     73  O   UNL A   1      52.208  26.602  24.128  1.00  0.00    -0.237 OA
ATOM     74  O   UNL A   1      49.964  26.689  23.125  1.00  0.00    -0.744 OA
ENDBRANCH  68  71
ENDBRANCH  50  64
BRANCH  51  75
ATOM     75  C   UNL A   1      38.985  29.169  29.808  1.00  0.00     0.023 A 
ATOM     76  C   UNL A   1      38.543  28.890  31.116  1.00  0.00     0.012 A 
ATOM     77  C   UNL A   1      38.092  29.761  28.893  1.00  0.00     0.148 A 
ATOM     78  C   UNL A   1      37.231  29.171  31.499  1.00  0.00     0.002 A 
ATOM     79  C   UNL A   1      36.804  30.093  29.299  1.00  0.00     0.091 A 
ATOM     80  F   UNL A   1      38.528  30.009  27.650  1.00  0.00    -0.205 F 
ATOM     81  C   UNL A   1      36.366  29.782  30.597  1.00  0.00     0.022 A 
BRANCH  79  82
ATOM     82  S   UNL A   1      35.667  31.010  28.253  1.00  0.00     0.127 S 
ATOM     83  O   UNL A   1      36.455  32.195  27.924  1.00  0.00    -0.237 OA
ATOM     84  O   UNL A   1      35.460  30.077  27.145  1.00  0.00    -0.237 OA
ATOM     85  O   UNL A   1      34.484  31.247  29.069  1.00  0.00    -0.744 OA
ENDBRANCH  79  82
ENDBRANCH  51  75
BRANCH  63  86
ATOM     86  C   UNL A   1      44.799  33.060  29.508  1.00  0.00     0.023 A 
ATOM     87  C   UNL A   1      45.340  33.396  30.764  1.00  0.00     0.012 A 
ATOM     88  C   UNL A   1      44.655  34.060  28.524  1.00  0.00     0.148 A 
ATOM     89  C   UNL A   1      45.714  34.710  31.045  1.00  0.00     0.002 A 
ATOM     90  C   UNL A   1      45.080  35.355  28.793  1.00  0.00     0.091 A 
ATOM     91  F   UNL A   1      44.125  33.721  27.341  1.00  0.00    -0.205 F 
ATOM     92  C   UNL A   1      45.599  35.684  30.056  1.00  0.00     0.022 A 
BRANCH  90  93
ATOM     93  S   UNL A   1      45.076  36.653  27.550  1.00  0.00     0.127 S 
ATOM     94  O   UNL A   1      43.676  36.657  27.129  1.00  0.00    -0.237 OA
ATOM     95  O   UNL A   1      45.485  37.824  28.326  1.00  0.00    -0.237 OA
ATOM     96  O   UNL A   1      46.031  36.237  26.530  1.00  0.00    -0.744 OA
ENDBRANCH  90  93
ENDBRANCH  63  86
ENDBRANCH  37  38
ENDBRANCH  29  32
ENDBRANCH  27  28
ENDBRANCH  26  27
ENDBRANCH   1  26
TORSDOF 17
ENDMDL
MODEL 3
REMARK VINA RESULT:     -11.9      6.339     11.539
REMARK SMILES Cc1cc2c(c(C)c1Cl)C=C(C(=O)NCCCCCCNC(=O)c1ccc(-c3c4nc(c(-c5cccc(S(=O)(=O)[O-])c5F)c5ccc([nH]5)c(-c5cccc(S(=O)(=O)[O-])c5F)c5nc(c(-c6cccc(S(=O)(=O)[O-])c6F)c6ccc3[nH]6)C=C5)C=C4)cc1)[C@@H](C(F)(F)F)O2
REMARK SMILES IDX 18 1 17 2 16 3 15 4 14 5 12 6 13 7 11 9 1 10 2 11 3 12 8 13
REMARK SMILES IDX 4 14 6 15 9 16 5 17 92 18 7 19 10 20 87 21 88 22 89 23 90 24
REMARK SMILES IDX 91 25 19 26 20 27 21 28 22 29 23 31 24 32 25 33 86 34 26 35
REMARK SMILES IDX 85 36 27 37 28 38 29 39 79 40 30 41 84 42 78 43 80 44 31 45
REMARK SMILES IDX 83 46 77 47 76 48 32 50 64 51 44 52 63 53 45 54 48 55 62 56
REMARK SMILES IDX 81 57 46 58 47 59 61 61 82 62 49 63 33 64 34 65 42 66 35 67
REMARK SMILES IDX 37 68 43 69 36 70 38 71 39 72 40 73 41 74 65 75 66 76 74 77
REMARK SMILES IDX 67 78 69 79 75 80 68 81 70 82 71 83 72 84 73 85 50 86 51 87
REMARK SMILES IDX 59 88 52 89 54 90 60 91 53 92 55 93 56 94 57 95 58 96
REMARK H PARENT 14 8 21 30 80 49 48 60
REMARK Flexibility Score: inf
ROOT
ATOM      1  C   UNL A   1      36.859  20.501  24.874  1.00  0.00     0.002 C 
ENDROOT
BRANCH   1   2
ATOM      2  C   UNL A   1      37.064  21.852  24.175  1.00  0.00     0.002 C 
BRANCH   2   3
ATOM      3  C   UNL A   1      36.107  22.961  24.619  1.00  0.00     0.021 C 
BRANCH   3   4
ATOM      4  C   UNL A   1      36.242  23.330  26.092  1.00  0.00     0.116 C 
BRANCH   4   5
ATOM      5  N   UNL A   1      35.045  22.993  26.842  1.00  0.00    -0.352 N 
ATOM      6  C   UNL A   1      33.731  23.311  26.804  1.00  0.00     0.251 C 
ATOM      7  O   UNL A   1      33.028  22.754  27.656  1.00  0.00    -0.270 OA
ATOM      8  H   UNL A   1      35.243  22.365  27.575  1.00  0.00     0.163 HD
BRANCH   6   9
ATOM      9  C   UNL A   1      33.102  24.260  25.836  1.00  0.00     0.067 C 
ATOM     10  C   UNL A   1      30.829  29.367  22.496  1.00  0.00     0.046 C 
ATOM     11  C   UNL A   1      31.326  28.406  23.540  1.00  0.00    -0.028 A 
ATOM     12  C   UNL A   1      31.637  27.105  23.146  1.00  0.00     0.052 A 
ATOM     13  C   UNL A   1      31.512  28.770  24.889  1.00  0.00     0.047 A 
ATOM     14  C   UNL A   1      32.126  26.185  24.065  1.00  0.00     0.128 A 
ATOM     15  C   UNL A   1      32.009  27.840  25.837  1.00  0.00    -0.021 A 
ATOM     16  Cl  UNL A   1      31.136  30.400  25.360  1.00  0.00    -0.084 Cl
ATOM     17  C   UNL A   1      32.336  26.533  25.401  1.00  0.00     0.022 A 
ATOM     18  O   UNL A   1      32.422  24.964  23.542  1.00  0.00    -0.475 OA
ATOM     19  C   UNL A   1      32.211  28.211  27.288  1.00  0.00     0.047 C 
ATOM     20  C   UNL A   1      32.946  25.524  26.274  1.00  0.00     0.026 C 
ATOM     21  C   UNL A   1      32.629  23.872  24.468  1.00  0.00     0.314 C 
BRANCH  21  22
ATOM     22  C   UNL A   1      31.366  22.991  24.505  1.00  0.00     0.429 C 
ATOM     23  F   UNL A   1      30.620  23.181  23.391  1.00  0.00    -0.167 F 
ATOM     24  F   UNL A   1      31.657  21.669  24.552  1.00  0.00    -0.167 F 
ATOM     25  F   UNL A   1      30.586  23.259  25.576  1.00  0.00    -0.167 F 
ENDBRANCH  21  22
ENDBRANCH   6   9
ENDBRANCH   4   5
ENDBRANCH   3   4
ENDBRANCH   2   3
ENDBRANCH   1   2
BRANCH   1  26
ATOM     26  C   UNL A   1      38.107  19.618  24.964  1.00  0.00     0.021 C 
BRANCH  26  27
ATOM     27  C   UNL A   1      39.097  20.036  26.045  1.00  0.00     0.116 C 
BRANCH  27  28
ATOM     28  N   UNL A   1      40.276  19.186  26.052  1.00  0.00    -0.352 N 
ATOM     29  C   UNL A   1      41.598  19.546  26.082  1.00  0.00     0.251 C 
ATOM     30  H   UNL A   1      40.100  18.218  26.031  1.00  0.00     0.163 HD
ATOM     31  O   UNL A   1      42.470  18.712  25.851  1.00  0.00    -0.269 OA
BRANCH  29  32
ATOM     32  C   UNL A   1      41.963  20.943  26.385  1.00  0.00     0.039 A 
ATOM     33  C   UNL A   1      42.124  21.329  27.717  1.00  0.00     0.014 A 
ATOM     34  C   UNL A   1      42.143  21.869  25.352  1.00  0.00     0.014 A 
ATOM     35  C   UNL A   1      42.508  22.638  28.012  1.00  0.00     0.010 A 
ATOM     36  C   UNL A   1      42.598  23.149  25.643  1.00  0.00     0.010 A 
ATOM     37  C   UNL A   1      42.769  23.551  26.976  1.00  0.00    -0.014 A 
BRANCH  37  38
ATOM     38  C   UNL A   1      43.205  24.938  27.272  1.00  0.00     0.031 A 
ATOM     39  C   UNL A   1      42.248  25.904  27.913  1.00  0.00     0.074 A 
ATOM     40  C   UNL A   1      44.440  25.340  26.913  1.00  0.00     0.049 A 
ATOM     41  N   UNL A   1      42.435  27.160  28.226  1.00  0.00    -0.248 NA
ATOM     42  C   UNL A   1      40.898  25.405  28.228  1.00  0.00     0.031 C 
ATOM     43  C   UNL A   1      45.432  24.507  26.230  1.00  0.00     0.029 A 
ATOM     44  N   UNL A   1      45.067  26.550  27.061  1.00  0.00    -0.354 N 
ATOM     45  C   UNL A   1      41.227  27.603  28.752  1.00  0.00     0.074 A 
ATOM     46  C   UNL A   1      40.299  26.499  28.674  1.00  0.00     0.031 C 
ATOM     47  C   UNL A   1      46.549  25.228  26.034  1.00  0.00     0.029 A 
ATOM     48  C   UNL A   1      46.342  26.578  26.547  1.00  0.00     0.049 A 
ATOM     49  H   UNL A   1      44.643  27.327  27.494  1.00  0.00     0.167 HD
ATOM     50  C   UNL A   1      40.930  28.811  29.288  1.00  0.00     0.034 A 
ATOM     51  C   UNL A   1      47.245  27.579  26.497  1.00  0.00     0.034 A 
ATOM     52  C   UNL A   1      41.871  29.891  29.400  1.00  0.00     0.049 A 
ATOM     53  C   UNL A   1      46.891  28.909  27.108  1.00  0.00     0.074 A 
ATOM     54  C   UNL A   1      41.688  31.130  29.987  1.00  0.00     0.029 A 
ATOM     55  N   UNL A   1      43.170  29.865  28.914  1.00  0.00    -0.354 N 
ATOM     56  N   UNL A   1      45.791  29.265  27.727  1.00  0.00    -0.248 NA
ATOM     57  C   UNL A   1      47.912  29.965  27.044  1.00  0.00     0.031 C 
ATOM     58  C   UNL A   1      42.866  31.864  29.831  1.00  0.00     0.029 A 
ATOM     59  C   UNL A   1      43.795  31.071  29.177  1.00  0.00     0.049 A 
ATOM     60  H   UNL A   1      43.585  29.102  28.451  1.00  0.00     0.167 HD
ATOM     61  C   UNL A   1      45.997  30.573  28.151  1.00  0.00     0.074 A 
ATOM     62  C   UNL A   1      47.338  30.938  27.741  1.00  0.00     0.031 C 
ATOM     63  C   UNL A   1      45.147  31.403  28.805  1.00  0.00     0.034 A 
BRANCH  50  64
ATOM     64  C   UNL A   1      39.551  29.010  29.860  1.00  0.00     0.023 A 
ATOM     65  C   UNL A   1      39.282  28.590  31.178  1.00  0.00     0.012 A 
ATOM     66  C   UNL A   1      38.555  29.694  29.136  1.00  0.00     0.148 A 
ATOM     67  C   UNL A   1      38.037  28.823  31.760  1.00  0.00     0.002 A 
ATOM     68  C   UNL A   1      37.333  29.967  29.740  1.00  0.00     0.091 A 
ATOM     69  F   UNL A   1      38.823  30.068  27.877  1.00  0.00    -0.205 F 
ATOM     70  C   UNL A   1      37.068  29.523  31.046  1.00  0.00     0.022 A 
BRANCH  68  71
ATOM     71  S   UNL A   1      36.047  30.936  28.942  1.00  0.00     0.127 S 
ATOM     72  O   UNL A   1      35.184  31.271  30.073  1.00  0.00    -0.237 OA
ATOM     73  O   UNL A   1      36.807  32.062  28.400  1.00  0.00    -0.237 OA
ATOM     74  O   UNL A   1      35.448  30.064  27.940  1.00  0.00    -0.744 OA
ENDBRANCH  68  71
ENDBRANCH  50  64
BRANCH  51  75
ATOM     75  C   UNL A   1      48.595  27.331  25.914  1.00  0.00     0.023 A 
ATOM     76  C   UNL A   1      49.612  26.802  26.733  1.00  0.00     0.012 A 
ATOM     77  C   UNL A   1      48.864  27.566  24.552  1.00  0.00     0.148 A 
ATOM     78  C   UNL A   1      50.878  26.533  26.213  1.00  0.00     0.002 A 
ATOM     79  C   UNL A   1      50.110  27.240  24.026  1.00  0.00     0.091 A 
ATOM     80  F   UNL A   1      47.888  28.080  23.791  1.00  0.00    -0.205 F 
ATOM     81  C   UNL A   1      51.124  26.739  24.859  1.00  0.00     0.022 A 
BRANCH  79  82
ATOM     82  S   UNL A   1      50.473  27.337  22.269  1.00  0.00     0.127 S 
ATOM     83  O   UNL A   1      51.834  26.808  22.216  1.00  0.00    -0.237 OA
ATOM     84  O   UNL A   1      49.448  26.461  21.702  1.00  0.00    -0.237 OA
ATOM     85  O   UNL A   1      50.329  28.742  21.913  1.00  0.00    -0.744 OA
ENDBRANCH  79  82
ENDBRANCH  51  75
BRANCH  63  86
ATOM     86  C   UNL A   1      45.629  32.793  29.139  1.00  0.00     0.023 A 
ATOM     87  C   UNL A   1      46.321  33.018  30.345  1.00  0.00     0.012 A 
ATOM     88  C   UNL A   1      45.503  33.842  28.205  1.00  0.00     0.148 A 
ATOM     89  C   UNL A   1      46.862  34.271  30.627  1.00  0.00     0.002 A 
ATOM     90  C   UNL A   1      46.092  35.072  28.470  1.00  0.00     0.091 A 
ATOM     91  F   UNL A   1      44.830  33.610  27.070  1.00  0.00    -0.205 F 
ATOM     92  C   UNL A   1      46.762  35.292  29.684  1.00  0.00     0.022 A 
BRANCH  90  93
ATOM     93  S   UNL A   1      46.113  36.412  27.273  1.00  0.00     0.127 S 
ATOM     94  O   UNL A   1      47.067  37.339  27.881  1.00  0.00    -0.237 OA
ATOM     95  O   UNL A   1      46.599  35.741  26.067  1.00  0.00    -0.237 OA
ATOM     96  O   UNL A   1      44.742  36.899  27.187  1.00  0.00    -0.744 OA
ENDBRANCH  90  93
ENDBRANCH  63  86
ENDBRANCH  37  38
ENDBRANCH  29  32
ENDBRANCH  27  28
ENDBRANCH  26  27
ENDBRANCH   1  26
TORSDOF 17
ENDMDL
