MODEL 1
REMARK VINA RESULT:     -12.1      0.000      0.000
REMARK SMILES O=C(NCCCCCCNC(=O)[C@H]1CC1(c1ccccc1)c1ccccc1)c1ccc(-c2c3nc(c(-c4cccc(S(=O)(=O)[O-])c4F)c4ccc([nH]4)c(-c4cccc(S(=O)(=O)[O-])c4F)c4nc(c(-c5cccc(S(=O)(=O)[O-])c5F)c5ccc2[nH]5)C=C4)C=C3)cc1
REMARK SMILES IDX 5 1 4 2 3 3 1 4 2 5 28 7 29 8 90 9 30 10 89 11 31 12 32 13
REMARK SMILES IDX 33 14 83 15 34 16 88 17 82 18 84 19 35 20 87 21 81 22 80 23
REMARK SMILES IDX 36 25 68 26 48 27 67 28 49 29 52 30 66 31 85 32 50 33 51 34
REMARK SMILES IDX 65 36 86 37 53 38 37 39 38 40 46 41 39 42 41 43 47 44 40 45
REMARK SMILES IDX 42 46 43 47 44 48 45 49 69 50 70 51 78 52 71 53 73 54 79 55
REMARK SMILES IDX 72 56 74 57 75 58 76 59 77 60 54 61 55 62 63 63 56 64 58 65
REMARK SMILES IDX 64 66 57 67 59 68 60 69 61 70 62 71 6 72 7 73 8 74 9 75
REMARK SMILES IDX 10 76 11 77 12 79 13 80 14 81 15 82 16 83 17 84 21 85 18 86
REMARK SMILES IDX 20 87 19 88 22 89 23 90 27 91 24 92 26 93 25 94
REMARK H PARENT 3 6 84 24 52 35 10 78
REMARK Flexibility Score: inf
ROOT
ATOM      1  C   UNL A   1      35.037  21.796  24.704  1.00  0.00     0.021 C 
ENDROOT
BRANCH   1   2
ATOM      2  C   UNL A   1      36.225  22.093  25.615  1.00  0.00     0.116 C 
BRANCH   2   3
ATOM      3  N   UNL A   1      37.227  21.041  25.603  1.00  0.00    -0.352 N 
ATOM      4  O   UNL A   1      39.281  20.126  25.681  1.00  0.00    -0.269 OA
ATOM      5  C   UNL A   1      38.573  21.110  25.880  1.00  0.00     0.251 C 
ATOM      6  H   UNL A   1      36.893  20.147  25.361  1.00  0.00     0.163 HD
BRANCH   5   7
ATOM      7  C   UNL A   1      39.173  22.370  26.379  1.00  0.00     0.039 A 
ATOM      8  C   UNL A   1      38.671  23.614  25.991  1.00  0.00     0.014 A 
ATOM      9  C   UNL A   1      40.256  22.301  27.261  1.00  0.00     0.014 A 
ATOM     10  C   UNL A   1      39.341  24.779  26.361  1.00  0.00     0.010 A 
ATOM     11  C   UNL A   1      40.881  23.476  27.692  1.00  0.00     0.010 A 
ATOM     12  C   UNL A   1      40.457  24.724  27.212  1.00  0.00    -0.014 A 
BRANCH  12  13
ATOM     13  C   UNL A   1      41.138  25.983  27.614  1.00  0.00     0.031 A 
ATOM     14  C   UNL A   1      42.550  26.279  27.181  1.00  0.00     0.074 A 
ATOM     15  C   UNL A   1      40.471  26.873  28.375  1.00  0.00     0.049 A 
ATOM     16  N   UNL A   1      43.268  27.353  27.397  1.00  0.00    -0.248 NA
ATOM     17  C   UNL A   1      43.252  25.236  26.416  1.00  0.00     0.031 C 
ATOM     18  C   UNL A   1      39.117  26.682  28.899  1.00  0.00     0.029 A 
ATOM     19  N   UNL A   1      40.835  28.113  28.837  1.00  0.00    -0.354 N 
ATOM     20  C   UNL A   1      44.515  27.101  26.836  1.00  0.00     0.074 A 
ATOM     21  C   UNL A   1      44.459  25.768  26.274  1.00  0.00     0.031 C 
ATOM     22  C   UNL A   1      38.752  27.775  29.582  1.00  0.00     0.029 A 
ATOM     23  C   UNL A   1      39.855  28.731  29.579  1.00  0.00     0.049 A 
ATOM     24  H   UNL A   1      41.712  28.521  28.656  1.00  0.00     0.167 HD
ATOM     25  C   UNL A   1      45.599  27.910  26.776  1.00  0.00     0.034 A 
ATOM     26  C   UNL A   1      39.841  29.932  30.187  1.00  0.00     0.034 A 
ATOM     27  C   UNL A   1      45.637  29.254  27.290  1.00  0.00     0.049 A 
ATOM     28  C   UNL A   1      41.043  30.827  30.065  1.00  0.00     0.074 A 
ATOM     29  C   UNL A   1      46.663  30.180  27.208  1.00  0.00     0.029 A 
ATOM     30  N   UNL A   1      44.607  29.864  27.990  1.00  0.00    -0.354 N 
ATOM     31  N   UNL A   1      42.156  30.626  29.404  1.00  0.00    -0.248 NA
ATOM     32  C   UNL A   1      40.973  32.127  30.748  1.00  0.00     0.031 C 
ATOM     33  C   UNL A   1      46.258  31.345  27.867  1.00  0.00     0.029 A 
ATOM     34  C   UNL A   1      44.974  31.150  28.350  1.00  0.00     0.049 A 
ATOM     35  H   UNL A   1      43.742  29.444  28.200  1.00  0.00     0.167 HD
ATOM     36  C   UNL A   1      42.907  31.784  29.564  1.00  0.00     0.074 A 
ATOM     37  C   UNL A   1      42.111  32.691  30.367  1.00  0.00     0.031 C 
ATOM     38  C   UNL A   1      44.151  32.064  29.101  1.00  0.00     0.034 A 
BRANCH  25  39
ATOM     39  C   UNL A   1      46.830  27.382  26.085  1.00  0.00     0.023 A 
ATOM     40  C   UNL A   1      47.005  27.615  24.705  1.00  0.00     0.012 A 
ATOM     41  C   UNL A   1      47.838  26.712  26.804  1.00  0.00     0.148 A 
ATOM     42  C   UNL A   1      48.148  27.162  24.047  1.00  0.00     0.002 A 
ATOM     43  C   UNL A   1      48.992  26.294  26.149  1.00  0.00     0.091 A 
ATOM     44  F   UNL A   1      47.646  26.475  28.110  1.00  0.00    -0.205 F 
ATOM     45  C   UNL A   1      49.145  26.510  24.769  1.00  0.00     0.022 A 
BRANCH  43  46
ATOM     46  S   UNL A   1      50.357  25.515  27.019  1.00  0.00     0.127 S 
ATOM     47  O   UNL A   1      51.317  25.306  25.937  1.00  0.00    -0.237 OA
ATOM     48  O   UNL A   1      50.745  26.544  27.984  1.00  0.00    -0.237 OA
ATOM     49  O   UNL A   1      49.802  24.309  27.618  1.00  0.00    -0.744 OA
ENDBRANCH  43  46
ENDBRANCH  25  39
BRANCH  26  50
ATOM     50  C   UNL A   1      38.610  30.385  30.891  1.00  0.00     0.023 A 
ATOM     51  C   UNL A   1      38.517  30.222  32.287  1.00  0.00     0.012 A 
ATOM     52  C   UNL A   1      37.566  31.032  30.202  1.00  0.00     0.148 A 
ATOM     53  C   UNL A   1      37.397  30.679  32.983  1.00  0.00     0.002 A 
ATOM     54  C   UNL A   1      36.479  31.536  30.909  1.00  0.00     0.091 A 
ATOM     55  F   UNL A   1      37.667  31.164  28.872  1.00  0.00    -0.205 F 
ATOM     56  C   UNL A   1      36.387  31.348  32.297  1.00  0.00     0.022 A 
BRANCH  54  57
ATOM     57  S   UNL A   1      35.204  32.530  30.127  1.00  0.00     0.127 S 
ATOM     58  O   UNL A   1      34.284  32.762  31.238  1.00  0.00    -0.237 OA
ATOM     59  O   UNL A   1      35.960  33.708  29.697  1.00  0.00    -0.237 OA
ATOM     60  O   UNL A   1      34.690  31.717  29.035  1.00  0.00    -0.744 OA
ENDBRANCH  54  57
ENDBRANCH  26  50
BRANCH  38  61
ATOM     61  C   UNL A   1      44.723  33.419  29.425  1.00  0.00     0.023 A 
ATOM     62  C   UNL A   1      45.451  33.600  30.617  1.00  0.00     0.012 A 
ATOM     63  C   UNL A   1      44.598  34.490  28.519  1.00  0.00     0.148 A 
ATOM     64  C   UNL A   1      46.021  34.837  30.917  1.00  0.00     0.002 A 
ATOM     65  C   UNL A   1      45.205  35.708  28.805  1.00  0.00     0.091 A 
ATOM     66  F   UNL A   1      43.880  34.306  27.402  1.00  0.00    -0.205 F 
ATOM     67  C   UNL A   1      45.907  35.887  30.007  1.00  0.00     0.022 A 
BRANCH  65  68
ATOM     68  S   UNL A   1      45.179  37.078  27.643  1.00  0.00     0.127 S 
ATOM     69  O   UNL A   1      45.912  38.107  28.376  1.00  0.00    -0.237 OA
ATOM     70  O   UNL A   1      45.892  36.528  26.489  1.00  0.00    -0.237 OA
ATOM     71  O   UNL A   1      43.771  37.358  27.397  1.00  0.00    -0.744 OA
ENDBRANCH  65  68
ENDBRANCH  38  61
ENDBRANCH  12  13
ENDBRANCH   5   7
ENDBRANCH   2   3
ENDBRANCH   1   2
BRANCH   1  72
ATOM     72  C   UNL A   1      34.561  22.958  23.830  1.00  0.00     0.002 C 
BRANCH  72  73
ATOM     73  C   UNL A   1      33.210  22.773  23.134  1.00  0.00     0.002 C 
BRANCH  73  74
ATOM     74  C   UNL A   1      31.964  22.905  24.017  1.00  0.00     0.021 C 
BRANCH  74  75
ATOM     75  C   UNL A   1      31.108  24.150  23.793  1.00  0.00     0.116 C 
BRANCH  75  76
ATOM     76  N   UNL A   1      31.152  24.632  22.425  1.00  0.00    -0.356 N 
ATOM     77  C   UNL A   1      31.811  25.719  21.909  1.00  0.00     0.224 C 
ATOM     78  H   UNL A   1      30.636  24.103  21.775  1.00  0.00     0.163 HD
ATOM     79  O   UNL A   1      31.670  26.009  20.725  1.00  0.00    -0.275 OA
BRANCH  77  80
ATOM     80  C   UNL A   1      32.577  26.600  22.822  1.00  0.00     0.095 C 
ATOM     81  C   UNL A   1      33.062  27.951  22.381  1.00  0.00     0.032 C 
ATOM     82  C   UNL A   1      32.009  27.869  23.486  1.00  0.00     0.033 C 
BRANCH  82  83
ATOM     83  C   UNL A   1      30.668  28.517  23.082  1.00  0.00    -0.037 A 
ATOM     84  C   UNL A   1      29.447  27.914  23.449  1.00  0.00     0.004 A 
ATOM     85  C   UNL A   1      30.593  29.639  22.240  1.00  0.00     0.004 A 
ATOM     86  C   UNL A   1      28.220  28.394  22.989  1.00  0.00     0.000 A 
ATOM     87  C   UNL A   1      29.367  30.121  21.768  1.00  0.00     0.000 A 
ATOM     88  C   UNL A   1      28.181  29.494  22.140  1.00  0.00     0.000 A 
ENDBRANCH  82  83
BRANCH  82  89
ATOM     89  C   UNL A   1      32.437  28.124  24.969  1.00  0.00    -0.037 A 
ATOM     90  C   UNL A   1      31.561  27.848  26.041  1.00  0.00     0.004 A 
ATOM     91  C   UNL A   1      33.696  28.645  25.333  1.00  0.00     0.004 A 
ATOM     92  C   UNL A   1      31.895  28.107  27.376  1.00  0.00     0.000 A 
ATOM     93  C   UNL A   1      34.043  28.900  26.666  1.00  0.00     0.000 A 
ATOM     94  C   UNL A   1      33.138  28.639  27.687  1.00  0.00     0.000 A 
ENDBRANCH  82  89
ENDBRANCH  77  80
ENDBRANCH  75  76
ENDBRANCH  74  75
ENDBRANCH  73  74
ENDBRANCH  72  73
ENDBRANCH   1  72
TORSDOF 18
ENDMDL
MODEL 2
REMARK VINA RESULT:     -12.1      5.525     10.360
REMARK SMILES O=C(NCCCCCCNC(=O)[C@H]1CC1(c1ccccc1)c1ccccc1)c1ccc(-c2c3nc(c(-c4cccc(S(=O)(=O)[O-])c4F)c4ccc([nH]4)c(-c4cccc(S(=O)(=O)[O-])c4F)c4nc(c(-c5cccc(S(=O)(=O)[O-])c5F)c5ccc2[nH]5)C=C4)C=C3)cc1
REMARK SMILES IDX 5 1 4 2 3 3 1 4 2 5 28 7 29 8 90 9 30 10 89 11 31 12 32 13
REMARK SMILES IDX 33 14 83 15 34 16 88 17 82 18 84 19 35 20 87 21 81 22 80 23
REMARK SMILES IDX 36 25 68 26 48 27 67 28 49 29 52 30 66 31 85 32 50 33 51 34
REMARK SMILES IDX 65 36 86 37 53 38 37 39 38 40 46 41 39 42 41 43 47 44 40 45
REMARK SMILES IDX 42 46 43 47 44 48 45 49 69 50 70 51 78 52 71 53 73 54 79 55
REMARK SMILES IDX 72 56 74 57 75 58 76 59 77 60 54 61 55 62 63 63 56 64 58 65
REMARK SMILES IDX 64 66 57 67 59 68 60 69 61 70 62 71 6 72 7 73 8 74 9 75
REMARK SMILES IDX 10 76 11 77 12 79 13 80 14 81 15 82 16 83 17 84 21 85 18 86
REMARK SMILES IDX 20 87 19 88 22 89 23 90 27 91 24 92 26 93 25 94
REMARK H PARENT 3 6 84 24 52 35 10 78
REMARK Flexibility Score: inf
ROOT
ATOM      1  C   UNL A   1      31.771  31.466  26.564  1.00  0.00     0.021 C 
ENDROOT
BRANCH   1   2
ATOM      2  C   UNL A   1      32.954  32.185  27.205  1.00  0.00     0.116 C 
BRANCH   2   3
ATOM      3  N   UNL A   1      32.641  33.543  27.613  1.00  0.00    -0.352 N 
ATOM      4  O   UNL A   1      32.721  35.407  28.871  1.00  0.00    -0.269 OA
ATOM      5  C   UNL A   1      33.223  34.323  28.585  1.00  0.00     0.251 C 
ATOM      6  H   UNL A   1      31.903  33.969  27.120  1.00  0.00     0.163 HD
BRANCH   5   7
ATOM      7  C   UNL A   1      34.424  33.846  29.311  1.00  0.00     0.039 A 
ATOM      8  C   UNL A   1      35.708  34.236  28.921  1.00  0.00     0.014 A 
ATOM      9  C   UNL A   1      34.259  32.997  30.410  1.00  0.00     0.014 A 
ATOM     10  C   UNL A   1      36.822  33.661  29.528  1.00  0.00     0.010 A 
ATOM     11  C   UNL A   1      35.381  32.481  31.068  1.00  0.00     0.010 A 
ATOM     12  C   UNL A   1      36.673  32.774  30.606  1.00  0.00    -0.014 A 
BRANCH  12  13
ATOM     13  C   UNL A   1      37.879  32.196  31.256  1.00  0.00     0.031 A 
ATOM     14  C   UNL A   1      38.375  32.712  32.580  1.00  0.00     0.074 A 
ATOM     15  C   UNL A   1      38.531  31.187  30.644  1.00  0.00     0.049 A 
ATOM     16  N   UNL A   1      39.375  32.282  33.308  1.00  0.00    -0.248 NA
ATOM     17  C   UNL A   1      37.666  33.864  33.162  1.00  0.00     0.031 C 
ATOM     18  C   UNL A   1      38.179  30.631  29.336  1.00  0.00     0.029 A 
ATOM     19  N   UNL A   1      39.620  30.451  31.037  1.00  0.00    -0.354 N 
ATOM     20  C   UNL A   1      39.445  33.132  34.407  1.00  0.00     0.074 A 
ATOM     21  C   UNL A   1      38.388  34.108  34.247  1.00  0.00     0.031 C 
ATOM     22  C   UNL A   1      39.013  29.621  29.050  1.00  0.00     0.029 A 
ATOM     23  C   UNL A   1      39.983  29.481  30.132  1.00  0.00     0.049 A 
ATOM     24  H   UNL A   1      40.096  30.601  31.885  1.00  0.00     0.167 HD
ATOM     25  C   UNL A   1      40.296  33.091  35.460  1.00  0.00     0.034 A 
ATOM     26  C   UNL A   1      40.980  28.576  30.166  1.00  0.00     0.034 A 
ATOM     27  C   UNL A   1      41.313  32.090  35.642  1.00  0.00     0.049 A 
ATOM     28  C   UNL A   1      41.880  28.527  31.368  1.00  0.00     0.074 A 
ATOM     29  C   UNL A   1      42.172  31.919  36.714  1.00  0.00     0.029 A 
ATOM     30  N   UNL A   1      41.617  31.092  34.728  1.00  0.00    -0.354 N 
ATOM     31  N   UNL A   1      41.834  29.246  32.462  1.00  0.00    -0.248 NA
ATOM     32  C   UNL A   1      42.951  27.519  31.353  1.00  0.00     0.031 C 
ATOM     33  C   UNL A   1      43.002  30.825  36.443  1.00  0.00     0.029 A 
ATOM     34  C   UNL A   1      42.651  30.307  35.207  1.00  0.00     0.049 A 
ATOM     35  H   UNL A   1      41.162  30.962  33.864  1.00  0.00     0.167 HD
ATOM     36  C   UNL A   1      42.847  28.760  33.280  1.00  0.00     0.074 A 
ATOM     37  C   UNL A   1      43.476  27.669  32.562  1.00  0.00     0.031 C 
ATOM     38  C   UNL A   1      43.232  29.189  34.507  1.00  0.00     0.034 A 
BRANCH  25  39
ATOM     39  C   UNL A   1      40.134  34.139  36.531  1.00  0.00     0.023 A 
ATOM     40  C   UNL A   1      40.460  35.480  36.245  1.00  0.00     0.012 A 
ATOM     41  C   UNL A   1      39.607  33.812  37.796  1.00  0.00     0.148 A 
ATOM     42  C   UNL A   1      40.293  36.473  37.210  1.00  0.00     0.002 A 
ATOM     43  C   UNL A   1      39.410  34.813  38.741  1.00  0.00     0.091 A 
ATOM     44  F   UNL A   1      39.326  32.527  38.062  1.00  0.00    -0.205 F 
ATOM     45  C   UNL A   1      39.760  36.142  38.454  1.00  0.00     0.022 A 
BRANCH  43  46
ATOM     46  S   UNL A   1      38.658  34.485  40.339  1.00  0.00     0.127 S 
ATOM     47  O   UNL A   1      39.724  33.753  41.023  1.00  0.00    -0.237 OA
ATOM     48  O   UNL A   1      38.417  35.832  40.858  1.00  0.00    -0.237 OA
ATOM     49  O   UNL A   1      37.448  33.726  40.055  1.00  0.00    -0.744 OA
ENDBRANCH  43  46
ENDBRANCH  25  39
BRANCH  26  50
ATOM     50  C   UNL A   1      41.116  27.591  29.058  1.00  0.00     0.023 A 
ATOM     51  C   UNL A   1      40.324  26.426  29.074  1.00  0.00     0.012 A 
ATOM     52  C   UNL A   1      41.968  27.828  27.964  1.00  0.00     0.148 A 
ATOM     53  C   UNL A   1      40.392  25.506  28.027  1.00  0.00     0.002 A 
ATOM     54  C   UNL A   1      41.990  26.936  26.897  1.00  0.00     0.091 A 
ATOM     55  F   UNL A   1      42.725  28.935  27.975  1.00  0.00    -0.205 F 
ATOM     56  C   UNL A   1      41.213  25.768  26.934  1.00  0.00     0.022 A 
BRANCH  54  57
ATOM     57  S   UNL A   1      42.910  27.265  25.390  1.00  0.00     0.127 S 
ATOM     58  O   UNL A   1      42.222  28.444  24.871  1.00  0.00    -0.237 OA
ATOM     59  O   UNL A   1      44.258  27.513  25.905  1.00  0.00    -0.237 OA
ATOM     60  O   UNL A   1      42.789  26.055  24.588  1.00  0.00    -0.744 OA
ENDBRANCH  54  57
ENDBRANCH  26  50
BRANCH  38  61
ATOM     61  C   UNL A   1      44.370  28.461  35.171  1.00  0.00     0.023 A 
ATOM     62  C   UNL A   1      45.698  28.815  34.861  1.00  0.00     0.012 A 
ATOM     63  C   UNL A   1      44.126  27.477  36.149  1.00  0.00     0.148 A 
ATOM     64  C   UNL A   1      46.767  28.179  35.493  1.00  0.00     0.002 A 
ATOM     65  C   UNL A   1      45.196  26.878  36.806  1.00  0.00     0.091 A 
ATOM     66  F   UNL A   1      42.856  27.136  36.413  1.00  0.00    -0.205 F 
ATOM     67  C   UNL A   1      46.516  27.219  36.472  1.00  0.00     0.022 A 
BRANCH  65  68
ATOM     68  S   UNL A   1      44.951  25.700  38.140  1.00  0.00     0.127 S 
ATOM     69  O   UNL A   1      46.315  25.513  38.629  1.00  0.00    -0.237 OA
ATOM     70  O   UNL A   1      44.072  26.433  39.053  1.00  0.00    -0.237 OA
ATOM     71  O   UNL A   1      44.334  24.533  37.525  1.00  0.00    -0.744 OA
ENDBRANCH  65  68
ENDBRANCH  38  61
ENDBRANCH  12  13
ENDBRANCH   5   7
ENDBRANCH   2   3
ENDBRANCH   1   2
BRANCH   1  72
ATOM     72  C   UNL A   1      31.756  29.944  26.712  1.00  0.00     0.002 C 
BRANCH  72  73
ATOM     73  C   UNL A   1      33.048  29.299  27.222  1.00  0.00     0.002 C 
BRANCH  73  74
ATOM     74  C   UNL A   1      33.848  28.478  26.205  1.00  0.00     0.021 C 
BRANCH  74  75
ATOM     75  C   UNL A   1      33.532  28.735  24.733  1.00  0.00     0.116 C 
BRANCH  75  76
ATOM     76  N   UNL A   1      34.030  27.694  23.854  1.00  0.00    -0.356 N 
ATOM     77  C   UNL A   1      33.446  27.148  22.740  1.00  0.00     0.224 C 
ATOM     78  H   UNL A   1      34.912  27.328  24.091  1.00  0.00     0.163 HD
ATOM     79  O   UNL A   1      33.996  26.216  22.160  1.00  0.00    -0.275 OA
BRANCH  77  80
ATOM     80  C   UNL A   1      32.096  27.605  22.332  1.00  0.00     0.095 C 
ATOM     81  C   UNL A   1      31.119  26.673  21.676  1.00  0.00     0.032 C 
ATOM     82  C   UNL A   1      30.792  27.229  23.063  1.00  0.00     0.033 C 
BRANCH  82  83
ATOM     83  C   UNL A   1      30.705  26.129  24.142  1.00  0.00    -0.037 A 
ATOM     84  C   UNL A   1      30.774  26.466  25.509  1.00  0.00     0.004 A 
ATOM     85  C   UNL A   1      30.685  24.759  23.827  1.00  0.00     0.004 A 
ATOM     86  C   UNL A   1      30.835  25.492  26.507  1.00  0.00     0.000 A 
ATOM     87  C   UNL A   1      30.753  23.777  24.820  1.00  0.00     0.000 A 
ATOM     88  C   UNL A   1      30.834  24.145  26.161  1.00  0.00     0.000 A 
ENDBRANCH  82  83
BRANCH  82  89
ATOM     89  C   UNL A   1      29.724  28.364  23.198  1.00  0.00    -0.037 A 
ATOM     90  C   UNL A   1      28.345  28.089  23.071  1.00  0.00     0.004 A 
ATOM     91  C   UNL A   1      30.054  29.713  23.440  1.00  0.00     0.004 A 
ATOM     92  C   UNL A   1      27.367  29.087  23.141  1.00  0.00     0.000 A 
ATOM     93  C   UNL A   1      29.082  30.718  23.519  1.00  0.00     0.000 A 
ATOM     94  C   UNL A   1      27.738  30.406  23.361  1.00  0.00     0.000 A 
ENDBRANCH  82  89
ENDBRANCH  77  80
ENDBRANCH  75  76
ENDBRANCH  74  75
ENDBRANCH  73  74
ENDBRANCH  72  73
ENDBRANCH   1  72
TORSDOF 18
ENDMDL
MODEL 3
REMARK VINA RESULT:     -12.1      5.541      8.713
REMARK SMILES O=C(NCCCCCCNC(=O)[C@H]1CC1(c1ccccc1)c1ccccc1)c1ccc(-c2c3nc(c(-c4cccc(S(=O)(=O)[O-])c4F)c4ccc([nH]4)c(-c4cccc(S(=O)(=O)[O-])c4F)c4nc(c(-c5cccc(S(=O)(=O)[O-])c5F)c5ccc2[nH]5)C=C4)C=C3)cc1
REMARK SMILES IDX 5 1 4 2 3 3 1 4 2 5 28 7 29 8 90 9 30 10 89 11 31 12 32 13
REMARK SMILES IDX 33 14 83 15 34 16 88 17 82 18 84 19 35 20 87 21 81 22 80 23
REMARK SMILES IDX 36 25 68 26 48 27 67 28 49 29 52 30 66 31 85 32 50 33 51 34
REMARK SMILES IDX 65 36 86 37 53 38 37 39 38 40 46 41 39 42 41 43 47 44 40 45
REMARK SMILES IDX 42 46 43 47 44 48 45 49 69 50 70 51 78 52 71 53 73 54 79 55
REMARK SMILES IDX 72 56 74 57 75 58 76 59 77 60 54 61 55 62 63 63 56 64 58 65
REMARK SMILES IDX 64 66 57 67 59 68 60 69 61 70 62 71 6 72 7 73 8 74 9 75
REMARK SMILES IDX 10 76 11 77 12 79 13 80 14 81 15 82 16 83 17 84 21 85 18 86
REMARK SMILES IDX 20 87 19 88 22 89 23 90 27 91 24 92 26 93 25 94
REMARK H PARENT 3 6 84 24 52 35 10 78
REMARK Flexibility Score: inf
ROOT
ATOM      1  C   UNL A   1      31.571  32.027  26.720  1.00  0.00     0.021 C 
ENDROOT
BRANCH   1   2
ATOM      2  C   UNL A   1      32.826  32.712  27.252  1.00  0.00     0.116 C 
BRANCH   2   3
ATOM      3  N   UNL A   1      32.592  34.083  27.670  1.00  0.00    -0.352 N 
ATOM      4  O   UNL A   1      32.740  35.914  28.969  1.00  0.00    -0.269 OA
ATOM      5  C   UNL A   1      33.175  34.801  28.688  1.00  0.00     0.251 C 
ATOM      6  H   UNL A   1      31.915  34.571  27.147  1.00  0.00     0.163 HD
BRANCH   5   7
ATOM      7  C   UNL A   1      34.297  34.223  29.467  1.00  0.00     0.039 A 
ATOM      8  C   UNL A   1      35.626  34.481  29.122  1.00  0.00     0.014 A 
ATOM      9  C   UNL A   1      34.009  33.413  30.570  1.00  0.00     0.014 A 
ATOM     10  C   UNL A   1      36.656  33.813  29.781  1.00  0.00     0.010 A 
ATOM     11  C   UNL A   1      35.050  32.804  31.279  1.00  0.00     0.010 A 
ATOM     12  C   UNL A   1      36.381  32.963  30.864  1.00  0.00    -0.014 A 
BRANCH  12  13
ATOM     13  C   UNL A   1      37.500  32.283  31.569  1.00  0.00     0.031 A 
ATOM     14  C   UNL A   1      38.279  31.176  30.909  1.00  0.00     0.074 A 
ATOM     15  C   UNL A   1      37.820  32.674  32.818  1.00  0.00     0.049 A 
ATOM     16  N   UNL A   1      39.318  30.519  31.361  1.00  0.00    -0.248 NA
ATOM     17  C   UNL A   1      37.834  30.742  29.575  1.00  0.00     0.031 C 
ATOM     18  C   UNL A   1      37.111  33.701  33.584  1.00  0.00     0.029 A 
ATOM     19  N   UNL A   1      38.820  32.261  33.662  1.00  0.00    -0.354 N 
ATOM     20  C   UNL A   1      39.624  29.569  30.393  1.00  0.00     0.074 A 
ATOM     21  C   UNL A   1      38.656  29.730  29.329  1.00  0.00     0.031 C 
ATOM     22  C   UNL A   1      37.716  33.861  34.769  1.00  0.00     0.029 A 
ATOM     23  C   UNL A   1      38.832  32.925  34.866  1.00  0.00     0.049 A 
ATOM     24  H   UNL A   1      39.468  31.558  33.428  1.00  0.00     0.167 HD
ATOM     25  C   UNL A   1      40.629  28.661  30.381  1.00  0.00     0.034 A 
ATOM     26  C   UNL A   1      39.648  32.800  35.930  1.00  0.00     0.034 A 
ATOM     27  C   UNL A   1      41.620  28.535  31.417  1.00  0.00     0.049 A 
ATOM     28  C   UNL A   1      40.780  31.815  35.870  1.00  0.00     0.074 A 
ATOM     29  C   UNL A   1      42.723  27.699  31.458  1.00  0.00     0.029 A 
ATOM     30  N   UNL A   1      41.629  29.261  32.599  1.00  0.00    -0.354 N 
ATOM     31  N   UNL A   1      41.139  31.030  34.883  1.00  0.00    -0.248 NA
ATOM     32  C   UNL A   1      41.641  31.720  37.058  1.00  0.00     0.031 C 
ATOM     33  C   UNL A   1      43.391  27.911  32.669  1.00  0.00     0.029 A 
ATOM     34  C   UNL A   1      42.712  28.889  33.377  1.00  0.00     0.049 A 
ATOM     35  H   UNL A   1      40.962  29.942  32.847  1.00  0.00     0.167 HD
ATOM     36  C   UNL A   1      42.282  30.371  35.318  1.00  0.00     0.074 A 
ATOM     37  C   UNL A   1      42.569  30.866  36.650  1.00  0.00     0.031 C 
ATOM     38  C   UNL A   1      43.018  29.429  34.678  1.00  0.00     0.034 A 
BRANCH  25  39
ATOM     39  C   UNL A   1      40.739  27.754  29.183  1.00  0.00     0.023 A 
ATOM     40  C   UNL A   1      39.939  26.595  29.114  1.00  0.00     0.012 A 
ATOM     41  C   UNL A   1      41.584  28.073  28.102  1.00  0.00     0.148 A 
ATOM     42  C   UNL A   1      40.001  25.753  28.004  1.00  0.00     0.002 A 
ATOM     43  C   UNL A   1      41.613  27.249  26.983  1.00  0.00     0.091 A 
ATOM     44  F   UNL A   1      42.357  29.165  28.193  1.00  0.00    -0.205 F 
ATOM     45  C   UNL A   1      40.830  26.084  26.935  1.00  0.00     0.022 A 
BRANCH  43  46
ATOM     46  S   UNL A   1      42.597  27.643  25.531  1.00  0.00     0.127 S 
ATOM     47  O   UNL A   1      41.993  28.902  25.098  1.00  0.00    -0.237 OA
ATOM     48  O   UNL A   1      43.943  27.775  26.089  1.00  0.00    -0.237 OA
ATOM     49  O   UNL A   1      42.430  26.514  24.627  1.00  0.00    -0.744 OA
ENDBRANCH  43  46
ENDBRANCH  25  39
BRANCH  26  50
ATOM     50  C   UNL A   1      39.466  33.697  37.104  1.00  0.00     0.023 A 
ATOM     51  C   UNL A   1      39.859  35.046  37.005  1.00  0.00     0.012 A 
ATOM     52  C   UNL A   1      38.851  33.244  38.287  1.00  0.00     0.148 A 
ATOM     53  C   UNL A   1      39.659  35.924  38.071  1.00  0.00     0.002 A 
ATOM     54  C   UNL A   1      38.603  34.137  39.323  1.00  0.00     0.091 A 
ATOM     55  F   UNL A   1      38.499  31.953  38.367  1.00  0.00    -0.205 F 
ATOM     56  C   UNL A   1      39.018  35.475  39.222  1.00  0.00     0.022 A 
BRANCH  54  57
ATOM     57  S   UNL A   1      37.661  33.678  40.782  1.00  0.00     0.127 S 
ATOM     58  O   UNL A   1      37.450  34.973  41.422  1.00  0.00    -0.237 OA
ATOM     59  O   UNL A   1      36.461  33.080  40.192  1.00  0.00    -0.237 OA
ATOM     60  O   UNL A   1      38.502  32.738  41.509  1.00  0.00    -0.744 OA
ENDBRANCH  54  57
ENDBRANCH  26  50
BRANCH  38  61
ATOM     61  C   UNL A   1      44.227  28.887  35.394  1.00  0.00     0.023 A 
ATOM     62  C   UNL A   1      45.488  29.473  35.172  1.00  0.00     0.012 A 
ATOM     63  C   UNL A   1      44.102  27.846  36.335  1.00  0.00     0.148 A 
ATOM     64  C   UNL A   1      46.614  29.011  35.854  1.00  0.00     0.002 A 
ATOM     65  C   UNL A   1      45.221  27.419  37.042  1.00  0.00     0.091 A 
ATOM     66  F   UNL A   1      42.898  27.284  36.514  1.00  0.00    -0.205 F 
ATOM     67  C   UNL A   1      46.479  27.992  36.796  1.00  0.00     0.022 A 
BRANCH  65  68
ATOM     68  S   UNL A   1      45.110  26.176  38.334  1.00  0.00     0.127 S 
ATOM     69  O   UNL A   1      44.725  24.988  37.575  1.00  0.00    -0.237 OA
ATOM     70  O   UNL A   1      46.474  26.146  38.863  1.00  0.00    -0.237 OA
ATOM     71  O   UNL A   1      44.116  26.675  39.274  1.00  0.00    -0.744 OA
ENDBRANCH  65  68
ENDBRANCH  38  61
ENDBRANCH  12  13
ENDBRANCH   5   7
ENDBRANCH   2   3
ENDBRANCH   1   2
BRANCH   1  72
ATOM     72  C   UNL A   1      31.762  30.606  26.188  1.00  0.00     0.002 C 
BRANCH  72  73
ATOM     73  C   UNL A   1      32.959  29.829  26.743  1.00  0.00     0.002 C 
BRANCH  73  74
ATOM     74  C   UNL A   1      33.553  28.749  25.833  1.00  0.00     0.021 C 
BRANCH  74  75
ATOM     75  C   UNL A   1      33.576  29.065  24.339  1.00  0.00     0.116 C 
BRANCH  75  76
ATOM     76  N   UNL A   1      34.055  27.959  23.531  1.00  0.00    -0.356 N 
ATOM     77  C   UNL A   1      33.417  27.282  22.523  1.00  0.00     0.224 C 
ATOM     78  H   UNL A   1      34.966  27.650  23.736  1.00  0.00     0.163 HD
ATOM     79  O   UNL A   1      33.964  26.317  21.997  1.00  0.00    -0.275 OA
BRANCH  77  80
ATOM     80  C   UNL A   1      32.024  27.648  22.175  1.00  0.00     0.095 C 
ATOM     81  C   UNL A   1      31.059  26.631  21.634  1.00  0.00     0.032 C 
ATOM     82  C   UNL A   1      30.787  27.252  23.004  1.00  0.00     0.033 C 
BRANCH  82  83
ATOM     83  C   UNL A   1      30.821  26.215  24.147  1.00  0.00    -0.037 A 
ATOM     84  C   UNL A   1      30.856  24.836  23.856  1.00  0.00     0.004 A 
ATOM     85  C   UNL A   1      30.691  26.575  25.499  1.00  0.00     0.004 A 
ATOM     86  C   UNL A   1      30.751  23.868  24.856  1.00  0.00     0.000 A 
ATOM     87  C   UNL A   1      30.578  25.611  26.507  1.00  0.00     0.000 A 
ATOM     88  C   UNL A   1      30.603  24.257  26.183  1.00  0.00     0.000 A 
ENDBRANCH  82  83
BRANCH  82  89
ATOM     89  C   UNL A   1      29.670  28.339  23.142  1.00  0.00    -0.037 A 
ATOM     90  C   UNL A   1      28.303  27.998  23.056  1.00  0.00     0.004 A 
ATOM     91  C   UNL A   1      29.943  29.707  23.346  1.00  0.00     0.004 A 
ATOM     92  C   UNL A   1      27.281  28.952  23.128  1.00  0.00     0.000 A 
ATOM     93  C   UNL A   1      28.927  30.668  23.428  1.00  0.00     0.000 A 
ATOM     94  C   UNL A   1      27.595  30.291  23.310  1.00  0.00     0.000 A 
ENDBRANCH  82  89
ENDBRANCH  77  80
ENDBRANCH  75  76
ENDBRANCH  74  75
ENDBRANCH  73  74
ENDBRANCH  72  73
ENDBRANCH   1  72
TORSDOF 18
ENDMDL
