MODEL 1
REMARK VINA RESULT:     -12.9      0.000      0.000
REMARK SMILES O=C(NCCCCCCNC(=O)[C@@H]1[C@H](C(=O)Nc2ccc(Cn3cncn3)cc2)[C@@H]2C=C[C@H]1CC2)c1ccc(-c2c3nc(c(-c4cccc(S(=O)(=O)[O-])c4F)c4ccc([nH]4)c(-c4cccc(S(=O)(=O)[O-])c4F)c4nc(c(-c5cccc(S(=O)(=O)[O-])c5F)c5ccc2[nH]5)C=C4)C=C3)cc1
REMARK SMILES IDX 7 1 6 2 5 3 4 4 3 5 1 6 2 7 36 9 37 10 98 11 38 12 97 13
REMARK SMILES IDX 39 14 40 15 41 16 91 17 42 18 96 19 90 20 92 21 43 22 95 23
REMARK SMILES IDX 89 24 88 25 44 27 76 28 56 29 75 30 57 31 60 32 74 33 93 34
REMARK SMILES IDX 58 35 59 36 73 38 94 39 61 40 45 41 46 42 54 43 47 44 49 45
REMARK SMILES IDX 55 46 48 47 50 48 51 49 52 50 53 51 77 52 78 53 86 54 79 55
REMARK SMILES IDX 81 56 87 57 80 58 82 59 83 60 84 61 85 62 62 63 63 64 71 65
REMARK SMILES IDX 64 66 66 67 72 68 65 69 67 70 68 71 69 72 70 73 8 74 9 75
REMARK SMILES IDX 10 76 11 77 12 79 13 80 14 81 33 82 30 83 32 84 34 85 31 86
REMARK SMILES IDX 35 87 15 88 16 89 17 90 18 92 19 93 29 94 20 95 28 96 21 97
REMARK SMILES IDX 22 98 23 99 24 100 27 101 25 102 26 103
REMARK H PARENT 3 8 92 26 60 37 10 78 17 91
REMARK Flexibility Score: inf
ROOT
ATOM      1  C   UNL A   1      31.575  28.591  27.540  1.00  0.00     0.002 C 
ENDROOT
BRANCH   1   2
ATOM      2  C   UNL A   1      32.883  29.173  27.003  1.00  0.00     0.002 C 
BRANCH   2   3
ATOM      3  C   UNL A   1      33.021  30.697  27.083  1.00  0.00     0.021 C 
BRANCH   3   4
ATOM      4  C   UNL A   1      34.370  31.200  27.594  1.00  0.00     0.116 C 
BRANCH   4   5
ATOM      5  N   UNL A   1      34.339  31.767  28.924  1.00  0.00    -0.352 N 
ATOM      6  O   UNL A   1      34.899  32.485  30.939  1.00  0.00    -0.269 OA
ATOM      7  C   UNL A   1      35.230  31.812  29.961  1.00  0.00     0.251 C 
ATOM      8  H   UNL A   1      33.488  32.218  29.129  1.00  0.00     0.163 HD
BRANCH   7   9
ATOM      9  C   UNL A   1      36.512  31.059  29.999  1.00  0.00     0.039 A 
ATOM     10  C   UNL A   1      36.630  29.669  30.011  1.00  0.00     0.014 A 
ATOM     11  C   UNL A   1      37.685  31.838  30.001  1.00  0.00     0.014 A 
ATOM     12  C   UNL A   1      37.881  29.067  30.105  1.00  0.00     0.010 A 
ATOM     13  C   UNL A   1      38.940  31.242  30.067  1.00  0.00     0.010 A 
ATOM     14  C   UNL A   1      39.034  29.854  30.142  1.00  0.00    -0.014 A 
BRANCH  14  15
ATOM     15  C   UNL A   1      40.324  29.173  30.049  1.00  0.00     0.031 A 
ATOM     16  C   UNL A   1      40.992  28.930  31.363  1.00  0.00     0.074 A 
ATOM     17  C   UNL A   1      40.814  28.648  28.907  1.00  0.00     0.049 A 
ATOM     18  N   UNL A   1      42.159  29.324  31.759  1.00  0.00    -0.248 NA
ATOM     19  C   UNL A   1      40.207  28.248  32.406  1.00  0.00     0.031 C 
ATOM     20  C   UNL A   1      40.127  28.531  27.619  1.00  0.00     0.029 A 
ATOM     21  N   UNL A   1      41.982  27.971  28.702  1.00  0.00    -0.354 N 
ATOM     22  C   UNL A   1      42.340  28.761  33.024  1.00  0.00     0.074 A 
ATOM     23  C   UNL A   1      41.059  28.251  33.431  1.00  0.00     0.031 C 
ATOM     24  C   UNL A   1      40.772  27.619  26.858  1.00  0.00     0.029 A 
ATOM     25  C   UNL A   1      41.973  27.189  27.551  1.00  0.00     0.049 A 
ATOM     26  H   UNL A   1      42.754  28.030  29.309  1.00  0.00     0.167 HD
ATOM     27  C   UNL A   1      43.576  28.560  33.558  1.00  0.00     0.034 A 
ATOM     28  C   UNL A   1      42.841  26.196  27.236  1.00  0.00     0.034 A 
ATOM     29  C   UNL A   1      44.581  29.345  32.893  1.00  0.00     0.049 A 
ATOM     30  C   UNL A   1      44.053  26.373  28.064  1.00  0.00     0.074 A 
ATOM     31  C   UNL A   1      44.796  30.690  32.682  1.00  0.00     0.029 A 
ATOM     32  N   UNL A   1      45.413  28.687  32.023  1.00  0.00    -0.354 N 
ATOM     33  N   UNL A   1      44.895  27.357  27.921  1.00  0.00    -0.248 NA
ATOM     34  C   UNL A   1      44.141  25.648  29.320  1.00  0.00     0.031 C 
ATOM     35  C   UNL A   1      45.378  30.769  31.385  1.00  0.00     0.029 A 
ATOM     36  C   UNL A   1      45.524  29.466  30.905  1.00  0.00     0.049 A 
ATOM     37  H   UNL A   1      45.849  27.818  32.175  1.00  0.00     0.167 HD
ATOM     38  C   UNL A   1      45.291  27.659  29.217  1.00  0.00     0.074 A 
ATOM     39  C   UNL A   1      44.897  26.501  30.014  1.00  0.00     0.031 C 
ATOM     40  C   UNL A   1      45.634  28.933  29.566  1.00  0.00     0.034 A 
BRANCH  27  41
ATOM     41  C   UNL A   1      43.954  27.400  34.454  1.00  0.00     0.023 A 
ATOM     42  C   UNL A   1      44.722  27.689  35.607  1.00  0.00     0.012 A 
ATOM     43  C   UNL A   1      43.845  26.039  34.086  1.00  0.00     0.148 A 
ATOM     44  C   UNL A   1      45.392  26.687  36.317  1.00  0.00     0.002 A 
ATOM     45  C   UNL A   1      44.444  25.038  34.844  1.00  0.00     0.091 A 
ATOM     46  F   UNL A   1      43.275  25.703  32.926  1.00  0.00    -0.205 F 
ATOM     47  C   UNL A   1      45.248  25.358  35.940  1.00  0.00     0.022 A 
BRANCH  45  48
ATOM     48  S   UNL A   1      44.240  23.300  34.434  1.00  0.00     0.127 S 
ATOM     49  O   UNL A   1      42.787  23.184  34.369  1.00  0.00    -0.237 OA
ATOM     50  O   UNL A   1      44.928  23.214  33.145  1.00  0.00    -0.237 OA
ATOM     51  O   UNL A   1      44.900  22.569  35.509  1.00  0.00    -0.744 OA
ENDBRANCH  45  48
ENDBRANCH  27  41
BRANCH  28  52
ATOM     52  C   UNL A   1      42.622  24.958  26.452  1.00  0.00     0.023 A 
ATOM     53  C   UNL A   1      43.532  24.605  25.434  1.00  0.00     0.012 A 
ATOM     54  C   UNL A   1      41.692  23.985  26.881  1.00  0.00     0.148 A 
ATOM     55  C   UNL A   1      43.536  23.318  24.885  1.00  0.00     0.002 A 
ATOM     56  C   UNL A   1      41.695  22.710  26.325  1.00  0.00     0.091 A 
ATOM     57  F   UNL A   1      40.873  24.279  27.900  1.00  0.00    -0.205 F 
ATOM     58  C   UNL A   1      42.624  22.368  25.334  1.00  0.00     0.022 A 
BRANCH  56  59
ATOM     59  S   UNL A   1      40.561  21.426  26.873  1.00  0.00     0.127 S 
ATOM     60  O   UNL A   1      41.070  20.250  26.168  1.00  0.00    -0.237 OA
ATOM     61  O   UNL A   1      40.787  21.420  28.316  1.00  0.00    -0.237 OA
ATOM     62  O   UNL A   1      39.237  21.856  26.440  1.00  0.00    -0.744 OA
ENDBRANCH  56  59
ENDBRANCH  28  52
BRANCH  40  63
ATOM     63  C   UNL A   1      45.861  29.939  28.466  1.00  0.00     0.023 A 
ATOM     64  C   UNL A   1      44.802  30.641  27.856  1.00  0.00     0.012 A 
ATOM     65  C   UNL A   1      47.184  30.313  28.171  1.00  0.00     0.148 A 
ATOM     66  C   UNL A   1      45.057  31.676  26.952  1.00  0.00     0.002 A 
ATOM     67  C   UNL A   1      47.432  31.377  27.314  1.00  0.00     0.091 A 
ATOM     68  F   UNL A   1      48.181  29.637  28.762  1.00  0.00    -0.205 F 
ATOM     69  C   UNL A   1      46.372  32.053  26.692  1.00  0.00     0.022 A 
BRANCH  67  70
ATOM     70  S   UNL A   1      49.096  31.998  27.059  1.00  0.00     0.127 S 
ATOM     71  O   UNL A   1      48.867  33.116  26.141  1.00  0.00    -0.237 OA
ATOM     72  O   UNL A   1      49.494  32.395  28.414  1.00  0.00    -0.237 OA
ATOM     73  O   UNL A   1      49.861  30.886  26.520  1.00  0.00    -0.744 OA
ENDBRANCH  67  70
ENDBRANCH  40  63
ENDBRANCH  14  15
ENDBRANCH   7   9
ENDBRANCH   4   5
ENDBRANCH   3   4
ENDBRANCH   2   3
ENDBRANCH   1   2
BRANCH   1  74
ATOM     74  C   UNL A   1      31.034  27.360  26.810  1.00  0.00     0.021 C 
BRANCH  74  75
ATOM     75  C   UNL A   1      32.052  26.296  26.407  1.00  0.00     0.116 C 
BRANCH  75  76
ATOM     76  N   UNL A   1      31.651  24.941  26.738  1.00  0.00    -0.356 N 
ATOM     77  C   UNL A   1      32.409  23.805  26.751  1.00  0.00     0.224 C 
ATOM     78  H   UNL A   1      30.705  24.824  26.985  1.00  0.00     0.163 HD
ATOM     79  O   UNL A   1      32.083  22.912  27.537  1.00  0.00    -0.275 OA
BRANCH  77  80
ATOM     80  C   UNL A   1      33.645  23.691  25.879  1.00  0.00     0.098 C 
ATOM     81  C   UNL A   1      33.511  23.397  24.362  1.00  0.00     0.098 C 
ATOM     82  C   UNL A   1      34.774  22.778  26.477  1.00  0.00     0.025 C 
ATOM     83  C   UNL A   1      34.760  22.591  23.883  1.00  0.00     0.025 C 
ATOM     84  C   UNL A   1      34.722  21.361  25.931  1.00  0.00    -0.027 C 
ATOM     85  C   UNL A   1      36.113  23.325  25.919  1.00  0.00     0.009 C 
ATOM     86  C   UNL A   1      34.756  21.263  24.592  1.00  0.00    -0.027 C 
ATOM     87  C   UNL A   1      36.046  23.326  24.367  1.00  0.00     0.009 C 
BRANCH  81  88
ATOM     88  C   UNL A   1      32.233  22.931  23.631  1.00  0.00     0.228 C 
ATOM     89  O   UNL A   1      32.012  21.705  23.635  1.00  0.00    -0.274 OA
ATOM     90  N   UNL A   1      31.194  23.668  23.155  1.00  0.00    -0.326 N 
ATOM     91  H   UNL A   1      30.458  23.124  22.792  1.00  0.00     0.169 HD
BRANCH  90  92
ATOM     92  C   UNL A   1      30.966  25.041  23.079  1.00  0.00     0.041 A 
ATOM     93  C   UNL A   1      29.741  25.542  23.517  1.00  0.00     0.026 A 
ATOM     94  C   UNL A   1      31.882  25.917  22.527  1.00  0.00     0.026 A 
ATOM     95  C   UNL A   1      29.559  26.923  23.645  1.00  0.00     0.008 A 
ATOM     96  C   UNL A   1      31.720  27.295  22.655  1.00  0.00     0.008 A 
ATOM     97  C   UNL A   1      30.586  27.807  23.289  1.00  0.00    -0.026 A 
BRANCH  97  98
ATOM     98  C   UNL A   1      30.494  29.280  23.588  1.00  0.00     0.181 C 
BRANCH  98  99
ATOM     99  N   UNL A   1      29.411  29.909  22.867  1.00  0.00    -0.249 N 
ATOM    100  C   UNL A   1      28.509  30.808  23.347  1.00  0.00     0.220 A 
ATOM    101  N   UNL A   1      29.235  29.704  21.548  1.00  0.00    -0.160 NA
ATOM    102  N   UNL A   1      27.708  31.185  22.378  1.00  0.00    -0.224 NA
ATOM    103  C   UNL A   1      28.172  30.474  21.306  1.00  0.00     0.246 A 
ENDBRANCH  98  99
ENDBRANCH  97  98
ENDBRANCH  90  92
ENDBRANCH  81  88
ENDBRANCH  77  80
ENDBRANCH  75  76
ENDBRANCH  74  75
ENDBRANCH   1  74
TORSDOF 20
ENDMDL
MODEL 2
REMARK VINA RESULT:     -12.8      3.486      9.109
REMARK SMILES O=C(NCCCCCCNC(=O)[C@@H]1[C@H](C(=O)Nc2ccc(Cn3cncn3)cc2)[C@@H]2C=C[C@H]1CC2)c1ccc(-c2c3nc(c(-c4cccc(S(=O)(=O)[O-])c4F)c4ccc([nH]4)c(-c4cccc(S(=O)(=O)[O-])c4F)c4nc(c(-c5cccc(S(=O)(=O)[O-])c5F)c5ccc2[nH]5)C=C4)C=C3)cc1
REMARK SMILES IDX 7 1 6 2 5 3 4 4 3 5 1 6 2 7 36 9 37 10 98 11 38 12 97 13
REMARK SMILES IDX 39 14 40 15 41 16 91 17 42 18 96 19 90 20 92 21 43 22 95 23
REMARK SMILES IDX 89 24 88 25 44 27 76 28 56 29 75 30 57 31 60 32 74 33 93 34
REMARK SMILES IDX 58 35 59 36 73 38 94 39 61 40 45 41 46 42 54 43 47 44 49 45
REMARK SMILES IDX 55 46 48 47 50 48 51 49 52 50 53 51 77 52 78 53 86 54 79 55
REMARK SMILES IDX 81 56 87 57 80 58 82 59 83 60 84 61 85 62 62 63 63 64 71 65
REMARK SMILES IDX 64 66 66 67 72 68 65 69 67 70 68 71 69 72 70 73 8 74 9 75
REMARK SMILES IDX 10 76 11 77 12 79 13 80 14 81 33 82 30 83 32 84 34 85 31 86
REMARK SMILES IDX 35 87 15 88 16 89 17 90 18 92 19 93 29 94 20 95 28 96 21 97
REMARK SMILES IDX 22 98 23 99 24 100 27 101 25 102 26 103
REMARK H PARENT 3 8 92 26 60 37 10 78 17 91
REMARK Flexibility Score: inf
ROOT
ATOM      1  C   UNL A   1      36.841  22.817  23.566  1.00  0.00     0.002 C 
ENDROOT
BRANCH   1   2
ATOM      2  C   UNL A   1      37.123  22.702  25.064  1.00  0.00     0.002 C 
BRANCH   2   3
ATOM      3  C   UNL A   1      38.226  21.716  25.464  1.00  0.00     0.021 C 
BRANCH   3   4
ATOM      4  C   UNL A   1      39.250  22.259  26.460  1.00  0.00     0.116 C 
BRANCH   4   5
ATOM      5  N   UNL A   1      40.612  22.280  25.974  1.00  0.00    -0.352 N 
ATOM      6  O   UNL A   1      42.757  22.735  25.689  1.00  0.00    -0.269 OA
ATOM      7  C   UNL A   1      41.697  23.078  26.215  1.00  0.00     0.251 C 
ATOM      8  H   UNL A   1      40.800  21.562  25.326  1.00  0.00     0.163 HD
BRANCH   7   9
ATOM      9  C   UNL A   1      41.653  24.340  27.000  1.00  0.00     0.039 A 
ATOM     10  C   UNL A   1      42.514  24.668  28.048  1.00  0.00     0.014 A 
ATOM     11  C   UNL A   1      40.668  25.271  26.618  1.00  0.00     0.014 A 
ATOM     12  C   UNL A   1      42.348  25.855  28.754  1.00  0.00     0.010 A 
ATOM     13  C   UNL A   1      40.514  26.472  27.303  1.00  0.00     0.010 A 
ATOM     14  C   UNL A   1      41.343  26.752  28.386  1.00  0.00    -0.014 A 
BRANCH  14  15
ATOM     15  C   UNL A   1      41.333  28.063  29.033  1.00  0.00     0.031 A 
ATOM     16  C   UNL A   1      42.340  29.027  28.495  1.00  0.00     0.074 A 
ATOM     17  C   UNL A   1      40.397  28.452  29.922  1.00  0.00     0.049 A 
ATOM     18  N   UNL A   1      43.289  29.638  29.129  1.00  0.00    -0.248 NA
ATOM     19  C   UNL A   1      42.353  29.253  27.040  1.00  0.00     0.031 C 
ATOM     20  C   UNL A   1      39.178  27.733  30.299  1.00  0.00     0.029 A 
ATOM     21  N   UNL A   1      40.266  29.649  30.567  1.00  0.00    -0.354 N 
ATOM     22  C   UNL A   1      43.884  30.485  28.192  1.00  0.00     0.074 A 
ATOM     23  C   UNL A   1      43.379  30.092  26.904  1.00  0.00     0.031 C 
ATOM     24  C   UNL A   1      38.324  28.596  30.891  1.00  0.00     0.029 A 
ATOM     25  C   UNL A   1      38.981  29.882  31.046  1.00  0.00     0.049 A 
ATOM     26  H   UNL A   1      41.008  30.285  30.681  1.00  0.00     0.167 HD
ATOM     27  C   UNL A   1      44.586  31.593  28.560  1.00  0.00     0.034 A 
ATOM     28  C   UNL A   1      38.468  31.069  31.455  1.00  0.00     0.034 A 
ATOM     29  C   UNL A   1      44.981  31.542  29.942  1.00  0.00     0.049 A 
ATOM     30  C   UNL A   1      39.598  31.975  31.748  1.00  0.00     0.074 A 
ATOM     31  C   UNL A   1      45.747  30.695  30.714  1.00  0.00     0.029 A 
ATOM     32  N   UNL A   1      44.278  32.325  30.821  1.00  0.00    -0.354 N 
ATOM     33  N   UNL A   1      40.418  31.816  32.748  1.00  0.00    -0.248 NA
ATOM     34  C   UNL A   1      40.053  32.871  30.699  1.00  0.00     0.031 C 
ATOM     35  C   UNL A   1      45.111  30.685  31.988  1.00  0.00     0.029 A 
ATOM     36  C   UNL A   1      44.025  31.560  31.927  1.00  0.00     0.049 A 
ATOM     37  H   UNL A   1      44.006  33.260  30.683  1.00  0.00     0.167 HD
ATOM     38  C   UNL A   1      41.650  32.213  32.247  1.00  0.00     0.074 A 
ATOM     39  C   UNL A   1      41.341  32.967  31.035  1.00  0.00     0.031 C 
ATOM     40  C   UNL A   1      42.807  31.649  32.700  1.00  0.00     0.034 A 
BRANCH  27  41
ATOM     41  C   UNL A   1      44.629  32.889  27.780  1.00  0.00     0.023 A 
ATOM     42  C   UNL A   1      45.790  33.152  27.014  1.00  0.00     0.012 A 
ATOM     43  C   UNL A   1      43.739  33.970  27.978  1.00  0.00     0.148 A 
ATOM     44  C   UNL A   1      46.077  34.431  26.525  1.00  0.00     0.002 A 
ATOM     45  C   UNL A   1      43.987  35.219  27.420  1.00  0.00     0.091 A 
ATOM     46  F   UNL A   1      42.710  33.843  28.820  1.00  0.00    -0.205 F 
ATOM     47  C   UNL A   1      45.171  35.466  26.722  1.00  0.00     0.022 A 
BRANCH  45  48
ATOM     48  S   UNL A   1      42.820  36.575  27.593  1.00  0.00     0.127 S 
ATOM     49  O   UNL A   1      43.506  37.645  26.876  1.00  0.00    -0.237 OA
ATOM     50  O   UNL A   1      41.636  36.038  26.922  1.00  0.00    -0.237 OA
ATOM     51  O   UNL A   1      42.654  36.762  29.029  1.00  0.00    -0.744 OA
ENDBRANCH  45  48
ENDBRANCH  27  41
BRANCH  28  52
ATOM     52  C   UNL A   1      37.077  31.575  31.386  1.00  0.00     0.023 A 
ATOM     53  C   UNL A   1      36.469  32.107  32.541  1.00  0.00     0.012 A 
ATOM     54  C   UNL A   1      36.448  31.795  30.140  1.00  0.00     0.148 A 
ATOM     55  C   UNL A   1      35.292  32.862  32.455  1.00  0.00     0.002 A 
ATOM     56  C   UNL A   1      35.274  32.537  30.062  1.00  0.00     0.091 A 
ATOM     57  F   UNL A   1      37.053  31.362  29.026  1.00  0.00    -0.205 F 
ATOM     58  C   UNL A   1      34.699  33.082  31.217  1.00  0.00     0.022 A 
BRANCH  56  59
ATOM     59  S   UNL A   1      34.465  32.882  28.493  1.00  0.00     0.127 S 
ATOM     60  O   UNL A   1      33.919  31.572  28.139  1.00  0.00    -0.237 OA
ATOM     61  O   UNL A   1      33.467  33.876  28.881  1.00  0.00    -0.237 OA
ATOM     62  O   UNL A   1      35.516  33.354  27.600  1.00  0.00    -0.744 OA
ENDBRANCH  56  59
ENDBRANCH  28  52
BRANCH  40  63
ATOM     63  C   UNL A   1      42.751  30.810  33.952  1.00  0.00     0.023 A 
ATOM     64  C   UNL A   1      42.821  31.375  35.242  1.00  0.00     0.012 A 
ATOM     65  C   UNL A   1      42.440  29.446  33.822  1.00  0.00     0.148 A 
ATOM     66  C   UNL A   1      42.610  30.589  36.378  1.00  0.00     0.002 A 
ATOM     67  C   UNL A   1      42.179  28.681  34.952  1.00  0.00     0.091 A 
ATOM     68  F   UNL A   1      42.374  28.924  32.588  1.00  0.00    -0.205 F 
ATOM     69  C   UNL A   1      42.275  29.246  36.232  1.00  0.00     0.022 A 
BRANCH  67  70
ATOM     70  S   UNL A   1      41.600  26.988  34.816  1.00  0.00     0.127 S 
ATOM     71  O   UNL A   1      42.773  26.309  34.260  1.00  0.00    -0.237 OA
ATOM     72  O   UNL A   1      41.303  26.644  36.210  1.00  0.00    -0.237 OA
ATOM     73  O   UNL A   1      40.430  27.032  33.955  1.00  0.00    -0.744 OA
ENDBRANCH  67  70
ENDBRANCH  40  63
ENDBRANCH  14  15
ENDBRANCH   7   9
ENDBRANCH   4   5
ENDBRANCH   3   4
ENDBRANCH   2   3
ENDBRANCH   1   2
BRANCH   1  74
ATOM     74  C   UNL A   1      35.389  23.091  23.171  1.00  0.00     0.021 C 
BRANCH  74  75
ATOM     75  C   UNL A   1      34.701  24.272  23.852  1.00  0.00     0.116 C 
BRANCH  75  76
ATOM     76  N   UNL A   1      33.882  25.073  22.961  1.00  0.00    -0.356 N 
ATOM     77  C   UNL A   1      33.446  26.356  23.124  1.00  0.00     0.224 C 
ATOM     78  H   UNL A   1      33.603  24.630  22.127  1.00  0.00     0.163 HD
ATOM     79  O   UNL A   1      33.255  27.026  22.106  1.00  0.00    -0.275 OA
BRANCH  77  80
ATOM     80  C   UNL A   1      33.280  26.945  24.511  1.00  0.00     0.098 C 
ATOM     81  C   UNL A   1      31.996  26.663  25.335  1.00  0.00     0.098 C 
ATOM     82  C   UNL A   1      33.621  28.475  24.608  1.00  0.00     0.025 C 
ATOM     83  C   UNL A   1      31.700  27.887  26.259  1.00  0.00     0.025 C 
ATOM     84  C   UNL A   1      32.384  29.351  24.500  1.00  0.00    -0.027 C 
ATOM     85  C   UNL A   1      34.104  28.718  26.061  1.00  0.00     0.009 C 
ATOM     86  C   UNL A   1      31.409  29.074  25.381  1.00  0.00    -0.027 C 
ATOM     87  C   UNL A   1      32.997  28.247  27.044  1.00  0.00     0.009 C 
BRANCH  81  88
ATOM     88  C   UNL A   1      30.688  26.038  24.802  1.00  0.00     0.228 C 
ATOM     89  O   UNL A   1      29.839  26.833  24.354  1.00  0.00    -0.274 OA
ATOM     90  N   UNL A   1      30.394  24.734  24.554  1.00  0.00    -0.326 N 
ATOM     91  H   UNL A   1      29.509  24.599  24.144  1.00  0.00     0.169 HD
BRANCH  90  92
ATOM     92  C   UNL A   1      31.097  23.549  24.766  1.00  0.00     0.041 A 
ATOM     93  C   UNL A   1      31.278  22.676  23.695  1.00  0.00     0.026 A 
ATOM     94  C   UNL A   1      31.568  23.177  26.012  1.00  0.00     0.026 A 
ATOM     95  C   UNL A   1      32.148  21.588  23.821  1.00  0.00     0.008 A 
ATOM     96  C   UNL A   1      32.443  22.102  26.153  1.00  0.00     0.008 A 
ATOM     97  C   UNL A   1      32.801  21.344  25.037  1.00  0.00    -0.026 A 
BRANCH  97  98
ATOM     98  C   UNL A   1      33.880  20.299  25.153  1.00  0.00     0.181 C 
BRANCH  98  99
ATOM     99  N   UNL A   1      33.363  18.966  24.945  1.00  0.00    -0.249 N 
ATOM    100  C   UNL A   1      33.634  18.125  23.909  1.00  0.00     0.220 A 
ATOM    101  N   UNL A   1      32.573  18.370  25.858  1.00  0.00    -0.160 NA
ATOM    102  N   UNL A   1      33.012  16.985  24.097  1.00  0.00    -0.224 NA
ATOM    103  C   UNL A   1      32.362  17.184  25.283  1.00  0.00     0.246 A 
ENDBRANCH  98  99
ENDBRANCH  97  98
ENDBRANCH  90  92
ENDBRANCH  81  88
ENDBRANCH  77  80
ENDBRANCH  75  76
ENDBRANCH  74  75
ENDBRANCH   1  74
TORSDOF 20
ENDMDL
MODEL 3
REMARK VINA RESULT:     -12.7      1.731      2.139
REMARK SMILES O=C(NCCCCCCNC(=O)[C@@H]1[C@H](C(=O)Nc2ccc(Cn3cncn3)cc2)[C@@H]2C=C[C@H]1CC2)c1ccc(-c2c3nc(c(-c4cccc(S(=O)(=O)[O-])c4F)c4ccc([nH]4)c(-c4cccc(S(=O)(=O)[O-])c4F)c4nc(c(-c5cccc(S(=O)(=O)[O-])c5F)c5ccc2[nH]5)C=C4)C=C3)cc1
REMARK SMILES IDX 7 1 6 2 5 3 4 4 3 5 1 6 2 7 36 9 37 10 98 11 38 12 97 13
REMARK SMILES IDX 39 14 40 15 41 16 91 17 42 18 96 19 90 20 92 21 43 22 95 23
REMARK SMILES IDX 89 24 88 25 44 27 76 28 56 29 75 30 57 31 60 32 74 33 93 34
REMARK SMILES IDX 58 35 59 36 73 38 94 39 61 40 45 41 46 42 54 43 47 44 49 45
REMARK SMILES IDX 55 46 48 47 50 48 51 49 52 50 53 51 77 52 78 53 86 54 79 55
REMARK SMILES IDX 81 56 87 57 80 58 82 59 83 60 84 61 85 62 62 63 63 64 71 65
REMARK SMILES IDX 64 66 66 67 72 68 65 69 67 70 68 71 69 72 70 73 8 74 9 75
REMARK SMILES IDX 10 76 11 77 12 79 13 80 14 81 33 82 30 83 32 84 34 85 31 86
REMARK SMILES IDX 35 87 15 88 16 89 17 90 18 92 19 93 29 94 20 95 28 96 21 97
REMARK SMILES IDX 22 98 23 99 24 100 27 101 25 102 26 103
REMARK H PARENT 3 8 92 26 60 37 10 78 17 91
REMARK Flexibility Score: inf
ROOT
ATOM      1  C   UNL A   1      33.346  29.267  27.400  1.00  0.00     0.002 C 
ENDROOT
BRANCH   1   2
ATOM      2  C   UNL A   1      33.641  30.758  27.238  1.00  0.00     0.002 C 
BRANCH   2   3
ATOM      3  C   UNL A   1      35.072  31.198  27.567  1.00  0.00     0.021 C 
BRANCH   3   4
ATOM      4  C   UNL A   1      35.189  32.555  28.259  1.00  0.00     0.116 C 
BRANCH   4   5
ATOM      5  N   UNL A   1      35.022  32.518  29.695  1.00  0.00    -0.352 N 
ATOM      6  O   UNL A   1      35.376  32.320  31.869  1.00  0.00    -0.269 OA
ATOM      7  C   UNL A   1      35.811  32.108  30.735  1.00  0.00     0.251 C 
ATOM      8  H   UNL A   1      34.147  32.862  29.988  1.00  0.00     0.163 HD
BRANCH   7   9
ATOM      9  C   UNL A   1      37.097  31.379  30.577  1.00  0.00     0.039 A 
ATOM     10  C   UNL A   1      38.364  31.961  30.627  1.00  0.00     0.014 A 
ATOM     11  C   UNL A   1      36.999  29.988  30.386  1.00  0.00     0.014 A 
ATOM     12  C   UNL A   1      39.503  31.193  30.409  1.00  0.00     0.010 A 
ATOM     13  C   UNL A   1      38.136  29.209  30.195  1.00  0.00     0.010 A 
ATOM     14  C   UNL A   1      39.388  29.819  30.186  1.00  0.00    -0.014 A 
BRANCH  14  15
ATOM     15  C   UNL A   1      40.618  29.030  30.153  1.00  0.00     0.031 A 
ATOM     16  C   UNL A   1      41.166  28.683  31.500  1.00  0.00     0.074 A 
ATOM     17  C   UNL A   1      41.141  28.504  29.027  1.00  0.00     0.049 A 
ATOM     18  N   UNL A   1      42.332  28.958  31.990  1.00  0.00    -0.248 NA
ATOM     19  C   UNL A   1      40.253  28.038  32.458  1.00  0.00     0.031 C 
ATOM     20  C   UNL A   1      40.541  28.493  27.691  1.00  0.00     0.029 A 
ATOM     21  N   UNL A   1      42.259  27.733  28.875  1.00  0.00    -0.354 N 
ATOM     22  C   UNL A   1      42.372  28.338  33.240  1.00  0.00     0.074 A 
ATOM     23  C   UNL A   1      41.026  27.929  33.538  1.00  0.00     0.031 C 
ATOM     24  C   UNL A   1      41.158  27.555  26.940  1.00  0.00     0.029 A 
ATOM     25  C   UNL A   1      42.265  26.995  27.695  1.00  0.00     0.049 A 
ATOM     26  H   UNL A   1      42.988  27.703  29.535  1.00  0.00     0.167 HD
ATOM     27  C   UNL A   1      43.545  28.009  33.848  1.00  0.00     0.034 A 
ATOM     28  C   UNL A   1      43.065  25.941  27.400  1.00  0.00     0.034 A 
ATOM     29  C   UNL A   1      44.659  28.725  33.287  1.00  0.00     0.049 A 
ATOM     30  C   UNL A   1      44.225  25.981  28.315  1.00  0.00     0.074 A 
ATOM     31  C   UNL A   1      45.003  30.052  33.146  1.00  0.00     0.029 A 
ATOM     32  N   UNL A   1      45.491  28.027  32.450  1.00  0.00    -0.354 N 
ATOM     33  N   UNL A   1      45.156  26.891  28.271  1.00  0.00    -0.248 NA
ATOM     34  C   UNL A   1      44.160  25.208  29.543  1.00  0.00     0.031 C 
ATOM     35  C   UNL A   1      45.681  30.125  31.896  1.00  0.00     0.029 A 
ATOM     36  C   UNL A   1      45.748  28.831  31.374  1.00  0.00     0.049 A 
ATOM     37  H   UNL A   1      45.839  27.118  32.596  1.00  0.00     0.167 HD
ATOM     38  C   UNL A   1      45.483  27.112  29.602  1.00  0.00     0.074 A 
ATOM     39  C   UNL A   1      44.935  25.966  30.322  1.00  0.00     0.031 C 
ATOM     40  C   UNL A   1      45.908  28.338  30.025  1.00  0.00     0.034 A 
BRANCH  27  41
ATOM     41  C   UNL A   1      43.756  26.790  34.720  1.00  0.00     0.023 A 
ATOM     42  C   UNL A   1      43.175  25.572  34.293  1.00  0.00     0.012 A 
ATOM     43  C   UNL A   1      44.239  26.833  36.049  1.00  0.00     0.148 A 
ATOM     44  C   UNL A   1      43.028  24.482  35.157  1.00  0.00     0.002 A 
ATOM     45  C   UNL A   1      44.166  25.719  36.878  1.00  0.00     0.091 A 
ATOM     46  F   UNL A   1      44.651  27.989  36.574  1.00  0.00    -0.205 F 
ATOM     47  C   UNL A   1      43.530  24.552  36.450  1.00  0.00     0.022 A 
BRANCH  45  48
ATOM     48  S   UNL A   1      44.853  25.736  38.538  1.00  0.00     0.127 S 
ATOM     49  O   UNL A   1      46.174  26.308  38.302  1.00  0.00    -0.237 OA
ATOM     50  O   UNL A   1      43.914  26.612  39.241  1.00  0.00    -0.237 OA
ATOM     51  O   UNL A   1      44.819  24.349  38.986  1.00  0.00    -0.744 OA
ENDBRANCH  45  48
ENDBRANCH  27  41
BRANCH  28  52
ATOM     52  C   UNL A   1      42.797  24.755  26.552  1.00  0.00     0.023 A 
ATOM     53  C   UNL A   1      43.699  24.414  25.524  1.00  0.00     0.012 A 
ATOM     54  C   UNL A   1      41.821  23.805  26.926  1.00  0.00     0.148 A 
ATOM     55  C   UNL A   1      43.650  23.157  24.909  1.00  0.00     0.002 A 
ATOM     56  C   UNL A   1      41.772  22.561  26.306  1.00  0.00     0.091 A 
ATOM     57  F   UNL A   1      41.008  24.084  27.953  1.00  0.00    -0.205 F 
ATOM     58  C   UNL A   1      42.692  22.228  25.304  1.00  0.00     0.022 A 
BRANCH  56  59
ATOM     59  S   UNL A   1      40.577  21.304  26.781  1.00  0.00     0.127 S 
ATOM     60  O   UNL A   1      40.791  21.211  28.225  1.00  0.00    -0.237 OA
ATOM     61  O   UNL A   1      39.315  21.925  26.388  1.00  0.00    -0.237 OA
ATOM     62  O   UNL A   1      40.950  20.103  26.043  1.00  0.00    -0.744 OA
ENDBRANCH  56  59
ENDBRANCH  28  52
BRANCH  40  63
ATOM     63  C   UNL A   1      46.299  29.357  28.986  1.00  0.00     0.023 A 
ATOM     64  C   UNL A   1      47.594  29.408  28.429  1.00  0.00     0.012 A 
ATOM     65  C   UNL A   1      45.289  30.161  28.431  1.00  0.00     0.148 A 
ATOM     66  C   UNL A   1      47.879  30.261  27.360  1.00  0.00     0.002 A 
ATOM     67  C   UNL A   1      45.563  30.968  27.335  1.00  0.00     0.091 A 
ATOM     68  F   UNL A   1      44.061  30.100  28.971  1.00  0.00    -0.205 F 
ATOM     69  C   UNL A   1      46.860  31.030  26.803  1.00  0.00     0.022 A 
BRANCH  67  70
ATOM     70  S   UNL A   1      44.259  31.864  26.489  1.00  0.00     0.127 S 
ATOM     71  O   UNL A   1      44.967  32.410  25.329  1.00  0.00    -0.237 OA
ATOM     72  O   UNL A   1      43.302  30.799  26.171  1.00  0.00    -0.237 OA
ATOM     73  O   UNL A   1      43.762  32.842  27.442  1.00  0.00    -0.744 OA
ENDBRANCH  67  70
ENDBRANCH  40  63
ENDBRANCH  14  15
ENDBRANCH   7   9
ENDBRANCH   4   5
ENDBRANCH   3   4
ENDBRANCH   2   3
ENDBRANCH   1   2
BRANCH   1  74
ATOM     74  C   UNL A   1      32.919  28.521  26.135  1.00  0.00     0.021 C 
BRANCH  74  75
ATOM     75  C   UNL A   1      33.614  27.191  25.853  1.00  0.00     0.116 C 
BRANCH  75  76
ATOM     76  N   UNL A   1      32.777  26.027  26.078  1.00  0.00    -0.356 N 
ATOM     77  C   UNL A   1      33.118  24.706  26.026  1.00  0.00     0.224 C 
ATOM     78  H   UNL A   1      31.835  26.216  26.296  1.00  0.00     0.163 HD
ATOM     79  O   UNL A   1      32.483  23.926  26.740  1.00  0.00    -0.275 OA
BRANCH  77  80
ATOM     80  C   UNL A   1      34.284  24.242  25.175  1.00  0.00     0.098 C 
ATOM     81  C   UNL A   1      34.034  23.485  23.845  1.00  0.00     0.098 C 
ATOM     82  C   UNL A   1      35.414  23.502  25.977  1.00  0.00     0.025 C 
ATOM     83  C   UNL A   1      35.212  22.492  23.589  1.00  0.00     0.025 C 
ATOM     84  C   UNL A   1      35.266  21.991  25.925  1.00  0.00    -0.027 C 
ATOM     85  C   UNL A   1      36.732  23.758  25.202  1.00  0.00     0.009 C 
ATOM     86  C   UNL A   1      35.203  21.466  24.691  1.00  0.00    -0.027 C 
ATOM     87  C   UNL A   1      36.557  23.263  23.739  1.00  0.00     0.009 C 
BRANCH  81  88
ATOM     88  C   UNL A   1      32.689  22.887  23.374  1.00  0.00     0.228 C 
ATOM     89  O   UNL A   1      32.573  21.650  23.466  1.00  0.00    -0.274 OA
ATOM     90  N   UNL A   1      31.527  23.520  23.061  1.00  0.00    -0.326 N 
ATOM     91  H   UNL A   1      30.785  22.905  22.858  1.00  0.00     0.169 HD
BRANCH  90  92
ATOM     92  C   UNL A   1      31.178  24.866  22.971  1.00  0.00     0.041 A 
ATOM     93  C   UNL A   1      30.146  25.346  23.776  1.00  0.00     0.026 A 
ATOM     94  C   UNL A   1      31.772  25.729  22.069  1.00  0.00     0.026 A 
ATOM     95  C   UNL A   1      29.910  26.722  23.860  1.00  0.00     0.008 A 
ATOM     96  C   UNL A   1      31.556  27.104  22.146  1.00  0.00     0.008 A 
ATOM     97  C   UNL A   1      30.675  27.618  23.101  1.00  0.00    -0.026 A 
BRANCH  97  98
ATOM     98  C   UNL A   1      30.576  29.106  23.306  1.00  0.00     0.181 C 
BRANCH  98  99
ATOM     99  N   UNL A   1      29.385  29.655  22.698  1.00  0.00    -0.249 N 
ATOM    100  C   UNL A   1      28.200  29.937  23.306  1.00  0.00     0.220 A 
ATOM    101  N   UNL A   1      29.368  30.031  21.405  1.00  0.00    -0.160 NA
ATOM    102  N   UNL A   1      27.376  30.466  22.433  1.00  0.00    -0.224 NA
ATOM    103  C   UNL A   1      28.118  30.486  21.286  1.00  0.00     0.246 A 
ENDBRANCH  98  99
ENDBRANCH  97  98
ENDBRANCH  90  92
ENDBRANCH  81  88
ENDBRANCH  77  80
ENDBRANCH  75  76
ENDBRANCH  74  75
ENDBRANCH   1  74
TORSDOF 20
ENDMDL
