MODEL 1
REMARK VINA RESULT:     -10.1      0.000      0.000
REMARK SMILES COc1cc(F)ccc1-c1ccc(=O)n(CC(=O)NCc2ccc(C(=O)NCCCCCCNC(=O)c3ccc(-c4c5nc(c(-c6cccc(S(=O)(=O)[O-])c6F)c6ccc([nH]6)c(-c6cccc(S(=O)(=O)[O-])c6F)c6nc(c(-c7cccc(S(=O)(=O)[O-])c7F)c7ccc4[nH]7)C=C6)C=C5)cc3)cc2)n1
REMARK SMILES IDX 29 1 28 2 27 3 25 4 26 5 24 7 21 8 22 9 101 10 23 11 100 12
REMARK SMILES IDX 20 13 19 14 17 15 18 16 16 18 15 19 10 20 11 21 102 22 12 23
REMARK SMILES IDX 13 24 14 25 9 26 3 27 4 28 5 29 8 30 6 31 7 32 2 33 1 34
REMARK SMILES IDX 30 35 31 36 32 37 33 38 34 39 35 40 36 42 37 43 38 44 99 45
REMARK SMILES IDX 39 46 98 47 40 48 41 49 42 50 92 51 43 52 97 53 91 54 93 55
REMARK SMILES IDX 44 56 96 57 90 58 89 59 45 61 77 62 57 63 76 64 58 65 61 66
REMARK SMILES IDX 75 67 94 68 59 69 60 70 74 72 95 73 62 74 46 75 47 76 55 77
REMARK SMILES IDX 48 78 50 79 56 80 49 81 51 82 52 83 53 84 54 85 78 86 79 87
REMARK SMILES IDX 87 88 80 89 82 90 88 91 81 92 83 93 84 94 85 95 86 96 63 97
REMARK SMILES IDX 64 98 72 99 65 100 67 101 73 102 66 103 68 104 69 105 70 106
REMARK SMILES IDX 71 107
REMARK H PARENT 27 6 19 17 34 41 93 60 61 71
REMARK Flexibility Score: inf
ROOT
ATOM      1  C   UNL A   1      37.626  23.106  25.490  1.00  0.00     0.021 C 
ENDROOT
BRANCH   1   2
ATOM      2  C   UNL A   1      37.153  22.203  24.356  1.00  0.00     0.116 C 
BRANCH   2   3
ATOM      3  N   UNL A   1      35.983  21.396  24.671  1.00  0.00    -0.352 N 
ATOM      4  C   UNL A   1      34.644  21.630  24.441  1.00  0.00     0.251 C 
ATOM      5  O   UNL A   1      33.815  20.807  24.825  1.00  0.00    -0.269 OA
ATOM      6  H   UNL A   1      36.181  20.545  25.124  1.00  0.00     0.163 HD
BRANCH   4   7
ATOM      7  C   UNL A   1      34.176  22.872  23.775  1.00  0.00     0.039 A 
ATOM      8  C   UNL A   1      33.535  25.277  22.446  1.00  0.00    -0.029 A 
ATOM      9  C   UNL A   1      34.072  25.308  23.737  1.00  0.00     0.006 A 
ATOM     10  C   UNL A   1      33.271  24.030  21.878  1.00  0.00     0.006 A 
ATOM     11  C   UNL A   1      34.396  24.111  24.395  1.00  0.00     0.014 A 
ATOM     12  C   UNL A   1      33.526  22.842  22.549  1.00  0.00     0.014 A 
BRANCH   8  13
ATOM     13  C   UNL A   1      33.289  26.522  21.631  1.00  0.00     0.151 C 
BRANCH  13  14
ATOM     14  N   UNL A   1      33.657  27.702  22.384  1.00  0.00    -0.350 N 
ATOM     15  C   UNL A   1      32.927  28.800  22.733  1.00  0.00     0.242 C 
ATOM     16  O   UNL A   1      33.450  29.567  23.549  1.00  0.00    -0.273 OA
ATOM     17  H   UNL A   1      34.590  27.713  22.696  1.00  0.00     0.163 HD
BRANCH  15  18
ATOM     18  C   UNL A   1      31.478  29.001  22.277  1.00  0.00     0.248 C 
BRANCH  18  19
ATOM     19  N   UNL A   1      30.508  28.101  22.888  1.00  0.00    -0.220 N 
ATOM     20  C   UNL A   1      30.144  26.318  24.279  1.00  0.00     0.095 A 
ATOM     21  C   UNL A   1      28.678  26.453  24.190  1.00  0.00     0.037 A 
ATOM     22  N   UNL A   1      31.007  27.083  23.683  1.00  0.00    -0.169 NA
ATOM     23  C   UNL A   1      28.222  27.456  23.438  1.00  0.00     0.075 A 
ATOM     24  C   UNL A   1      29.151  28.370  22.737  1.00  0.00     0.267 A 
ATOM     25  O   UNL A   1      28.688  29.270  22.044  1.00  0.00    -0.268 OA
BRANCH  20  26
ATOM     26  C   UNL A   1      30.626  25.174  25.072  1.00  0.00     0.044 A 
ATOM     27  C   UNL A   1      31.263  25.392  26.298  1.00  0.00     0.131 A 
ATOM     28  C   UNL A   1      31.747  24.302  27.020  1.00  0.00     0.086 A 
ATOM     29  C   UNL A   1      31.612  23.018  26.496  1.00  0.00     0.126 A 
ATOM     30  C   UNL A   1      30.491  23.880  24.550  1.00  0.00     0.017 A 
ATOM     31  F   UNL A   1      32.085  21.973  27.187  1.00  0.00    -0.207 F 
ATOM     32  C   UNL A   1      30.989  22.796  25.272  1.00  0.00     0.040 A 
BRANCH  27  33
ATOM     33  O   UNL A   1      31.307  26.672  26.780  1.00  0.00    -0.496 OA
ATOM     34  C   UNL A   1      32.600  27.265  26.693  1.00  0.00     0.278 C 
ENDBRANCH  27  33
ENDBRANCH  20  26
ENDBRANCH  18  19
ENDBRANCH  15  18
ENDBRANCH  13  14
ENDBRANCH   8  13
ENDBRANCH   4   7
ENDBRANCH   2   3
ENDBRANCH   1   2
BRANCH   1  35
ATOM     35  C   UNL A   1      38.856  22.651  26.273  1.00  0.00     0.002 C 
BRANCH  35  36
ATOM     36  C   UNL A   1      39.652  23.731  27.010  1.00  0.00     0.002 C 
BRANCH  36  37
ATOM     37  C   UNL A   1      41.163  23.747  26.787  1.00  0.00     0.021 C 
BRANCH  37  38
ATOM     38  C   UNL A   1      41.864  25.084  26.995  1.00  0.00     0.116 C 
BRANCH  38  39
ATOM     39  N   UNL A   1      42.958  25.323  26.071  1.00  0.00    -0.352 N 
ATOM     40  C   UNL A   1      43.808  26.408  25.988  1.00  0.00     0.251 C 
ATOM     41  H   UNL A   1      43.118  24.610  25.410  1.00  0.00     0.163 HD
ATOM     42  O   UNL A   1      44.628  26.476  25.082  1.00  0.00    -0.269 OA
BRANCH  40  43
ATOM     43  C   UNL A   1      43.680  27.512  26.970  1.00  0.00     0.039 A 
ATOM     44  C   UNL A   1      42.973  28.673  26.654  1.00  0.00     0.014 A 
ATOM     45  C   UNL A   1      44.324  27.397  28.205  1.00  0.00     0.014 A 
ATOM     46  C   UNL A   1      43.067  29.784  27.487  1.00  0.00     0.010 A 
ATOM     47  C   UNL A   1      44.344  28.489  29.081  1.00  0.00     0.010 A 
ATOM     48  C   UNL A   1      43.768  29.711  28.704  1.00  0.00    -0.014 A 
BRANCH  48  49
ATOM     49  C   UNL A   1      43.884  30.924  29.559  1.00  0.00     0.031 A 
ATOM     50  C   UNL A   1      45.044  31.874  29.405  1.00  0.00     0.074 A 
ATOM     51  C   UNL A   1      42.916  31.190  30.457  1.00  0.00     0.049 A 
ATOM     52  N   UNL A   1      45.279  32.993  30.043  1.00  0.00    -0.248 NA
ATOM     53  C   UNL A   1      46.078  31.525  28.416  1.00  0.00     0.031 C 
ATOM     54  C   UNL A   1      41.756  30.336  30.716  1.00  0.00     0.029 A 
ATOM     55  N   UNL A   1      42.745  32.252  31.310  1.00  0.00    -0.354 N 
ATOM     56  C   UNL A   1      46.497  33.461  29.564  1.00  0.00     0.074 A 
ATOM     57  C   UNL A   1      46.961  32.501  28.586  1.00  0.00     0.031 C 
ATOM     58  C   UNL A   1      40.976  30.922  31.637  1.00  0.00     0.029 A 
ATOM     59  C   UNL A   1      41.603  32.168  32.070  1.00  0.00     0.049 A 
ATOM     60  H   UNL A   1      43.380  33.001  31.372  1.00  0.00     0.167 HD
ATOM     61  C   UNL A   1      47.159  34.597  29.892  1.00  0.00     0.034 A 
ATOM     62  C   UNL A   1      41.110  32.994  33.015  1.00  0.00     0.034 A 
ATOM     63  C   UNL A   1      46.672  35.576  30.827  1.00  0.00     0.049 A 
ATOM     64  C   UNL A   1      41.849  34.261  33.337  1.00  0.00     0.074 A 
ATOM     65  C   UNL A   1      47.252  36.780  31.187  1.00  0.00     0.029 A 
ATOM     66  N   UNL A   1      45.492  35.471  31.547  1.00  0.00    -0.354 N 
ATOM     67  N   UNL A   1      42.949  34.731  32.799  1.00  0.00    -0.248 NA
ATOM     68  C   UNL A   1      41.271  35.125  34.375  1.00  0.00     0.031 C 
ATOM     69  C   UNL A   1      46.429  37.398  32.133  1.00  0.00     0.029 A 
ATOM     70  C   UNL A   1      45.328  36.587  32.349  1.00  0.00     0.049 A 
ATOM     71  H   UNL A   1      44.864  34.714  31.496  1.00  0.00     0.167 HD
ATOM     72  C   UNL A   1      43.182  35.953  33.416  1.00  0.00     0.074 A 
ATOM     73  C   UNL A   1      42.097  36.164  34.352  1.00  0.00     0.031 C 
ATOM     74  C   UNL A   1      44.215  36.812  33.237  1.00  0.00     0.034 A 
BRANCH  61  75
ATOM     75  C   UNL A   1      48.464  34.888  29.198  1.00  0.00     0.023 A 
ATOM     76  C   UNL A   1      49.675  34.533  29.827  1.00  0.00     0.012 A 
ATOM     77  C   UNL A   1      48.491  35.404  27.887  1.00  0.00     0.148 A 
ATOM     78  C   UNL A   1      50.892  34.700  29.169  1.00  0.00     0.002 A 
ATOM     79  C   UNL A   1      49.706  35.532  27.223  1.00  0.00     0.091 A 
ATOM     80  F   UNL A   1      47.331  35.753  27.313  1.00  0.00    -0.205 F 
ATOM     81  C   UNL A   1      50.907  35.187  27.864  1.00  0.00     0.022 A 
BRANCH  79  82
ATOM     82  S   UNL A   1      49.825  36.072  25.513  1.00  0.00     0.127 S 
ATOM     83  O   UNL A   1      49.092  35.014  24.819  1.00  0.00    -0.237 OA
ATOM     84  O   UNL A   1      49.141  37.365  25.548  1.00  0.00    -0.237 OA
ATOM     85  O   UNL A   1      51.248  36.145  25.215  1.00  0.00    -0.744 OA
ENDBRANCH  79  82
ENDBRANCH  61  75
BRANCH  62  86
ATOM     86  C   UNL A   1      39.812  32.662  33.665  1.00  0.00     0.023 A 
ATOM     87  C   UNL A   1      39.805  31.875  34.833  1.00  0.00     0.012 A 
ATOM     88  C   UNL A   1      38.599  33.194  33.188  1.00  0.00     0.148 A 
ATOM     89  C   UNL A   1      38.611  31.618  35.509  1.00  0.00     0.002 A 
ATOM     90  C   UNL A   1      37.423  32.986  33.900  1.00  0.00     0.091 A 
ATOM     91  F   UNL A   1      38.623  33.922  32.063  1.00  0.00    -0.205 F 
ATOM     92  C   UNL A   1      37.425  32.187  35.053  1.00  0.00     0.022 A 
BRANCH  90  93
ATOM     93  S   UNL A   1      35.886  33.813  33.472  1.00  0.00     0.127 S 
ATOM     94  O   UNL A   1      35.060  33.533  34.643  1.00  0.00    -0.237 OA
ATOM     95  O   UNL A   1      36.316  35.205  33.338  1.00  0.00    -0.237 OA
ATOM     96  O   UNL A   1      35.448  33.201  32.224  1.00  0.00    -0.744 OA
ENDBRANCH  90  93
ENDBRANCH  62  86
BRANCH  74  97
ATOM     97  C   UNL A   1      44.231  38.078  34.052  1.00  0.00     0.023 A 
ATOM     98  C   UNL A   1      44.898  38.095  35.292  1.00  0.00     0.012 A 
ATOM     99  C   UNL A   1      43.689  39.273  33.540  1.00  0.00     0.148 A 
ATOM    100  C   UNL A   1      45.010  39.279  36.020  1.00  0.00     0.002 A 
ATOM    101  C   UNL A   1      43.843  40.459  34.249  1.00  0.00     0.091 A 
ATOM    102  F   UNL A   1      43.042  39.231  32.365  1.00  0.00    -0.205 F 
ATOM    103  C   UNL A   1      44.496  40.462  35.492  1.00  0.00     0.022 A 
BRANCH 101 104
ATOM    104  S   UNL A   1      43.299  42.044  33.600  1.00  0.00     0.127 S 
ATOM    105  O   UNL A   1      41.846  41.912  33.672  1.00  0.00    -0.237 OA
ATOM    106  O   UNL A   1      43.875  42.988  34.558  1.00  0.00    -0.237 OA
ATOM    107  O   UNL A   1      43.855  42.136  32.257  1.00  0.00    -0.744 OA
ENDBRANCH 101 104
ENDBRANCH  74  97
ENDBRANCH  48  49
ENDBRANCH  40  43
ENDBRANCH  38  39
ENDBRANCH  37  38
ENDBRANCH  36  37
ENDBRANCH  35  36
ENDBRANCH   1  35
TORSDOF 22
ENDMDL
MODEL 2
REMARK VINA RESULT:     -10.0      5.392     10.166
REMARK SMILES COc1cc(F)ccc1-c1ccc(=O)n(CC(=O)NCc2ccc(C(=O)NCCCCCCNC(=O)c3ccc(-c4c5nc(c(-c6cccc(S(=O)(=O)[O-])c6F)c6ccc([nH]6)c(-c6cccc(S(=O)(=O)[O-])c6F)c6nc(c(-c7cccc(S(=O)(=O)[O-])c7F)c7ccc4[nH]7)C=C6)C=C5)cc3)cc2)n1
REMARK SMILES IDX 29 1 28 2 27 3 25 4 26 5 24 7 21 8 22 9 101 10 23 11 100 12
REMARK SMILES IDX 20 13 19 14 17 15 18 16 16 18 15 19 10 20 11 21 102 22 12 23
REMARK SMILES IDX 13 24 14 25 9 26 3 27 4 28 5 29 8 30 6 31 7 32 2 33 1 34
REMARK SMILES IDX 30 35 31 36 32 37 33 38 34 39 35 40 36 42 37 43 38 44 99 45
REMARK SMILES IDX 39 46 98 47 40 48 41 49 42 50 92 51 43 52 97 53 91 54 93 55
REMARK SMILES IDX 44 56 96 57 90 58 89 59 45 61 77 62 57 63 76 64 58 65 61 66
REMARK SMILES IDX 75 67 94 68 59 69 60 70 74 72 95 73 62 74 46 75 47 76 55 77
REMARK SMILES IDX 48 78 50 79 56 80 49 81 51 82 52 83 53 84 54 85 78 86 79 87
REMARK SMILES IDX 87 88 80 89 82 90 88 91 81 92 83 93 84 94 85 95 86 96 63 97
REMARK SMILES IDX 64 98 72 99 65 100 67 101 73 102 66 103 68 104 69 105 70 106
REMARK SMILES IDX 71 107
REMARK H PARENT 27 6 19 17 34 41 93 60 61 71
REMARK Flexibility Score: inf
ROOT
ATOM      1  C   UNL A   1      43.552  23.523  24.936  1.00  0.00     0.021 C 
ENDROOT
BRANCH   1   2
ATOM      2  C   UNL A   1      44.778  24.429  24.895  1.00  0.00     0.116 C 
BRANCH   2   3
ATOM      3  N   UNL A   1      45.829  24.070  25.837  1.00  0.00    -0.352 N 
ATOM      4  C   UNL A   1      46.706  24.862  26.546  1.00  0.00     0.251 C 
ATOM      5  O   UNL A   1      47.542  24.331  27.275  1.00  0.00    -0.269 OA
ATOM      6  H   UNL A   1      45.928  23.103  25.992  1.00  0.00     0.163 HD
BRANCH   4   7
ATOM      7  C   UNL A   1      46.693  26.342  26.420  1.00  0.00     0.039 A 
ATOM      8  C   UNL A   1      46.651  29.163  26.444  1.00  0.00    -0.029 A 
ATOM      9  C   UNL A   1      45.463  28.441  26.596  1.00  0.00     0.006 A 
ATOM     10  C   UNL A   1      47.826  28.447  26.217  1.00  0.00     0.006 A 
ATOM     11  C   UNL A   1      45.486  27.036  26.591  1.00  0.00     0.014 A 
ATOM     12  C   UNL A   1      47.847  27.061  26.143  1.00  0.00     0.014 A 
BRANCH   8  13
ATOM     13  C   UNL A   1      46.718  30.664  26.572  1.00  0.00     0.151 C 
BRANCH  13  14
ATOM     14  N   UNL A   1      45.651  31.286  25.820  1.00  0.00    -0.350 N 
ATOM     15  C   UNL A   1      45.160  32.558  25.854  1.00  0.00     0.242 C 
ATOM     16  O   UNL A   1      44.368  32.863  24.954  1.00  0.00    -0.273 OA
ATOM     17  H   UNL A   1      45.204  30.691  25.175  1.00  0.00     0.163 HD
BRANCH  15  18
ATOM     18  C   UNL A   1      45.674  33.610  26.843  1.00  0.00     0.248 C 
BRANCH  18  19
ATOM     19  N   UNL A   1      44.639  34.401  27.497  1.00  0.00    -0.220 N 
ATOM     20  C   UNL A   1      43.436  36.350  27.527  1.00  0.00     0.095 A 
ATOM     21  C   UNL A   1      42.569  35.884  28.626  1.00  0.00     0.037 A 
ATOM     22  N   UNL A   1      44.399  35.667  26.989  1.00  0.00    -0.169 NA
ATOM     23  C   UNL A   1      42.803  34.652  29.081  1.00  0.00     0.075 A 
ATOM     24  C   UNL A   1      43.881  33.816  28.506  1.00  0.00     0.267 A 
ATOM     25  O   UNL A   1      44.071  32.695  28.966  1.00  0.00    -0.268 OA
BRANCH  20  26
ATOM     26  C   UNL A   1      43.194  37.730  27.074  1.00  0.00     0.044 A 
ATOM     27  C   UNL A   1      44.259  38.632  26.981  1.00  0.00     0.131 A 
ATOM     28  C   UNL A   1      44.009  39.946  26.586  1.00  0.00     0.086 A 
ATOM     29  C   UNL A   1      42.702  40.345  26.317  1.00  0.00     0.126 A 
ATOM     30  C   UNL A   1      41.880  38.136  26.801  1.00  0.00     0.017 A 
ATOM     31  F   UNL A   1      42.463  41.609  25.947  1.00  0.00    -0.207 F 
ATOM     32  C   UNL A   1      41.637  39.455  26.419  1.00  0.00     0.040 A 
BRANCH  27  33
ATOM     33  O   UNL A   1      45.523  38.157  27.200  1.00  0.00    -0.496 OA
ATOM     34  C   UNL A   1      46.432  38.460  26.144  1.00  0.00     0.278 C 
ENDBRANCH  27  33
ENDBRANCH  20  26
ENDBRANCH  18  19
ENDBRANCH  15  18
ENDBRANCH  13  14
ENDBRANCH   8  13
ENDBRANCH   4   7
ENDBRANCH   2   3
ENDBRANCH   1   2
BRANCH   1  35
ATOM     35  C   UNL A   1      43.014  23.145  26.315  1.00  0.00     0.002 C 
BRANCH  35  36
ATOM     36  C   UNL A   1      42.673  21.672  26.551  1.00  0.00     0.002 C 
BRANCH  36  37
ATOM     37  C   UNL A   1      41.311  21.191  26.056  1.00  0.00     0.021 C 
BRANCH  37  38
ATOM     38  C   UNL A   1      40.098  21.648  26.858  1.00  0.00     0.116 C 
BRANCH  38  39
ATOM     39  N   UNL A   1      39.045  22.233  26.047  1.00  0.00    -0.352 N 
ATOM     40  C   UNL A   1      38.587  23.535  26.022  1.00  0.00     0.251 C 
ATOM     41  H   UNL A   1      38.596  21.615  25.427  1.00  0.00     0.163 HD
ATOM     42  O   UNL A   1      37.626  23.832  25.327  1.00  0.00    -0.269 OA
BRANCH  40  43
ATOM     43  C   UNL A   1      39.234  24.553  26.885  1.00  0.00     0.039 A 
ATOM     44  C   UNL A   1      38.963  24.609  28.254  1.00  0.00     0.014 A 
ATOM     45  C   UNL A   1      40.085  25.496  26.301  1.00  0.00     0.014 A 
ATOM     46  C   UNL A   1      39.387  25.709  28.995  1.00  0.00     0.010 A 
ATOM     47  C   UNL A   1      40.580  26.555  27.069  1.00  0.00     0.010 A 
ATOM     48  C   UNL A   1      40.187  26.704  28.408  1.00  0.00    -0.014 A 
BRANCH  48  49
ATOM     49  C   UNL A   1      40.595  27.888  29.212  1.00  0.00     0.031 A 
ATOM     50  C   UNL A   1      42.032  28.092  29.619  1.00  0.00     0.074 A 
ATOM     51  C   UNL A   1      39.667  28.806  29.548  1.00  0.00     0.049 A 
ATOM     52  N   UNL A   1      42.563  29.084  30.288  1.00  0.00    -0.248 NA
ATOM     53  C   UNL A   1      42.999  27.051  29.233  1.00  0.00     0.031 C 
ATOM     54  C   UNL A   1      38.242  28.709  29.235  1.00  0.00     0.029 A 
ATOM     55  N   UNL A   1      39.782  29.999  30.217  1.00  0.00    -0.354 N 
ATOM     56  C   UNL A   1      43.910  28.773  30.436  1.00  0.00     0.074 A 
ATOM     57  C   UNL A   1      44.117  27.492  29.795  1.00  0.00     0.031 C 
ATOM     58  C   UNL A   1      37.619  29.811  29.679  1.00  0.00     0.029 A 
ATOM     59  C   UNL A   1      38.589  30.670  30.351  1.00  0.00     0.049 A 
ATOM     60  H   UNL A   1      40.635  30.341  30.567  1.00  0.00     0.167 HD
ATOM     61  C   UNL A   1      44.888  29.495  31.033  1.00  0.00     0.034 A 
ATOM     62  C   UNL A   1      38.301  31.843  30.950  1.00  0.00     0.034 A 
ATOM     63  C   UNL A   1      44.690  30.791  31.625  1.00  0.00     0.049 A 
ATOM     64  C   UNL A   1      39.410  32.638  31.577  1.00  0.00     0.074 A 
ATOM     65  C   UNL A   1      45.633  31.619  32.211  1.00  0.00     0.029 A 
ATOM     66  N   UNL A   1      43.474  31.452  31.706  1.00  0.00    -0.354 N 
ATOM     67  N   UNL A   1      40.693  32.368  31.618  1.00  0.00    -0.248 NA
ATOM     68  C   UNL A   1      39.042  33.907  32.218  1.00  0.00     0.031 C 
ATOM     69  C   UNL A   1      44.986  32.775  32.656  1.00  0.00     0.029 A 
ATOM     70  C   UNL A   1      43.643  32.675  32.332  1.00  0.00     0.049 A 
ATOM     71  H   UNL A   1      42.618  31.103  31.368  1.00  0.00     0.167 HD
ATOM     72  C   UNL A   1      41.287  33.442  32.268  1.00  0.00     0.074 A 
ATOM     73  C   UNL A   1      40.228  34.380  32.582  1.00  0.00     0.031 C 
ATOM     74  C   UNL A   1      42.591  33.625  32.591  1.00  0.00     0.034 A 
BRANCH  61  75
ATOM     75  C   UNL A   1      46.287  28.938  31.032  1.00  0.00     0.023 A 
ATOM     76  C   UNL A   1      47.178  29.307  30.004  1.00  0.00     0.012 A 
ATOM     77  C   UNL A   1      46.754  28.145  32.100  1.00  0.00     0.148 A 
ATOM     78  C   UNL A   1      48.506  28.885  30.029  1.00  0.00     0.002 A 
ATOM     79  C   UNL A   1      48.090  27.761  32.138  1.00  0.00     0.091 A 
ATOM     80  F   UNL A   1      45.888  27.788  33.059  1.00  0.00    -0.205 F 
ATOM     81  C   UNL A   1      48.965  28.124  31.101  1.00  0.00     0.022 A 
BRANCH  79  82
ATOM     82  S   UNL A   1      48.799  26.848  33.515  1.00  0.00     0.127 S 
ATOM     83  O   UNL A   1      48.525  25.466  33.123  1.00  0.00    -0.237 OA
ATOM     84  O   UNL A   1      50.208  27.232  33.448  1.00  0.00    -0.237 OA
ATOM     85  O   UNL A   1      48.098  27.310  34.704  1.00  0.00    -0.744 OA
ENDBRANCH  79  82
ENDBRANCH  61  75
BRANCH  62  86
ATOM     86  C   UNL A   1      36.901  32.352  30.914  1.00  0.00     0.023 A 
ATOM     87  C   UNL A   1      36.134  32.348  32.095  1.00  0.00     0.012 A 
ATOM     88  C   UNL A   1      36.360  32.920  29.745  1.00  0.00     0.148 A 
ATOM     89  C   UNL A   1      34.850  32.894  32.110  1.00  0.00     0.002 A 
ATOM     90  C   UNL A   1      35.106  33.519  29.782  1.00  0.00     0.091 A 
ATOM     91  F   UNL A   1      37.097  32.895  28.626  1.00  0.00    -0.205 F 
ATOM     92  C   UNL A   1      34.344  33.494  30.960  1.00  0.00     0.022 A 
BRANCH  90  93
ATOM     93  S   UNL A   1      34.449  34.452  28.394  1.00  0.00     0.127 S 
ATOM     94  O   UNL A   1      35.151  33.845  27.266  1.00  0.00    -0.237 OA
ATOM     95  O   UNL A   1      33.021  34.146  28.470  1.00  0.00    -0.237 OA
ATOM     96  O   UNL A   1      34.777  35.845  28.671  1.00  0.00    -0.744 OA
ENDBRANCH  90  93
ENDBRANCH  62  86
BRANCH  74  97
ATOM     97  C   UNL A   1      42.968  34.890  33.313  1.00  0.00     0.023 A 
ATOM     98  C   UNL A   1      43.232  36.059  32.572  1.00  0.00     0.012 A 
ATOM     99  C   UNL A   1      42.949  34.952  34.720  1.00  0.00     0.148 A 
ATOM    100  C   UNL A   1      43.488  37.266  33.221  1.00  0.00     0.002 A 
ATOM    101  C   UNL A   1      43.161  36.168  35.360  1.00  0.00     0.091 A 
ATOM    102  F   UNL A   1      42.714  33.824  35.407  1.00  0.00    -0.205 F 
ATOM    103  C   UNL A   1      43.439  37.324  34.612  1.00  0.00     0.022 A 
BRANCH 101 104
ATOM    104  S   UNL A   1      43.019  36.354  37.142  1.00  0.00     0.127 S 
ATOM    105  O   UNL A   1      44.051  35.437  37.621  1.00  0.00    -0.237 OA
ATOM    106  O   UNL A   1      43.326  37.772  37.333  1.00  0.00    -0.237 OA
ATOM    107  O   UNL A   1      41.649  35.986  37.473  1.00  0.00    -0.744 OA
ENDBRANCH 101 104
ENDBRANCH  74  97
ENDBRANCH  48  49
ENDBRANCH  40  43
ENDBRANCH  38  39
ENDBRANCH  37  38
ENDBRANCH  36  37
ENDBRANCH  35  36
ENDBRANCH   1  35
TORSDOF 22
ENDMDL
MODEL 3
REMARK VINA RESULT:     -10.0      3.384      9.143
REMARK SMILES COc1cc(F)ccc1-c1ccc(=O)n(CC(=O)NCc2ccc(C(=O)NCCCCCCNC(=O)c3ccc(-c4c5nc(c(-c6cccc(S(=O)(=O)[O-])c6F)c6ccc([nH]6)c(-c6cccc(S(=O)(=O)[O-])c6F)c6nc(c(-c7cccc(S(=O)(=O)[O-])c7F)c7ccc4[nH]7)C=C6)C=C5)cc3)cc2)n1
REMARK SMILES IDX 29 1 28 2 27 3 25 4 26 5 24 7 21 8 22 9 101 10 23 11 100 12
REMARK SMILES IDX 20 13 19 14 17 15 18 16 16 18 15 19 10 20 11 21 102 22 12 23
REMARK SMILES IDX 13 24 14 25 9 26 3 27 4 28 5 29 8 30 6 31 7 32 2 33 1 34
REMARK SMILES IDX 30 35 31 36 32 37 33 38 34 39 35 40 36 42 37 43 38 44 99 45
REMARK SMILES IDX 39 46 98 47 40 48 41 49 42 50 92 51 43 52 97 53 91 54 93 55
REMARK SMILES IDX 44 56 96 57 90 58 89 59 45 61 77 62 57 63 76 64 58 65 61 66
REMARK SMILES IDX 75 67 94 68 59 69 60 70 74 72 95 73 62 74 46 75 47 76 55 77
REMARK SMILES IDX 48 78 50 79 56 80 49 81 51 82 52 83 53 84 54 85 78 86 79 87
REMARK SMILES IDX 87 88 80 89 82 90 88 91 81 92 83 93 84 94 85 95 86 96 63 97
REMARK SMILES IDX 64 98 72 99 65 100 67 101 73 102 66 103 68 104 69 105 70 106
REMARK SMILES IDX 71 107
REMARK H PARENT 27 6 19 17 34 41 93 60 61 71
REMARK Flexibility Score: inf
ROOT
ATOM      1  C   UNL A   1      35.186  33.496  32.695  1.00  0.00     0.021 C 
ENDROOT
BRANCH   1   2
ATOM      2  C   UNL A   1      34.953  34.047  31.293  1.00  0.00     0.116 C 
BRANCH   2   3
ATOM      3  N   UNL A   1      36.153  34.146  30.474  1.00  0.00    -0.352 N 
ATOM      4  C   UNL A   1      36.524  33.458  29.340  1.00  0.00     0.251 C 
ATOM      5  O   UNL A   1      37.614  33.692  28.822  1.00  0.00    -0.269 OA
ATOM      6  H   UNL A   1      36.806  34.815  30.783  1.00  0.00     0.163 HD
BRANCH   4   7
ATOM      7  C   UNL A   1      35.654  32.409  28.748  1.00  0.00     0.039 A 
ATOM      8  C   UNL A   1      34.080  30.502  27.389  1.00  0.00    -0.029 A 
ATOM      9  C   UNL A   1      33.641  31.825  27.501  1.00  0.00     0.006 A 
ATOM     10  C   UNL A   1      35.273  30.154  28.022  1.00  0.00     0.006 A 
ATOM     11  C   UNL A   1      34.428  32.775  28.173  1.00  0.00     0.014 A 
ATOM     12  C   UNL A   1      36.024  31.071  28.744  1.00  0.00     0.014 A 
BRANCH   8  13
ATOM     13  C   UNL A   1      33.352  29.465  26.570  1.00  0.00     0.151 C 
BRANCH  13  14
ATOM     14  N   UNL A   1      34.002  29.282  25.291  1.00  0.00    -0.350 N 
ATOM     15  C   UNL A   1      33.775  28.376  24.297  1.00  0.00     0.242 C 
ATOM     16  O   UNL A   1      34.359  28.580  23.227  1.00  0.00    -0.273 OA
ATOM     17  H   UNL A   1      34.730  29.919  25.106  1.00  0.00     0.163 HD
BRANCH  15  18
ATOM     18  C   UNL A   1      32.735  27.258  24.429  1.00  0.00     0.248 C 
BRANCH  18  19
ATOM     19  N   UNL A   1      32.973  26.090  23.589  1.00  0.00    -0.220 N 
ATOM     20  C   UNL A   1      33.938  24.022  23.396  1.00  0.00     0.095 A 
ATOM     21  C   UNL A   1      33.331  23.781  22.073  1.00  0.00     0.037 A 
ATOM     22  N   UNL A   1      33.775  25.091  24.114  1.00  0.00    -0.169 NA
ATOM     23  C   UNL A   1      32.543  24.748  21.601  1.00  0.00     0.075 A 
ATOM     24  C   UNL A   1      32.307  25.989  22.372  1.00  0.00     0.267 A 
ATOM     25  O   UNL A   1      31.588  26.858  21.892  1.00  0.00    -0.268 OA
BRANCH  20  26
ATOM     26  C   UNL A   1      34.844  22.965  23.877  1.00  0.00     0.044 A 
ATOM     27  C   UNL A   1      34.359  21.958  24.718  1.00  0.00     0.131 A 
ATOM     28  C   UNL A   1      35.237  20.985  25.195  1.00  0.00     0.086 A 
ATOM     29  C   UNL A   1      36.585  21.048  24.849  1.00  0.00     0.126 A 
ATOM     30  C   UNL A   1      36.201  23.023  23.531  1.00  0.00     0.017 A 
ATOM     31  F   UNL A   1      37.427  20.118  25.316  1.00  0.00    -0.207 F 
ATOM     32  C   UNL A   1      37.075  22.054  24.022  1.00  0.00     0.040 A 
BRANCH  27  33
ATOM     33  O   UNL A   1      33.014  21.921  24.967  1.00  0.00    -0.496 OA
ATOM     34  C   UNL A   1      32.376  20.754  24.455  1.00  0.00     0.278 C 
ENDBRANCH  27  33
ENDBRANCH  20  26
ENDBRANCH  18  19
ENDBRANCH  15  18
ENDBRANCH  13  14
ENDBRANCH   8  13
ENDBRANCH   4   7
ENDBRANCH   2   3
ENDBRANCH   1   2
BRANCH   1  35
ATOM     35  C   UNL A   1      35.701  34.474  33.750  1.00  0.00     0.002 C 
BRANCH  35  36
ATOM     36  C   UNL A   1      37.219  34.639  33.864  1.00  0.00     0.002 C 
BRANCH  36  37
ATOM     37  C   UNL A   1      38.076  33.446  33.448  1.00  0.00     0.021 C 
BRANCH  37  38
ATOM     38  C   UNL A   1      38.070  32.246  34.388  1.00  0.00     0.116 C 
BRANCH  38  39
ATOM     39  N   UNL A   1      37.337  31.103  33.874  1.00  0.00    -0.352 N 
ATOM     40  C   UNL A   1      37.639  30.282  32.806  1.00  0.00     0.251 C 
ATOM     41  H   UNL A   1      36.508  30.880  34.356  1.00  0.00     0.163 HD
ATOM     42  O   UNL A   1      36.855  29.409  32.463  1.00  0.00    -0.269 OA
BRANCH  40  43
ATOM     43  C   UNL A   1      38.894  30.505  32.046  1.00  0.00     0.039 A 
ATOM     44  C   UNL A   1      40.133  30.481  32.688  1.00  0.00     0.014 A 
ATOM     45  C   UNL A   1      38.817  30.793  30.681  1.00  0.00     0.014 A 
ATOM     46  C   UNL A   1      41.267  30.926  32.013  1.00  0.00     0.010 A 
ATOM     47  C   UNL A   1      39.974  31.158  29.982  1.00  0.00     0.010 A 
ATOM     48  C   UNL A   1      41.198  31.286  30.656  1.00  0.00    -0.014 A 
BRANCH  48  49
ATOM     49  C   UNL A   1      42.416  31.794  29.968  1.00  0.00     0.031 A 
ATOM     50  C   UNL A   1      42.607  33.267  29.713  1.00  0.00     0.074 A 
ATOM     51  C   UNL A   1      43.375  30.921  29.601  1.00  0.00     0.049 A 
ATOM     52  N   UNL A   1      43.623  33.880  29.160  1.00  0.00    -0.248 NA
ATOM     53  C   UNL A   1      41.520  34.171  30.125  1.00  0.00     0.031 C 
ATOM     54  C   UNL A   1      43.297  29.470  29.771  1.00  0.00     0.029 A 
ATOM     55  N   UNL A   1      44.603  31.124  29.021  1.00  0.00    -0.354 N 
ATOM     56  C   UNL A   1      43.286  35.228  29.122  1.00  0.00     0.074 A 
ATOM     57  C   UNL A   1      41.965  35.347  29.700  1.00  0.00     0.031 C 
ATOM     58  C   UNL A   1      44.439  28.915  29.338  1.00  0.00     0.029 A 
ATOM     59  C   UNL A   1      45.311  29.963  28.815  1.00  0.00     0.049 A 
ATOM     60  H   UNL A   1      44.943  32.014  28.775  1.00  0.00     0.167 HD
ATOM     61  C   UNL A   1      44.017  36.274  28.667  1.00  0.00     0.034 A 
ATOM     62  C   UNL A   1      46.524  29.757  28.264  1.00  0.00     0.034 A 
ATOM     63  C   UNL A   1      45.350  36.160  28.138  1.00  0.00     0.049 A 
ATOM     64  C   UNL A   1      47.325  30.938  27.796  1.00  0.00     0.074 A 
ATOM     65  C   UNL A   1      46.186  37.171  27.696  1.00  0.00     0.029 A 
ATOM     66  N   UNL A   1      46.046  34.971  27.982  1.00  0.00    -0.354 N 
ATOM     67  N   UNL A   1      47.026  32.213  27.861  1.00  0.00    -0.248 NA
ATOM     68  C   UNL A   1      48.640  30.658  27.201  1.00  0.00     0.031 C 
ATOM     69  C   UNL A   1      47.383  36.593  27.263  1.00  0.00     0.029 A 
ATOM     70  C   UNL A   1      47.299  35.224  27.451  1.00  0.00     0.049 A 
ATOM     71  H   UNL A   1      45.700  34.079  28.215  1.00  0.00     0.167 HD
ATOM     72  C   UNL A   1      48.121  32.888  27.337  1.00  0.00     0.074 A 
ATOM     73  C   UNL A   1      49.102  31.884  26.981  1.00  0.00     0.031 C 
ATOM     74  C   UNL A   1      48.289  34.221  27.151  1.00  0.00     0.034 A 
BRANCH  61  75
ATOM     75  C   UNL A   1      43.425  37.655  28.766  1.00  0.00     0.023 A 
ATOM     76  C   UNL A   1      42.566  38.113  27.746  1.00  0.00     0.012 A 
ATOM     77  C   UNL A   1      43.624  38.451  29.912  1.00  0.00     0.148 A 
ATOM     78  C   UNL A   1      41.926  39.347  27.857  1.00  0.00     0.002 A 
ATOM     79  C   UNL A   1      42.952  39.662  30.033  1.00  0.00     0.091 A 
ATOM     80  F   UNL A   1      44.458  38.007  30.863  1.00  0.00    -0.205 F 
ATOM     81  C   UNL A   1      42.109  40.114  29.004  1.00  0.00     0.022 A 
BRANCH  79  82
ATOM     82  S   UNL A   1      43.056  40.687  31.506  1.00  0.00     0.127 S 
ATOM     83  O   UNL A   1      44.440  41.152  31.443  1.00  0.00    -0.237 OA
ATOM     84  O   UNL A   1      42.054  41.718  31.237  1.00  0.00    -0.237 OA
ATOM     85  O   UNL A   1      42.741  39.811  32.626  1.00  0.00    -0.744 OA
ENDBRANCH  79  82
ENDBRANCH  61  75
BRANCH  62  86
ATOM     86  C   UNL A   1      47.065  28.371  28.197  1.00  0.00     0.023 A 
ATOM     87  C   UNL A   1      47.866  27.890  29.250  1.00  0.00     0.012 A 
ATOM     88  C   UNL A   1      46.718  27.502  27.145  1.00  0.00     0.148 A 
ATOM     89  C   UNL A   1      48.319  26.570  29.253  1.00  0.00     0.002 A 
ATOM     90  C   UNL A   1      47.119  26.172  27.184  1.00  0.00     0.091 A 
ATOM     91  F   UNL A   1      45.973  27.985  26.141  1.00  0.00    -0.205 F 
ATOM     92  C   UNL A   1      47.932  25.707  28.231  1.00  0.00     0.022 A 
BRANCH  90  93
ATOM     93  S   UNL A   1      46.533  24.959  25.996  1.00  0.00     0.127 S 
ATOM     94  O   UNL A   1      47.289  23.771  26.382  1.00  0.00    -0.237 OA
ATOM     95  O   UNL A   1      45.102  24.905  26.296  1.00  0.00    -0.237 OA
ATOM     96  O   UNL A   1      46.846  25.514  24.685  1.00  0.00    -0.744 OA
ENDBRANCH  90  93
ENDBRANCH  62  86
BRANCH  74  97
ATOM     97  C   UNL A   1      49.584  34.691  26.547  1.00  0.00     0.023 A 
ATOM     98  C   UNL A   1      49.652  34.948  25.164  1.00  0.00     0.012 A 
ATOM     99  C   UNL A   1      50.695  34.989  27.362  1.00  0.00     0.148 A 
ATOM    100  C   UNL A   1      50.811  35.478  24.597  1.00  0.00     0.002 A 
ATOM    101  C   UNL A   1      51.831  35.558  26.798  1.00  0.00     0.091 A 
ATOM    102  F   UNL A   1      50.616  34.720  28.674  1.00  0.00    -0.205 F 
ATOM    103  C   UNL A   1      51.893  35.795  25.415  1.00  0.00     0.022 A 
BRANCH 101 104
ATOM    104  S   UNL A   1      53.232  36.089  27.789  1.00  0.00     0.127 S 
ATOM    105  O   UNL A   1      54.108  36.675  26.777  1.00  0.00    -0.237 OA
ATOM    106  O   UNL A   1      52.621  37.056  28.702  1.00  0.00    -0.237 OA
ATOM    107  O   UNL A   1      53.739  34.888  28.438  1.00  0.00    -0.744 OA
ENDBRANCH 101 104
ENDBRANCH  74  97
ENDBRANCH  48  49
ENDBRANCH  40  43
ENDBRANCH  38  39
ENDBRANCH  37  38
ENDBRANCH  36  37
ENDBRANCH  35  36
ENDBRANCH   1  35
TORSDOF 22
ENDMDL
