MODEL 1
REMARK VINA RESULT:     -11.4      0.000      0.000
REMARK SMILES CC[C@@H](C(=O)NCCCCCCNC(=O)c1ccc(-c2c3nc(c(-c4cccc(S(=O)(=O)[O-])c4F)c4ccc([nH]4)c(-c4cccc(S(=O)(=O)[O-])c4F)c4nc(c(-c5cccc(S(=O)(=O)[O-])c5F)c5ccc2[nH]5)C=C4)C=C3)cc1)N1C(=O)/C(=C/C(C)=C/c2ccccc2)SC1=S
REMARK SMILES IDX 9 1 8 2 7 3 6 4 4 5 5 6 3 8 2 9 1 10 79 11 80 12 94 13 81 14
REMARK SMILES IDX 82 15 93 16 95 17 83 18 84 19 85 20 86 21 87 22 88 23 92 24
REMARK SMILES IDX 89 25 91 26 90 27 10 28 11 29 12 30 13 31 14 32 15 34 16 35
REMARK SMILES IDX 17 36 78 37 18 38 77 39 19 40 20 41 21 42 71 43 22 44 76 45
REMARK SMILES IDX 70 46 72 47 23 48 75 49 69 50 68 51 24 53 56 54 36 55 55 56
REMARK SMILES IDX 37 57 40 58 54 59 73 60 38 61 39 62 53 64 74 65 41 66 25 67
REMARK SMILES IDX 26 68 34 69 27 70 29 71 35 72 28 73 30 74 31 75 32 76 33 77
REMARK SMILES IDX 57 78 58 79 66 80 59 81 61 82 67 83 60 84 62 85 63 86 64 87
REMARK SMILES IDX 65 88 42 89 43 90 51 91 44 92 46 93 52 94 45 95 47 96 48 97
REMARK SMILES IDX 49 98 50 99
REMARK H PARENT 6 7 13 33 72 52 40 63
REMARK Flexibility Score: inf
ROOT
ATOM      1  C   UNL A   1      29.639  31.446  24.508  1.00  0.00     0.002 C 
ENDROOT
BRANCH   1   2
ATOM      2  C   UNL A   1      29.740  31.008  23.047  1.00  0.00     0.021 C 
BRANCH   2   3
ATOM      3  C   UNL A   1      29.731  29.490  22.862  1.00  0.00     0.116 C 
BRANCH   3   4
ATOM      4  N   UNL A   1      30.976  28.940  23.364  1.00  0.00    -0.354 N 
ATOM      5  C   UNL A   1      31.260  27.682  23.812  1.00  0.00     0.243 C 
ATOM      6  O   UNL A   1      32.337  27.515  24.393  1.00  0.00    -0.273 OA
ATOM      7  H   UNL A   1      31.732  29.570  23.384  1.00  0.00     0.163 HD
BRANCH   5   8
ATOM      8  C   UNL A   1      30.293  26.512  23.520  1.00  0.00     0.181 C 
BRANCH   8   9
ATOM      9  C   UNL A   1      29.055  26.494  24.440  1.00  0.00     0.032 C 
ATOM     10  C   UNL A   1      27.703  26.689  23.780  1.00  0.00     0.006 C 
ENDBRANCH   8   9
BRANCH   8  11
ATOM     11  N   UNL A   1      31.130  25.277  23.624  1.00  0.00    -0.280 N 
ATOM     12  C   UNL A   1      31.134  24.502  24.776  1.00  0.00     0.266 C 
ATOM     13  C   UNL A   1      32.041  24.903  22.655  1.00  0.00     0.149 C 
ATOM     14  O   UNL A   1      30.515  24.700  25.808  1.00  0.00    -0.268 OA
ATOM     15  C   UNL A   1      32.008  23.304  24.607  1.00  0.00     0.080 C 
ATOM     16  S   UNL A   1      32.857  23.420  23.129  1.00  0.00    -0.054 SA
ATOM     17  S   UNL A   1      32.400  25.659  21.209  1.00  0.00    -0.052 S 
ATOM     18  C   UNL A   1      31.992  22.345  25.545  1.00  0.00     0.024 C 
BRANCH  18  19
ATOM     19  C   UNL A   1      32.700  21.069  25.681  1.00  0.00    -0.049 C 
ATOM     20  C   UNL A   1      33.807  21.086  26.715  1.00  0.00     0.044 C 
ATOM     21  C   UNL A   1      32.482  20.009  24.878  1.00  0.00     0.011 C 
BRANCH  21  22
ATOM     22  C   UNL A   1      33.145  18.697  24.882  1.00  0.00    -0.025 A 
ATOM     23  C   UNL A   1      32.563  17.680  25.651  1.00  0.00     0.008 A 
ATOM     24  C   UNL A   1      34.373  18.457  24.258  1.00  0.00     0.008 A 
ATOM     25  C   UNL A   1      33.187  16.439  25.780  1.00  0.00     0.001 A 
ATOM     26  C   UNL A   1      34.994  17.210  24.379  1.00  0.00     0.001 A 
ATOM     27  C   UNL A   1      34.401  16.203  25.141  1.00  0.00     0.000 A 
ENDBRANCH  21  22
ENDBRANCH  18  19
ENDBRANCH   8  11
ENDBRANCH   5   8
ENDBRANCH   3   4
ENDBRANCH   2   3
ENDBRANCH   1   2
BRANCH   1  28
ATOM     28  C   UNL A   1      30.866  31.109  25.358  1.00  0.00     0.002 C 
BRANCH  28  29
ATOM     29  C   UNL A   1      31.055  31.982  26.603  1.00  0.00     0.021 C 
BRANCH  29  30
ATOM     30  C   UNL A   1      32.492  32.418  26.869  1.00  0.00     0.116 C 
BRANCH  30  31
ATOM     31  N   UNL A   1      32.562  33.789  27.348  1.00  0.00    -0.352 N 
ATOM     32  C   UNL A   1      33.363  34.332  28.321  1.00  0.00     0.251 C 
ATOM     33  H   UNL A   1      31.945  34.421  26.911  1.00  0.00     0.163 HD
ATOM     34  O   UNL A   1      33.126  35.457  28.752  1.00  0.00    -0.269 OA
BRANCH  32  35
ATOM     35  C   UNL A   1      34.502  33.557  28.854  1.00  0.00     0.039 A 
ATOM     36  C   UNL A   1      35.801  33.942  28.514  1.00  0.00     0.014 A 
ATOM     37  C   UNL A   1      34.290  32.446  29.677  1.00  0.00     0.014 A 
ATOM     38  C   UNL A   1      36.888  33.245  29.043  1.00  0.00     0.010 A 
ATOM     39  C   UNL A   1      35.376  31.798  30.260  1.00  0.00     0.010 A 
ATOM     40  C   UNL A   1      36.687  32.186  29.944  1.00  0.00    -0.014 A 
BRANCH  40  41
ATOM     41  C   UNL A   1      37.837  31.494  30.580  1.00  0.00     0.031 A 
ATOM     42  C   UNL A   1      38.259  31.837  31.983  1.00  0.00     0.074 A 
ATOM     43  C   UNL A   1      38.550  30.603  29.861  1.00  0.00     0.049 A 
ATOM     44  N   UNL A   1      39.247  31.350  32.687  1.00  0.00    -0.248 NA
ATOM     45  C   UNL A   1      37.486  32.879  32.678  1.00  0.00     0.031 C 
ATOM     46  C   UNL A   1      38.293  30.247  28.464  1.00  0.00     0.029 A 
ATOM     47  N   UNL A   1      39.648  29.853  30.197  1.00  0.00    -0.354 N 
ATOM     48  C   UNL A   1      39.236  32.044  33.892  1.00  0.00     0.074 A 
ATOM     49  C   UNL A   1      38.164  33.011  33.810  1.00  0.00     0.031 C 
ATOM     50  C   UNL A   1      39.201  29.342  28.065  1.00  0.00     0.029 A 
ATOM     51  C   UNL A   1      40.122  29.076  29.166  1.00  0.00     0.049 A 
ATOM     52  H   UNL A   1      40.060  29.869  31.091  1.00  0.00     0.167 HD
ATOM     53  C   UNL A   1      40.026  31.872  34.978  1.00  0.00     0.034 A 
ATOM     54  C   UNL A   1      41.181  28.245  29.109  1.00  0.00     0.034 A 
ATOM     55  C   UNL A   1      41.069  30.885  35.067  1.00  0.00     0.049 A 
ATOM     56  C   UNL A   1      42.020  28.047  30.341  1.00  0.00     0.074 A 
ATOM     57  C   UNL A   1      41.866  30.572  36.155  1.00  0.00     0.029 A 
ATOM     58  N   UNL A   1      41.471  30.060  34.029  1.00  0.00    -0.354 N 
ATOM     59  N   UNL A   1      41.888  28.592  31.527  1.00  0.00    -0.248 NA
ATOM     60  C   UNL A   1      43.133  27.091  30.241  1.00  0.00     0.031 C 
ATOM     61  C   UNL A   1      42.770  29.579  35.764  1.00  0.00     0.029 A 
ATOM     62  C   UNL A   1      42.514  29.249  34.443  1.00  0.00     0.049 A 
ATOM     63  H   UNL A   1      41.074  30.054  33.128  1.00  0.00     0.167 HD
ATOM     64  C   UNL A   1      42.876  28.022  32.321  1.00  0.00     0.074 A 
ATOM     65  C   UNL A   1      43.583  27.070  31.489  1.00  0.00     0.031 C 
ATOM     66  C   UNL A   1      43.179  28.274  33.618  1.00  0.00     0.034 A 
BRANCH  53  67
ATOM     67  C   UNL A   1      39.763  32.740  36.182  1.00  0.00     0.023 A 
ATOM     68  C   UNL A   1      40.372  34.009  36.273  1.00  0.00     0.012 A 
ATOM     69  C   UNL A   1      38.869  32.330  37.191  1.00  0.00     0.148 A 
ATOM     70  C   UNL A   1      40.125  34.840  37.364  1.00  0.00     0.002 A 
ATOM     71  C   UNL A   1      38.590  33.186  38.252  1.00  0.00     0.091 A 
ATOM     72  F   UNL A   1      38.313  31.113  37.098  1.00  0.00    -0.205 F 
ATOM     73  C   UNL A   1      39.227  34.434  38.347  1.00  0.00     0.022 A 
BRANCH  71  74
ATOM     74  S   UNL A   1      37.388  32.789  39.526  1.00  0.00     0.127 S 
ATOM     75  O   UNL A   1      37.931  31.543  40.067  1.00  0.00    -0.237 OA
ATOM     76  O   UNL A   1      37.498  33.942  40.422  1.00  0.00    -0.237 OA
ATOM     77  O   UNL A   1      36.106  32.667  38.847  1.00  0.00    -0.744 OA
ENDBRANCH  71  74
ENDBRANCH  53  67
BRANCH  54  78
ATOM     78  C   UNL A   1      41.469  27.491  27.856  1.00  0.00     0.023 A 
ATOM     79  C   UNL A   1      41.974  28.177  26.735  1.00  0.00     0.012 A 
ATOM     80  C   UNL A   1      41.272  26.099  27.778  1.00  0.00     0.148 A 
ATOM     81  C   UNL A   1      42.246  27.498  25.547  1.00  0.00     0.002 A 
ATOM     82  C   UNL A   1      41.599  25.419  26.611  1.00  0.00     0.091 A 
ATOM     83  F   UNL A   1      40.780  25.466  28.852  1.00  0.00    -0.205 F 
ATOM     84  C   UNL A   1      42.068  26.118  25.488  1.00  0.00     0.022 A 
BRANCH  82  85
ATOM     85  S   UNL A   1      41.531  23.628  26.491  1.00  0.00     0.127 S 
ATOM     86  O   UNL A   1      41.962  23.222  27.827  1.00  0.00    -0.237 OA
ATOM     87  O   UNL A   1      40.115  23.398  26.203  1.00  0.00    -0.237 OA
ATOM     88  O   UNL A   1      42.429  23.272  25.401  1.00  0.00    -0.744 OA
ENDBRANCH  82  85
ENDBRANCH  54  78
BRANCH  66  89
ATOM     89  C   UNL A   1      44.308  27.487  34.235  1.00  0.00     0.023 A 
ATOM     90  C   UNL A   1      45.632  27.960  34.135  1.00  0.00     0.012 A 
ATOM     91  C   UNL A   1      44.047  26.313  34.969  1.00  0.00     0.148 A 
ATOM     92  C   UNL A   1      46.682  27.257  34.724  1.00  0.00     0.002 A 
ATOM     93  C   UNL A   1      45.092  25.646  35.597  1.00  0.00     0.091 A 
ATOM     94  F   UNL A   1      42.783  25.869  35.038  1.00  0.00    -0.205 F 
ATOM     95  C   UNL A   1      46.411  26.108  35.464  1.00  0.00     0.022 A 
BRANCH  93  96
ATOM     96  S   UNL A   1      44.827  24.215  36.650  1.00  0.00     0.127 S 
ATOM     97  O   UNL A   1      43.974  24.771  37.698  1.00  0.00    -0.237 OA
ATOM     98  O   UNL A   1      44.154  23.284  35.744  1.00  0.00    -0.237 OA
ATOM     99  O   UNL A   1      46.150  23.786  37.083  1.00  0.00    -0.744 OA
ENDBRANCH  93  96
ENDBRANCH  66  89
ENDBRANCH  40  41
ENDBRANCH  32  35
ENDBRANCH  30  31
ENDBRANCH  29  30
ENDBRANCH  28  29
ENDBRANCH   1  28
TORSDOF 20
ENDMDL
MODEL 2
REMARK VINA RESULT:     -10.5      4.443     10.411
REMARK SMILES CC[C@@H](C(=O)NCCCCCCNC(=O)c1ccc(-c2c3nc(c(-c4cccc(S(=O)(=O)[O-])c4F)c4ccc([nH]4)c(-c4cccc(S(=O)(=O)[O-])c4F)c4nc(c(-c5cccc(S(=O)(=O)[O-])c5F)c5ccc2[nH]5)C=C4)C=C3)cc1)N1C(=O)/C(=C/C(C)=C/c2ccccc2)SC1=S
REMARK SMILES IDX 9 1 8 2 7 3 6 4 4 5 5 6 3 8 2 9 1 10 79 11 80 12 94 13 81 14
REMARK SMILES IDX 82 15 93 16 95 17 83 18 84 19 85 20 86 21 87 22 88 23 92 24
REMARK SMILES IDX 89 25 91 26 90 27 10 28 11 29 12 30 13 31 14 32 15 34 16 35
REMARK SMILES IDX 17 36 78 37 18 38 77 39 19 40 20 41 21 42 71 43 22 44 76 45
REMARK SMILES IDX 70 46 72 47 23 48 75 49 69 50 68 51 24 53 56 54 36 55 55 56
REMARK SMILES IDX 37 57 40 58 54 59 73 60 38 61 39 62 53 64 74 65 41 66 25 67
REMARK SMILES IDX 26 68 34 69 27 70 29 71 35 72 28 73 30 74 31 75 32 76 33 77
REMARK SMILES IDX 57 78 58 79 66 80 59 81 61 82 67 83 60 84 62 85 63 86 64 87
REMARK SMILES IDX 65 88 42 89 43 90 51 91 44 92 46 93 52 94 45 95 47 96 48 97
REMARK SMILES IDX 49 98 50 99
REMARK H PARENT 6 7 13 33 72 52 40 63
REMARK Flexibility Score: inf
ROOT
ATOM      1  C   UNL A   1      39.508  28.790  29.337  1.00  0.00     0.002 C 
ENDROOT
BRANCH   1   2
ATOM      2  C   UNL A   1      39.647  29.354  30.751  1.00  0.00     0.021 C 
BRANCH   2   3
ATOM      3  C   UNL A   1      39.261  30.830  30.861  1.00  0.00     0.116 C 
BRANCH   3   4
ATOM      4  N   UNL A   1      37.866  30.931  31.247  1.00  0.00    -0.354 N 
ATOM      5  C   UNL A   1      36.834  31.583  30.637  1.00  0.00     0.243 C 
ATOM      6  O   UNL A   1      35.782  31.704  31.273  1.00  0.00    -0.273 OA
ATOM      7  H   UNL A   1      37.627  30.455  32.076  1.00  0.00     0.163 HD
BRANCH   5   8
ATOM      8  C   UNL A   1      36.972  32.070  29.177  1.00  0.00     0.181 C 
BRANCH   8   9
ATOM      9  C   UNL A   1      37.008  33.606  29.042  1.00  0.00     0.032 C 
ATOM     10  C   UNL A   1      38.253  34.313  29.543  1.00  0.00     0.006 C 
ENDBRANCH   8   9
BRANCH   8  11
ATOM     11  N   UNL A   1      35.834  31.435  28.443  1.00  0.00    -0.280 N 
ATOM     12  C   UNL A   1      35.977  30.209  27.808  1.00  0.00     0.266 C 
ATOM     13  C   UNL A   1      34.627  32.075  28.232  1.00  0.00     0.149 C 
ATOM     14  O   UNL A   1      36.978  29.517  27.744  1.00  0.00    -0.268 OA
ATOM     15  C   UNL A   1      34.687  29.775  27.195  1.00  0.00     0.080 C 
ATOM     16  S   UNL A   1      33.544  31.040  27.312  1.00  0.00    -0.054 SA
ATOM     17  S   UNL A   1      34.148  33.597  28.729  1.00  0.00    -0.052 S 
ATOM     18  C   UNL A   1      34.583  28.532  26.699  1.00  0.00     0.024 C 
BRANCH  18  19
ATOM     19  C   UNL A   1      33.489  27.803  26.054  1.00  0.00    -0.049 C 
ATOM     20  C   UNL A   1      33.896  26.462  25.480  1.00  0.00     0.044 C 
ATOM     21  C   UNL A   1      32.258  28.321  25.870  1.00  0.00     0.011 C 
BRANCH  21  22
ATOM     22  C   UNL A   1      31.093  27.716  25.209  1.00  0.00    -0.025 A 
ATOM     23  C   UNL A   1      30.562  26.547  25.774  1.00  0.00     0.008 A 
ATOM     24  C   UNL A   1      30.572  28.178  23.997  1.00  0.00     0.008 A 
ATOM     25  C   UNL A   1      29.518  25.865  25.150  1.00  0.00     0.001 A 
ATOM     26  C   UNL A   1      29.519  27.500  23.376  1.00  0.00     0.001 A 
ATOM     27  C   UNL A   1      28.995  26.343  23.951  1.00  0.00     0.000 A 
ENDBRANCH  21  22
ENDBRANCH  18  19
ENDBRANCH   8  11
ENDBRANCH   5   8
ENDBRANCH   3   4
ENDBRANCH   2   3
ENDBRANCH   1   2
BRANCH   1  28
ATOM     28  C   UNL A   1      40.528  29.335  28.334  1.00  0.00     0.002 C 
BRANCH  28  29
ATOM     29  C   UNL A   1      40.308  28.899  26.882  1.00  0.00     0.021 C 
BRANCH  29  30
ATOM     30  C   UNL A   1      41.545  28.983  25.992  1.00  0.00     0.116 C 
BRANCH  30  31
ATOM     31  N   UNL A   1      41.903  27.687  25.439  1.00  0.00    -0.352 N 
ATOM     32  C   UNL A   1      42.665  26.687  25.989  1.00  0.00     0.251 C 
ATOM     33  H   UNL A   1      41.547  27.498  24.540  1.00  0.00     0.163 HD
ATOM     34  O   UNL A   1      43.052  25.756  25.288  1.00  0.00    -0.269 OA
BRANCH  32  35
ATOM     35  C   UNL A   1      43.026  26.739  27.421  1.00  0.00     0.039 A 
ATOM     36  C   UNL A   1      44.240  27.319  27.792  1.00  0.00     0.014 A 
ATOM     37  C   UNL A   1      42.173  26.206  28.394  1.00  0.00     0.014 A 
ATOM     38  C   UNL A   1      44.576  27.413  29.143  1.00  0.00     0.010 A 
ATOM     39  C   UNL A   1      42.477  26.366  29.743  1.00  0.00     0.010 A 
ATOM     40  C   UNL A   1      43.684  26.966  30.133  1.00  0.00    -0.014 A 
BRANCH  40  41
ATOM     41  C   UNL A   1      43.992  27.139  31.576  1.00  0.00     0.031 A 
ATOM     42  C   UNL A   1      44.548  25.998  32.383  1.00  0.00     0.074 A 
ATOM     43  C   UNL A   1      43.700  28.311  32.176  1.00  0.00     0.049 A 
ATOM     44  N   UNL A   1      44.857  25.963  33.653  1.00  0.00    -0.248 NA
ATOM     45  C   UNL A   1      44.764  24.723  31.680  1.00  0.00     0.031 C 
ATOM     46  C   UNL A   1      43.081  29.464  31.521  1.00  0.00     0.029 A 
ATOM     47  N   UNL A   1      43.863  28.717  33.476  1.00  0.00    -0.354 N 
ATOM     48  C   UNL A   1      45.272  24.661  33.910  1.00  0.00     0.074 A 
ATOM     49  C   UNL A   1      45.142  23.927  32.670  1.00  0.00     0.031 C 
ATOM     50  C   UNL A   1      42.925  30.450  32.418  1.00  0.00     0.029 A 
ATOM     51  C   UNL A   1      43.404  29.991  33.718  1.00  0.00     0.049 A 
ATOM     52  H   UNL A   1      44.271  28.151  34.171  1.00  0.00     0.167 HD
ATOM     53  C   UNL A   1      45.746  24.133  35.063  1.00  0.00     0.034 A 
ATOM     54  C   UNL A   1      43.367  30.708  34.858  1.00  0.00     0.034 A 
ATOM     55  C   UNL A   1      45.906  24.877  36.284  1.00  0.00     0.049 A 
ATOM     56  C   UNL A   1      43.932  30.108  36.116  1.00  0.00     0.074 A 
ATOM     57  C   UNL A   1      46.460  24.456  37.481  1.00  0.00     0.029 A 
ATOM     58  N   UNL A   1      45.501  26.189  36.472  1.00  0.00    -0.354 N 
ATOM     59  N   UNL A   1      44.475  28.929  36.297  1.00  0.00    -0.248 NA
ATOM     60  C   UNL A   1      43.914  30.952  37.320  1.00  0.00     0.031 C 
ATOM     61  C   UNL A   1      46.361  25.505  38.401  1.00  0.00     0.029 A 
ATOM     62  C   UNL A   1      45.778  26.590  37.768  1.00  0.00     0.049 A 
ATOM     63  H   UNL A   1      45.077  26.752  35.784  1.00  0.00     0.167 HD
ATOM     64  C   UNL A   1      44.894  28.900  37.622  1.00  0.00     0.074 A 
ATOM     65  C   UNL A   1      44.563  30.191  38.191  1.00  0.00     0.031 C 
ATOM     66  C   UNL A   1      45.485  27.892  38.309  1.00  0.00     0.034 A 
BRANCH  53  67
ATOM     67  C   UNL A   1      46.174  22.687  35.049  1.00  0.00     0.023 A 
ATOM     68  C   UNL A   1      45.266  21.688  35.456  1.00  0.00     0.012 A 
ATOM     69  C   UNL A   1      47.448  22.312  34.578  1.00  0.00     0.148 A 
ATOM     70  C   UNL A   1      45.630  20.342  35.428  1.00  0.00     0.002 A 
ATOM     71  C   UNL A   1      47.786  20.965  34.509  1.00  0.00     0.091 A 
ATOM     72  F   UNL A   1      48.306  23.276  34.214  1.00  0.00    -0.205 F 
ATOM     73  C   UNL A   1      46.884  19.980  34.945  1.00  0.00     0.022 A 
BRANCH  71  74
ATOM     74  S   UNL A   1      49.345  20.391  33.827  1.00  0.00     0.127 S 
ATOM     75  O   UNL A   1      49.916  19.668  34.963  1.00  0.00    -0.237 OA
ATOM     76  O   UNL A   1      48.902  19.538  32.723  1.00  0.00    -0.237 OA
ATOM     77  O   UNL A   1      50.071  21.585  33.419  1.00  0.00    -0.744 OA
ENDBRANCH  71  74
ENDBRANCH  53  67
BRANCH  54  78
ATOM     78  C   UNL A   1      42.828  32.097  34.845  1.00  0.00     0.023 A 
ATOM     79  C   UNL A   1      43.699  33.177  34.605  1.00  0.00     0.012 A 
ATOM     80  C   UNL A   1      41.457  32.352  35.043  1.00  0.00     0.148 A 
ATOM     81  C   UNL A   1      43.223  34.488  34.594  1.00  0.00     0.002 A 
ATOM     82  C   UNL A   1      40.979  33.655  34.974  1.00  0.00     0.091 A 
ATOM     83  F   UNL A   1      40.646  31.312  35.282  1.00  0.00    -0.205 F 
ATOM     84  C   UNL A   1      41.862  34.727  34.769  1.00  0.00     0.022 A 
BRANCH  82  85
ATOM     85  S   UNL A   1      39.227  34.042  35.052  1.00  0.00     0.127 S 
ATOM     86  O   UNL A   1      39.232  35.492  34.871  1.00  0.00    -0.237 OA
ATOM     87  O   UNL A   1      38.700  33.280  33.920  1.00  0.00    -0.237 OA
ATOM     88  O   UNL A   1      38.776  33.568  36.353  1.00  0.00    -0.744 OA
ENDBRANCH  82  85
ENDBRANCH  54  78
BRANCH  66  89
ATOM     89  C   UNL A   1      45.845  28.149  39.751  1.00  0.00     0.023 A 
ATOM     90  C   UNL A   1      44.983  27.718  40.779  1.00  0.00     0.012 A 
ATOM     91  C   UNL A   1      47.069  28.760  40.086  1.00  0.00     0.148 A 
ATOM     92  C   UNL A   1      45.317  27.925  42.116  1.00  0.00     0.002 A 
ATOM     93  C   UNL A   1      47.419  28.916  41.422  1.00  0.00     0.091 A 
ATOM     94  F   UNL A   1      47.869  29.180  39.094  1.00  0.00    -0.205 F 
ATOM     95  C   UNL A   1      46.538  28.512  42.438  1.00  0.00     0.022 A 
BRANCH  93  96
ATOM     96  S   UNL A   1      49.012  29.572  41.932  1.00  0.00     0.127 S 
ATOM     97  O   UNL A   1      48.924  29.469  43.387  1.00  0.00    -0.237 OA
ATOM     98  O   UNL A   1      49.947  28.635  41.308  1.00  0.00    -0.237 OA
ATOM     99  O   UNL A   1      49.074  30.928  41.404  1.00  0.00    -0.744 OA
ENDBRANCH  93  96
ENDBRANCH  66  89
ENDBRANCH  40  41
ENDBRANCH  32  35
ENDBRANCH  30  31
ENDBRANCH  29  30
ENDBRANCH  28  29
ENDBRANCH   1  28
TORSDOF 20
ENDMDL
MODEL 3
REMARK VINA RESULT:     -10.5      9.275     15.053
REMARK SMILES CC[C@@H](C(=O)NCCCCCCNC(=O)c1ccc(-c2c3nc(c(-c4cccc(S(=O)(=O)[O-])c4F)c4ccc([nH]4)c(-c4cccc(S(=O)(=O)[O-])c4F)c4nc(c(-c5cccc(S(=O)(=O)[O-])c5F)c5ccc2[nH]5)C=C4)C=C3)cc1)N1C(=O)/C(=C/C(C)=C/c2ccccc2)SC1=S
REMARK SMILES IDX 9 1 8 2 7 3 6 4 4 5 5 6 3 8 2 9 1 10 79 11 80 12 94 13 81 14
REMARK SMILES IDX 82 15 93 16 95 17 83 18 84 19 85 20 86 21 87 22 88 23 92 24
REMARK SMILES IDX 89 25 91 26 90 27 10 28 11 29 12 30 13 31 14 32 15 34 16 35
REMARK SMILES IDX 17 36 78 37 18 38 77 39 19 40 20 41 21 42 71 43 22 44 76 45
REMARK SMILES IDX 70 46 72 47 23 48 75 49 69 50 68 51 24 53 56 54 36 55 55 56
REMARK SMILES IDX 37 57 40 58 54 59 73 60 38 61 39 62 53 64 74 65 41 66 25 67
REMARK SMILES IDX 26 68 34 69 27 70 29 71 35 72 28 73 30 74 31 75 32 76 33 77
REMARK SMILES IDX 57 78 58 79 66 80 59 81 61 82 67 83 60 84 62 85 63 86 64 87
REMARK SMILES IDX 65 88 42 89 43 90 51 91 44 92 46 93 52 94 45 95 47 96 48 97
REMARK SMILES IDX 49 98 50 99
REMARK H PARENT 6 7 13 33 72 52 40 63
REMARK Flexibility Score: inf
ROOT
ATOM      1  C   UNL A   1      44.320  42.058  30.663  1.00  0.00     0.002 C 
ENDROOT
BRANCH   1   2
ATOM      2  C   UNL A   1      44.837  43.190  29.775  1.00  0.00     0.021 C 
BRANCH   2   3
ATOM      3  C   UNL A   1      44.613  42.945  28.282  1.00  0.00     0.116 C 
BRANCH   3   4
ATOM      4  N   UNL A   1      45.810  43.320  27.552  1.00  0.00    -0.354 N 
ATOM      5  C   UNL A   1      46.529  42.617  26.629  1.00  0.00     0.243 C 
ATOM      6  O   UNL A   1      47.634  43.064  26.308  1.00  0.00    -0.273 OA
ATOM      7  H   UNL A   1      46.155  44.220  27.752  1.00  0.00     0.163 HD
BRANCH   5   8
ATOM      8  C   UNL A   1      45.927  41.357  25.965  1.00  0.00     0.181 C 
BRANCH   8   9
ATOM      9  C   UNL A   1      46.991  40.391  25.405  1.00  0.00     0.032 C 
ATOM     10  C   UNL A   1      46.698  38.906  25.511  1.00  0.00     0.006 C 
ENDBRANCH   8   9
BRANCH   8  11
ATOM     11  N   UNL A   1      44.986  41.874  24.924  1.00  0.00    -0.280 N 
ATOM     12  C   UNL A   1      45.437  42.637  23.856  1.00  0.00     0.266 C 
ATOM     13  C   UNL A   1      43.614  41.746  25.024  1.00  0.00     0.149 C 
ATOM     14  O   UNL A   1      46.581  42.990  23.626  1.00  0.00    -0.268 OA
ATOM     15  C   UNL A   1      44.312  42.983  22.938  1.00  0.00     0.080 C 
ATOM     16  S   UNL A   1      42.833  42.493  23.637  1.00  0.00    -0.054 SA
ATOM     17  S   UNL A   1      42.715  41.012  26.227  1.00  0.00    -0.052 S 
ATOM     18  C   UNL A   1      44.585  43.558  21.757  1.00  0.00     0.024 C 
BRANCH  18  19
ATOM     19  C   UNL A   1      43.741  44.007  20.647  1.00  0.00    -0.049 C 
ATOM     20  C   UNL A   1      42.301  43.550  20.742  1.00  0.00     0.044 C 
ATOM     21  C   UNL A   1      44.219  44.659  19.568  1.00  0.00     0.011 C 
BRANCH  21  22
ATOM     22  C   UNL A   1      43.494  45.126  18.377  1.00  0.00    -0.025 A 
ATOM     23  C   UNL A   1      43.048  46.455  18.371  1.00  0.00     0.008 A 
ATOM     24  C   UNL A   1      43.134  44.286  17.320  1.00  0.00     0.008 A 
ATOM     25  C   UNL A   1      42.272  46.941  17.319  1.00  0.00     0.001 A 
ATOM     26  C   UNL A   1      42.364  44.775  16.260  1.00  0.00     0.001 A 
ATOM     27  C   UNL A   1      41.932  46.101  16.261  1.00  0.00     0.000 A 
ENDBRANCH  21  22
ENDBRANCH  18  19
ENDBRANCH   8  11
ENDBRANCH   5   8
ENDBRANCH   3   4
ENDBRANCH   2   3
ENDBRANCH   1   2
BRANCH   1  28
ATOM     28  C   UNL A   1      43.905  40.795  29.906  1.00  0.00     0.002 C 
BRANCH  28  29
ATOM     29  C   UNL A   1      44.028  39.491  30.700  1.00  0.00     0.021 C 
BRANCH  29  30
ATOM     30  C   UNL A   1      44.464  38.279  29.881  1.00  0.00     0.116 C 
BRANCH  30  31
ATOM     31  N   UNL A   1      45.873  38.344  29.528  1.00  0.00    -0.352 N 
ATOM     32  C   UNL A   1      46.747  37.325  29.247  1.00  0.00     0.251 C 
ATOM     33  H   UNL A   1      46.256  39.250  29.484  1.00  0.00     0.163 HD
ATOM     34  O   UNL A   1      47.953  37.549  29.193  1.00  0.00    -0.269 OA
BRANCH  32  35
ATOM     35  C   UNL A   1      46.235  35.958  29.018  1.00  0.00     0.039 A 
ATOM     36  C   UNL A   1      46.435  34.987  30.003  1.00  0.00     0.014 A 
ATOM     37  C   UNL A   1      45.570  35.631  27.832  1.00  0.00     0.014 A 
ATOM     38  C   UNL A   1      45.920  33.703  29.819  1.00  0.00     0.010 A 
ATOM     39  C   UNL A   1      44.996  34.371  27.684  1.00  0.00     0.010 A 
ATOM     40  C   UNL A   1      45.170  33.392  28.673  1.00  0.00    -0.014 A 
BRANCH  40  41
ATOM     41  C   UNL A   1      44.545  32.054  28.508  1.00  0.00     0.031 A 
ATOM     42  C   UNL A   1      43.198  31.758  29.108  1.00  0.00     0.074 A 
ATOM     43  C   UNL A   1      45.230  31.079  27.876  1.00  0.00     0.049 A 
ATOM     44  N   UNL A   1      42.511  30.645  29.082  1.00  0.00    -0.248 NA
ATOM     45  C   UNL A   1      42.545  32.845  29.857  1.00  0.00     0.031 C 
ATOM     46  C   UNL A   1      46.579  31.217  27.324  1.00  0.00     0.029 A 
ATOM     47  N   UNL A   1      44.895  29.776  27.611  1.00  0.00    -0.354 N 
ATOM     48  C   UNL A   1      41.365  30.885  29.831  1.00  0.00     0.074 A 
ATOM     49  C   UNL A   1      41.465  32.239  30.331  1.00  0.00     0.031 C 
ATOM     50  C   UNL A   1      46.954  30.050  26.778  1.00  0.00     0.029 A 
ATOM     51  C   UNL A   1      45.886  29.072  26.967  1.00  0.00     0.049 A 
ATOM     52  H   UNL A   1      44.028  29.380  27.858  1.00  0.00     0.167 HD
ATOM     53  C   UNL A   1      40.313  30.064  30.060  1.00  0.00     0.034 A 
ATOM     54  C   UNL A   1      45.935  27.783  26.578  1.00  0.00     0.034 A 
ATOM     55  C   UNL A   1      40.203  28.729  29.532  1.00  0.00     0.049 A 
ATOM     56  C   UNL A   1      44.738  26.904  26.813  1.00  0.00     0.074 A 
ATOM     57  C   UNL A   1      39.138  27.851  29.632  1.00  0.00     0.029 A 
ATOM     58  N   UNL A   1      41.194  28.075  28.818  1.00  0.00    -0.354 N 
ATOM     59  N   UNL A   1      43.593  27.201  27.379  1.00  0.00    -0.248 NA
ATOM     60  C   UNL A   1      44.823  25.520  26.322  1.00  0.00     0.031 C 
ATOM     61  C   UNL A   1      39.499  26.654  29.005  1.00  0.00     0.029 A 
ATOM     62  C   UNL A   1      40.774  26.799  28.484  1.00  0.00     0.049 A 
ATOM     63  H   UNL A   1      42.070  28.461  28.585  1.00  0.00     0.167 HD
ATOM     64  C   UNL A   1      42.811  26.057  27.283  1.00  0.00     0.074 A 
ATOM     65  C   UNL A   1      43.603  25.068  26.581  1.00  0.00     0.031 C 
ATOM     66  C   UNL A   1      41.555  25.839  27.746  1.00  0.00     0.034 A 
BRANCH  53  67
ATOM     67  C   UNL A   1      39.168  30.602  30.879  1.00  0.00     0.023 A 
ATOM     68  C   UNL A   1      39.165  30.418  32.277  1.00  0.00     0.012 A 
ATOM     69  C   UNL A   1      38.128  31.339  30.278  1.00  0.00     0.148 A 
ATOM     70  C   UNL A   1      38.130  30.928  33.060  1.00  0.00     0.002 A 
ATOM     71  C   UNL A   1      37.125  31.885  31.072  1.00  0.00     0.091 A 
ATOM     72  F   UNL A   1      38.136  31.487  28.945  1.00  0.00    -0.205 F 
ATOM     73  C   UNL A   1      37.117  31.669  32.459  1.00  0.00     0.022 A 
BRANCH  71  74
ATOM     74  S   UNL A   1      35.820  32.923  30.405  1.00  0.00     0.127 S 
ATOM     75  O   UNL A   1      35.037  31.956  29.636  1.00  0.00    -0.237 OA
ATOM     76  O   UNL A   1      35.163  33.410  31.619  1.00  0.00    -0.237 OA
ATOM     77  O   UNL A   1      36.485  33.953  29.619  1.00  0.00    -0.744 OA
ENDBRANCH  71  74
ENDBRANCH  53  67
BRANCH  54  78
ATOM     78  C   UNL A   1      47.139  27.265  25.868  1.00  0.00     0.023 A 
ATOM     79  C   UNL A   1      47.243  27.423  24.473  1.00  0.00     0.012 A 
ATOM     80  C   UNL A   1      48.191  26.644  26.569  1.00  0.00     0.148 A 
ATOM     81  C   UNL A   1      48.356  26.941  23.783  1.00  0.00     0.002 A 
ATOM     82  C   UNL A   1      49.322  26.218  25.884  1.00  0.00     0.091 A 
ATOM     83  F   UNL A   1      48.068  26.494  27.896  1.00  0.00    -0.205 F 
ATOM     84  C   UNL A   1      49.400  26.348  24.489  1.00  0.00     0.022 A 
BRANCH  82  85
ATOM     85  S   UNL A   1      50.769  25.569  26.728  1.00  0.00     0.127 S 
ATOM     86  O   UNL A   1      51.139  26.689  27.592  1.00  0.00    -0.237 OA
ATOM     87  O   UNL A   1      50.217  24.408  27.425  1.00  0.00    -0.237 OA
ATOM     88  O   UNL A   1      51.722  25.239  25.677  1.00  0.00    -0.744 OA
ENDBRANCH  82  85
ENDBRANCH  54  78
BRANCH  66  89
ATOM     89  C   UNL A   1      40.940  24.488  27.484  1.00  0.00     0.023 A 
ATOM     90  C   UNL A   1      41.512  23.332  28.054  1.00  0.00     0.012 A 
ATOM     91  C   UNL A   1      39.758  24.372  26.727  1.00  0.00     0.148 A 
ATOM     92  C   UNL A   1      40.938  22.080  27.842  1.00  0.00     0.002 A 
ATOM     93  C   UNL A   1      39.163  23.127  26.564  1.00  0.00     0.091 A 
ATOM     94  F   UNL A   1      39.238  25.481  26.179  1.00  0.00    -0.205 F 
ATOM     95  C   UNL A   1      39.759  21.979  27.109  1.00  0.00     0.022 A 
BRANCH  93  96
ATOM     96  S   UNL A   1      37.592  22.913  25.718  1.00  0.00     0.127 S 
ATOM     97  O   UNL A   1      37.888  23.461  24.396  1.00  0.00    -0.237 OA
ATOM     98  O   UNL A   1      37.418  21.461  25.752  1.00  0.00    -0.237 OA
ATOM     99  O   UNL A   1      36.612  23.657  26.498  1.00  0.00    -0.744 OA
ENDBRANCH  93  96
ENDBRANCH  66  89
ENDBRANCH  40  41
ENDBRANCH  32  35
ENDBRANCH  30  31
ENDBRANCH  29  30
ENDBRANCH  28  29
ENDBRANCH   1  28
TORSDOF 20
ENDMDL
