MODEL 1
REMARK VINA RESULT:     -11.0      0.000      0.000
REMARK SMILES C[N@H+]1CCO[C@H](CNc2nnc(SCC(=O)NCCCCCCNC(=O)c3ccc(-c4c5nc(c(-c6cccc(S(=O)(=O)[O-])c6F)c6ccc([nH]6)c(-c6cccc(S(=O)(=O)[O-])c6F)c6nc(c(-c7cccc(S(=O)(=O)[O-])c7F)c7ccc4[nH]7)C=C6)C=C5)cc3)s2)C1
REMARK SMILES IDX 19 1 18 2 17 3 15 4 16 5 14 7 13 8 12 9 9 10 10 11 90 12
REMARK SMILES IDX 11 13 8 14 7 16 6 17 1 18 2 19 3 20 91 21 4 23 5 24 20 25
REMARK SMILES IDX 21 26 22 27 23 28 24 29 25 30 26 32 27 33 28 34 89 35 29 36
REMARK SMILES IDX 88 37 30 38 31 39 32 40 82 41 33 42 87 43 81 44 83 45 34 46
REMARK SMILES IDX 86 47 80 48 79 49 35 51 67 52 47 53 66 54 48 55 51 56 65 57
REMARK SMILES IDX 84 58 49 59 50 60 64 62 85 63 52 64 36 65 37 66 45 67 38 68
REMARK SMILES IDX 40 69 46 70 39 71 41 72 42 73 43 74 44 75 68 76 69 77 77 78
REMARK SMILES IDX 70 79 72 80 78 81 71 82 73 83 74 84 75 85 76 86 53 87 54 88
REMARK SMILES IDX 62 89 55 90 57 91 63 92 56 93 58 94 59 95 60 96 61 97
REMARK H PARENT 17 6 8 15 2 22 24 31 83 50 51 61
REMARK Flexibility Score: inf
ROOT
ATOM      1  C   UNL A   1      33.171  26.461  22.759  1.00  0.00     0.021 C 
ENDROOT
BRANCH   1   2
ATOM      2  C   UNL A   1      32.012  26.553  21.763  1.00  0.00     0.116 C 
BRANCH   2   3
ATOM      3  N   UNL A   1      31.167  27.694  22.067  1.00  0.00    -0.355 N 
ATOM      4  C   UNL A   1      30.004  27.757  22.772  1.00  0.00     0.230 C 
ATOM      5  O   UNL A   1      29.414  28.841  22.809  1.00  0.00    -0.274 OA
ATOM      6  H   UNL A   1      31.484  28.555  21.710  1.00  0.00     0.163 HD
BRANCH   4   7
ATOM      7  C   UNL A   1      29.501  26.569  23.568  1.00  0.00     0.177 C 
BRANCH   7   8
ATOM      8  S   UNL A   1      30.320  26.303  25.146  1.00  0.00    -0.084 SA
BRANCH   8   9
ATOM      9  C   UNL A   1      30.839  24.639  25.163  1.00  0.00     0.176 A 
ATOM     10  C   UNL A   1      31.580  22.389  25.433  1.00  0.00     0.206 A 
ATOM     11  N   UNL A   1      31.437  22.729  24.171  1.00  0.00    -0.119 NA
ATOM     12  S   UNL A   1      31.256  23.685  26.519  1.00  0.00    -0.069 S 
ATOM     13  N   UNL A   1      30.985  24.017  24.014  1.00  0.00    -0.130 NA
BRANCH  10  14
ATOM     14  N   UNL A   1      31.977  21.151  25.800  1.00  0.00    -0.357 N 
ATOM     15  H   UNL A   1      31.323  20.568  26.251  1.00  0.00     0.163 HD
BRANCH  14  16
ATOM     16  C   UNL A   1      33.314  20.634  25.568  1.00  0.00     0.153 C 
BRANCH  16  17
ATOM     17  C   UNL A   1      33.231  19.193  24.990  1.00  0.00     0.192 C 
ATOM     18  C   UNL A   1      34.344  16.249  24.935  1.00  0.00     0.332 C 
ATOM     19  N   UNL A   1      34.623  17.317  23.979  1.00  0.00    -0.333 N 
ATOM     20  C   UNL A   1      33.642  17.329  22.873  1.00  0.00     0.290 C 
ATOM     21  C   UNL A   1      34.634  18.650  24.626  1.00  0.00     0.296 C 
ATOM     22  H   UNL A   1      35.551  17.125  23.603  1.00  0.00     0.348 HD
ATOM     23  C   UNL A   1      32.263  17.875  23.269  1.00  0.00     0.222 C 
ATOM     24  O   UNL A   1      32.380  19.190  23.819  1.00  0.00    -0.365 OA
ENDBRANCH  16  17
ENDBRANCH  14  16
ENDBRANCH  10  14
ENDBRANCH   8   9
ENDBRANCH   7   8
ENDBRANCH   4   7
ENDBRANCH   2   3
ENDBRANCH   1   2
BRANCH   1  25
ATOM     25  C   UNL A   1      33.765  27.820  23.157  1.00  0.00     0.002 C 
BRANCH  25  26
ATOM     26  C   UNL A   1      33.624  28.184  24.639  1.00  0.00     0.002 C 
BRANCH  26  27
ATOM     27  C   UNL A   1      33.225  29.637  24.912  1.00  0.00     0.021 C 
BRANCH  27  28
ATOM     28  C   UNL A   1      32.506  29.861  26.238  1.00  0.00     0.116 C 
BRANCH  28  29
ATOM     29  N   UNL A   1      32.402  31.274  26.575  1.00  0.00    -0.352 N 
ATOM     30  C   UNL A   1      33.202  32.035  27.392  1.00  0.00     0.251 C 
ATOM     31  H   UNL A   1      31.652  31.753  26.155  1.00  0.00     0.163 HD
ATOM     32  O   UNL A   1      32.850  33.169  27.713  1.00  0.00    -0.269 OA
BRANCH  30  33
ATOM     33  C   UNL A   1      34.473  31.480  27.904  1.00  0.00     0.039 A 
ATOM     34  C   UNL A   1      35.560  32.337  28.091  1.00  0.00     0.014 A 
ATOM     35  C   UNL A   1      34.585  30.121  28.213  1.00  0.00     0.014 A 
ATOM     36  C   UNL A   1      36.737  31.845  28.661  1.00  0.00     0.010 A 
ATOM     37  C   UNL A   1      35.730  29.651  28.849  1.00  0.00     0.010 A 
ATOM     38  C   UNL A   1      36.816  30.508  29.085  1.00  0.00    -0.014 A 
BRANCH  38  39
ATOM     39  C   UNL A   1      37.999  30.005  29.830  1.00  0.00     0.031 A 
ATOM     40  C   UNL A   1      38.303  30.500  31.216  1.00  0.00     0.074 A 
ATOM     41  C   UNL A   1      38.859  29.171  29.211  1.00  0.00     0.049 A 
ATOM     42  N   UNL A   1      39.311  30.202  31.994  1.00  0.00    -0.248 NA
ATOM     43  C   UNL A   1      37.367  31.477  31.794  1.00  0.00     0.031 C 
ATOM     44  C   UNL A   1      38.714  28.674  27.840  1.00  0.00     0.029 A 
ATOM     45  N   UNL A   1      40.036  28.613  29.644  1.00  0.00    -0.354 N 
ATOM     46  C   UNL A   1      39.155  30.979  33.135  1.00  0.00     0.074 A 
ATOM     47  C   UNL A   1      37.969  31.785  32.933  1.00  0.00     0.031 C 
ATOM     48  C   UNL A   1      39.751  27.874  27.552  1.00  0.00     0.029 A 
ATOM     49  C   UNL A   1      40.655  27.831  28.695  1.00  0.00     0.049 A 
ATOM     50  H   UNL A   1      40.402  28.758  30.545  1.00  0.00     0.167 HD
ATOM     51  C   UNL A   1      39.917  31.007  34.255  1.00  0.00     0.034 A 
ATOM     52  C   UNL A   1      41.823  27.160  28.738  1.00  0.00     0.034 A 
ATOM     53  C   UNL A   1      41.081  30.188  34.458  1.00  0.00     0.049 A 
ATOM     54  C   UNL A   1      42.648  27.203  29.995  1.00  0.00     0.074 A 
ATOM     55  C   UNL A   1      41.858  30.064  35.596  1.00  0.00     0.029 A 
ATOM     56  N   UNL A   1      41.656  29.374  33.493  1.00  0.00    -0.354 N 
ATOM     57  N   UNL A   1      42.390  27.806  31.130  1.00  0.00    -0.248 NA
ATOM     58  C   UNL A   1      43.910  26.451  29.986  1.00  0.00     0.031 C 
ATOM     59  C   UNL A   1      42.929  29.212  35.305  1.00  0.00     0.029 A 
ATOM     60  C   UNL A   1      42.798  28.772  33.997  1.00  0.00     0.049 A 
ATOM     61  H   UNL A   1      41.305  29.244  32.583  1.00  0.00     0.167 HD
ATOM     62  C   UNL A   1      43.442  27.485  31.980  1.00  0.00     0.074 A 
ATOM     63  C   UNL A   1      44.329  26.614  31.234  1.00  0.00     0.031 C 
ATOM     64  C   UNL A   1      43.659  27.883  33.259  1.00  0.00     0.034 A 
BRANCH  51  65
ATOM     65  C   UNL A   1      39.496  31.945  35.359  1.00  0.00     0.023 A 
ATOM     66  C   UNL A   1      39.921  33.290  35.341  1.00  0.00     0.012 A 
ATOM     67  C   UNL A   1      38.653  31.505  36.399  1.00  0.00     0.148 A 
ATOM     68  C   UNL A   1      39.558  34.166  36.363  1.00  0.00     0.002 A 
ATOM     69  C   UNL A   1      38.254  32.398  37.387  1.00  0.00     0.091 A 
ATOM     70  F   UNL A   1      38.273  30.219  36.415  1.00  0.00    -0.205 F 
ATOM     71  C   UNL A   1      38.718  33.723  37.380  1.00  0.00     0.022 A 
BRANCH  69  72
ATOM     72  S   UNL A   1      37.106  31.943  38.693  1.00  0.00     0.127 S 
ATOM     73  O   UNL A   1      37.006  30.497  38.507  1.00  0.00    -0.237 OA
ATOM     74  O   UNL A   1      37.830  32.354  39.896  1.00  0.00    -0.237 OA
ATOM     75  O   UNL A   1      35.887  32.696  38.434  1.00  0.00    -0.744 OA
ENDBRANCH  69  72
ENDBRANCH  51  65
BRANCH  52  76
ATOM     76  C   UNL A   1      42.243  26.334  27.571  1.00  0.00     0.023 A 
ATOM     77  C   UNL A   1      43.078  26.907  26.592  1.00  0.00     0.012 A 
ATOM     78  C   UNL A   1      41.868  24.983  27.452  1.00  0.00     0.148 A 
ATOM     79  C   UNL A   1      43.514  26.154  25.501  1.00  0.00     0.002 A 
ATOM     80  C   UNL A   1      42.351  24.223  26.393  1.00  0.00     0.091 A 
ATOM     81  F   UNL A   1      41.069  24.461  28.393  1.00  0.00    -0.205 F 
ATOM     82  C   UNL A   1      43.160  24.811  25.408  1.00  0.00     0.022 A 
BRANCH  80  83
ATOM     83  S   UNL A   1      42.056  22.456  26.255  1.00  0.00     0.127 S 
ATOM     84  O   UNL A   1      42.748  22.133  25.010  1.00  0.00    -0.237 OA
ATOM     85  O   UNL A   1      42.701  21.951  27.468  1.00  0.00    -0.237 OA
ATOM     86  O   UNL A   1      40.609  22.294  26.230  1.00  0.00    -0.744 OA
ENDBRANCH  80  83
ENDBRANCH  52  76
BRANCH  64  87
ATOM     87  C   UNL A   1      44.897  27.370  33.950  1.00  0.00     0.023 A 
ATOM     88  C   UNL A   1      46.053  28.174  34.008  1.00  0.00     0.012 A 
ATOM     89  C   UNL A   1      44.891  26.122  34.605  1.00  0.00     0.148 A 
ATOM     90  C   UNL A   1      47.193  27.731  34.678  1.00  0.00     0.002 A 
ATOM     91  C   UNL A   1      46.013  25.711  35.316  1.00  0.00     0.091 A 
ATOM     92  F   UNL A   1      43.787  25.364  34.526  1.00  0.00    -0.205 F 
ATOM     93  C   UNL A   1      47.169  26.508  35.342  1.00  0.00     0.022 A 
BRANCH  91  94
ATOM     94  S   UNL A   1      46.043  24.196  36.282  1.00  0.00     0.127 S 
ATOM     95  O   UNL A   1      44.830  24.331  37.087  1.00  0.00    -0.237 OA
ATOM     96  O   UNL A   1      45.974  23.167  35.243  1.00  0.00    -0.237 OA
ATOM     97  O   UNL A   1      47.292  24.219  37.031  1.00  0.00    -0.744 OA
ENDBRANCH  91  94
ENDBRANCH  64  87
ENDBRANCH  38  39
ENDBRANCH  30  33
ENDBRANCH  28  29
ENDBRANCH  27  28
ENDBRANCH  26  27
ENDBRANCH  25  26
ENDBRANCH   1  25
TORSDOF 21
ENDMDL
MODEL 2
REMARK VINA RESULT:     -10.5      5.032      9.303
REMARK SMILES C[N@H+]1CCO[C@H](CNc2nnc(SCC(=O)NCCCCCCNC(=O)c3ccc(-c4c5nc(c(-c6cccc(S(=O)(=O)[O-])c6F)c6ccc([nH]6)c(-c6cccc(S(=O)(=O)[O-])c6F)c6nc(c(-c7cccc(S(=O)(=O)[O-])c7F)c7ccc4[nH]7)C=C6)C=C5)cc3)s2)C1
REMARK SMILES IDX 19 1 18 2 17 3 15 4 16 5 14 7 13 8 12 9 9 10 10 11 90 12
REMARK SMILES IDX 11 13 8 14 7 16 6 17 1 18 2 19 3 20 91 21 4 23 5 24 20 25
REMARK SMILES IDX 21 26 22 27 23 28 24 29 25 30 26 32 27 33 28 34 89 35 29 36
REMARK SMILES IDX 88 37 30 38 31 39 32 40 82 41 33 42 87 43 81 44 83 45 34 46
REMARK SMILES IDX 86 47 80 48 79 49 35 51 67 52 47 53 66 54 48 55 51 56 65 57
REMARK SMILES IDX 84 58 49 59 50 60 64 62 85 63 52 64 36 65 37 66 45 67 38 68
REMARK SMILES IDX 40 69 46 70 39 71 41 72 42 73 43 74 44 75 68 76 69 77 77 78
REMARK SMILES IDX 70 79 72 80 78 81 71 82 73 83 74 84 75 85 76 86 53 87 54 88
REMARK SMILES IDX 62 89 55 90 57 91 63 92 56 93 58 94 59 95 60 96 61 97
REMARK H PARENT 17 6 8 15 2 22 24 31 83 50 51 61
REMARK Flexibility Score: inf
ROOT
ATOM      1  C   UNL A   1      34.671  24.352  23.922  1.00  0.00     0.021 C 
ENDROOT
BRANCH   1   2
ATOM      2  C   UNL A   1      33.939  25.693  23.814  1.00  0.00     0.116 C 
BRANCH   2   3
ATOM      3  N   UNL A   1      33.856  26.335  25.114  1.00  0.00    -0.355 N 
ATOM      4  C   UNL A   1      32.837  27.037  25.679  1.00  0.00     0.230 C 
ATOM      5  O   UNL A   1      33.047  27.577  26.769  1.00  0.00    -0.274 OA
ATOM      6  H   UNL A   1      34.662  26.250  25.673  1.00  0.00     0.163 HD
BRANCH   4   7
ATOM      7  C   UNL A   1      31.460  27.072  25.046  1.00  0.00     0.177 C 
BRANCH   7   8
ATOM      8  S   UNL A   1      30.263  25.932  25.751  1.00  0.00    -0.084 SA
BRANCH   8   9
ATOM      9  C   UNL A   1      30.965  24.340  25.637  1.00  0.00     0.176 A 
ATOM     10  C   UNL A   1      31.993  22.190  25.720  1.00  0.00     0.206 A 
ATOM     11  N   UNL A   1      31.608  22.523  24.508  1.00  0.00    -0.119 NA
ATOM     12  S   UNL A   1      31.704  23.428  26.880  1.00  0.00    -0.069 S 
ATOM     13  N   UNL A   1      30.991  23.751  24.463  1.00  0.00    -0.130 NA
BRANCH  10  14
ATOM     14  N   UNL A   1      32.582  21.004  25.983  1.00  0.00    -0.357 N 
ATOM     15  H   UNL A   1      32.084  20.346  26.521  1.00  0.00     0.163 HD
BRANCH  14  16
ATOM     16  C   UNL A   1      33.912  20.647  25.519  1.00  0.00     0.153 C 
BRANCH  16  17
ATOM     17  C   UNL A   1      33.820  19.468  24.508  1.00  0.00     0.192 C 
ATOM     18  C   UNL A   1      32.236  18.011  22.211  1.00  0.00     0.332 C 
ATOM     19  N   UNL A   1      32.270  17.653  23.627  1.00  0.00    -0.333 N 
ATOM     20  C   UNL A   1      33.373  16.714  23.925  1.00  0.00     0.290 C 
ATOM     21  C   UNL A   1      32.404  18.844  24.497  1.00  0.00     0.296 C 
ATOM     22  H   UNL A   1      31.379  17.198  23.824  1.00  0.00     0.348 HD
ATOM     23  C   UNL A   1      34.763  17.367  23.931  1.00  0.00     0.222 C 
ATOM     24  O   UNL A   1      34.803  18.461  24.851  1.00  0.00    -0.365 OA
ENDBRANCH  16  17
ENDBRANCH  14  16
ENDBRANCH  10  14
ENDBRANCH   8   9
ENDBRANCH   7   8
ENDBRANCH   4   7
ENDBRANCH   2   3
ENDBRANCH   1   2
BRANCH   1  25
ATOM     25  C   UNL A   1      35.296  24.089  25.300  1.00  0.00     0.002 C 
BRANCH  25  26
ATOM     26  C   UNL A   1      36.828  24.103  25.335  1.00  0.00     0.002 C 
BRANCH  26  27
ATOM     27  C   UNL A   1      37.491  22.742  25.111  1.00  0.00     0.021 C 
BRANCH  27  28
ATOM     28  C   UNL A   1      38.145  22.141  26.352  1.00  0.00     0.116 C 
BRANCH  28  29
ATOM     29  N   UNL A   1      39.476  21.620  26.073  1.00  0.00    -0.352 N 
ATOM     30  C   UNL A   1      40.685  22.272  26.081  1.00  0.00     0.251 C 
ATOM     31  H   UNL A   1      39.516  20.663  25.848  1.00  0.00     0.163 HD
ATOM     32  O   UNL A   1      41.686  21.717  25.631  1.00  0.00    -0.269 OA
BRANCH  30  33
ATOM     33  C   UNL A   1      40.776  23.650  26.608  1.00  0.00     0.039 A 
ATOM     34  C   UNL A   1      41.071  23.840  27.960  1.00  0.00     0.014 A 
ATOM     35  C   UNL A   1      40.587  24.751  25.767  1.00  0.00     0.014 A 
ATOM     36  C   UNL A   1      41.251  25.135  28.453  1.00  0.00     0.010 A 
ATOM     37  C   UNL A   1      40.840  26.034  26.242  1.00  0.00     0.010 A 
ATOM     38  C   UNL A   1      41.182  26.240  27.588  1.00  0.00    -0.014 A 
BRANCH  38  39
ATOM     39  C   UNL A   1      41.519  27.608  28.058  1.00  0.00     0.031 A 
ATOM     40  C   UNL A   1      42.949  28.068  28.123  1.00  0.00     0.074 A 
ATOM     41  C   UNL A   1      40.536  28.405  28.522  1.00  0.00     0.049 A 
ATOM     42  N   UNL A   1      43.428  29.210  28.544  1.00  0.00    -0.248 NA
ATOM     43  C   UNL A   1      43.977  27.112  27.681  1.00  0.00     0.031 C 
ATOM     44  C   UNL A   1      39.116  28.048  28.580  1.00  0.00     0.029 A 
ATOM     45  N   UNL A   1      40.581  29.669  29.056  1.00  0.00    -0.354 N 
ATOM     46  C   UNL A   1      44.810  29.098  28.456  1.00  0.00     0.074 A 
ATOM     47  C   UNL A   1      45.093  27.765  27.968  1.00  0.00     0.031 C 
ATOM     48  C   UNL A   1      38.426  29.072  29.102  1.00  0.00     0.029 A 
ATOM     49  C   UNL A   1      39.353  30.142  29.455  1.00  0.00     0.049 A 
ATOM     50  H   UNL A   1      41.413  30.187  29.145  1.00  0.00     0.167 HD
ATOM     51  C   UNL A   1      45.757  30.026  28.737  1.00  0.00     0.034 A 
ATOM     52  C   UNL A   1      39.009  31.303  30.045  1.00  0.00     0.034 A 
ATOM     53  C   UNL A   1      45.468  31.357  29.201  1.00  0.00     0.049 A 
ATOM     54  C   UNL A   1      40.079  32.319  30.342  1.00  0.00     0.074 A 
ATOM     55  C   UNL A   1      46.348  32.404  29.411  1.00  0.00     0.029 A 
ATOM     56  N   UNL A   1      44.208  31.819  29.553  1.00  0.00    -0.354 N 
ATOM     57  N   UNL A   1      41.363  32.263  30.087  1.00  0.00    -0.248 NA
ATOM     58  C   UNL A   1      39.646  33.568  30.984  1.00  0.00     0.031 C 
ATOM     59  C   UNL A   1      45.627  33.483  29.936  1.00  0.00     0.029 A 
ATOM     60  C   UNL A   1      44.291  33.123  30.013  1.00  0.00     0.049 A 
ATOM     61  H   UNL A   1      43.378  31.295  29.487  1.00  0.00     0.167 HD
ATOM     62  C   UNL A   1      41.889  33.478  30.510  1.00  0.00     0.074 A 
ATOM     63  C   UNL A   1      40.779  34.259  31.017  1.00  0.00     0.031 C 
ATOM     64  C   UNL A   1      43.177  33.904  30.489  1.00  0.00     0.034 A 
BRANCH  51  65
ATOM     65  C   UNL A   1      47.199  29.635  28.529  1.00  0.00     0.023 A 
ATOM     66  C   UNL A   1      47.778  29.739  27.247  1.00  0.00     0.012 A 
ATOM     67  C   UNL A   1      47.991  29.194  29.607  1.00  0.00     0.148 A 
ATOM     68  C   UNL A   1      49.104  29.364  27.031  1.00  0.00     0.002 A 
ATOM     69  C   UNL A   1      49.326  28.870  29.394  1.00  0.00     0.091 A 
ATOM     70  F   UNL A   1      47.422  29.080  30.816  1.00  0.00    -0.205 F 
ATOM     71  C   UNL A   1      49.879  28.938  28.106  1.00  0.00     0.022 A 
BRANCH  69  72
ATOM     72  S   UNL A   1      50.429  28.391  30.730  1.00  0.00     0.127 S 
ATOM     73  O   UNL A   1      49.775  27.185  31.233  1.00  0.00    -0.237 OA
ATOM     74  O   UNL A   1      51.686  28.152  30.021  1.00  0.00    -0.237 OA
ATOM     75  O   UNL A   1      50.457  29.520  31.649  1.00  0.00    -0.744 OA
ENDBRANCH  69  72
ENDBRANCH  51  65
BRANCH  52  76
ATOM     76  C   UNL A   1      37.575  31.592  30.329  1.00  0.00     0.023 A 
ATOM     77  C   UNL A   1      37.084  31.401  31.635  1.00  0.00     0.012 A 
ATOM     78  C   UNL A   1      36.716  32.099  29.337  1.00  0.00     0.148 A 
ATOM     79  C   UNL A   1      35.754  31.688  31.943  1.00  0.00     0.002 A 
ATOM     80  C   UNL A   1      35.407  32.436  29.664  1.00  0.00     0.091 A 
ATOM     81  F   UNL A   1      37.204  32.268  28.100  1.00  0.00    -0.205 F 
ATOM     82  C   UNL A   1      34.920  32.216  30.962  1.00  0.00     0.022 A 
BRANCH  80  83
ATOM     83  S   UNL A   1      34.295  33.240  28.504  1.00  0.00     0.127 S 
ATOM     84  O   UNL A   1      35.227  33.997  27.671  1.00  0.00    -0.237 OA
ATOM     85  O   UNL A   1      33.671  32.092  27.844  1.00  0.00    -0.237 OA
ATOM     86  O   UNL A   1      33.385  34.039  29.313  1.00  0.00    -0.744 OA
ENDBRANCH  80  83
ENDBRANCH  52  76
BRANCH  64  87
ATOM     87  C   UNL A   1      43.464  35.288  31.014  1.00  0.00     0.023 A 
ATOM     88  C   UNL A   1      43.793  35.469  32.372  1.00  0.00     0.012 A 
ATOM     89  C   UNL A   1      43.480  36.398  30.147  1.00  0.00     0.148 A 
ATOM     90  C   UNL A   1      44.100  36.737  32.866  1.00  0.00     0.002 A 
ATOM     91  C   UNL A   1      43.839  37.650  30.635  1.00  0.00     0.091 A 
ATOM     92  F   UNL A   1      43.148  36.210  28.861  1.00  0.00    -0.205 F 
ATOM     93  C   UNL A   1      44.136  37.823  31.996  1.00  0.00     0.022 A 
BRANCH  91  94
ATOM     94  S   UNL A   1      44.006  39.089  29.573  1.00  0.00     0.127 S 
ATOM     95  O   UNL A   1      43.841  40.185  30.528  1.00  0.00    -0.237 OA
ATOM     96  O   UNL A   1      45.365  38.934  29.053  1.00  0.00    -0.237 OA
ATOM     97  O   UNL A   1      42.955  38.976  28.570  1.00  0.00    -0.744 OA
ENDBRANCH  91  94
ENDBRANCH  64  87
ENDBRANCH  38  39
ENDBRANCH  30  33
ENDBRANCH  28  29
ENDBRANCH  27  28
ENDBRANCH  26  27
ENDBRANCH  25  26
ENDBRANCH   1  25
TORSDOF 21
ENDMDL
MODEL 3
REMARK VINA RESULT:     -10.3      6.481     10.152
REMARK SMILES C[N@H+]1CCO[C@H](CNc2nnc(SCC(=O)NCCCCCCNC(=O)c3ccc(-c4c5nc(c(-c6cccc(S(=O)(=O)[O-])c6F)c6ccc([nH]6)c(-c6cccc(S(=O)(=O)[O-])c6F)c6nc(c(-c7cccc(S(=O)(=O)[O-])c7F)c7ccc4[nH]7)C=C6)C=C5)cc3)s2)C1
REMARK SMILES IDX 19 1 18 2 17 3 15 4 16 5 14 7 13 8 12 9 9 10 10 11 90 12
REMARK SMILES IDX 11 13 8 14 7 16 6 17 1 18 2 19 3 20 91 21 4 23 5 24 20 25
REMARK SMILES IDX 21 26 22 27 23 28 24 29 25 30 26 32 27 33 28 34 89 35 29 36
REMARK SMILES IDX 88 37 30 38 31 39 32 40 82 41 33 42 87 43 81 44 83 45 34 46
REMARK SMILES IDX 86 47 80 48 79 49 35 51 67 52 47 53 66 54 48 55 51 56 65 57
REMARK SMILES IDX 84 58 49 59 50 60 64 62 85 63 52 64 36 65 37 66 45 67 38 68
REMARK SMILES IDX 40 69 46 70 39 71 41 72 42 73 43 74 44 75 68 76 69 77 77 78
REMARK SMILES IDX 70 79 72 80 78 81 71 82 73 83 74 84 75 85 76 86 53 87 54 88
REMARK SMILES IDX 62 89 55 90 57 91 63 92 56 93 58 94 59 95 60 96 61 97
REMARK H PARENT 17 6 8 15 2 22 24 31 83 50 51 61
REMARK Flexibility Score: inf
ROOT
ATOM      1  C   UNL A   1      38.674  22.519  26.121  1.00  0.00     0.021 C 
ENDROOT
BRANCH   1   2
ATOM      2  C   UNL A   1      37.573  23.494  25.696  1.00  0.00     0.116 C 
BRANCH   2   3
ATOM      3  N   UNL A   1      37.322  23.388  24.269  1.00  0.00    -0.355 N 
ATOM      4  C   UNL A   1      36.173  23.086  23.605  1.00  0.00     0.230 C 
ATOM      5  O   UNL A   1      36.237  22.958  22.379  1.00  0.00    -0.274 OA
ATOM      6  H   UNL A   1      38.101  23.562  23.695  1.00  0.00     0.163 HD
BRANCH   4   7
ATOM      7  C   UNL A   1      34.843  23.008  24.328  1.00  0.00     0.177 C 
BRANCH   7   8
ATOM      8  S   UNL A   1      33.398  22.903  23.263  1.00  0.00    -0.084 SA
BRANCH   8   9
ATOM      9  C   UNL A   1      33.057  24.526  22.726  1.00  0.00     0.176 A 
ATOM     10  C   UNL A   1      32.412  26.753  22.167  1.00  0.00     0.206 A 
ATOM     11  N   UNL A   1      33.288  26.251  21.326  1.00  0.00    -0.119 NA
ATOM     12  S   UNL A   1      31.936  25.635  23.387  1.00  0.00    -0.069 S 
ATOM     13  N   UNL A   1      33.681  24.977  21.661  1.00  0.00    -0.130 NA
BRANCH  10  14
ATOM     14  N   UNL A   1      31.931  28.008  22.036  1.00  0.00    -0.357 N 
ATOM     15  H   UNL A   1      31.868  28.390  21.130  1.00  0.00     0.163 HD
BRANCH  14  16
ATOM     16  C   UNL A   1      31.505  28.827  23.158  1.00  0.00     0.153 C 
BRANCH  16  17
ATOM     17  C   UNL A   1      30.334  29.753  22.722  1.00  0.00     0.192 C 
ATOM     18  C   UNL A   1      28.931  32.566  22.873  1.00  0.00     0.332 C 
ATOM     19  N   UNL A   1      28.564  31.355  23.604  1.00  0.00    -0.333 N 
ATOM     20  C   UNL A   1      27.595  30.534  22.847  1.00  0.00     0.290 C 
ATOM     21  C   UNL A   1      29.748  30.526  23.928  1.00  0.00     0.296 C 
ATOM     22  H   UNL A   1      28.133  31.670  24.473  1.00  0.00     0.348 HD
ATOM     23  C   UNL A   1      28.210  29.780  21.660  1.00  0.00     0.222 C 
ATOM     24  O   UNL A   1      29.299  28.959  22.093  1.00  0.00    -0.365 OA
ENDBRANCH  16  17
ENDBRANCH  14  16
ENDBRANCH  10  14
ENDBRANCH   8   9
ENDBRANCH   7   8
ENDBRANCH   4   7
ENDBRANCH   2   3
ENDBRANCH   1   2
BRANCH   1  25
ATOM     25  C   UNL A   1      39.818  23.172  26.911  1.00  0.00     0.002 C 
BRANCH  25  26
ATOM     26  C   UNL A   1      40.913  22.212  27.388  1.00  0.00     0.002 C 
BRANCH  26  27
ATOM     27  C   UNL A   1      40.845  20.805  26.787  1.00  0.00     0.021 C 
BRANCH  27  28
ATOM     28  C   UNL A   1      42.003  19.891  27.175  1.00  0.00     0.116 C 
BRANCH  28  29
ATOM     29  N   UNL A   1      42.689  19.349  26.010  1.00  0.00    -0.352 N 
ATOM     30  C   UNL A   1      43.543  19.973  25.134  1.00  0.00     0.251 C 
ATOM     31  H   UNL A   1      42.515  18.398  25.824  1.00  0.00     0.163 HD
ATOM     32  O   UNL A   1      43.877  19.409  24.094  1.00  0.00    -0.269 OA
BRANCH  30  33
ATOM     33  C   UNL A   1      44.042  21.332  25.434  1.00  0.00     0.039 A 
ATOM     34  C   UNL A   1      43.569  22.408  24.679  1.00  0.00     0.014 A 
ATOM     35  C   UNL A   1      44.959  21.545  26.467  1.00  0.00     0.014 A 
ATOM     36  C   UNL A   1      43.959  23.708  25.010  1.00  0.00     0.010 A 
ATOM     37  C   UNL A   1      45.287  22.844  26.842  1.00  0.00     0.010 A 
ATOM     38  C   UNL A   1      44.786  23.940  26.123  1.00  0.00    -0.014 A 
BRANCH  38  39
ATOM     39  C   UNL A   1      45.089  25.320  26.583  1.00  0.00     0.031 A 
ATOM     40  C   UNL A   1      43.997  26.215  27.099  1.00  0.00     0.074 A 
ATOM     41  C   UNL A   1      46.340  25.800  26.441  1.00  0.00     0.049 A 
ATOM     42  N   UNL A   1      44.073  27.457  27.503  1.00  0.00    -0.248 NA
ATOM     43  C   UNL A   1      42.639  25.651  27.143  1.00  0.00     0.031 C 
ATOM     44  C   UNL A   1      47.473  25.055  25.886  1.00  0.00     0.029 A 
ATOM     45  N   UNL A   1      46.866  27.035  26.728  1.00  0.00    -0.354 N 
ATOM     46  C   UNL A   1      42.773  27.837  27.812  1.00  0.00     0.074 A 
ATOM     47  C   UNL A   1      41.924  26.701  27.521  1.00  0.00     0.031 C 
ATOM     48  C   UNL A   1      48.560  25.840  25.889  1.00  0.00     0.029 A 
ATOM     49  C   UNL A   1      48.198  27.155  26.405  1.00  0.00     0.049 A 
ATOM     50  H   UNL A   1      46.340  27.765  27.127  1.00  0.00     0.167 HD
ATOM     51  C   UNL A   1      42.328  29.016  28.310  1.00  0.00     0.034 A 
ATOM     52  C   UNL A   1      49.033  28.208  26.505  1.00  0.00     0.034 A 
ATOM     53  C   UNL A   1      43.180  30.133  28.619  1.00  0.00     0.049 A 
ATOM     54  C   UNL A   1      48.516  29.504  27.066  1.00  0.00     0.074 A 
ATOM     55  C   UNL A   1      42.843  31.330  29.225  1.00  0.00     0.029 A 
ATOM     56  N   UNL A   1      44.533  30.205  28.319  1.00  0.00    -0.354 N 
ATOM     57  N   UNL A   1      47.319  29.787  27.519  1.00  0.00    -0.248 NA
ATOM     58  C   UNL A   1      49.472  30.616  27.154  1.00  0.00     0.031 C 
ATOM     59  C   UNL A   1      43.981  32.144  29.249  1.00  0.00     0.029 A 
ATOM     60  C   UNL A   1      45.038  31.439  28.696  1.00  0.00     0.049 A 
ATOM     61  H   UNL A   1      45.056  29.486  27.900  1.00  0.00     0.167 HD
ATOM     62  C   UNL A   1      47.383  31.099  27.973  1.00  0.00     0.074 A 
ATOM     63  C   UNL A   1      48.746  31.547  27.760  1.00  0.00     0.031 C 
ATOM     64  C   UNL A   1      46.401  31.867  28.508  1.00  0.00     0.034 A 
BRANCH  51  65
ATOM     65  C   UNL A   1      40.848  29.146  28.573  1.00  0.00     0.023 A 
ATOM     66  C   UNL A   1      39.964  29.401  27.505  1.00  0.00     0.012 A 
ATOM     67  C   UNL A   1      40.329  28.983  29.872  1.00  0.00     0.148 A 
ATOM     68  C   UNL A   1      38.595  29.543  27.731  1.00  0.00     0.002 A 
ATOM     69  C   UNL A   1      38.957  29.076  30.083  1.00  0.00     0.091 A 
ATOM     70  F   UNL A   1      41.183  28.761  30.882  1.00  0.00    -0.205 F 
ATOM     71  C   UNL A   1      38.091  29.372  29.018  1.00  0.00     0.022 A 
BRANCH  69  72
ATOM     72  S   UNL A   1      38.204  28.788  31.689  1.00  0.00     0.127 S 
ATOM     73  O   UNL A   1      38.604  27.408  31.958  1.00  0.00    -0.237 OA
ATOM     74  O   UNL A   1      38.868  29.789  32.524  1.00  0.00    -0.237 OA
ATOM     75  O   UNL A   1      36.776  29.004  31.505  1.00  0.00    -0.744 OA
ENDBRANCH  69  72
ENDBRANCH  51  65
BRANCH  52  76
ATOM     76  C   UNL A   1      50.466  28.052  26.125  1.00  0.00     0.023 A 
ATOM     77  C   UNL A   1      51.415  27.783  27.131  1.00  0.00     0.012 A 
ATOM     78  C   UNL A   1      50.883  28.115  24.783  1.00  0.00     0.148 A 
ATOM     79  C   UNL A   1      52.760  27.603  26.808  1.00  0.00     0.002 A 
ATOM     80  C   UNL A   1      52.216  27.880  24.462  1.00  0.00     0.091 A 
ATOM     81  F   UNL A   1      49.964  28.377  23.844  1.00  0.00    -0.205 F 
ATOM     82  C   UNL A   1      53.158  27.640  25.475  1.00  0.00     0.022 A 
BRANCH  80  83
ATOM     83  S   UNL A   1      52.801  27.779  22.767  1.00  0.00     0.127 S 
ATOM     84  O   UNL A   1      52.188  28.961  22.167  1.00  0.00    -0.237 OA
ATOM     85  O   UNL A   1      54.251  27.860  22.947  1.00  0.00    -0.237 OA
ATOM     86  O   UNL A   1      52.327  26.499  22.257  1.00  0.00    -0.744 OA
ENDBRANCH  80  83
ENDBRANCH  52  76
BRANCH  64  87
ATOM     87  C   UNL A   1      46.759  33.272  28.921  1.00  0.00     0.023 A 
ATOM     88  C   UNL A   1      47.151  33.535  30.249  1.00  0.00     0.012 A 
ATOM     89  C   UNL A   1      46.778  34.318  27.977  1.00  0.00     0.148 A 
ATOM     90  C   UNL A   1      47.523  34.822  30.638  1.00  0.00     0.002 A 
ATOM     91  C   UNL A   1      47.201  35.585  28.359  1.00  0.00     0.091 A 
ATOM     92  F   UNL A   1      46.386  34.052  26.721  1.00  0.00    -0.205 F 
ATOM     93  C   UNL A   1      47.561  35.842  29.692  1.00  0.00     0.022 A 
BRANCH  91  94
ATOM     94  S   UNL A   1      47.374  36.940  27.192  1.00  0.00     0.127 S 
ATOM     95  O   UNL A   1      46.227  36.723  26.310  1.00  0.00    -0.237 OA
ATOM     96  O   UNL A   1      47.261  38.112  28.060  1.00  0.00    -0.237 OA
ATOM     97  O   UNL A   1      48.679  36.771  26.566  1.00  0.00    -0.744 OA
ENDBRANCH  91  94
ENDBRANCH  64  87
ENDBRANCH  38  39
ENDBRANCH  30  33
ENDBRANCH  28  29
ENDBRANCH  27  28
ENDBRANCH  26  27
ENDBRANCH  25  26
ENDBRANCH   1  25
TORSDOF 21
ENDMDL
