MODEL 1
REMARK VINA RESULT:     -13.1      0.000      0.000
REMARK SMILES Cc1nc(NC(=O)[C@H]2[C@@H]3CC[C@@H](C3)[C@@H]2C(=O)NCCCCCCNC(=O)c2ccc(-c3c4nc(c(-c5cccc(S(=O)(=O)[O-])c5F)c5ccc([nH]5)c(-c5cccc(S(=O)(=O)[O-])c5F)c5nc(c(-c6cccc(S(=O)(=O)[O-])c6F)c6ccc3[nH]6)C=C5)C=C4)cc2)sc1-c1ccccc1
REMARK SMILES IDX 20 1 19 2 18 3 17 4 15 5 16 6 14 8 8 9 9 10 10 11 13 12
REMARK SMILES IDX 12 13 11 14 6 15 5 16 7 18 4 19 1 20 2 21 3 22 91 23 90 24
REMARK SMILES IDX 92 25 93 26 97 27 94 28 96 29 95 30 21 31 22 32 23 33 24 34
REMARK SMILES IDX 25 35 26 37 27 38 28 39 89 40 29 41 88 42 30 43 31 44 32 45
REMARK SMILES IDX 82 46 33 47 87 48 81 49 83 50 34 51 86 52 80 53 79 54 35 56
REMARK SMILES IDX 67 57 47 58 66 59 48 60 51 61 65 62 84 63 49 64 50 65 64 67
REMARK SMILES IDX 85 68 52 69 36 70 37 71 45 72 38 73 40 74 46 75 39 76 41 77
REMARK SMILES IDX 42 78 43 79 44 80 68 81 69 82 77 83 70 84 72 85 78 86 71 87
REMARK SMILES IDX 73 88 74 89 75 90 76 91 53 92 54 93 62 94 55 95 57 96 63 97
REMARK SMILES IDX 56 98 58 99 59 100 60 101 61 102
REMARK H PARENT 17 7 5 17 24 36 83 55 51 66
REMARK Flexibility Score: inf
ROOT
ATOM      1  C   UNL A   1      31.425  29.107  26.171  1.00  0.00     0.002 C 
ENDROOT
BRANCH   1   2
ATOM      2  C   UNL A   1      31.471  27.889  27.106  1.00  0.00     0.021 C 
BRANCH   2   3
ATOM      3  C   UNL A   1      32.166  26.664  26.519  1.00  0.00     0.116 C 
BRANCH   3   4
ATOM      4  N   UNL A   1      31.575  25.409  26.941  1.00  0.00    -0.356 N 
ATOM      5  C   UNL A   1      31.863  24.107  26.672  1.00  0.00     0.224 C 
ATOM      6  O   UNL A   1      31.197  23.279  27.303  1.00  0.00    -0.275 OA
ATOM      7  H   UNL A   1      30.808  25.522  27.548  1.00  0.00     0.163 HD
BRANCH   5   8
ATOM      8  C   UNL A   1      32.925  23.688  25.634  1.00  0.00     0.094 C 
ATOM      9  C   UNL A   1      32.493  22.362  24.906  1.00  0.00     0.094 C 
ATOM     10  C   UNL A   1      33.657  21.403  25.341  1.00  0.00     0.002 C 
ATOM     11  C   UNL A   1      33.623  21.133  26.859  1.00  0.00     0.005 C 
ATOM     12  C   UNL A   1      34.861  22.330  25.212  1.00  0.00     0.009 C 
ATOM     13  C   UNL A   1      34.310  23.323  26.228  1.00  0.00     0.002 C 
ATOM     14  C   UNL A   1      34.150  22.434  27.465  1.00  0.00     0.005 C 
BRANCH   9  15
ATOM     15  C   UNL A   1      32.398  22.289  23.359  1.00  0.00     0.230 C 
ATOM     16  N   UNL A   1      32.356  23.332  22.498  1.00  0.00    -0.302 N 
ATOM     17  H   UNL A   1      32.474  23.107  21.547  1.00  0.00     0.172 HD
ATOM     18  O   UNL A   1      32.351  21.175  22.807  1.00  0.00    -0.274 OA
BRANCH  16  19
ATOM     19  C   UNL A   1      32.172  24.643  22.776  1.00  0.00     0.190 A 
ATOM     20  C   UNL A   1      33.209  28.035  22.644  1.00  0.00     0.068 C 
ATOM     21  C   UNL A   1      32.415  26.808  22.864  1.00  0.00     0.058 A 
ATOM     22  N   UNL A   1      33.056  25.596  22.739  1.00  0.00    -0.225 NA
ATOM     23  C   UNL A   1      31.043  26.735  23.035  1.00  0.00     0.059 A 
ATOM     24  S   UNL A   1      30.569  25.098  23.165  1.00  0.00    -0.096 S 
BRANCH  23  25
ATOM     25  C   UNL A   1      30.120  27.861  23.023  1.00  0.00    -0.006 A 
ATOM     26  C   UNL A   1      30.478  29.041  22.361  1.00  0.00     0.009 A 
ATOM     27  C   UNL A   1      28.783  27.649  23.385  1.00  0.00     0.009 A 
ATOM     28  C   UNL A   1      29.497  29.971  22.012  1.00  0.00     0.001 A 
ATOM     29  C   UNL A   1      27.804  28.581  23.036  1.00  0.00     0.001 A 
ATOM     30  C   UNL A   1      28.160  29.731  22.334  1.00  0.00     0.000 A 
ENDBRANCH  23  25
ENDBRANCH  16  19
ENDBRANCH   9  15
ENDBRANCH   5   8
ENDBRANCH   3   4
ENDBRANCH   2   3
ENDBRANCH   1   2
BRANCH   1  31
ATOM     31  C   UNL A   1      32.558  30.114  26.367  1.00  0.00     0.002 C 
BRANCH  31  32
ATOM     32  C   UNL A   1      32.121  31.458  26.946  1.00  0.00     0.021 C 
BRANCH  32  33
ATOM     33  C   UNL A   1      33.274  32.372  27.342  1.00  0.00     0.116 C 
BRANCH  33  34
ATOM     34  N   UNL A   1      32.819  33.732  27.590  1.00  0.00    -0.352 N 
ATOM     35  C   UNL A   1      33.182  34.571  28.616  1.00  0.00     0.251 C 
ATOM     36  H   UNL A   1      32.171  34.094  26.945  1.00  0.00     0.163 HD
ATOM     37  O   UNL A   1      32.553  35.593  28.846  1.00  0.00    -0.269 OA
BRANCH  35  38
ATOM     38  C   UNL A   1      34.346  34.201  29.448  1.00  0.00     0.039 A 
ATOM     39  C   UNL A   1      34.140  33.483  30.626  1.00  0.00     0.014 A 
ATOM     40  C   UNL A   1      35.640  34.512  29.018  1.00  0.00     0.014 A 
ATOM     41  C   UNL A   1      35.243  33.017  31.344  1.00  0.00     0.010 A 
ATOM     42  C   UNL A   1      36.735  33.987  29.697  1.00  0.00     0.010 A 
ATOM     43  C   UNL A   1      36.546  33.230  30.862  1.00  0.00    -0.014 A 
BRANCH  43  44
ATOM     44  C   UNL A   1      37.722  32.620  31.534  1.00  0.00     0.031 A 
ATOM     45  C   UNL A   1      38.446  31.464  30.904  1.00  0.00     0.074 A 
ATOM     46  C   UNL A   1      38.075  33.050  32.762  1.00  0.00     0.049 A 
ATOM     47  N   UNL A   1      39.449  30.769  31.371  1.00  0.00    -0.248 NA
ATOM     48  C   UNL A   1      37.965  31.014  29.587  1.00  0.00     0.031 C 
ATOM     49  C   UNL A   1      37.400  34.112  33.512  1.00  0.00     0.029 A 
ATOM     50  N   UNL A   1      39.067  32.625  33.610  1.00  0.00    -0.354 N 
ATOM     51  C   UNL A   1      39.702  29.783  30.426  1.00  0.00     0.074 A 
ATOM     52  C   UNL A   1      38.728  29.952  29.370  1.00  0.00     0.031 C 
ATOM     53  C   UNL A   1      37.995  34.254  34.705  1.00  0.00     0.029 A 
ATOM     54  C   UNL A   1      39.065  33.270  34.825  1.00  0.00     0.049 A 
ATOM     55  H   UNL A   1      39.718  31.925  33.372  1.00  0.00     0.167 HD
ATOM     56  C   UNL A   1      40.671  28.836  30.428  1.00  0.00     0.034 A 
ATOM     57  C   UNL A   1      39.823  33.077  35.923  1.00  0.00     0.034 A 
ATOM     58  C   UNL A   1      41.652  28.688  31.470  1.00  0.00     0.049 A 
ATOM     59  C   UNL A   1      40.899  32.026  35.893  1.00  0.00     0.074 A 
ATOM     60  C   UNL A   1      42.732  27.824  31.516  1.00  0.00     0.029 A 
ATOM     61  N   UNL A   1      41.661  29.401  32.659  1.00  0.00    -0.354 N 
ATOM     62  N   UNL A   1      41.234  31.218  34.917  1.00  0.00    -0.248 NA
ATOM     63  C   UNL A   1      41.718  31.879  37.105  1.00  0.00     0.031 C 
ATOM     64  C   UNL A   1      43.368  27.985  32.751  1.00  0.00     0.029 A 
ATOM     65  C   UNL A   1      42.708  28.977  33.459  1.00  0.00     0.049 A 
ATOM     66  H   UNL A   1      41.016  30.106  32.898  1.00  0.00     0.167 HD
ATOM     67  C   UNL A   1      42.315  30.481  35.387  1.00  0.00     0.074 A 
ATOM     68  C   UNL A   1      42.598  30.963  36.724  1.00  0.00     0.031 C 
ATOM     69  C   UNL A   1      43.001  29.484  34.776  1.00  0.00     0.034 A 
BRANCH  56  70
ATOM     70  C   UNL A   1      40.741  27.902  29.248  1.00  0.00     0.023 A 
ATOM     71  C   UNL A   1      39.894  26.776  29.196  1.00  0.00     0.012 A 
ATOM     72  C   UNL A   1      41.595  28.175  28.161  1.00  0.00     0.148 A 
ATOM     73  C   UNL A   1      39.921  25.916  28.099  1.00  0.00     0.002 A 
ATOM     74  C   UNL A   1      41.582  27.340  27.050  1.00  0.00     0.091 A 
ATOM     75  F   UNL A   1      42.407  29.238  28.238  1.00  0.00    -0.205 F 
ATOM     76  C   UNL A   1      40.756  26.204  27.022  1.00  0.00     0.022 A 
BRANCH  74  77
ATOM     77  S   UNL A   1      42.561  27.666  25.580  1.00  0.00     0.127 S 
ATOM     78  O   UNL A   1      43.915  27.712  26.132  1.00  0.00    -0.237 OA
ATOM     79  O   UNL A   1      42.278  26.492  24.756  1.00  0.00    -0.237 OA
ATOM     80  O   UNL A   1      42.067  28.925  25.039  1.00  0.00    -0.744 OA
ENDBRANCH  74  77
ENDBRANCH  56  70
BRANCH  57  81
ATOM     81  C   UNL A   1      39.609  33.922  37.132  1.00  0.00     0.023 A 
ATOM     82  C   UNL A   1      40.057  35.256  37.138  1.00  0.00     0.012 A 
ATOM     83  C   UNL A   1      38.935  33.416  38.261  1.00  0.00     0.148 A 
ATOM     84  C   UNL A   1      39.864  36.064  38.259  1.00  0.00     0.002 A 
ATOM     85  C   UNL A   1      38.694  34.244  39.351  1.00  0.00     0.091 A 
ATOM     86  F   UNL A   1      38.527  32.140  38.238  1.00  0.00    -0.205 F 
ATOM     87  C   UNL A   1      39.174  35.563  39.360  1.00  0.00     0.022 A 
BRANCH  85  88
ATOM     88  S   UNL A   1      37.694  33.725  40.749  1.00  0.00     0.127 S 
ATOM     89  O   UNL A   1      38.600  32.814  41.442  1.00  0.00    -0.237 OA
ATOM     90  O   UNL A   1      37.452  34.996  41.433  1.00  0.00    -0.237 OA
ATOM     91  O   UNL A   1      36.500  33.117  40.178  1.00  0.00    -0.744 OA
ENDBRANCH  85  88
ENDBRANCH  57  81
BRANCH  69  92
ATOM     92  C   UNL A   1      44.135  28.848  35.537  1.00  0.00     0.023 A 
ATOM     93  C   UNL A   1      45.440  29.366  35.410  1.00  0.00     0.012 A 
ATOM     94  C   UNL A   1      43.897  27.785  36.430  1.00  0.00     0.148 A 
ATOM     95  C   UNL A   1      46.496  28.811  36.133  1.00  0.00     0.002 A 
ATOM     96  C   UNL A   1      44.945  27.272  37.186  1.00  0.00     0.091 A 
ATOM     97  F   UNL A   1      42.652  27.297  36.526  1.00  0.00    -0.205 F 
ATOM     98  C   UNL A   1      46.247  27.775  37.029  1.00  0.00     0.022 A 
BRANCH  96  99
ATOM     99  S   UNL A   1      44.708  26.001  38.433  1.00  0.00     0.127 S 
ATOM    100  O   UNL A   1      43.941  24.999  37.694  1.00  0.00    -0.237 OA
ATOM    101  O   UNL A   1      46.083  25.611  38.741  1.00  0.00    -0.237 OA
ATOM    102  O   UNL A   1      43.997  26.640  39.532  1.00  0.00    -0.744 OA
ENDBRANCH  96  99
ENDBRANCH  69  92
ENDBRANCH  43  44
ENDBRANCH  35  38
ENDBRANCH  33  34
ENDBRANCH  32  33
ENDBRANCH  31  32
ENDBRANCH   1  31
TORSDOF 19
ENDMDL
MODEL 2
REMARK VINA RESULT:     -12.4      6.029     11.257
REMARK SMILES Cc1nc(NC(=O)[C@H]2[C@@H]3CC[C@@H](C3)[C@@H]2C(=O)NCCCCCCNC(=O)c2ccc(-c3c4nc(c(-c5cccc(S(=O)(=O)[O-])c5F)c5ccc([nH]5)c(-c5cccc(S(=O)(=O)[O-])c5F)c5nc(c(-c6cccc(S(=O)(=O)[O-])c6F)c6ccc3[nH]6)C=C5)C=C4)cc2)sc1-c1ccccc1
REMARK SMILES IDX 20 1 19 2 18 3 17 4 15 5 16 6 14 8 8 9 9 10 10 11 13 12
REMARK SMILES IDX 12 13 11 14 6 15 5 16 7 18 4 19 1 20 2 21 3 22 91 23 90 24
REMARK SMILES IDX 92 25 93 26 97 27 94 28 96 29 95 30 21 31 22 32 23 33 24 34
REMARK SMILES IDX 25 35 26 37 27 38 28 39 89 40 29 41 88 42 30 43 31 44 32 45
REMARK SMILES IDX 82 46 33 47 87 48 81 49 83 50 34 51 86 52 80 53 79 54 35 56
REMARK SMILES IDX 67 57 47 58 66 59 48 60 51 61 65 62 84 63 49 64 50 65 64 67
REMARK SMILES IDX 85 68 52 69 36 70 37 71 45 72 38 73 40 74 46 75 39 76 41 77
REMARK SMILES IDX 42 78 43 79 44 80 68 81 69 82 77 83 70 84 72 85 78 86 71 87
REMARK SMILES IDX 73 88 74 89 75 90 76 91 53 92 54 93 62 94 55 95 57 96 63 97
REMARK SMILES IDX 56 98 58 99 59 100 60 101 61 102
REMARK H PARENT 17 7 5 17 24 36 83 55 51 66
REMARK Flexibility Score: inf
ROOT
ATOM      1  C   UNL A   1      36.621  21.749  24.991  1.00  0.00     0.002 C 
ENDROOT
BRANCH   1   2
ATOM      2  C   UNL A   1      36.271  22.900  24.037  1.00  0.00     0.021 C 
BRANCH   2   3
ATOM      3  C   UNL A   1      35.312  23.935  24.615  1.00  0.00     0.116 C 
BRANCH   3   4
ATOM      4  N   UNL A   1      34.531  24.625  23.607  1.00  0.00    -0.356 N 
ATOM      5  C   UNL A   1      33.569  25.584  23.669  1.00  0.00     0.224 C 
ATOM      6  O   UNL A   1      33.189  26.020  22.576  1.00  0.00    -0.275 OA
ATOM      7  H   UNL A   1      34.740  24.340  22.688  1.00  0.00     0.163 HD
BRANCH   5   8
ATOM      8  C   UNL A   1      32.972  26.078  25.002  1.00  0.00     0.094 C 
ATOM      9  C   UNL A   1      31.437  26.378  24.844  1.00  0.00     0.094 C 
ATOM     10  C   UNL A   1      31.410  27.917  25.152  1.00  0.00     0.002 C 
ATOM     11  C   UNL A   1      32.155  28.718  24.065  1.00  0.00     0.005 C 
ATOM     12  C   UNL A   1      32.381  27.995  26.324  1.00  0.00     0.009 C 
ATOM     13  C   UNL A   1      33.539  27.429  25.511  1.00  0.00     0.002 C 
ATOM     14  C   UNL A   1      33.629  28.442  24.366  1.00  0.00     0.005 C 
BRANCH   9  15
ATOM     15  C   UNL A   1      30.387  25.711  25.772  1.00  0.00     0.230 C 
ATOM     16  N   UNL A   1      30.509  24.528  26.418  1.00  0.00    -0.302 N 
ATOM     17  H   UNL A   1      29.826  24.339  27.101  1.00  0.00     0.172 HD
ATOM     18  O   UNL A   1      29.303  26.286  25.973  1.00  0.00    -0.274 OA
BRANCH  16  19
ATOM     19  C   UNL A   1      31.450  23.570  26.244  1.00  0.00     0.190 A 
ATOM     20  C   UNL A   1      33.992  21.433  27.494  1.00  0.00     0.068 C 
ATOM     21  C   UNL A   1      33.001  22.084  26.612  1.00  0.00     0.058 A 
ATOM     22  N   UNL A   1      32.419  23.251  27.050  1.00  0.00    -0.225 NA
ATOM     23  C   UNL A   1      32.473  21.563  25.442  1.00  0.00     0.059 A 
ATOM     24  S   UNL A   1      31.299  22.637  24.817  1.00  0.00    -0.096 S 
BRANCH  23  25
ATOM     25  C   UNL A   1      32.792  20.266  24.865  1.00  0.00    -0.006 A 
ATOM     26  C   UNL A   1      33.078  19.185  25.708  1.00  0.00     0.009 A 
ATOM     27  C   UNL A   1      32.499  20.030  23.514  1.00  0.00     0.009 A 
ATOM     28  C   UNL A   1      33.013  17.880  25.216  1.00  0.00     0.001 A 
ATOM     29  C   UNL A   1      32.436  18.725  23.026  1.00  0.00     0.001 A 
ATOM     30  C   UNL A   1      32.674  17.651  23.882  1.00  0.00     0.000 A 
ENDBRANCH  23  25
ENDBRANCH  16  19
ENDBRANCH   9  15
ENDBRANCH   5   8
ENDBRANCH   3   4
ENDBRANCH   2   3
ENDBRANCH   1   2
BRANCH   1  31
ATOM     31  C   UNL A   1      36.830  20.392  24.318  1.00  0.00     0.002 C 
BRANCH  31  32
ATOM     32  C   UNL A   1      37.856  19.493  25.005  1.00  0.00     0.021 C 
BRANCH  32  33
ATOM     33  C   UNL A   1      38.906  20.248  25.812  1.00  0.00     0.116 C 
BRANCH  33  34
ATOM     34  N   UNL A   1      40.090  19.435  26.044  1.00  0.00    -0.352 N 
ATOM     35  C   UNL A   1      41.362  19.860  26.347  1.00  0.00     0.251 C 
ATOM     36  H   UNL A   1      39.965  18.462  25.977  1.00  0.00     0.163 HD
ATOM     37  O   UNL A   1      42.312  19.094  26.283  1.00  0.00    -0.269 OA
BRANCH  35  38
ATOM     38  C   UNL A   1      41.556  21.271  26.738  1.00  0.00     0.039 A 
ATOM     39  C   UNL A   1      41.886  21.573  28.060  1.00  0.00     0.014 A 
ATOM     40  C   UNL A   1      41.473  22.281  25.774  1.00  0.00     0.014 A 
ATOM     41  C   UNL A   1      42.200  22.889  28.402  1.00  0.00     0.010 A 
ATOM     42  C   UNL A   1      41.854  23.578  26.103  1.00  0.00     0.010 A 
ATOM     43  C   UNL A   1      42.226  23.893  27.418  1.00  0.00    -0.014 A 
BRANCH  43  44
ATOM     44  C   UNL A   1      42.697  25.266  27.735  1.00  0.00     0.031 A 
ATOM     45  C   UNL A   1      41.758  26.274  28.333  1.00  0.00     0.074 A 
ATOM     46  C   UNL A   1      43.948  25.628  27.389  1.00  0.00     0.049 A 
ATOM     47  N   UNL A   1      41.975  27.532  28.617  1.00  0.00    -0.248 NA
ATOM     48  C   UNL A   1      40.390  25.820  28.629  1.00  0.00     0.031 C 
ATOM     49  C   UNL A   1      44.928  24.760  26.731  1.00  0.00     0.029 A 
ATOM     50  N   UNL A   1      44.601  26.829  27.514  1.00  0.00    -0.354 N 
ATOM     51  C   UNL A   1      40.769  28.028  29.095  1.00  0.00     0.074 A 
ATOM     52  C   UNL A   1      39.814  26.942  29.036  1.00  0.00     0.031 C 
ATOM     53  C   UNL A   1      46.053  25.457  26.508  1.00  0.00     0.029 A 
ATOM     54  C   UNL A   1      45.863  26.829  26.969  1.00  0.00     0.049 A 
ATOM     55  H   UNL A   1      44.202  27.617  27.951  1.00  0.00     0.167 HD
ATOM     56  C   UNL A   1      40.487  29.269  29.561  1.00  0.00     0.034 A 
ATOM     57  C   UNL A   1      46.762  27.823  26.834  1.00  0.00     0.034 A 
ATOM     58  C   UNL A   1      41.447  30.337  29.638  1.00  0.00     0.049 A 
ATOM     59  C   UNL A   1      46.427  29.189  27.369  1.00  0.00     0.074 A 
ATOM     60  C   UNL A   1      41.285  31.598  30.184  1.00  0.00     0.029 A 
ATOM     61  N   UNL A   1      42.738  30.283  29.136  1.00  0.00    -0.354 N 
ATOM     62  N   UNL A   1      45.338  29.592  27.977  1.00  0.00    -0.248 NA
ATOM     63  C   UNL A   1      47.455  30.230  27.223  1.00  0.00     0.031 C 
ATOM     64  C   UNL A   1      42.464  32.321  29.973  1.00  0.00     0.029 A 
ATOM     65  C   UNL A   1      43.374  31.497  29.331  1.00  0.00     0.049 A 
ATOM     66  H   UNL A   1      43.143  29.496  28.704  1.00  0.00     0.167 HD
ATOM     67  C   UNL A   1      45.556  30.924  28.306  1.00  0.00     0.074 A 
ATOM     68  C   UNL A   1      46.895  31.251  27.858  1.00  0.00     0.031 C 
ATOM     69  C   UNL A   1      44.718  31.803  28.909  1.00  0.00     0.034 A 
BRANCH  56  70
ATOM     70  C   UNL A   1      39.088  29.531  30.055  1.00  0.00     0.023 A 
ATOM     71  C   UNL A   1      38.738  29.191  31.377  1.00  0.00     0.012 A 
ATOM     72  C   UNL A   1      38.142  30.175  29.233  1.00  0.00     0.148 A 
ATOM     73  C   UNL A   1      37.458  29.453  31.863  1.00  0.00     0.002 A 
ATOM     74  C   UNL A   1      36.883  30.477  29.740  1.00  0.00     0.091 A 
ATOM     75  F   UNL A   1      38.488  30.473  27.973  1.00  0.00    -0.205 F 
ATOM     76  C   UNL A   1      36.535  30.106  31.049  1.00  0.00     0.022 A 
BRANCH  74  77
ATOM     77  S   UNL A   1      35.651  31.384  28.799  1.00  0.00     0.127 S 
ATOM     78  O   UNL A   1      36.456  32.460  28.221  1.00  0.00    -0.237 OA
ATOM     79  O   UNL A   1      35.197  30.379  27.840  1.00  0.00    -0.237 OA
ATOM     80  O   UNL A   1      34.643  31.808  29.761  1.00  0.00    -0.744 OA
ENDBRANCH  74  77
ENDBRANCH  56  70
BRANCH  57  81
ATOM     81  C   UNL A   1      48.078  27.554  26.188  1.00  0.00     0.023 A 
ATOM     82  C   UNL A   1      49.176  27.166  26.979  1.00  0.00     0.012 A 
ATOM     83  C   UNL A   1      48.235  27.650  24.791  1.00  0.00     0.148 A 
ATOM     84  C   UNL A   1      50.416  26.907  26.393  1.00  0.00     0.002 A 
ATOM     85  C   UNL A   1      49.457  27.333  24.209  1.00  0.00     0.091 A 
ATOM     86  F   UNL A   1      47.180  28.032  24.058  1.00  0.00    -0.205 F 
ATOM     87  C   UNL A   1      50.554  26.980  25.009  1.00  0.00     0.022 A 
BRANCH  85  88
ATOM     88  S   UNL A   1      49.684  27.264  22.429  1.00  0.00     0.127 S 
ATOM     89  O   UNL A   1      49.402  28.642  22.038  1.00  0.00    -0.237 OA
ATOM     90  O   UNL A   1      51.087  26.865  22.321  1.00  0.00    -0.237 OA
ATOM     91  O   UNL A   1      48.739  26.265  21.948  1.00  0.00    -0.744 OA
ENDBRANCH  85  88
ENDBRANCH  57  81
BRANCH  69  92
ATOM     92  C   UNL A   1      45.222  33.205  29.133  1.00  0.00     0.023 A 
ATOM     93  C   UNL A   1      45.915  33.518  30.320  1.00  0.00     0.012 A 
ATOM     94  C   UNL A   1      45.071  34.193  28.141  1.00  0.00     0.148 A 
ATOM     95  C   UNL A   1      46.418  34.802  30.531  1.00  0.00     0.002 A 
ATOM     96  C   UNL A   1      45.621  35.455  28.334  1.00  0.00     0.091 A 
ATOM     97  F   UNL A   1      44.397  33.880  27.024  1.00  0.00    -0.205 F 
ATOM     98  C   UNL A   1      46.283  35.765  29.534  1.00  0.00     0.022 A 
BRANCH  96  99
ATOM     99  S   UNL A   1      45.580  36.734  27.073  1.00  0.00     0.127 S 
ATOM    100  O   UNL A   1      46.440  37.759  27.661  1.00  0.00    -0.237 OA
ATOM    101  O   UNL A   1      46.154  36.045  25.917  1.00  0.00    -0.237 OA
ATOM    102  O   UNL A   1      44.181  37.108  26.923  1.00  0.00    -0.744 OA
ENDBRANCH  96  99
ENDBRANCH  69  92
ENDBRANCH  43  44
ENDBRANCH  35  38
ENDBRANCH  33  34
ENDBRANCH  32  33
ENDBRANCH  31  32
ENDBRANCH   1  31
TORSDOF 19
ENDMDL
MODEL 3
REMARK VINA RESULT:     -12.4      1.540      3.757
REMARK SMILES Cc1nc(NC(=O)[C@H]2[C@@H]3CC[C@@H](C3)[C@@H]2C(=O)NCCCCCCNC(=O)c2ccc(-c3c4nc(c(-c5cccc(S(=O)(=O)[O-])c5F)c5ccc([nH]5)c(-c5cccc(S(=O)(=O)[O-])c5F)c5nc(c(-c6cccc(S(=O)(=O)[O-])c6F)c6ccc3[nH]6)C=C5)C=C4)cc2)sc1-c1ccccc1
REMARK SMILES IDX 20 1 19 2 18 3 17 4 15 5 16 6 14 8 8 9 9 10 10 11 13 12
REMARK SMILES IDX 12 13 11 14 6 15 5 16 7 18 4 19 1 20 2 21 3 22 91 23 90 24
REMARK SMILES IDX 92 25 93 26 97 27 94 28 96 29 95 30 21 31 22 32 23 33 24 34
REMARK SMILES IDX 25 35 26 37 27 38 28 39 89 40 29 41 88 42 30 43 31 44 32 45
REMARK SMILES IDX 82 46 33 47 87 48 81 49 83 50 34 51 86 52 80 53 79 54 35 56
REMARK SMILES IDX 67 57 47 58 66 59 48 60 51 61 65 62 84 63 49 64 50 65 64 67
REMARK SMILES IDX 85 68 52 69 36 70 37 71 45 72 38 73 40 74 46 75 39 76 41 77
REMARK SMILES IDX 42 78 43 79 44 80 68 81 69 82 77 83 70 84 72 85 78 86 71 87
REMARK SMILES IDX 73 88 74 89 75 90 76 91 53 92 54 93 62 94 55 95 57 96 63 97
REMARK SMILES IDX 56 98 58 99 59 100 60 101 61 102
REMARK H PARENT 17 7 5 17 24 36 83 55 51 66
REMARK Flexibility Score: inf
ROOT
ATOM      1  C   UNL A   1      35.097  29.976  27.939  1.00  0.00     0.002 C 
ENDROOT
BRANCH   1   2
ATOM      2  C   UNL A   1      33.910  29.481  27.099  1.00  0.00     0.021 C 
BRANCH   2   3
ATOM      3  C   UNL A   1      34.224  28.292  26.196  1.00  0.00     0.116 C 
BRANCH   3   4
ATOM      4  N   UNL A   1      34.396  28.656  24.803  1.00  0.00    -0.356 N 
ATOM      5  C   UNL A   1      33.694  28.373  23.673  1.00  0.00     0.224 C 
ATOM      6  O   UNL A   1      34.083  28.950  22.652  1.00  0.00    -0.275 OA
ATOM      7  H   UNL A   1      35.183  29.225  24.642  1.00  0.00     0.163 HD
BRANCH   5   8
ATOM      8  C   UNL A   1      32.512  27.381  23.654  1.00  0.00     0.094 C 
ATOM      9  C   UNL A   1      31.905  27.270  22.208  1.00  0.00     0.094 C 
ATOM     10  C   UNL A   1      30.451  27.802  22.464  1.00  0.00     0.002 C 
ATOM     11  C   UNL A   1      30.460  29.294  22.852  1.00  0.00     0.005 C 
ATOM     12  C   UNL A   1      30.128  27.131  23.795  1.00  0.00     0.009 C 
ATOM     13  C   UNL A   1      31.291  27.804  24.512  1.00  0.00     0.002 C 
ATOM     14  C   UNL A   1      30.966  29.285  24.295  1.00  0.00     0.005 C 
BRANCH   9  15
ATOM     15  C   UNL A   1      31.769  25.898  21.496  1.00  0.00     0.230 C 
ATOM     16  N   UNL A   1      32.060  24.682  22.014  1.00  0.00    -0.302 N 
ATOM     17  H   UNL A   1      31.750  23.908  21.492  1.00  0.00     0.172 HD
ATOM     18  O   UNL A   1      31.354  25.861  20.324  1.00  0.00    -0.274 OA
BRANCH  16  19
ATOM     19  C   UNL A   1      32.722  24.394  23.159  1.00  0.00     0.190 A 
ATOM     20  C   UNL A   1      32.816  23.142  26.479  1.00  0.00     0.068 C 
ATOM     21  C   UNL A   1      33.211  23.678  25.159  1.00  0.00     0.058 A 
ATOM     22  N   UNL A   1      32.217  24.146  24.331  1.00  0.00    -0.225 NA
ATOM     23  C   UNL A   1      34.473  23.621  24.592  1.00  0.00     0.059 A 
ATOM     24  S   UNL A   1      34.425  24.290  23.019  1.00  0.00    -0.096 S 
BRANCH  23  25
ATOM     25  C   UNL A   1      35.652  23.013  25.192  1.00  0.00    -0.006 A 
ATOM     26  C   UNL A   1      35.970  21.682  24.896  1.00  0.00     0.009 A 
ATOM     27  C   UNL A   1      36.617  23.838  25.787  1.00  0.00     0.009 A 
ATOM     28  C   UNL A   1      37.258  21.201  25.140  1.00  0.00     0.001 A 
ATOM     29  C   UNL A   1      37.903  23.354  26.029  1.00  0.00     0.001 A 
ATOM     30  C   UNL A   1      38.227  22.043  25.689  1.00  0.00     0.000 A 
ENDBRANCH  23  25
ENDBRANCH  16  19
ENDBRANCH   9  15
ENDBRANCH   5   8
ENDBRANCH   3   4
ENDBRANCH   2   3
ENDBRANCH   1   2
BRANCH   1  31
ATOM     31  C   UNL A   1      34.866  31.302  28.665  1.00  0.00     0.002 C 
BRANCH  31  32
ATOM     32  C   UNL A   1      33.575  32.020  28.281  1.00  0.00     0.021 C 
BRANCH  32  33
ATOM     33  C   UNL A   1      33.788  33.310  27.498  1.00  0.00     0.116 C 
BRANCH  33  34
ATOM     34  N   UNL A   1      33.100  34.433  28.118  1.00  0.00    -0.352 N 
ATOM     35  C   UNL A   1      33.291  34.952  29.377  1.00  0.00     0.251 C 
ATOM     36  H   UNL A   1      32.414  34.875  27.569  1.00  0.00     0.163 HD
ATOM     37  O   UNL A   1      32.490  35.737  29.862  1.00  0.00    -0.269 OA
BRANCH  35  38
ATOM     38  C   UNL A   1      34.482  34.525  30.139  1.00  0.00     0.039 A 
ATOM     39  C   UNL A   1      34.311  33.871  31.360  1.00  0.00     0.014 A 
ATOM     40  C   UNL A   1      35.761  34.718  29.605  1.00  0.00     0.014 A 
ATOM     41  C   UNL A   1      35.427  33.349  32.017  1.00  0.00     0.010 A 
ATOM     42  C   UNL A   1      36.860  34.137  30.227  1.00  0.00     0.010 A 
ATOM     43  C   UNL A   1      36.703  33.442  31.436  1.00  0.00    -0.014 A 
BRANCH  43  44
ATOM     44  C   UNL A   1      37.877  32.769  32.048  1.00  0.00     0.031 A 
ATOM     45  C   UNL A   1      38.517  31.589  31.375  1.00  0.00     0.074 A 
ATOM     46  C   UNL A   1      38.302  33.166  33.264  1.00  0.00     0.049 A 
ATOM     47  N   UNL A   1      39.506  30.841  31.790  1.00  0.00    -0.248 NA
ATOM     48  C   UNL A   1      37.959  31.178  30.076  1.00  0.00     0.031 C 
ATOM     49  C   UNL A   1      37.711  34.249  34.054  1.00  0.00     0.029 A 
ATOM     50  N   UNL A   1      39.309  32.685  34.063  1.00  0.00    -0.354 N 
ATOM     51  C   UNL A   1      39.671  29.857  30.824  1.00  0.00     0.074 A 
ATOM     52  C   UNL A   1      38.660  30.085  29.814  1.00  0.00     0.031 C 
ATOM     53  C   UNL A   1      38.363  34.348  35.222  1.00  0.00     0.029 A 
ATOM     54  C   UNL A   1      39.390  33.313  35.284  1.00  0.00     0.049 A 
ATOM     55  H   UNL A   1      39.915  31.958  33.789  1.00  0.00     0.167 HD
ATOM     56  C   UNL A   1      40.593  28.866  30.773  1.00  0.00     0.034 A 
ATOM     57  C   UNL A   1      40.185  33.071  36.345  1.00  0.00     0.034 A 
ATOM     58  C   UNL A   1      41.610  28.659  31.770  1.00  0.00     0.049 A 
ATOM     59  C   UNL A   1      41.207  31.971  36.257  1.00  0.00     0.074 A 
ATOM     60  C   UNL A   1      42.649  27.745  31.759  1.00  0.00     0.029 A 
ATOM     61  N   UNL A   1      41.703  29.356  32.964  1.00  0.00    -0.354 N 
ATOM     62  N   UNL A   1      41.462  31.161  35.259  1.00  0.00    -0.248 NA
ATOM     63  C   UNL A   1      42.070  31.770  37.431  1.00  0.00     0.031 C 
ATOM     64  C   UNL A   1      43.345  27.860  32.967  1.00  0.00     0.029 A 
ATOM     65  C   UNL A   1      42.764  28.872  33.713  1.00  0.00     0.049 A 
ATOM     66  H   UNL A   1      41.104  30.087  33.240  1.00  0.00     0.167 HD
ATOM     67  C   UNL A   1      42.526  30.369  35.673  1.00  0.00     0.074 A 
ATOM     68  C   UNL A   1      42.889  30.820  37.002  1.00  0.00     0.031 C 
ATOM     69  C   UNL A   1      43.137  29.348  35.021  1.00  0.00     0.034 A 
BRANCH  56  70
ATOM     70  C   UNL A   1      40.567  27.944  29.581  1.00  0.00     0.023 A 
ATOM     71  C   UNL A   1      39.640  26.883  29.537  1.00  0.00     0.012 A 
ATOM     72  C   UNL A   1      41.413  28.170  28.477  1.00  0.00     0.148 A 
ATOM     73  C   UNL A   1      39.579  26.038  28.430  1.00  0.00     0.002 A 
ATOM     74  C   UNL A   1      41.313  27.352  27.357  1.00  0.00     0.091 A 
ATOM     75  F   UNL A   1      42.301  29.171  28.546  1.00  0.00    -0.205 F 
ATOM     76  C   UNL A   1      40.407  26.280  27.337  1.00  0.00     0.022 A 
BRANCH  74  77
ATOM     77  S   UNL A   1      42.279  27.627  25.868  1.00  0.00     0.127 S 
ATOM     78  O   UNL A   1      43.640  27.397  26.352  1.00  0.00    -0.237 OA
ATOM     79  O   UNL A   1      41.765  26.590  24.974  1.00  0.00    -0.237 OA
ATOM     80  O   UNL A   1      41.990  28.991  25.447  1.00  0.00    -0.744 OA
ENDBRANCH  74  77
ENDBRANCH  56  70
BRANCH  57  81
ATOM     81  C   UNL A   1      40.063  33.909  37.572  1.00  0.00     0.023 A 
ATOM     82  C   UNL A   1      40.760  35.130  37.653  1.00  0.00     0.012 A 
ATOM     83  C   UNL A   1      39.235  33.516  38.641  1.00  0.00     0.148 A 
ATOM     84  C   UNL A   1      40.657  35.929  38.792  1.00  0.00     0.002 A 
ATOM     85  C   UNL A   1      39.091  34.346  39.747  1.00  0.00     0.091 A 
ATOM     86  F   UNL A   1      38.590  32.344  38.548  1.00  0.00    -0.205 F 
ATOM     87  C   UNL A   1      39.817  35.544  39.833  1.00  0.00     0.022 A 
BRANCH  85  88
ATOM     88  S   UNL A   1      37.925  33.996  41.066  1.00  0.00     0.127 S 
ATOM     89  O   UNL A   1      38.685  33.067  41.898  1.00  0.00    -0.237 OA
ATOM     90  O   UNL A   1      37.722  35.323  41.648  1.00  0.00    -0.237 OA
ATOM     91  O   UNL A   1      36.746  33.441  40.415  1.00  0.00    -0.744 OA
ENDBRANCH  85  88
ENDBRANCH  57  81
BRANCH  69  92
ATOM     92  C   UNL A   1      44.271  28.651  35.726  1.00  0.00     0.023 A 
ATOM     93  C   UNL A   1      45.597  29.074  35.506  1.00  0.00     0.012 A 
ATOM     94  C   UNL A   1      44.020  27.623  36.656  1.00  0.00     0.148 A 
ATOM     95  C   UNL A   1      46.658  28.462  36.174  1.00  0.00     0.002 A 
ATOM     96  C   UNL A   1      45.076  27.054  37.358  1.00  0.00     0.091 A 
ATOM     97  F   UNL A   1      42.753  27.224  36.841  1.00  0.00    -0.205 F 
ATOM     98  C   UNL A   1      46.397  27.463  37.108  1.00  0.00     0.022 A 
BRANCH  96  99
ATOM     99  S   UNL A   1      44.833  25.826  38.646  1.00  0.00     0.127 S 
ATOM    100  O   UNL A   1      44.249  24.717  37.894  1.00  0.00    -0.237 OA
ATOM    101  O   UNL A   1      46.200  25.595  39.112  1.00  0.00    -0.237 OA
ATOM    102  O   UNL A   1      43.952  26.442  39.630  1.00  0.00    -0.744 OA
ENDBRANCH  96  99
ENDBRANCH  69  92
ENDBRANCH  43  44
ENDBRANCH  35  38
ENDBRANCH  33  34
ENDBRANCH  32  33
ENDBRANCH  31  32
ENDBRANCH   1  31
TORSDOF 19
ENDMDL
