MODEL 1
REMARK VINA RESULT:     -11.0      0.000      0.000
REMARK SMILES CC(C)N1C[C@@H](C(=O)N2CCC(C(=O)NCCCCCCNC(=O)c3ccc(-c4c5nc(c(-c6cccc(S(=O)(=O)[O-])c6F)c6ccc([nH]6)c(-c6cccc(S(=O)(=O)[O-])c6F)c6nc(c(-c7cccc(S(=O)(=O)[O-])c7F)c7ccc4[nH]7)C=C6)C=C5)cc3)CC2)CC1=O
REMARK SMILES IDX 19 1 18 2 17 3 16 4 15 5 13 6 14 7 12 9 7 10 8 11 9 12 10 13
REMARK SMILES IDX 89 14 11 15 88 16 6 17 4 18 5 19 91 20 90 21 92 22 2 23 1 24
REMARK SMILES IDX 3 25 20 26 21 27 22 28 23 29 24 31 25 32 26 33 87 34 27 35
REMARK SMILES IDX 86 36 28 37 29 38 30 39 80 40 31 41 85 42 79 43 81 44 32 45
REMARK SMILES IDX 84 46 78 47 77 48 33 50 65 51 45 52 64 53 46 54 49 55 63 56
REMARK SMILES IDX 82 57 47 58 48 59 62 61 83 62 50 63 34 64 35 65 43 66 36 67
REMARK SMILES IDX 38 68 44 69 37 70 39 71 40 72 41 73 42 74 66 75 67 76 75 77
REMARK SMILES IDX 68 78 70 79 76 80 69 81 71 82 72 83 73 84 74 85 51 86 52 87
REMARK SMILES IDX 60 88 53 89 55 90 61 91 54 92 56 93 57 94 58 95 59 96
REMARK H PARENT 15 8 22 30 81 49 49 60
REMARK Flexibility Score: inf
ROOT
ATOM      1  C   UNL A   1      40.445  21.296  26.999  1.00  0.00     0.002 C 
ENDROOT
BRANCH   1   2
ATOM      2  C   UNL A   1      39.661  22.191  26.033  1.00  0.00     0.002 C 
BRANCH   2   3
ATOM      3  C   UNL A   1      38.945  23.374  26.693  1.00  0.00     0.021 C 
BRANCH   3   4
ATOM      4  C   UNL A   1      37.673  23.806  25.967  1.00  0.00     0.116 C 
BRANCH   4   5
ATOM      5  N   UNL A   1      36.566  22.918  26.287  1.00  0.00    -0.356 N 
ATOM      6  C   UNL A   1      35.280  22.902  25.847  1.00  0.00     0.223 C 
ATOM      7  O   UNL A   1      34.508  22.072  26.334  1.00  0.00    -0.275 OA
ATOM      8  H   UNL A   1      36.785  22.208  26.933  1.00  0.00     0.163 HD
BRANCH   6   9
ATOM      9  C   UNL A   1      34.800  23.847  24.753  1.00  0.00     0.082 C 
ATOM     10  C   UNL A   1      31.462  26.010  24.223  1.00  0.00     0.227 C 
ATOM     11  O   UNL A   1      30.646  25.142  24.551  1.00  0.00    -0.274 OA
ATOM     12  N   UNL A   1      32.741  25.643  23.838  1.00  0.00    -0.342 N 
ATOM     13  C   UNL A   1      32.917  24.373  23.144  1.00  0.00     0.120 C 
ATOM     14  C   UNL A   1      33.967  26.230  24.350  1.00  0.00     0.120 C 
ATOM     15  C   UNL A   1      33.561  23.314  24.024  1.00  0.00     0.035 C 
ATOM     16  C   UNL A   1      34.678  25.275  25.302  1.00  0.00     0.035 C 
BRANCH  10  17
ATOM     17  C   UNL A   1      30.963  27.430  23.950  1.00  0.00     0.107 C 
ATOM     18  N   UNL A   1      29.091  28.508  23.014  1.00  0.00    -0.339 N 
ATOM     19  C   UNL A   1      29.442  27.409  23.873  1.00  0.00     0.133 C 
ATOM     20  C   UNL A   1      30.175  28.983  22.301  1.00  0.00     0.223 C 
ATOM     21  C   UNL A   1      31.411  28.239  22.741  1.00  0.00     0.115 C 
ATOM     22  O   UNL A   1      30.150  29.822  21.411  1.00  0.00    -0.275 OA
BRANCH  18  23
ATOM     23  C   UNL A   1      27.701  28.917  22.824  1.00  0.00     0.078 C 
ATOM     24  C   UNL A   1      26.738  28.064  23.649  1.00  0.00     0.031 C 
ATOM     25  C   UNL A   1      27.510  30.405  23.110  1.00  0.00     0.031 C 
ENDBRANCH  18  23
ENDBRANCH  10  17
ENDBRANCH   6   9
ENDBRANCH   4   5
ENDBRANCH   3   4
ENDBRANCH   2   3
ENDBRANCH   1   2
BRANCH   1  26
ATOM     26  C   UNL A   1      40.722  19.881  26.486  1.00  0.00     0.021 C 
BRANCH  26  27
ATOM     27  C   UNL A   1      42.053  19.294  26.941  1.00  0.00     0.116 C 
BRANCH  27  28
ATOM     28  N   UNL A   1      42.943  19.033  25.819  1.00  0.00    -0.352 N 
ATOM     29  C   UNL A   1      43.656  19.925  25.058  1.00  0.00     0.251 C 
ATOM     30  H   UNL A   1      43.049  18.086  25.574  1.00  0.00     0.163 HD
ATOM     31  O   UNL A   1      44.198  19.555  24.020  1.00  0.00    -0.269 OA
BRANCH  29  32
ATOM     32  C   UNL A   1      43.752  21.336  25.488  1.00  0.00     0.039 A 
ATOM     33  C   UNL A   1      44.232  21.625  26.768  1.00  0.00     0.014 A 
ATOM     34  C   UNL A   1      43.381  22.369  24.623  1.00  0.00     0.014 A 
ATOM     35  C   UNL A   1      44.393  22.955  27.159  1.00  0.00     0.010 A 
ATOM     36  C   UNL A   1      43.615  23.690  24.987  1.00  0.00     0.010 A 
ATOM     37  C   UNL A   1      44.117  23.999  26.260  1.00  0.00    -0.014 A 
BRANCH  37  38
ATOM     38  C   UNL A   1      44.358  25.419  26.626  1.00  0.00     0.031 A 
ATOM     39  C   UNL A   1      45.744  25.999  26.537  1.00  0.00     0.074 A 
ATOM     40  C   UNL A   1      43.347  26.157  27.130  1.00  0.00     0.049 A 
ATOM     41  N   UNL A   1      46.162  27.190  26.879  1.00  0.00    -0.248 NA
ATOM     42  C   UNL A   1      46.805  25.118  26.019  1.00  0.00     0.031 C 
ATOM     43  C   UNL A   1      41.975  25.686  27.334  1.00  0.00     0.029 A 
ATOM     44  N   UNL A   1      43.325  27.449  27.591  1.00  0.00    -0.354 N 
ATOM     45  C   UNL A   1      47.535  27.187  26.664  1.00  0.00     0.074 A 
ATOM     46  C   UNL A   1      47.885  25.869  26.182  1.00  0.00     0.031 C 
ATOM     47  C   UNL A   1      41.247  26.675  27.878  1.00  0.00     0.029 A 
ATOM     48  C   UNL A   1      42.105  27.834  28.096  1.00  0.00     0.049 A 
ATOM     49  H   UNL A   1      44.109  28.045  27.563  1.00  0.00     0.167 HD
ATOM     50  C   UNL A   1      48.421  28.196  26.834  1.00  0.00     0.034 A 
ATOM     51  C   UNL A   1      41.724  28.985  28.686  1.00  0.00     0.034 A 
ATOM     52  C   UNL A   1      48.061  29.518  27.271  1.00  0.00     0.049 A 
ATOM     53  C   UNL A   1      42.725  30.099  28.832  1.00  0.00     0.074 A 
ATOM     54  C   UNL A   1      48.868  30.637  27.369  1.00  0.00     0.029 A 
ATOM     55  N   UNL A   1      46.799  29.895  27.697  1.00  0.00    -0.354 N 
ATOM     56  N   UNL A   1      43.982  30.132  28.462  1.00  0.00    -0.248 NA
ATOM     57  C   UNL A   1      42.249  31.346  29.448  1.00  0.00     0.031 C 
ATOM     58  C   UNL A   1      48.102  31.681  27.896  1.00  0.00     0.029 A 
ATOM     59  C   UNL A   1      46.807  31.223  28.082  1.00  0.00     0.049 A 
ATOM     60  H   UNL A   1      46.011  29.304  27.722  1.00  0.00     0.167 HD
ATOM     61  C   UNL A   1      44.433  31.413  28.759  1.00  0.00     0.074 A 
ATOM     62  C   UNL A   1      43.310  32.132  29.324  1.00  0.00     0.031 C 
ATOM     63  C   UNL A   1      45.669  31.945  28.590  1.00  0.00     0.034 A 
BRANCH  50  64
ATOM     64  C   UNL A   1      49.869  27.928  26.517  1.00  0.00     0.023 A 
ATOM     65  C   UNL A   1      50.773  27.634  27.557  1.00  0.00     0.012 A 
ATOM     66  C   UNL A   1      50.315  27.888  25.181  1.00  0.00     0.148 A 
ATOM     67  C   UNL A   1      52.106  27.335  27.276  1.00  0.00     0.002 A 
ATOM     68  C   UNL A   1      51.633  27.541  24.906  1.00  0.00     0.091 A 
ATOM     69  F   UNL A   1      49.445  28.189  24.207  1.00  0.00    -0.205 F 
ATOM     70  C   UNL A   1      52.532  27.277  25.951  1.00  0.00     0.022 A 
BRANCH  68  71
ATOM     71  S   UNL A   1      52.258  27.356  23.232  1.00  0.00     0.127 S 
ATOM     72  O   UNL A   1      52.720  28.711  22.938  1.00  0.00    -0.237 OA
ATOM     73  O   UNL A   1      53.327  26.373  23.412  1.00  0.00    -0.237 OA
ATOM     74  O   UNL A   1      51.133  26.894  22.430  1.00  0.00    -0.744 OA
ENDBRANCH  68  71
ENDBRANCH  50  64
BRANCH  51  75
ATOM     75  C   UNL A   1      40.316  29.166  29.142  1.00  0.00     0.023 A 
ATOM     76  C   UNL A   1      39.324  29.524  28.208  1.00  0.00     0.012 A 
ATOM     77  C   UNL A   1      39.954  28.988  30.492  1.00  0.00     0.148 A 
ATOM     78  C   UNL A   1      38.007  29.744  28.615  1.00  0.00     0.002 A 
ATOM     79  C   UNL A   1      38.628  29.150  30.880  1.00  0.00     0.091 A 
ATOM     80  F   UNL A   1      40.911  28.657  31.368  1.00  0.00    -0.205 F 
ATOM     81  C   UNL A   1      37.658  29.549  29.948  1.00  0.00     0.022 A 
BRANCH  79  82
ATOM     82  S   UNL A   1      38.065  28.794  32.548  1.00  0.00     0.127 S 
ATOM     83  O   UNL A   1      38.961  29.623  33.349  1.00  0.00    -0.237 OA
ATOM     84  O   UNL A   1      36.676  29.253  32.500  1.00  0.00    -0.237 OA
ATOM     85  O   UNL A   1      38.214  27.354  32.713  1.00  0.00    -0.744 OA
ENDBRANCH  79  82
ENDBRANCH  51  75
BRANCH  63  86
ATOM     86  C   UNL A   1      45.872  33.389  28.967  1.00  0.00     0.023 A 
ATOM     87  C   UNL A   1      46.366  33.724  30.243  1.00  0.00     0.012 A 
ATOM     88  C   UNL A   1      45.651  34.409  28.021  1.00  0.00     0.148 A 
ATOM     89  C   UNL A   1      46.605  35.055  30.582  1.00  0.00     0.002 A 
ATOM     90  C   UNL A   1      45.942  35.727  28.346  1.00  0.00     0.091 A 
ATOM     91  F   UNL A   1      45.164  34.070  26.818  1.00  0.00    -0.205 F 
ATOM     92  C   UNL A   1      46.406  36.054  29.631  1.00  0.00     0.022 A 
BRANCH  90  93
ATOM     93  S   UNL A   1      45.816  37.066  27.156  1.00  0.00     0.127 S 
ATOM     94  O   UNL A   1      44.377  37.105  26.901  1.00  0.00    -0.237 OA
ATOM     95  O   UNL A   1      46.332  38.205  27.916  1.00  0.00    -0.237 OA
ATOM     96  O   UNL A   1      46.638  36.674  26.019  1.00  0.00    -0.744 OA
ENDBRANCH  90  93
ENDBRANCH  63  86
ENDBRANCH  37  38
ENDBRANCH  29  32
ENDBRANCH  27  28
ENDBRANCH  26  27
ENDBRANCH   1  26
TORSDOF 18
ENDMDL
MODEL 2
REMARK VINA RESULT:     -11.0      2.636      4.904
REMARK SMILES CC(C)N1C[C@@H](C(=O)N2CCC(C(=O)NCCCCCCNC(=O)c3ccc(-c4c5nc(c(-c6cccc(S(=O)(=O)[O-])c6F)c6ccc([nH]6)c(-c6cccc(S(=O)(=O)[O-])c6F)c6nc(c(-c7cccc(S(=O)(=O)[O-])c7F)c7ccc4[nH]7)C=C6)C=C5)cc3)CC2)CC1=O
REMARK SMILES IDX 19 1 18 2 17 3 16 4 15 5 13 6 14 7 12 9 7 10 8 11 9 12 10 13
REMARK SMILES IDX 89 14 11 15 88 16 6 17 4 18 5 19 91 20 90 21 92 22 2 23 1 24
REMARK SMILES IDX 3 25 20 26 21 27 22 28 23 29 24 31 25 32 26 33 87 34 27 35
REMARK SMILES IDX 86 36 28 37 29 38 30 39 80 40 31 41 85 42 79 43 81 44 32 45
REMARK SMILES IDX 84 46 78 47 77 48 33 50 65 51 45 52 64 53 46 54 49 55 63 56
REMARK SMILES IDX 82 57 47 58 48 59 62 61 83 62 50 63 34 64 35 65 43 66 36 67
REMARK SMILES IDX 38 68 44 69 37 70 39 71 40 72 41 73 42 74 66 75 67 76 75 77
REMARK SMILES IDX 68 78 70 79 76 80 69 81 71 82 72 83 73 84 74 85 51 86 52 87
REMARK SMILES IDX 60 88 53 89 55 90 61 91 54 92 56 93 57 94 58 95 59 96
REMARK H PARENT 15 8 22 30 81 49 49 60
REMARK Flexibility Score: inf
ROOT
ATOM      1  C   UNL A   1      36.040  23.884  25.920  1.00  0.00     0.002 C 
ENDROOT
BRANCH   1   2
ATOM      2  C   UNL A   1      34.553  24.253  25.886  1.00  0.00     0.002 C 
BRANCH   2   3
ATOM      3  C   UNL A   1      34.266  25.742  25.667  1.00  0.00     0.021 C 
BRANCH   3   4
ATOM      4  C   UNL A   1      32.860  26.166  26.086  1.00  0.00     0.116 C 
BRANCH   4   5
ATOM      5  N   UNL A   1      32.460  27.385  25.399  1.00  0.00    -0.356 N 
ATOM      6  C   UNL A   1      31.970  27.583  24.146  1.00  0.00     0.223 C 
ATOM      7  O   UNL A   1      31.772  28.742  23.776  1.00  0.00    -0.275 OA
ATOM      8  H   UNL A   1      32.562  28.207  25.932  1.00  0.00     0.163 HD
BRANCH   6   9
ATOM      9  C   UNL A   1      31.632  26.415  23.230  1.00  0.00     0.082 C 
ATOM     10  C   UNL A   1      32.625  22.528  23.205  1.00  0.00     0.227 C 
ATOM     11  O   UNL A   1      33.829  22.661  23.449  1.00  0.00    -0.274 OA
ATOM     12  N   UNL A   1      31.902  23.596  22.700  1.00  0.00    -0.342 N 
ATOM     13  C   UNL A   1      32.583  24.539  21.820  1.00  0.00     0.120 C 
ATOM     14  C   UNL A   1      30.630  24.063  23.221  1.00  0.00     0.120 C 
ATOM     15  C   UNL A   1      32.865  25.868  22.501  1.00  0.00     0.035 C 
ATOM     16  C   UNL A   1      30.796  25.373  23.984  1.00  0.00     0.035 C 
BRANCH  10  17
ATOM     17  C   UNL A   1      32.028  21.120  23.168  1.00  0.00     0.107 C 
ATOM     18  N   UNL A   1      32.660  18.907  23.666  1.00  0.00    -0.339 N 
ATOM     19  C   UNL A   1      32.766  20.248  24.176  1.00  0.00     0.133 C 
ATOM     20  C   UNL A   1      32.257  18.879  22.345  1.00  0.00     0.223 C 
ATOM     21  C   UNL A   1      31.964  20.288  21.894  1.00  0.00     0.115 C 
ATOM     22  O   UNL A   1      32.201  17.893  21.621  1.00  0.00    -0.275 OA
BRANCH  18  23
ATOM     23  C   UNL A   1      33.108  17.754  24.445  1.00  0.00     0.078 C 
ATOM     24  C   UNL A   1      34.598  17.479  24.249  1.00  0.00     0.031 C 
ATOM     25  C   UNL A   1      32.760  17.907  25.924  1.00  0.00     0.031 C 
ENDBRANCH  18  23
ENDBRANCH  10  17
ENDBRANCH   6   9
ENDBRANCH   4   5
ENDBRANCH   3   4
ENDBRANCH   2   3
ENDBRANCH   1   2
BRANCH   1  26
ATOM     26  C   UNL A   1      36.337  22.391  25.760  1.00  0.00     0.021 C 
BRANCH  26  27
ATOM     27  C   UNL A   1      37.617  22.082  24.991  1.00  0.00     0.116 C 
BRANCH  27  28
ATOM     28  N   UNL A   1      38.422  21.072  25.661  1.00  0.00    -0.352 N 
ATOM     29  C   UNL A   1      39.556  21.233  26.417  1.00  0.00     0.251 C 
ATOM     30  H   UNL A   1      38.110  20.144  25.559  1.00  0.00     0.163 HD
ATOM     31  O   UNL A   1      40.227  20.258  26.740  1.00  0.00    -0.269 OA
BRANCH  29  32
ATOM     32  C   UNL A   1      39.971  22.593  26.824  1.00  0.00     0.039 A 
ATOM     33  C   UNL A   1      40.855  22.740  27.896  1.00  0.00     0.014 A 
ATOM     34  C   UNL A   1      39.497  23.715  26.140  1.00  0.00     0.014 A 
ATOM     35  C   UNL A   1      41.308  24.014  28.244  1.00  0.00     0.010 A 
ATOM     36  C   UNL A   1      40.010  24.972  26.439  1.00  0.00     0.010 A 
ATOM     37  C   UNL A   1      40.915  25.137  27.498  1.00  0.00    -0.014 A 
BRANCH  37  38
ATOM     38  C   UNL A   1      41.447  26.491  27.799  1.00  0.00     0.031 A 
ATOM     39  C   UNL A   1      42.873  26.836  27.461  1.00  0.00     0.074 A 
ATOM     40  C   UNL A   1      40.678  27.376  28.465  1.00  0.00     0.049 A 
ATOM     41  N   UNL A   1      43.536  27.936  27.710  1.00  0.00    -0.248 NA
ATOM     42  C   UNL A   1      43.666  25.802  26.774  1.00  0.00     0.031 C 
ATOM     43  C   UNL A   1      39.304  27.134  28.913  1.00  0.00     0.029 A 
ATOM     44  N   UNL A   1      40.951  28.647  28.908  1.00  0.00    -0.354 N 
ATOM     45  C   UNL A   1      44.830  27.711  27.257  1.00  0.00     0.074 A 
ATOM     46  C   UNL A   1      44.867  26.362  26.735  1.00  0.00     0.031 C 
ATOM     47  C   UNL A   1      38.856  28.220  29.566  1.00  0.00     0.029 A 
ATOM     48  C   UNL A   1      39.919  29.218  29.616  1.00  0.00     0.049 A 
ATOM     49  H   UNL A   1      41.805  29.105  28.736  1.00  0.00     0.167 HD
ATOM     50  C   UNL A   1      45.886  28.557  27.256  1.00  0.00     0.034 A 
ATOM     51  C   UNL A   1      39.843  30.405  30.250  1.00  0.00     0.034 A 
ATOM     52  C   UNL A   1      45.833  29.912  27.734  1.00  0.00     0.049 A 
ATOM     53  C   UNL A   1      41.025  31.336  30.205  1.00  0.00     0.074 A 
ATOM     54  C   UNL A   1      46.818  30.881  27.676  1.00  0.00     0.029 A 
ATOM     55  N   UNL A   1      44.745  30.484  28.372  1.00  0.00    -0.354 N 
ATOM     56  N   UNL A   1      42.186  31.168  29.619  1.00  0.00    -0.248 NA
ATOM     57  C   UNL A   1      40.877  32.633  30.882  1.00  0.00     0.031 C 
ATOM     58  C   UNL A   1      46.340  32.027  28.318  1.00  0.00     0.029 A 
ATOM     59  C   UNL A   1      45.040  31.786  28.734  1.00  0.00     0.049 A 
ATOM     60  H   UNL A   1      43.887  30.031  28.542  1.00  0.00     0.167 HD
ATOM     61  C   UNL A   1      42.887  32.352  29.817  1.00  0.00     0.074 A 
ATOM     62  C   UNL A   1      42.015  33.235  30.563  1.00  0.00     0.031 C 
ATOM     63  C   UNL A   1      44.145  32.676  29.427  1.00  0.00     0.034 A 
BRANCH  50  64
ATOM     64  C   UNL A   1      47.192  28.060  26.692  1.00  0.00     0.023 A 
ATOM     65  C   UNL A   1      48.200  27.594  27.559  1.00  0.00     0.012 A 
ATOM     66  C   UNL A   1      47.387  27.979  25.299  1.00  0.00     0.148 A 
ATOM     67  C   UNL A   1      49.395  27.085  27.051  1.00  0.00     0.002 A 
ATOM     68  C   UNL A   1      48.559  27.424  24.799  1.00  0.00     0.091 A 
ATOM     69  F   UNL A   1      46.423  28.444  24.490  1.00  0.00    -0.205 F 
ATOM     70  C   UNL A   1      49.569  26.989  25.672  1.00  0.00     0.022 A 
BRANCH  68  71
ATOM     71  S   UNL A   1      48.844  27.179  23.043  1.00  0.00     0.127 S 
ATOM     72  O   UNL A   1      48.215  25.878  22.821  1.00  0.00    -0.237 OA
ATOM     73  O   UNL A   1      48.127  28.311  22.456  1.00  0.00    -0.237 OA
ATOM     74  O   UNL A   1      50.288  27.210  22.859  1.00  0.00    -0.744 OA
ENDBRANCH  68  71
ENDBRANCH  50  64
BRANCH  51  75
ATOM     75  C   UNL A   1      38.587  30.807  30.946  1.00  0.00     0.023 A 
ATOM     76  C   UNL A   1      38.430  30.518  32.316  1.00  0.00     0.012 A 
ATOM     77  C   UNL A   1      37.550  31.471  30.262  1.00  0.00     0.148 A 
ATOM     78  C   UNL A   1      37.247  30.842  32.982  1.00  0.00     0.002 A 
ATOM     79  C   UNL A   1      36.398  31.844  30.946  1.00  0.00     0.091 A 
ATOM     80  F   UNL A   1      37.712  31.729  28.958  1.00  0.00    -0.205 F 
ATOM     81  C   UNL A   1      36.236  31.512  32.300  1.00  0.00     0.022 A 
BRANCH  79  82
ATOM     82  S   UNL A   1      35.101  32.824  30.181  1.00  0.00     0.127 S 
ATOM     83  O   UNL A   1      35.840  34.002  29.736  1.00  0.00    -0.237 OA
ATOM     84  O   UNL A   1      34.647  31.937  29.109  1.00  0.00    -0.237 OA
ATOM     85  O   UNL A   1      34.114  33.053  31.228  1.00  0.00    -0.744 OA
ENDBRANCH  79  82
ENDBRANCH  51  75
BRANCH  63  86
ATOM     86  C   UNL A   1      44.647  34.059  29.745  1.00  0.00     0.023 A 
ATOM     87  C   UNL A   1      45.225  34.330  31.001  1.00  0.00     0.012 A 
ATOM     88  C   UNL A   1      44.619  35.070  28.764  1.00  0.00     0.148 A 
ATOM     89  C   UNL A   1      45.739  35.595  31.286  1.00  0.00     0.002 A 
ATOM     90  C   UNL A   1      45.180  36.311  29.035  1.00  0.00     0.091 A 
ATOM     91  F   UNL A   1      44.048  34.796  27.581  1.00  0.00    -0.205 F 
ATOM     92  C   UNL A   1      45.729  36.579  30.299  1.00  0.00     0.022 A 
BRANCH  90  93
ATOM     93  S   UNL A   1      45.307  37.605  27.796  1.00  0.00     0.127 S 
ATOM     94  O   UNL A   1      46.146  36.967  26.783  1.00  0.00    -0.237 OA
ATOM     95  O   UNL A   1      43.910  37.792  27.401  1.00  0.00    -0.237 OA
ATOM     96  O   UNL A   1      45.905  38.750  28.468  1.00  0.00    -0.744 OA
ENDBRANCH  90  93
ENDBRANCH  63  86
ENDBRANCH  37  38
ENDBRANCH  29  32
ENDBRANCH  27  28
ENDBRANCH  26  27
ENDBRANCH   1  26
TORSDOF 18
ENDMDL
MODEL 3
REMARK VINA RESULT:     -10.9      1.642      2.250
REMARK SMILES CC(C)N1C[C@@H](C(=O)N2CCC(C(=O)NCCCCCCNC(=O)c3ccc(-c4c5nc(c(-c6cccc(S(=O)(=O)[O-])c6F)c6ccc([nH]6)c(-c6cccc(S(=O)(=O)[O-])c6F)c6nc(c(-c7cccc(S(=O)(=O)[O-])c7F)c7ccc4[nH]7)C=C6)C=C5)cc3)CC2)CC1=O
REMARK SMILES IDX 19 1 18 2 17 3 16 4 15 5 13 6 14 7 12 9 7 10 8 11 9 12 10 13
REMARK SMILES IDX 89 14 11 15 88 16 6 17 4 18 5 19 91 20 90 21 92 22 2 23 1 24
REMARK SMILES IDX 3 25 20 26 21 27 22 28 23 29 24 31 25 32 26 33 87 34 27 35
REMARK SMILES IDX 86 36 28 37 29 38 30 39 80 40 31 41 85 42 79 43 81 44 32 45
REMARK SMILES IDX 84 46 78 47 77 48 33 50 65 51 45 52 64 53 46 54 49 55 63 56
REMARK SMILES IDX 82 57 47 58 48 59 62 61 83 62 50 63 34 64 35 65 43 66 36 67
REMARK SMILES IDX 38 68 44 69 37 70 39 71 40 72 41 73 42 74 66 75 67 76 75 77
REMARK SMILES IDX 68 78 70 79 76 80 69 81 71 82 72 83 73 84 74 85 51 86 52 87
REMARK SMILES IDX 60 88 53 89 55 90 61 91 54 92 56 93 57 94 58 95 59 96
REMARK H PARENT 15 8 22 30 81 49 49 60
REMARK Flexibility Score: inf
ROOT
ATOM      1  C   UNL A   1      41.702  21.422  26.352  1.00  0.00     0.002 C 
ENDROOT
BRANCH   1   2
ATOM      2  C   UNL A   1      40.878  21.743  27.604  1.00  0.00     0.002 C 
BRANCH   2   3
ATOM      3  C   UNL A   1      40.312  23.166  27.650  1.00  0.00     0.021 C 
BRANCH   3   4
ATOM      4  C   UNL A   1      39.257  23.444  26.582  1.00  0.00     0.116 C 
BRANCH   4   5
ATOM      5  N   UNL A   1      38.842  22.212  25.929  1.00  0.00    -0.356 N 
ATOM      6  C   UNL A   1      37.748  21.928  25.173  1.00  0.00     0.223 C 
ATOM      7  O   UNL A   1      37.593  20.766  24.789  1.00  0.00    -0.275 OA
ATOM      8  H   UNL A   1      39.457  21.453  26.058  1.00  0.00     0.163 HD
BRANCH   6   9
ATOM      9  C   UNL A   1      36.757  23.010  24.768  1.00  0.00     0.082 C 
ATOM     10  C   UNL A   1      32.856  22.987  23.829  1.00  0.00     0.227 C 
ATOM     11  O   UNL A   1      32.866  21.994  23.095  1.00  0.00    -0.274 OA
ATOM     12  N   UNL A   1      34.036  23.666  24.086  1.00  0.00    -0.342 N 
ATOM     13  C   UNL A   1      35.048  23.716  23.038  1.00  0.00     0.120 C 
ATOM     14  C   UNL A   1      34.508  24.046  25.406  1.00  0.00     0.120 C 
ATOM     15  C   UNL A   1      36.238  22.820  23.338  1.00  0.00     0.035 C 
ATOM     16  C   UNL A   1      35.675  23.169  25.845  1.00  0.00     0.035 C 
BRANCH  10  17
ATOM     17  C   UNL A   1      31.515  23.630  24.188  1.00  0.00     0.107 C 
ATOM     18  N   UNL A   1      30.634  25.762  24.661  1.00  0.00    -0.339 N 
ATOM     19  C   UNL A   1      31.545  25.094  23.770  1.00  0.00     0.133 C 
ATOM     20  C   UNL A   1      30.311  24.986  25.758  1.00  0.00     0.223 C 
ATOM     21  C   UNL A   1      30.958  23.633  25.605  1.00  0.00     0.115 C 
ATOM     22  O   UNL A   1      29.661  25.338  26.733  1.00  0.00    -0.275 OA
BRANCH  18  23
ATOM     23  C   UNL A   1      30.265  27.163  24.470  1.00  0.00     0.078 C 
ATOM     24  C   UNL A   1      31.349  28.112  24.977  1.00  0.00     0.031 C 
ATOM     25  C   UNL A   1      29.906  27.455  23.015  1.00  0.00     0.031 C 
ENDBRANCH  18  23
ENDBRANCH  10  17
ENDBRANCH   6   9
ENDBRANCH   4   5
ENDBRANCH   3   4
ENDBRANCH   2   3
ENDBRANCH   1   2
BRANCH   1  26
ATOM     26  C   UNL A   1      41.752  19.939  25.977  1.00  0.00     0.021 C 
BRANCH  26  27
ATOM     27  C   UNL A   1      43.047  19.234  26.363  1.00  0.00     0.116 C 
BRANCH  27  28
ATOM     28  N   UNL A   1      43.801  18.803  25.194  1.00  0.00    -0.352 N 
ATOM     29  C   UNL A   1      44.570  19.552  24.339  1.00  0.00     0.251 C 
ATOM     30  H   UNL A   1      43.751  17.842  24.988  1.00  0.00     0.163 HD
ATOM     31  O   UNL A   1      44.971  19.068  23.285  1.00  0.00    -0.269 OA
BRANCH  29  32
ATOM     32  C   UNL A   1      44.899  20.950  24.691  1.00  0.00     0.039 A 
ATOM     33  C   UNL A   1      44.618  21.965  23.775  1.00  0.00     0.014 A 
ATOM     34  C   UNL A   1      45.471  21.255  25.930  1.00  0.00     0.014 A 
ATOM     35  C   UNL A   1      44.859  23.295  24.124  1.00  0.00     0.010 A 
ATOM     36  C   UNL A   1      45.637  22.583  26.304  1.00  0.00     0.010 A 
ATOM     37  C   UNL A   1      45.339  23.618  25.405  1.00  0.00    -0.014 A 
BRANCH  37  38
ATOM     38  C   UNL A   1      45.527  25.029  25.827  1.00  0.00     0.031 A 
ATOM     39  C   UNL A   1      46.910  25.620  25.899  1.00  0.00     0.074 A 
ATOM     40  C   UNL A   1      44.463  25.749  26.239  1.00  0.00     0.049 A 
ATOM     41  N   UNL A   1      47.279  26.805  26.311  1.00  0.00    -0.248 NA
ATOM     42  C   UNL A   1      48.028  24.758  25.476  1.00  0.00     0.031 C 
ATOM     43  C   UNL A   1      43.082  25.264  26.286  1.00  0.00     0.029 A 
ATOM     44  N   UNL A   1      44.381  27.030  26.726  1.00  0.00    -0.354 N 
ATOM     45  C   UNL A   1      48.668  26.816  26.242  1.00  0.00     0.074 A 
ATOM     46  C   UNL A   1      49.078  25.512  25.769  1.00  0.00     0.031 C 
ATOM     47  C   UNL A   1      42.291  26.236  26.773  1.00  0.00     0.029 A 
ATOM     48  C   UNL A   1      43.111  27.395  27.108  1.00  0.00     0.049 A 
ATOM     49  H   UNL A   1      45.158  27.630  26.795  1.00  0.00     0.167 HD
ATOM     50  C   UNL A   1      49.522  27.826  26.528  1.00  0.00     0.034 A 
ATOM     51  C   UNL A   1      42.660  28.529  27.681  1.00  0.00     0.034 A 
ATOM     52  C   UNL A   1      49.106  29.135  26.956  1.00  0.00     0.049 A 
ATOM     53  C   UNL A   1      43.631  29.644  27.959  1.00  0.00     0.074 A 
ATOM     54  C   UNL A   1      49.889  30.256  27.166  1.00  0.00     0.029 A 
ATOM     55  N   UNL A   1      47.803  29.493  27.256  1.00  0.00    -0.354 N 
ATOM     56  N   UNL A   1      44.920  29.694  27.724  1.00  0.00    -0.248 NA
ATOM     57  C   UNL A   1      43.081  30.873  28.551  1.00  0.00     0.031 C 
ATOM     58  C   UNL A   1      49.062  31.282  27.633  1.00  0.00     0.029 A 
ATOM     59  C   UNL A   1      47.759  30.812  27.670  1.00  0.00     0.049 A 
ATOM     60  H   UNL A   1      47.022  28.898  27.183  1.00  0.00     0.167 HD
ATOM     61  C   UNL A   1      45.326  30.971  28.097  1.00  0.00     0.074 A 
ATOM     62  C   UNL A   1      44.143  31.668  28.557  1.00  0.00     0.031 C 
ATOM     63  C   UNL A   1      46.568  31.514  28.072  1.00  0.00     0.034 A 
BRANCH  50  64
ATOM     64  C   UNL A   1      50.998  27.575  26.360  1.00  0.00     0.023 A 
ATOM     65  C   UNL A   1      51.780  27.209  27.474  1.00  0.00     0.012 A 
ATOM     66  C   UNL A   1      51.592  27.622  25.083  1.00  0.00     0.148 A 
ATOM     67  C   UNL A   1      53.137  26.925  27.326  1.00  0.00     0.002 A 
ATOM     68  C   UNL A   1      52.934  27.290  24.936  1.00  0.00     0.091 A 
ATOM     69  F   UNL A   1      50.836  27.990  24.039  1.00  0.00    -0.205 F 
ATOM     70  C   UNL A   1      53.710  26.954  26.056  1.00  0.00     0.022 A 
BRANCH  68  71
ATOM     71  S   UNL A   1      53.744  27.214  23.335  1.00  0.00     0.127 S 
ATOM     72  O   UNL A   1      52.852  26.323  22.595  1.00  0.00    -0.237 OA
ATOM     73  O   UNL A   1      53.703  28.612  22.905  1.00  0.00    -0.237 OA
ATOM     74  O   UNL A   1      55.080  26.691  23.583  1.00  0.00    -0.744 OA
ENDBRANCH  68  71
ENDBRANCH  50  64
BRANCH  51  75
ATOM     75  C   UNL A   1      41.210  28.690  27.991  1.00  0.00     0.023 A 
ATOM     76  C   UNL A   1      40.308  28.988  26.951  1.00  0.00     0.012 A 
ATOM     77  C   UNL A   1      40.721  28.551  29.304  1.00  0.00     0.148 A 
ATOM     78  C   UNL A   1      38.953  29.188  27.219  1.00  0.00     0.002 A 
ATOM     79  C   UNL A   1      39.361  28.693  29.554  1.00  0.00     0.091 A 
ATOM     80  F   UNL A   1      41.595  28.277  30.282  1.00  0.00    -0.205 F 
ATOM     81  C   UNL A   1      38.478  29.033  28.517  1.00  0.00     0.022 A 
BRANCH  79  82
ATOM     82  S   UNL A   1      38.643  28.383  31.172  1.00  0.00     0.127 S 
ATOM     83  O   UNL A   1      39.484  29.210  32.034  1.00  0.00    -0.237 OA
ATOM     84  O   UNL A   1      37.275  28.870  30.992  1.00  0.00    -0.237 OA
ATOM     85  O   UNL A   1      38.746  26.944  31.377  1.00  0.00    -0.744 OA
ENDBRANCH  79  82
ENDBRANCH  51  75
BRANCH  63  86
ATOM     86  C   UNL A   1      46.717  32.949  28.502  1.00  0.00     0.023 A 
ATOM     87  C   UNL A   1      46.995  33.259  29.848  1.00  0.00     0.012 A 
ATOM     88  C   UNL A   1      46.665  33.987  27.550  1.00  0.00     0.148 A 
ATOM     89  C   UNL A   1      47.185  34.582  30.245  1.00  0.00     0.002 A 
ATOM     90  C   UNL A   1      46.909  35.296  27.942  1.00  0.00     0.091 A 
ATOM     91  F   UNL A   1      46.383  33.672  26.277  1.00  0.00    -0.205 F 
ATOM     92  C   UNL A   1      47.156  35.597  29.291  1.00  0.00     0.022 A 
BRANCH  90  93
ATOM     93  S   UNL A   1      46.995  36.655  26.771  1.00  0.00     0.127 S 
ATOM     94  O   UNL A   1      45.593  37.060  26.682  1.00  0.00    -0.237 OA
ATOM     95  O   UNL A   1      47.863  37.607  27.464  1.00  0.00    -0.237 OA
ATOM     96  O   UNL A   1      47.560  36.099  25.548  1.00  0.00    -0.744 OA
ENDBRANCH  90  93
ENDBRANCH  63  86
ENDBRANCH  37  38
ENDBRANCH  29  32
ENDBRANCH  27  28
ENDBRANCH  26  27
ENDBRANCH   1  26
TORSDOF 18
ENDMDL
