MODEL 1
REMARK VINA RESULT:     -10.2      0.000      0.000
REMARK SMILES CC(C)[C@@](C)(CC(=O)N[C@H]1CCCC1(C)C)C(=O)NCCCCCCNC(=O)c1ccc(-c2c3nc(c(-c4cccc(S(=O)(=O)[O-])c4F)c4ccc([nH]4)c(-c4cccc(S(=O)(=O)[O-])c4F)c4nc(c(-c5cccc(S(=O)(=O)[O-])c5F)c5ccc2[nH]5)C=C4)C=C3)cc1
REMARK SMILES IDX 22 1 21 2 20 3 19 4 17 5 18 6 4 8 5 9 2 10 1 11 3 12 6 13
REMARK SMILES IDX 7 14 8 15 9 16 10 18 11 19 14 20 12 21 13 22 15 23 16 24
REMARK SMILES IDX 23 25 24 26 25 27 26 28 27 29 28 31 29 32 30 33 91 34 31 35
REMARK SMILES IDX 90 36 32 37 33 38 34 39 84 40 35 41 89 42 83 43 85 44 36 45
REMARK SMILES IDX 88 46 82 47 81 48 37 50 69 51 49 52 68 53 50 54 53 55 67 56
REMARK SMILES IDX 86 57 51 58 52 59 66 61 87 62 54 63 38 64 39 65 47 66 40 67
REMARK SMILES IDX 42 68 48 69 41 70 43 71 44 72 45 73 46 74 70 75 71 76 79 77
REMARK SMILES IDX 72 78 74 79 80 80 73 81 75 82 76 83 77 84 78 85 55 86 56 87
REMARK SMILES IDX 64 88 57 89 59 90 65 91 58 92 60 93 61 94 62 95 63 96
REMARK H PARENT 19 7 9 17 26 30 85 49 53 60
REMARK Flexibility Score: inf
ROOT
ATOM      1  C   UNL A   1      33.932  29.882  27.269  1.00  0.00     0.002 C 
ENDROOT
BRANCH   1   2
ATOM      2  C   UNL A   1      32.419  29.611  27.393  1.00  0.00     0.021 C 
BRANCH   2   3
ATOM      3  C   UNL A   1      31.782  28.898  26.207  1.00  0.00     0.116 C 
BRANCH   3   4
ATOM      4  N   UNL A   1      31.362  27.584  26.600  1.00  0.00    -0.356 N 
ATOM      5  C   UNL A   1      31.006  26.468  25.968  1.00  0.00     0.226 C 
ATOM      6  O   UNL A   1      30.784  25.538  26.758  1.00  0.00    -0.274 OA
ATOM      7  H   UNL A   1      31.330  27.482  27.578  1.00  0.00     0.163 HD
BRANCH   5   8
ATOM      8  C   UNL A   1      31.018  26.248  24.444  1.00  0.00     0.057 C 
ATOM      9  C   UNL A   1      30.612  24.766  24.250  1.00  0.00     0.022 C 
BRANCH   8  10
ATOM     10  C   UNL A   1      29.949  27.216  23.870  1.00  0.00    -0.002 C 
ATOM     11  C   UNL A   1      30.192  27.860  22.505  1.00  0.00     0.008 C 
ATOM     12  C   UNL A   1      28.515  26.615  23.903  1.00  0.00     0.008 C 
ENDBRANCH   8  10
BRANCH   8  13
ATOM     13  C   UNL A   1      32.325  26.458  23.585  1.00  0.00     0.116 C 
BRANCH  13  14
ATOM     14  C   UNL A   1      33.679  26.328  24.271  1.00  0.00     0.221 C 
ATOM     15  O   UNL A   1      34.149  27.325  24.835  1.00  0.00    -0.275 OA
ATOM     16  N   UNL A   1      34.461  25.210  24.314  1.00  0.00    -0.353 N 
ATOM     17  H   UNL A   1      35.369  25.448  24.610  1.00  0.00     0.163 HD
BRANCH  16  18
ATOM     18  C   UNL A   1      34.380  23.736  24.055  1.00  0.00     0.087 C 
ATOM     19  C   UNL A   1      35.587  23.077  23.335  1.00  0.00     0.025 C 
ATOM     20  C   UNL A   1      34.480  22.932  25.415  1.00  0.00    -0.015 C 
ATOM     21  C   UNL A   1      36.675  22.839  24.383  1.00  0.00     0.003 C 
ATOM     22  C   UNL A   1      35.990  23.030  25.728  1.00  0.00     0.008 C 
ATOM     23  C   UNL A   1      33.645  23.479  26.575  1.00  0.00     0.013 C 
ATOM     24  C   UNL A   1      34.099  21.438  25.244  1.00  0.00     0.013 C 
ENDBRANCH  16  18
ENDBRANCH  13  14
ENDBRANCH   8  13
ENDBRANCH   5   8
ENDBRANCH   3   4
ENDBRANCH   2   3
ENDBRANCH   1   2
BRANCH   1  25
ATOM     25  C   UNL A   1      34.445  31.229  27.799  1.00  0.00     0.002 C 
BRANCH  25  26
ATOM     26  C   UNL A   1      33.401  32.334  27.902  1.00  0.00     0.021 C 
BRANCH  26  27
ATOM     27  C   UNL A   1      33.988  33.732  27.886  1.00  0.00     0.116 C 
BRANCH  27  28
ATOM     28  N   UNL A   1      33.299  34.613  28.814  1.00  0.00    -0.352 N 
ATOM     29  C   UNL A   1      33.492  34.720  30.166  1.00  0.00     0.251 C 
ATOM     30  H   UNL A   1      32.613  35.204  28.425  1.00  0.00     0.163 HD
ATOM     31  O   UNL A   1      32.700  35.346  30.867  1.00  0.00    -0.269 OA
BRANCH  29  32
ATOM     32  C   UNL A   1      34.659  34.044  30.765  1.00  0.00     0.039 A 
ATOM     33  C   UNL A   1      34.455  32.935  31.584  1.00  0.00     0.014 A 
ATOM     34  C   UNL A   1      35.952  34.481  30.461  1.00  0.00     0.014 A 
ATOM     35  C   UNL A   1      35.559  32.233  32.071  1.00  0.00     0.010 A 
ATOM     36  C   UNL A   1      37.045  33.727  30.869  1.00  0.00     0.010 A 
ATOM     37  C   UNL A   1      36.860  32.609  31.696  1.00  0.00    -0.014 A 
BRANCH  37  38
ATOM     38  C   UNL A   1      38.044  31.855  32.172  1.00  0.00     0.031 A 
ATOM     39  C   UNL A   1      38.702  32.232  33.471  1.00  0.00     0.074 A 
ATOM     40  C   UNL A   1      38.575  30.889  31.398  1.00  0.00     0.049 A 
ATOM     41  N   UNL A   1      39.769  31.727  34.031  1.00  0.00    -0.248 NA
ATOM     42  C   UNL A   1      38.099  33.345  34.226  1.00  0.00     0.031 C 
ATOM     43  C   UNL A   1      38.080  30.496  30.077  1.00  0.00     0.029 A 
ATOM     44  N   UNL A   1      39.667  30.083  31.596  1.00  0.00    -0.354 N 
ATOM     45  C   UNL A   1      39.988  32.481  35.176  1.00  0.00     0.074 A 
ATOM     46  C   UNL A   1      38.968  33.505  35.213  1.00  0.00     0.031 C 
ATOM     47  C   UNL A   1      38.865  29.524  29.585  1.00  0.00     0.029 A 
ATOM     48  C   UNL A   1      39.937  29.250  30.536  1.00  0.00     0.049 A 
ATOM     49  H   UNL A   1      40.208  30.101  32.420  1.00  0.00     0.167 HD
ATOM     50  C   UNL A   1      40.936  32.319  36.130  1.00  0.00     0.034 A 
ATOM     51  C   UNL A   1      40.942  28.372  30.348  1.00  0.00     0.034 A 
ATOM     52  C   UNL A   1      41.923  31.275  36.108  1.00  0.00     0.049 A 
ATOM     53  C   UNL A   1      41.956  28.179  31.440  1.00  0.00     0.074 A 
ATOM     54  C   UNL A   1      42.863  30.961  37.072  1.00  0.00     0.029 A 
ATOM     55  N   UNL A   1      42.110  30.387  35.060  1.00  0.00    -0.354 N 
ATOM     56  N   UNL A   1      42.046  28.786  32.599  1.00  0.00    -0.248 NA
ATOM     57  C   UNL A   1      42.986  27.154  31.219  1.00  0.00     0.031 C 
ATOM     58  C   UNL A   1      43.644  29.905  36.591  1.00  0.00     0.029 A 
ATOM     59  C   UNL A   1      43.163  29.535  35.344  1.00  0.00     0.049 A 
ATOM     60  H   UNL A   1      41.573  30.365  34.235  1.00  0.00     0.167 HD
ATOM     61  C   UNL A   1      43.120  28.197  33.257  1.00  0.00     0.074 A 
ATOM     62  C   UNL A   1      43.635  27.169  32.375  1.00  0.00     0.031 C 
ATOM     63  C   UNL A   1      43.638  28.488  34.476  1.00  0.00     0.034 A 
BRANCH  50  64
ATOM     64  C   UNL A   1      40.923  33.274  37.296  1.00  0.00     0.023 A 
ATOM     65  C   UNL A   1      39.960  33.123  38.317  1.00  0.00     0.012 A 
ATOM     66  C   UNL A   1      41.889  34.293  37.405  1.00  0.00     0.148 A 
ATOM     67  C   UNL A   1      39.930  33.998  39.402  1.00  0.00     0.002 A 
ATOM     68  C   UNL A   1      41.884  35.129  38.515  1.00  0.00     0.091 A 
ATOM     69  F   UNL A   1      42.782  34.437  36.416  1.00  0.00    -0.205 F 
ATOM     70  C   UNL A   1      40.898  34.993  39.507  1.00  0.00     0.022 A 
BRANCH  68  71
ATOM     71  S   UNL A   1      43.139  36.386  38.784  1.00  0.00     0.127 S 
ATOM     72  O   UNL A   1      42.665  37.019  40.014  1.00  0.00    -0.237 OA
ATOM     73  O   UNL A   1      44.351  35.581  38.941  1.00  0.00    -0.237 OA
ATOM     74  O   UNL A   1      43.121  37.231  37.600  1.00  0.00    -0.744 OA
ENDBRANCH  68  71
ENDBRANCH  50  64
BRANCH  51  75
ATOM     75  C   UNL A   1      41.003  27.580  29.087  1.00  0.00     0.023 A 
ATOM     76  C   UNL A   1      40.177  26.451  28.931  1.00  0.00     0.012 A 
ATOM     77  C   UNL A   1      41.849  27.966  28.028  1.00  0.00     0.148 A 
ATOM     78  C   UNL A   1      40.213  25.702  27.754  1.00  0.00     0.002 A 
ATOM     79  C   UNL A   1      41.838  27.249  26.838  1.00  0.00     0.091 A 
ATOM     80  F   UNL A   1      42.634  29.039  28.202  1.00  0.00    -0.205 F 
ATOM     81  C   UNL A   1      41.035  26.106  26.705  1.00  0.00     0.022 A 
BRANCH  79  82
ATOM     82  S   UNL A   1      42.759  27.776  25.389  1.00  0.00     0.127 S 
ATOM     83  O   UNL A   1      42.557  26.651  24.480  1.00  0.00    -0.237 OA
ATOM     84  O   UNL A   1      42.056  29.004  25.016  1.00  0.00    -0.237 OA
ATOM     85  O   UNL A   1      44.127  27.982  25.843  1.00  0.00    -0.744 OA
ENDBRANCH  79  82
ENDBRANCH  51  75
BRANCH  63  86
ATOM     86  C   UNL A   1      44.804  27.663  34.955  1.00  0.00     0.023 A 
ATOM     87  C   UNL A   1      46.122  28.114  34.741  1.00  0.00     0.012 A 
ATOM     88  C   UNL A   1      44.588  26.481  35.690  1.00  0.00     0.148 A 
ATOM     89  C   UNL A   1      47.207  27.382  35.222  1.00  0.00     0.002 A 
ATOM     90  C   UNL A   1      45.672  25.786  36.212  1.00  0.00     0.091 A 
ATOM     91  F   UNL A   1      43.327  26.060  35.867  1.00  0.00    -0.205 F 
ATOM     92  C   UNL A   1      46.983  26.227  35.967  1.00  0.00     0.022 A 
BRANCH  90  93
ATOM     93  S   UNL A   1      45.476  24.346  37.266  1.00  0.00     0.127 S 
ATOM     94  O   UNL A   1      46.807  24.228  37.860  1.00  0.00    -0.237 OA
ATOM     95  O   UNL A   1      44.431  24.781  38.194  1.00  0.00    -0.237 OA
ATOM     96  O   UNL A   1      45.087  23.252  36.387  1.00  0.00    -0.744 OA
ENDBRANCH  90  93
ENDBRANCH  63  86
ENDBRANCH  37  38
ENDBRANCH  29  32
ENDBRANCH  27  28
ENDBRANCH  26  27
ENDBRANCH  25  26
ENDBRANCH   1  25
TORSDOF 20
ENDMDL
MODEL 2
REMARK VINA RESULT:     -10.1      1.858      7.684
REMARK SMILES CC(C)[C@@](C)(CC(=O)N[C@H]1CCCC1(C)C)C(=O)NCCCCCCNC(=O)c1ccc(-c2c3nc(c(-c4cccc(S(=O)(=O)[O-])c4F)c4ccc([nH]4)c(-c4cccc(S(=O)(=O)[O-])c4F)c4nc(c(-c5cccc(S(=O)(=O)[O-])c5F)c5ccc2[nH]5)C=C4)C=C3)cc1
REMARK SMILES IDX 22 1 21 2 20 3 19 4 17 5 18 6 4 8 5 9 2 10 1 11 3 12 6 13
REMARK SMILES IDX 7 14 8 15 9 16 10 18 11 19 14 20 12 21 13 22 15 23 16 24
REMARK SMILES IDX 23 25 24 26 25 27 26 28 27 29 28 31 29 32 30 33 91 34 31 35
REMARK SMILES IDX 90 36 32 37 33 38 34 39 84 40 35 41 89 42 83 43 85 44 36 45
REMARK SMILES IDX 88 46 82 47 81 48 37 50 69 51 49 52 68 53 50 54 53 55 67 56
REMARK SMILES IDX 86 57 51 58 52 59 66 61 87 62 54 63 38 64 39 65 47 66 40 67
REMARK SMILES IDX 42 68 48 69 41 70 43 71 44 72 45 73 46 74 70 75 71 76 79 77
REMARK SMILES IDX 72 78 74 79 80 80 73 81 75 82 76 83 77 84 78 85 55 86 56 87
REMARK SMILES IDX 64 88 57 89 59 90 65 91 58 92 60 93 61 94 62 95 63 96
REMARK H PARENT 19 7 9 17 26 30 85 49 53 60
REMARK Flexibility Score: inf
ROOT
ATOM      1  C   UNL A   1      34.959  30.256  27.651  1.00  0.00     0.002 C 
ENDROOT
BRANCH   1   2
ATOM      2  C   UNL A   1      33.752  29.646  26.908  1.00  0.00     0.021 C 
BRANCH   2   3
ATOM      3  C   UNL A   1      33.826  28.144  26.660  1.00  0.00     0.116 C 
BRANCH   3   4
ATOM      4  N   UNL A   1      32.502  27.599  26.588  1.00  0.00    -0.356 N 
ATOM      5  C   UNL A   1      31.709  27.146  25.621  1.00  0.00     0.226 C 
ATOM      6  O   UNL A   1      30.642  26.697  26.068  1.00  0.00    -0.274 OA
ATOM      7  H   UNL A   1      32.075  27.546  27.473  1.00  0.00     0.163 HD
BRANCH   5   8
ATOM      8  C   UNL A   1      32.083  27.010  24.134  1.00  0.00     0.057 C 
ATOM      9  C   UNL A   1      31.036  26.029  23.546  1.00  0.00     0.022 C 
BRANCH   8  10
ATOM     10  C   UNL A   1      31.939  28.433  23.531  1.00  0.00    -0.002 C 
ATOM     11  C   UNL A   1      30.996  29.428  24.206  1.00  0.00     0.008 C 
ATOM     12  C   UNL A   1      33.311  29.119  23.278  1.00  0.00     0.008 C 
ENDBRANCH   8  10
BRANCH   8  13
ATOM     13  C   UNL A   1      33.493  26.467  23.678  1.00  0.00     0.116 C 
BRANCH  13  14
ATOM     14  C   UNL A   1      33.553  25.456  22.538  1.00  0.00     0.221 C 
ATOM     15  O   UNL A   1      33.450  25.876  21.378  1.00  0.00    -0.275 OA
ATOM     16  N   UNL A   1      33.688  24.104  22.662  1.00  0.00    -0.353 N 
ATOM     17  H   UNL A   1      33.470  23.667  21.807  1.00  0.00     0.163 HD
BRANCH  16  18
ATOM     18  C   UNL A   1      34.063  23.071  23.680  1.00  0.00     0.087 C 
ATOM     19  C   UNL A   1      34.170  23.539  25.156  1.00  0.00     0.025 C 
ATOM     20  C   UNL A   1      32.882  22.034  23.872  1.00  0.00    -0.015 C 
ATOM     21  C   UNL A   1      32.753  23.594  25.727  1.00  0.00     0.003 C 
ATOM     22  C   UNL A   1      31.884  22.848  24.725  1.00  0.00     0.008 C 
ATOM     23  C   UNL A   1      32.220  21.533  22.587  1.00  0.00     0.013 C 
ATOM     24  C   UNL A   1      33.323  20.783  24.676  1.00  0.00     0.013 C 
ENDBRANCH  16  18
ENDBRANCH  13  14
ENDBRANCH   8  13
ENDBRANCH   5   8
ENDBRANCH   3   4
ENDBRANCH   2   3
ENDBRANCH   1   2
BRANCH   1  25
ATOM     25  C   UNL A   1      34.966  31.780  27.836  1.00  0.00     0.002 C 
BRANCH  25  26
ATOM     26  C   UNL A   1      33.595  32.428  27.992  1.00  0.00     0.021 C 
BRANCH  26  27
ATOM     27  C   UNL A   1      33.538  33.862  27.502  1.00  0.00     0.116 C 
BRANCH  27  28
ATOM     28  N   UNL A   1      32.967  34.748  28.501  1.00  0.00    -0.352 N 
ATOM     29  C   UNL A   1      33.293  34.832  29.829  1.00  0.00     0.251 C 
ATOM     30  H   UNL A   1      32.263  35.361  28.187  1.00  0.00     0.163 HD
ATOM     31  O   UNL A   1      32.590  35.469  30.611  1.00  0.00    -0.269 OA
BRANCH  29  32
ATOM     32  C   UNL A   1      34.494  34.119  30.305  1.00  0.00     0.039 A 
ATOM     33  C   UNL A   1      35.752  34.560  29.897  1.00  0.00     0.014 A 
ATOM     34  C   UNL A   1      34.366  33.054  31.202  1.00  0.00     0.014 A 
ATOM     35  C   UNL A   1      36.893  33.952  30.423  1.00  0.00     0.010 A 
ATOM     36  C   UNL A   1      35.500  32.514  31.794  1.00  0.00     0.010 A 
ATOM     37  C   UNL A   1      36.775  32.943  31.394  1.00  0.00    -0.014 A 
BRANCH  37  38
ATOM     38  C   UNL A   1      37.974  32.311  31.993  1.00  0.00     0.031 A 
ATOM     39  C   UNL A   1      38.686  31.207  31.260  1.00  0.00     0.074 A 
ATOM     40  C   UNL A   1      38.372  32.672  33.229  1.00  0.00     0.049 A 
ATOM     41  N   UNL A   1      39.718  30.500  31.638  1.00  0.00    -0.248 NA
ATOM     42  C   UNL A   1      38.147  30.824  29.944  1.00  0.00     0.031 C 
ATOM     43  C   UNL A   1      37.708  33.666  34.074  1.00  0.00     0.029 A 
ATOM     44  N   UNL A   1      39.412  32.221  34.001  1.00  0.00    -0.354 N 
ATOM     45  C   UNL A   1      39.927  29.568  30.629  1.00  0.00     0.074 A 
ATOM     46  C   UNL A   1      38.892  29.771  29.641  1.00  0.00     0.031 C 
ATOM     47  C   UNL A   1      38.358  33.750  35.246  1.00  0.00     0.029 A 
ATOM     48  C   UNL A   1      39.461  32.794  35.250  1.00  0.00     0.049 A 
ATOM     49  H   UNL A   1      40.063  31.550  33.690  1.00  0.00     0.167 HD
ATOM     50  C   UNL A   1      40.912  28.645  30.518  1.00  0.00     0.034 A 
ATOM     51  C   UNL A   1      40.292  32.566  36.285  1.00  0.00     0.034 A 
ATOM     52  C   UNL A   1      41.961  28.475  31.485  1.00  0.00     0.049 A 
ATOM     53  C   UNL A   1      41.404  31.568  36.121  1.00  0.00     0.074 A 
ATOM     54  C   UNL A   1      43.062  27.639  31.420  1.00  0.00     0.029 A 
ATOM     55  N   UNL A   1      42.032  29.138  32.699  1.00  0.00    -0.354 N 
ATOM     56  N   UNL A   1      41.690  30.815  35.087  1.00  0.00    -0.248 NA
ATOM     57  C   UNL A   1      42.331  31.412  37.251  1.00  0.00     0.031 C 
ATOM     58  C   UNL A   1      43.779  27.771  32.614  1.00  0.00     0.029 A 
ATOM     59  C   UNL A   1      43.147  28.719  33.404  1.00  0.00     0.049 A 
ATOM     60  H   UNL A   1      41.384  29.810  33.015  1.00  0.00     0.167 HD
ATOM     61  C   UNL A   1      42.846  30.121  35.427  1.00  0.00     0.074 A 
ATOM     62  C   UNL A   1      43.219  30.560  36.756  1.00  0.00     0.031 C 
ATOM     63  C   UNL A   1      43.530  29.197  34.708  1.00  0.00     0.034 A 
BRANCH  50  64
ATOM     64  C   UNL A   1      40.916  27.774  29.288  1.00  0.00     0.023 A 
ATOM     65  C   UNL A   1      40.068  26.649  29.221  1.00  0.00     0.012 A 
ATOM     66  C   UNL A   1      41.727  28.093  28.182  1.00  0.00     0.148 A 
ATOM     67  C   UNL A   1      40.060  25.829  28.093  1.00  0.00     0.002 A 
ATOM     68  C   UNL A   1      41.676  27.301  27.041  1.00  0.00     0.091 A 
ATOM     69  F   UNL A   1      42.545  29.151  28.270  1.00  0.00    -0.205 F 
ATOM     70  C   UNL A   1      40.855  26.161  27.000  1.00  0.00     0.022 A 
BRANCH  68  71
ATOM     71  S   UNL A   1      42.598  27.693  25.550  1.00  0.00     0.127 S 
ATOM     72  O   UNL A   1      42.329  26.519  24.719  1.00  0.00    -0.237 OA
ATOM     73  O   UNL A   1      41.943  28.921  25.099  1.00  0.00    -0.237 OA
ATOM     74  O   UNL A   1      43.983  27.860  25.966  1.00  0.00    -0.744 OA
ENDBRANCH  68  71
ENDBRANCH  50  64
BRANCH  51  75
ATOM     75  C   UNL A   1      40.125  33.336  37.550  1.00  0.00     0.023 A 
ATOM     76  C   UNL A   1      40.880  34.505  37.760  1.00  0.00     0.012 A 
ATOM     77  C   UNL A   1      39.192  32.935  38.526  1.00  0.00     0.148 A 
ATOM     78  C   UNL A   1      40.730  35.246  38.934  1.00  0.00     0.002 A 
ATOM     79  C   UNL A   1      39.007  33.707  39.666  1.00  0.00     0.091 A 
ATOM     80  F   UNL A   1      38.489  31.813  38.309  1.00  0.00    -0.205 F 
ATOM     81  C   UNL A   1      39.788  34.853  39.881  1.00  0.00     0.022 A 
BRANCH  79  82
ATOM     82  S   UNL A   1      37.722  33.354  40.870  1.00  0.00     0.127 S 
ATOM     83  O   UNL A   1      38.305  32.239  41.612  1.00  0.00    -0.237 OA
ATOM     84  O   UNL A   1      37.648  34.615  41.608  1.00  0.00    -0.237 OA
ATOM     85  O   UNL A   1      36.529  33.041  40.096  1.00  0.00    -0.744 OA
ENDBRANCH  79  82
ENDBRANCH  51  75
BRANCH  63  86
ATOM     86  C   UNL A   1      44.777  28.617  35.322  1.00  0.00     0.023 A 
ATOM     87  C   UNL A   1      46.022  29.245  35.118  1.00  0.00     0.012 A 
ATOM     88  C   UNL A   1      44.700  27.493  36.168  1.00  0.00     0.148 A 
ATOM     89  C   UNL A   1      47.175  28.744  35.721  1.00  0.00     0.002 A 
ATOM     90  C   UNL A   1      45.844  27.032  36.808  1.00  0.00     0.091 A 
ATOM     91  F   UNL A   1      43.509  26.899  36.335  1.00  0.00    -0.205 F 
ATOM     92  C   UNL A   1      47.085  27.647  36.575  1.00  0.00     0.022 A 
BRANCH  90  93
ATOM     93  S   UNL A   1      45.806  25.690  38.001  1.00  0.00     0.127 S 
ATOM     94  O   UNL A   1      45.413  24.558  37.163  1.00  0.00    -0.237 OA
ATOM     95  O   UNL A   1      47.193  25.650  38.466  1.00  0.00    -0.237 OA
ATOM     96  O   UNL A   1      44.838  26.080  39.017  1.00  0.00    -0.744 OA
ENDBRANCH  90  93
ENDBRANCH  63  86
ENDBRANCH  37  38
ENDBRANCH  29  32
ENDBRANCH  27  28
ENDBRANCH  26  27
ENDBRANCH  25  26
ENDBRANCH   1  25
TORSDOF 20
ENDMDL
MODEL 3
REMARK VINA RESULT:      -9.8      5.896     11.386
REMARK SMILES CC(C)[C@@](C)(CC(=O)N[C@H]1CCCC1(C)C)C(=O)NCCCCCCNC(=O)c1ccc(-c2c3nc(c(-c4cccc(S(=O)(=O)[O-])c4F)c4ccc([nH]4)c(-c4cccc(S(=O)(=O)[O-])c4F)c4nc(c(-c5cccc(S(=O)(=O)[O-])c5F)c5ccc2[nH]5)C=C4)C=C3)cc1
REMARK SMILES IDX 22 1 21 2 20 3 19 4 17 5 18 6 4 8 5 9 2 10 1 11 3 12 6 13
REMARK SMILES IDX 7 14 8 15 9 16 10 18 11 19 14 20 12 21 13 22 15 23 16 24
REMARK SMILES IDX 23 25 24 26 25 27 26 28 27 29 28 31 29 32 30 33 91 34 31 35
REMARK SMILES IDX 90 36 32 37 33 38 34 39 84 40 35 41 89 42 83 43 85 44 36 45
REMARK SMILES IDX 88 46 82 47 81 48 37 50 69 51 49 52 68 53 50 54 53 55 67 56
REMARK SMILES IDX 86 57 51 58 52 59 66 61 87 62 54 63 38 64 39 65 47 66 40 67
REMARK SMILES IDX 42 68 48 69 41 70 43 71 44 72 45 73 46 74 70 75 71 76 79 77
REMARK SMILES IDX 72 78 74 79 80 80 73 81 75 82 76 83 77 84 78 85 55 86 56 87
REMARK SMILES IDX 64 88 57 89 59 90 65 91 58 92 60 93 61 94 62 95 63 96
REMARK H PARENT 19 7 9 17 26 30 85 49 53 60
REMARK Flexibility Score: inf
ROOT
ATOM      1  C   UNL A   1      39.614  22.088  25.904  1.00  0.00     0.002 C 
ENDROOT
BRANCH   1   2
ATOM      2  C   UNL A   1      39.069  23.401  26.501  1.00  0.00     0.021 C 
BRANCH   2   3
ATOM      3  C   UNL A   1      37.675  23.804  26.035  1.00  0.00     0.116 C 
BRANCH   3   4
ATOM      4  N   UNL A   1      37.492  23.423  24.665  1.00  0.00    -0.356 N 
ATOM      5  C   UNL A   1      36.451  23.179  23.873  1.00  0.00     0.226 C 
ATOM      6  O   UNL A   1      36.800  22.943  22.706  1.00  0.00    -0.274 OA
ATOM      7  H   UNL A   1      38.350  23.316  24.193  1.00  0.00     0.163 HD
BRANCH   5   8
ATOM      8  C   UNL A   1      34.968  23.327  24.258  1.00  0.00     0.057 C 
ATOM      9  C   UNL A   1      34.184  22.690  23.084  1.00  0.00     0.022 C 
BRANCH   8  10
ATOM     10  C   UNL A   1      34.791  22.521  25.572  1.00  0.00    -0.002 C 
ATOM     11  C   UNL A   1      34.093  23.185  26.758  1.00  0.00     0.008 C 
ATOM     12  C   UNL A   1      34.169  21.115  25.335  1.00  0.00     0.008 C 
ENDBRANCH   8  10
BRANCH   8  13
ATOM     13  C   UNL A   1      34.311  24.741  24.505  1.00  0.00     0.116 C 
BRANCH  13  14
ATOM     14  C   UNL A   1      33.748  25.503  23.310  1.00  0.00     0.221 C 
ATOM     15  O   UNL A   1      34.529  25.840  22.410  1.00  0.00    -0.275 OA
ATOM     16  N   UNL A   1      32.449  25.882  23.131  1.00  0.00    -0.353 N 
ATOM     17  H   UNL A   1      32.392  26.548  22.409  1.00  0.00     0.163 HD
BRANCH  16  18
ATOM     18  C   UNL A   1      31.083  25.611  23.681  1.00  0.00     0.087 C 
ATOM     19  C   UNL A   1      30.983  25.258  25.189  1.00  0.00     0.025 C 
ATOM     20  C   UNL A   1      30.230  26.944  23.719  1.00  0.00    -0.015 C 
ATOM     21  C   UNL A   1      31.044  26.569  25.974  1.00  0.00     0.003 C 
ATOM     22  C   UNL A   1      30.832  27.668  24.943  1.00  0.00     0.008 C 
ATOM     23  C   UNL A   1      30.313  27.823  22.469  1.00  0.00     0.013 C 
ATOM     24  C   UNL A   1      28.726  26.673  23.986  1.00  0.00     0.013 C 
ENDBRANCH  16  18
ENDBRANCH  13  14
ENDBRANCH   8  13
ENDBRANCH   5   8
ENDBRANCH   3   4
ENDBRANCH   2   3
ENDBRANCH   1   2
BRANCH   1  25
ATOM     25  C   UNL A   1      40.332  21.130  26.865  1.00  0.00     0.002 C 
BRANCH  25  26
ATOM     26  C   UNL A   1      40.842  19.836  26.242  1.00  0.00     0.021 C 
BRANCH  26  27
ATOM     27  C   UNL A   1      42.209  19.413  26.744  1.00  0.00     0.116 C 
BRANCH  27  28
ATOM     28  N   UNL A   1      43.127  19.154  25.648  1.00  0.00    -0.352 N 
ATOM     29  C   UNL A   1      43.888  20.064  24.962  1.00  0.00     0.251 C 
ATOM     30  H   UNL A   1      43.213  18.215  25.366  1.00  0.00     0.163 HD
ATOM     31  O   UNL A   1      44.458  19.748  23.920  1.00  0.00    -0.269 OA
BRANCH  29  32
ATOM     32  C   UNL A   1      43.987  21.438  25.489  1.00  0.00     0.039 A 
ATOM     33  C   UNL A   1      44.774  21.679  26.614  1.00  0.00     0.014 A 
ATOM     34  C   UNL A   1      43.344  22.489  24.827  1.00  0.00     0.014 A 
ATOM     35  C   UNL A   1      44.951  22.992  27.055  1.00  0.00     0.010 A 
ATOM     36  C   UNL A   1      43.597  23.799  25.211  1.00  0.00     0.010 A 
ATOM     37  C   UNL A   1      44.385  24.062  26.342  1.00  0.00    -0.014 A 
BRANCH  37  38
ATOM     38  C   UNL A   1      44.591  25.465  26.772  1.00  0.00     0.031 A 
ATOM     39  C   UNL A   1      45.972  26.061  26.754  1.00  0.00     0.074 A 
ATOM     40  C   UNL A   1      43.552  26.175  27.255  1.00  0.00     0.049 A 
ATOM     41  N   UNL A   1      46.361  27.249  27.135  1.00  0.00    -0.248 NA
ATOM     42  C   UNL A   1      47.066  25.198  26.276  1.00  0.00     0.031 C 
ATOM     43  C   UNL A   1      42.184  25.674  27.406  1.00  0.00     0.029 A 
ATOM     44  N   UNL A   1      43.492  27.457  27.737  1.00  0.00    -0.354 N 
ATOM     45  C   UNL A   1      47.742  27.262  26.981  1.00  0.00     0.074 A 
ATOM     46  C   UNL A   1      48.129  25.952  26.510  1.00  0.00     0.031 C 
ATOM     47  C   UNL A   1      41.421  26.639  27.942  1.00  0.00     0.029 A 
ATOM     48  C   UNL A   1      42.248  27.812  28.205  1.00  0.00     0.049 A 
ATOM     49  H   UNL A   1      44.266  28.067  27.748  1.00  0.00     0.167 HD
ATOM     50  C   UNL A   1      48.608  28.283  27.184  1.00  0.00     0.034 A 
ATOM     51  C   UNL A   1      41.827  28.949  28.792  1.00  0.00     0.034 A 
ATOM     52  C   UNL A   1      48.211  29.595  27.614  1.00  0.00     0.049 A 
ATOM     53  C   UNL A   1      42.798  30.084  28.966  1.00  0.00     0.074 A 
ATOM     54  C   UNL A   1      48.994  30.727  27.754  1.00  0.00     0.029 A 
ATOM     55  N   UNL A   1      46.926  29.948  27.993  1.00  0.00    -0.354 N 
ATOM     56  N   UNL A   1      44.070  30.135  28.652  1.00  0.00    -0.248 NA
ATOM     57  C   UNL A   1      42.270  31.330  29.539  1.00  0.00     0.031 C 
ATOM     58  C   UNL A   1      48.188  31.755  28.252  1.00  0.00     0.029 A 
ATOM     59  C   UNL A   1      46.894  31.275  28.384  1.00  0.00     0.049 A 
ATOM     60  H   UNL A   1      46.148  29.343  27.984  1.00  0.00     0.167 HD
ATOM     61  C   UNL A   1      44.486  31.426  28.959  1.00  0.00     0.074 A 
ATOM     62  C   UNL A   1      43.325  32.130  29.463  1.00  0.00     0.031 C 
ATOM     63  C   UNL A   1      45.721  31.975  28.843  1.00  0.00     0.034 A 
BRANCH  50  64
ATOM     64  C   UNL A   1      50.067  28.026  26.905  1.00  0.00     0.023 A 
ATOM     65  C   UNL A   1      50.927  27.649  27.957  1.00  0.00     0.012 A 
ATOM     66  C   UNL A   1      50.577  28.116  25.595  1.00  0.00     0.148 A 
ATOM     67  C   UNL A   1      52.280  27.410  27.719  1.00  0.00     0.002 A 
ATOM     68  C   UNL A   1      51.916  27.826  25.357  1.00  0.00     0.091 A 
ATOM     69  F   UNL A   1      49.752  28.498  24.610  1.00  0.00    -0.205 F 
ATOM     70  C   UNL A   1      52.771  27.487  26.419  1.00  0.00     0.022 A 
BRANCH  68  71
ATOM     71  S   UNL A   1      52.624  27.815  23.707  1.00  0.00     0.127 S 
ATOM     72  O   UNL A   1      51.891  28.906  23.065  1.00  0.00    -0.237 OA
ATOM     73  O   UNL A   1      54.033  28.103  23.976  1.00  0.00    -0.237 OA
ATOM     74  O   UNL A   1      52.367  26.488  23.168  1.00  0.00    -0.744 OA
ENDBRANCH  68  71
ENDBRANCH  50  64
BRANCH  51  75
ATOM     75  C   UNL A   1      40.403  29.078  29.214  1.00  0.00     0.023 A 
ATOM     76  C   UNL A   1      39.407  29.307  28.247  1.00  0.00     0.012 A 
ATOM     77  C   UNL A   1      40.031  28.935  30.565  1.00  0.00     0.148 A 
ATOM     78  C   UNL A   1      38.067  29.422  28.621  1.00  0.00     0.002 A 
ATOM     79  C   UNL A   1      38.690  28.993  30.923  1.00  0.00     0.091 A 
ATOM     80  F   UNL A   1      40.998  28.726  31.471  1.00  0.00    -0.205 F 
ATOM     81  C   UNL A   1      37.707  29.255  29.955  1.00  0.00     0.022 A 
BRANCH  79  82
ATOM     82  S   UNL A   1      38.123  28.654  32.593  1.00  0.00     0.127 S 
ATOM     83  O   UNL A   1      36.748  29.142  32.548  1.00  0.00    -0.237 OA
ATOM     84  O   UNL A   1      38.260  27.199  32.667  1.00  0.00    -0.237 OA
ATOM     85  O   UNL A   1      39.024  29.387  33.473  1.00  0.00    -0.744 OA
ENDBRANCH  79  82
ENDBRANCH  51  75
BRANCH  63  86
ATOM     86  C   UNL A   1      45.883  33.421  29.234  1.00  0.00     0.023 A 
ATOM     87  C   UNL A   1      46.225  33.760  30.558  1.00  0.00     0.012 A 
ATOM     88  C   UNL A   1      45.775  34.438  28.265  1.00  0.00     0.148 A 
ATOM     89  C   UNL A   1      46.424  35.092  30.918  1.00  0.00     0.002 A 
ATOM     90  C   UNL A   1      46.028  35.757  28.620  1.00  0.00     0.091 A 
ATOM     91  F   UNL A   1      45.432  34.096  27.015  1.00  0.00    -0.205 F 
ATOM     92  C   UNL A   1      46.339  36.088  29.949  1.00  0.00     0.022 A 
BRANCH  90  93
ATOM     93  S   UNL A   1      46.039  37.093  27.419  1.00  0.00     0.127 S 
ATOM     94  O   UNL A   1      46.957  38.045  28.041  1.00  0.00    -0.237 OA
ATOM     95  O   UNL A   1      46.563  36.431  26.225  1.00  0.00    -0.237 OA
ATOM     96  O   UNL A   1      44.658  37.543  27.304  1.00  0.00    -0.744 OA
ENDBRANCH  90  93
ENDBRANCH  63  86
ENDBRANCH  37  38
ENDBRANCH  29  32
ENDBRANCH  27  28
ENDBRANCH  26  27
ENDBRANCH  25  26
ENDBRANCH   1  25
TORSDOF 20
ENDMDL
