MODEL 1
REMARK VINA RESULT:     -11.4      0.000      0.000
REMARK SMILES COCC[C@H](NC(=O)c1ccc(C)cc1F)C(=O)NCCCCCCNC(=O)c1ccc(-c2c3nc(c(-c4cccc(S(=O)(=O)[O-])c4F)c4ccc([nH]4)c(-c4cccc(S(=O)(=O)[O-])c4F)c4nc(c(-c5cccc(S(=O)(=O)[O-])c5F)c5ccc2[nH]5)C=C4)C=C3)cc1
REMARK SMILES IDX 22 1 21 2 20 3 19 4 17 5 18 6 5 8 4 9 3 10 2 11 1 12 6 13
REMARK SMILES IDX 7 14 8 16 9 17 10 18 15 19 11 20 14 21 16 22 12 23 13 24
REMARK SMILES IDX 23 25 24 26 25 27 26 28 27 29 28 31 29 32 30 33 91 34 31 35
REMARK SMILES IDX 90 36 32 37 33 38 34 39 84 40 35 41 89 42 83 43 85 44 36 45
REMARK SMILES IDX 88 46 82 47 81 48 37 50 69 51 49 52 68 53 50 54 53 55 67 56
REMARK SMILES IDX 86 57 51 58 52 59 66 61 87 62 54 63 38 64 39 65 47 66 40 67
REMARK SMILES IDX 42 68 48 69 41 70 43 71 44 72 45 73 46 74 70 75 71 76 79 77
REMARK SMILES IDX 72 78 74 79 80 80 73 81 75 82 76 83 77 84 78 85 55 86 56 87
REMARK SMILES IDX 64 88 57 89 59 90 65 91 58 92 60 93 61 94 62 95 63 96
REMARK H PARENT 19 7 6 15 26 30 85 49 53 60
REMARK Flexibility Score: inf
ROOT
ATOM      1  C   UNL A   1      31.070  26.855  26.600  1.00  0.00     0.002 C 
ENDROOT
BRANCH   1   2
ATOM      2  C   UNL A   1      31.461  25.170  26.467  1.00  0.00     0.021 C 
BRANCH   2   3
ATOM      3  C   UNL A   1      33.096  23.907  27.163  1.00  0.00     0.116 C 
BRANCH   3   4
ATOM      4  N   UNL A   1      34.299  23.212  26.388  1.00  0.00    -0.354 N 
ATOM      5  C   UNL A   1      34.353  22.496  25.229  1.00  0.00     0.242 C 
ATOM      6  O   UNL A   1      35.464  22.136  24.827  1.00  0.00    -0.273 OA
ATOM      7  H   UNL A   1      35.172  23.320  26.831  1.00  0.00     0.163 HD
BRANCH   5   8
ATOM      8  C   UNL A   1      33.075  22.139  24.445  1.00  0.00     0.173 C 
BRANCH   8   9
ATOM      9  C   UNL A   1      32.381  20.859  24.950  1.00  0.00     0.063 C 
BRANCH   9  10
ATOM     10  C   UNL A   1      32.971  19.558  24.410  1.00  0.00     0.162 C 
BRANCH  10  11
ATOM     11  O   UNL A   1      32.117  18.434  24.564  1.00  0.00    -0.385 OA
ATOM     12  C   UNL A   1      32.586  17.458  25.477  1.00  0.00     0.194 C 
ENDBRANCH  10  11
ENDBRANCH   9  10
ENDBRANCH   8   9
BRANCH   8  13
ATOM     13  N   UNL A   1      33.207  22.238  22.981  1.00  0.00    -0.340 N 
ATOM     14  C   UNL A   1      32.962  23.283  22.135  1.00  0.00     0.254 C 
ATOM     15  H   UNL A   1      33.525  21.417  22.541  1.00  0.00     0.164 HD
ATOM     16  O   UNL A   1      33.304  23.273  20.962  1.00  0.00    -0.269 OA
BRANCH  14  17
ATOM     17  C   UNL A   1      32.253  24.425  22.679  1.00  0.00     0.075 A 
ATOM     18  C   UNL A   1      30.531  24.250  23.169  1.00  0.00     0.017 A 
ATOM     19  C   UNL A   1      33.005  26.059  22.579  1.00  0.00     0.136 A 
ATOM     20  C   UNL A   1      29.505  25.718  23.386  1.00  0.00     0.004 A 
ATOM     21  C   UNL A   1      31.972  27.539  22.778  1.00  0.00     0.043 A 
ATOM     22  F   UNL A   1      34.288  26.195  22.213  1.00  0.00    -0.206 F 
ATOM     23  C   UNL A   1      30.230  27.362  23.238  1.00  0.00    -0.048 A 
ATOM     24  C   UNL A   1      29.325  28.559  23.251  1.00  0.00     0.044 C 
ENDBRANCH  14  17
ENDBRANCH   8  13
ENDBRANCH   5   8
ENDBRANCH   3   4
ENDBRANCH   2   3
ENDBRANCH   1   2
BRANCH   1  25
ATOM     25  C   UNL A   1      32.136  27.784  27.198  1.00  0.00     0.002 C 
BRANCH  25  26
ATOM     26  C   UNL A   1      32.995  28.492  26.152  1.00  0.00     0.021 C 
BRANCH  26  27
ATOM     27  C   UNL A   1      34.298  28.988  26.756  1.00  0.00     0.116 C 
BRANCH  27  28
ATOM     28  N   UNL A   1      34.229  30.442  26.908  1.00  0.00    -0.352 N 
ATOM     29  C   UNL A   1      34.732  31.149  27.968  1.00  0.00     0.251 C 
ATOM     30  H   UNL A   1      33.788  30.953  26.190  1.00  0.00     0.163 HD
ATOM     31  O   UNL A   1      34.226  32.189  28.365  1.00  0.00    -0.269 OA
BRANCH  29  32
ATOM     32  C   UNL A   1      35.959  30.597  28.556  1.00  0.00     0.039 A 
ATOM     33  C   UNL A   1      35.913  29.718  29.634  1.00  0.00     0.014 A 
ATOM     34  C   UNL A   1      37.156  30.901  27.899  1.00  0.00     0.014 A 
ATOM     35  C   UNL A   1      37.103  29.128  30.052  1.00  0.00     0.010 A 
ATOM     36  C   UNL A   1      38.298  30.210  28.227  1.00  0.00     0.010 A 
ATOM     37  C   UNL A   1      38.295  29.368  29.343  1.00  0.00    -0.014 A 
BRANCH  37  38
ATOM     38  C   UNL A   1      39.592  28.823  29.782  1.00  0.00     0.031 A 
ATOM     39  C   UNL A   1      40.322  29.517  30.901  1.00  0.00     0.074 A 
ATOM     40  C   UNL A   1      40.143  27.799  29.108  1.00  0.00     0.049 A 
ATOM     41  N   UNL A   1      41.507  29.271  31.386  1.00  0.00    -0.248 NA
ATOM     42  C   UNL A   1      39.656  30.682  31.519  1.00  0.00     0.031 C 
ATOM     43  C   UNL A   1      39.559  27.139  27.936  1.00  0.00     0.029 A 
ATOM     44  N   UNL A   1      41.333  27.150  29.296  1.00  0.00    -0.354 N 
ATOM     45  C   UNL A   1      41.745  30.273  32.320  1.00  0.00     0.074 A 
ATOM     46  C   UNL A   1      40.616  31.171  32.287  1.00  0.00     0.031 C 
ATOM     47  C   UNL A   1      40.383  26.163  27.525  1.00  0.00     0.029 A 
ATOM     48  C   UNL A   1      41.563  26.149  28.383  1.00  0.00     0.049 A 
ATOM     49  H   UNL A   1      41.963  27.378  30.017  1.00  0.00     0.167 HD
ATOM     50  C   UNL A   1      42.790  30.405  33.165  1.00  0.00     0.034 A 
ATOM     51  C   UNL A   1      42.614  25.317  28.265  1.00  0.00     0.034 A 
ATOM     52  C   UNL A   1      43.866  29.459  33.228  1.00  0.00     0.049 A 
ATOM     53  C   UNL A   1      43.724  25.430  29.273  1.00  0.00     0.074 A 
ATOM     54  C   UNL A   1      44.924  29.414  34.114  1.00  0.00     0.029 A 
ATOM     55  N   UNL A   1      44.013  28.385  32.363  1.00  0.00    -0.354 N 
ATOM     56  N   UNL A   1      43.856  26.279  30.265  1.00  0.00    -0.248 NA
ATOM     57  C   UNL A   1      44.811  24.446  29.176  1.00  0.00     0.031 C 
ATOM     58  C   UNL A   1      45.729  28.327  33.764  1.00  0.00     0.029 A 
ATOM     59  C   UNL A   1      45.152  27.674  32.686  1.00  0.00     0.049 A 
ATOM     60  H   UNL A   1      43.397  28.163  31.628  1.00  0.00     0.167 HD
ATOM     61  C   UNL A   1      45.018  25.914  30.930  1.00  0.00     0.074 A 
ATOM     62  C   UNL A   1      45.540  24.750  30.241  1.00  0.00     0.031 C 
ATOM     63  C   UNL A   1      45.613  26.492  32.004  1.00  0.00     0.034 A 
BRANCH  50  64
ATOM     64  C   UNL A   1      42.781  31.573  34.117  1.00  0.00     0.023 A 
ATOM     65  C   UNL A   1      43.399  32.787  33.748  1.00  0.00     0.012 A 
ATOM     66  C   UNL A   1      42.135  31.482  35.364  1.00  0.00     0.148 A 
ATOM     67  C   UNL A   1      43.413  33.874  34.618  1.00  0.00     0.002 A 
ATOM     68  C   UNL A   1      42.105  32.588  36.205  1.00  0.00     0.091 A 
ATOM     69  F   UNL A   1      41.575  30.314  35.710  1.00  0.00    -0.205 F 
ATOM     70  C   UNL A   1      42.756  33.779  35.841  1.00  0.00     0.022 A 
BRANCH  68  71
ATOM     71  S   UNL A   1      41.213  32.597  37.764  1.00  0.00     0.127 S 
ATOM     72  O   UNL A   1      41.979  31.629  38.548  1.00  0.00    -0.237 OA
ATOM     73  O   UNL A   1      41.367  33.987  38.195  1.00  0.00    -0.237 OA
ATOM     74  O   UNL A   1      39.847  32.204  37.450  1.00  0.00    -0.744 OA
ENDBRANCH  68  71
ENDBRANCH  50  64
BRANCH  51  75
ATOM     75  C   UNL A   1      42.616  24.262  27.212  1.00  0.00     0.023 A 
ATOM     76  C   UNL A   1      43.309  24.489  26.006  1.00  0.00     0.012 A 
ATOM     77  C   UNL A   1      41.976  23.025  27.413  1.00  0.00     0.148 A 
ATOM     78  C   UNL A   1      43.333  23.517  25.005  1.00  0.00     0.002 A 
ATOM     79  C   UNL A   1      42.051  22.040  26.435  1.00  0.00     0.091 A 
ATOM     80  F   UNL A   1      41.320  22.829  28.565  1.00  0.00    -0.205 F 
ATOM     81  C   UNL A   1      42.712  22.291  25.222  1.00  0.00     0.022 A 
BRANCH  79  82
ATOM     82  S   UNL A   1      41.401  20.383  26.685  1.00  0.00     0.127 S 
ATOM     83  O   UNL A   1      39.967  20.637  26.787  1.00  0.00    -0.237 OA
ATOM     84  O   UNL A   1      41.823  19.704  25.459  1.00  0.00    -0.237 OA
ATOM     85  O   UNL A   1      42.046  19.887  27.894  1.00  0.00    -0.744 OA
ENDBRANCH  79  82
ENDBRANCH  51  75
BRANCH  63  86
ATOM     86  C   UNL A   1      46.871  25.853  32.522  1.00  0.00     0.023 A 
ATOM     87  C   UNL A   1      48.125  26.297  32.061  1.00  0.00     0.012 A 
ATOM     88  C   UNL A   1      46.806  24.872  33.531  1.00  0.00     0.148 A 
ATOM     89  C   UNL A   1      49.299  25.747  32.572  1.00  0.00     0.002 A 
ATOM     90  C   UNL A   1      47.980  24.370  34.075  1.00  0.00     0.091 A 
ATOM     91  F   UNL A   1      45.600  24.457  33.943  1.00  0.00    -0.205 F 
ATOM     92  C   UNL A   1      49.226  24.795  33.587  1.00  0.00     0.022 A 
BRANCH  90  93
ATOM     93  S   UNL A   1      47.984  23.223  35.456  1.00  0.00     0.127 S 
ATOM     94  O   UNL A   1      47.300  24.000  36.488  1.00  0.00    -0.237 OA
ATOM     95  O   UNL A   1      47.212  22.099  34.924  1.00  0.00    -0.237 OA
ATOM     96  O   UNL A   1      49.383  22.921  35.725  1.00  0.00    -0.744 OA
ENDBRANCH  90  93
ENDBRANCH  63  86
ENDBRANCH  37  38
ENDBRANCH  29  32
ENDBRANCH  27  28
ENDBRANCH  26  27
ENDBRANCH  25  26
ENDBRANCH   1  25
TORSDOF 21
ENDMDL
MODEL 2
REMARK VINA RESULT:     -11.1      3.210      5.078
REMARK SMILES COCC[C@H](NC(=O)c1ccc(C)cc1F)C(=O)NCCCCCCNC(=O)c1ccc(-c2c3nc(c(-c4cccc(S(=O)(=O)[O-])c4F)c4ccc([nH]4)c(-c4cccc(S(=O)(=O)[O-])c4F)c4nc(c(-c5cccc(S(=O)(=O)[O-])c5F)c5ccc2[nH]5)C=C4)C=C3)cc1
REMARK SMILES IDX 22 1 21 2 20 3 19 4 17 5 18 6 5 8 4 9 3 10 2 11 1 12 6 13
REMARK SMILES IDX 7 14 8 16 9 17 10 18 15 19 11 20 14 21 16 22 12 23 13 24
REMARK SMILES IDX 23 25 24 26 25 27 26 28 27 29 28 31 29 32 30 33 91 34 31 35
REMARK SMILES IDX 90 36 32 37 33 38 34 39 84 40 35 41 89 42 83 43 85 44 36 45
REMARK SMILES IDX 88 46 82 47 81 48 37 50 69 51 49 52 68 53 50 54 53 55 67 56
REMARK SMILES IDX 86 57 51 58 52 59 66 61 87 62 54 63 38 64 39 65 47 66 40 67
REMARK SMILES IDX 42 68 48 69 41 70 43 71 44 72 45 73 46 74 70 75 71 76 79 77
REMARK SMILES IDX 72 78 74 79 80 80 73 81 75 82 76 83 77 84 78 85 55 86 56 87
REMARK SMILES IDX 64 88 57 89 59 90 65 91 58 92 60 93 61 94 62 95 63 96
REMARK H PARENT 19 7 6 15 26 30 85 49 53 60
REMARK Flexibility Score: inf
ROOT
ATOM      1  C   UNL A   1      31.875  29.789  27.226  1.00  0.00     0.002 C 
ENDROOT
BRANCH   1   2
ATOM      2  C   UNL A   1      31.938  28.155  26.644  1.00  0.00     0.021 C 
BRANCH   2   3
ATOM      3  C   UNL A   1      33.534  26.774  26.098  1.00  0.00     0.116 C 
BRANCH   3   4
ATOM      4  N   UNL A   1      34.003  26.205  24.689  1.00  0.00    -0.354 N 
ATOM      5  C   UNL A   1      33.380  25.427  23.759  1.00  0.00     0.242 C 
ATOM      6  O   UNL A   1      33.980  25.200  22.704  1.00  0.00    -0.273 OA
ATOM      7  H   UNL A   1      34.920  26.465  24.441  1.00  0.00     0.163 HD
BRANCH   5   8
ATOM      8  C   UNL A   1      31.977  24.840  24.013  1.00  0.00     0.173 C 
BRANCH   8   9
ATOM      9  C   UNL A   1      30.852  25.601  23.287  1.00  0.00     0.063 C 
BRANCH   9  10
ATOM     10  C   UNL A   1      31.330  26.571  22.208  1.00  0.00     0.162 C 
BRANCH  10  11
ATOM     11  O   UNL A   1      30.530  27.739  22.092  1.00  0.00    -0.385 OA
ATOM     12  C   UNL A   1      30.165  28.329  23.327  1.00  0.00     0.194 C 
ENDBRANCH  10  11
ENDBRANCH   9  10
ENDBRANCH   8   9
BRANCH   8  13
ATOM     13  N   UNL A   1      31.696  24.512  25.422  1.00  0.00    -0.340 N 
ATOM     14  C   UNL A   1      32.133  23.474  26.197  1.00  0.00     0.254 C 
ATOM     15  H   UNL A   1      31.097  25.145  25.880  1.00  0.00     0.164 HD
ATOM     16  O   UNL A   1      31.968  23.443  27.407  1.00  0.00    -0.269 OA
BRANCH  14  17
ATOM     17  C   UNL A   1      32.802  22.378  25.523  1.00  0.00     0.075 A 
ATOM     18  C   UNL A   1      31.833  20.998  24.898  1.00  0.00     0.017 A 
ATOM     19  C   UNL A   1      34.599  22.269  25.585  1.00  0.00     0.136 A 
ATOM     20  C   UNL A   1      32.646  19.436  24.501  1.00  0.00     0.004 A 
ATOM     21  C   UNL A   1      35.419  20.695  25.205  1.00  0.00     0.043 A 
ATOM     22  F   UNL A   1      35.326  23.295  26.052  1.00  0.00    -0.206 F 
ATOM     23  C   UNL A   1      34.440  19.294  24.608  1.00  0.00    -0.048 A 
ATOM     24  C   UNL A   1      35.072  17.944  24.442  1.00  0.00     0.044 C 
ENDBRANCH  14  17
ENDBRANCH   8  13
ENDBRANCH   5   8
ENDBRANCH   3   4
ENDBRANCH   2   3
ENDBRANCH   1   2
BRANCH   1  25
ATOM     25  C   UNL A   1      31.770  30.909  26.182  1.00  0.00     0.002 C 
BRANCH  25  26
ATOM     26  C   UNL A   1      31.630  32.306  26.786  1.00  0.00     0.021 C 
BRANCH  26  27
ATOM     27  C   UNL A   1      32.889  32.709  27.535  1.00  0.00     0.116 C 
BRANCH  27  28
ATOM     28  N   UNL A   1      32.850  34.149  27.792  1.00  0.00    -0.352 N 
ATOM     29  C   UNL A   1      33.201  34.750  28.972  1.00  0.00     0.251 C 
ATOM     30  H   UNL A   1      32.547  34.733  27.057  1.00  0.00     0.163 HD
ATOM     31  O   UNL A   1      32.676  35.781  29.368  1.00  0.00    -0.269 OA
BRANCH  29  32
ATOM     32  C   UNL A   1      34.297  34.097  29.698  1.00  0.00     0.039 A 
ATOM     33  C   UNL A   1      34.048  33.196  30.729  1.00  0.00     0.014 A 
ATOM     34  C   UNL A   1      35.589  34.333  29.217  1.00  0.00     0.014 A 
ATOM     35  C   UNL A   1      35.127  32.512  31.280  1.00  0.00     0.010 A 
ATOM     36  C   UNL A   1      36.628  33.554  29.669  1.00  0.00     0.010 A 
ATOM     37  C   UNL A   1      36.418  32.685  30.745  1.00  0.00    -0.014 A 
BRANCH  37  38
ATOM     38  C   UNL A   1      37.604  32.038  31.333  1.00  0.00     0.031 A 
ATOM     39  C   UNL A   1      38.166  32.595  32.614  1.00  0.00     0.074 A 
ATOM     40  C   UNL A   1      38.220  31.049  30.662  1.00  0.00     0.049 A 
ATOM     41  N   UNL A   1      39.246  32.247  33.258  1.00  0.00    -0.248 NA
ATOM     42  C   UNL A   1      37.451  33.734  33.224  1.00  0.00     0.031 C 
ATOM     43  C   UNL A   1      37.812  30.523  29.356  1.00  0.00     0.029 A 
ATOM     44  N   UNL A   1      39.338  30.325  30.978  1.00  0.00    -0.354 N 
ATOM     45  C   UNL A   1      39.364  33.151  34.306  1.00  0.00     0.074 A 
ATOM     46  C   UNL A   1      38.289  34.105  34.177  1.00  0.00     0.031 C 
ATOM     47  C   UNL A   1      38.656  29.545  28.993  1.00  0.00     0.029 A 
ATOM     48  C   UNL A   1      39.678  29.396  30.024  1.00  0.00     0.049 A 
ATOM     49  H   UNL A   1      39.850  30.458  31.808  1.00  0.00     0.167 HD
ATOM     50  C   UNL A   1      40.260  33.156  35.317  1.00  0.00     0.034 A 
ATOM     51  C   UNL A   1      40.702  28.524  29.998  1.00  0.00     0.034 A 
ATOM     52  C   UNL A   1      41.275  32.153  35.463  1.00  0.00     0.049 A 
ATOM     53  C   UNL A   1      41.636  28.492  31.177  1.00  0.00     0.074 A 
ATOM     54  C   UNL A   1      42.171  31.978  36.498  1.00  0.00     0.029 A 
ATOM     55  N   UNL A   1      41.522  31.151  34.536  1.00  0.00    -0.354 N 
ATOM     56  N   UNL A   1      41.634  29.245  32.252  1.00  0.00    -0.248 NA
ATOM     57  C   UNL A   1      42.687  27.466  31.163  1.00  0.00     0.031 C 
ATOM     58  C   UNL A   1      42.982  30.884  36.182  1.00  0.00     0.029 A 
ATOM     59  C   UNL A   1      42.566  30.357  34.969  1.00  0.00     0.049 A 
ATOM     60  H   UNL A   1      41.028  31.026  33.694  1.00  0.00     0.167 HD
ATOM     61  C   UNL A   1      42.657  28.765  33.057  1.00  0.00     0.074 A 
ATOM     62  C   UNL A   1      43.242  27.639  32.355  1.00  0.00     0.031 C 
ATOM     63  C   UNL A   1      43.088  29.216  34.262  1.00  0.00     0.034 A 
BRANCH  50  64
ATOM     64  C   UNL A   1      40.138  34.236  36.360  1.00  0.00     0.023 A 
ATOM     65  C   UNL A   1      40.463  35.570  36.032  1.00  0.00     0.012 A 
ATOM     66  C   UNL A   1      39.673  33.940  37.654  1.00  0.00     0.148 A 
ATOM     67  C   UNL A   1      40.370  36.581  36.986  1.00  0.00     0.002 A 
ATOM     68  C   UNL A   1      39.530  34.963  38.585  1.00  0.00     0.091 A 
ATOM     69  F   UNL A   1      39.393  32.664  37.957  1.00  0.00    -0.205 F 
ATOM     70  C   UNL A   1      39.891  36.280  38.258  1.00  0.00     0.022 A 
BRANCH  68  71
ATOM     71  S   UNL A   1      38.842  34.695  40.222  1.00  0.00     0.127 S 
ATOM     72  O   UNL A   1      39.971  34.082  40.920  1.00  0.00    -0.237 OA
ATOM     73  O   UNL A   1      38.531  36.060  40.648  1.00  0.00    -0.237 OA
ATOM     74  O   UNL A   1      37.682  33.835  40.037  1.00  0.00    -0.744 OA
ENDBRANCH  68  71
ENDBRANCH  50  64
BRANCH  51  75
ATOM     75  C   UNL A   1      40.839  27.566  28.865  1.00  0.00     0.023 A 
ATOM     76  C   UNL A   1      39.963  26.465  28.780  1.00  0.00     0.012 A 
ATOM     77  C   UNL A   1      41.796  27.760  27.852  1.00  0.00     0.148 A 
ATOM     78  C   UNL A   1      40.064  25.555  27.727  1.00  0.00     0.002 A 
ATOM     79  C   UNL A   1      41.855  26.881  26.777  1.00  0.00     0.091 A 
ATOM     80  F   UNL A   1      42.622  28.812  27.952  1.00  0.00    -0.205 F 
ATOM     81  C   UNL A   1      41.003  25.767  26.722  1.00  0.00     0.022 A 
BRANCH  79  82
ATOM     82  S   UNL A   1      42.937  27.154  25.368  1.00  0.00     0.127 S 
ATOM     83  O   UNL A   1      42.823  25.886  24.654  1.00  0.00    -0.237 OA
ATOM     84  O   UNL A   1      42.295  28.293  24.710  1.00  0.00    -0.237 OA
ATOM     85  O   UNL A   1      44.248  27.451  25.931  1.00  0.00    -0.744 OA
ENDBRANCH  79  82
ENDBRANCH  51  75
BRANCH  63  86
ATOM     86  C   UNL A   1      44.221  28.471  34.913  1.00  0.00     0.023 A 
ATOM     87  C   UNL A   1      45.552  28.812  34.610  1.00  0.00     0.012 A 
ATOM     88  C   UNL A   1      43.957  27.492  35.891  1.00  0.00     0.148 A 
ATOM     89  C   UNL A   1      46.608  28.163  35.245  1.00  0.00     0.002 A 
ATOM     90  C   UNL A   1      45.013  26.890  36.560  1.00  0.00     0.091 A 
ATOM     91  F   UNL A   1      42.680  27.176  36.152  1.00  0.00    -0.205 F 
ATOM     92  C   UNL A   1      46.339  27.213  36.228  1.00  0.00     0.022 A 
BRANCH  90  93
ATOM     93  S   UNL A   1      44.760  25.737  37.912  1.00  0.00     0.127 S 
ATOM     94  O   UNL A   1      46.134  25.457  38.325  1.00  0.00    -0.237 OA
ATOM     95  O   UNL A   1      43.987  26.540  38.861  1.00  0.00    -0.237 OA
ATOM     96  O   UNL A   1      44.035  24.606  37.347  1.00  0.00    -0.744 OA
ENDBRANCH  90  93
ENDBRANCH  63  86
ENDBRANCH  37  38
ENDBRANCH  29  32
ENDBRANCH  27  28
ENDBRANCH  26  27
ENDBRANCH  25  26
ENDBRANCH   1  25
TORSDOF 21
ENDMDL
MODEL 3
REMARK VINA RESULT:     -11.0      2.038      3.500
REMARK SMILES COCC[C@H](NC(=O)c1ccc(C)cc1F)C(=O)NCCCCCCNC(=O)c1ccc(-c2c3nc(c(-c4cccc(S(=O)(=O)[O-])c4F)c4ccc([nH]4)c(-c4cccc(S(=O)(=O)[O-])c4F)c4nc(c(-c5cccc(S(=O)(=O)[O-])c5F)c5ccc2[nH]5)C=C4)C=C3)cc1
REMARK SMILES IDX 22 1 21 2 20 3 19 4 17 5 18 6 5 8 4 9 3 10 2 11 1 12 6 13
REMARK SMILES IDX 7 14 8 16 9 17 10 18 15 19 11 20 14 21 16 22 12 23 13 24
REMARK SMILES IDX 23 25 24 26 25 27 26 28 27 29 28 31 29 32 30 33 91 34 31 35
REMARK SMILES IDX 90 36 32 37 33 38 34 39 84 40 35 41 89 42 83 43 85 44 36 45
REMARK SMILES IDX 88 46 82 47 81 48 37 50 69 51 49 52 68 53 50 54 53 55 67 56
REMARK SMILES IDX 86 57 51 58 52 59 66 61 87 62 54 63 38 64 39 65 47 66 40 67
REMARK SMILES IDX 42 68 48 69 41 70 43 71 44 72 45 73 46 74 70 75 71 76 79 77
REMARK SMILES IDX 72 78 74 79 80 80 73 81 75 82 76 83 77 84 78 85 55 86 56 87
REMARK SMILES IDX 64 88 57 89 59 90 65 91 58 92 60 93 61 94 62 95 63 96
REMARK H PARENT 19 7 6 15 26 30 85 49 53 60
REMARK Flexibility Score: inf
ROOT
ATOM      1  C   UNL A   1      32.394  29.537  24.711  1.00  0.00     0.002 C 
ENDROOT
BRANCH   1   2
ATOM      2  C   UNL A   1      31.171  29.078  23.569  1.00  0.00     0.021 C 
BRANCH   2   3
ATOM      3  C   UNL A   1      30.819  27.338  22.302  1.00  0.00     0.116 C 
BRANCH   3   4
ATOM      4  N   UNL A   1      31.822  26.369  21.537  1.00  0.00    -0.354 N 
ATOM      5  C   UNL A   1      32.483  25.242  21.924  1.00  0.00     0.242 C 
ATOM      6  O   UNL A   1      33.151  24.646  21.072  1.00  0.00    -0.273 OA
ATOM      7  H   UNL A   1      31.999  26.635  20.606  1.00  0.00     0.163 HD
BRANCH   5   8
ATOM      8  C   UNL A   1      32.409  24.724  23.374  1.00  0.00     0.173 C 
BRANCH   8   9
ATOM      9  C   UNL A   1      31.097  23.982  23.696  1.00  0.00     0.063 C 
BRANCH   9  10
ATOM     10  C   UNL A   1      30.843  23.752  25.184  1.00  0.00     0.162 C 
BRANCH  10  11
ATOM     11  O   UNL A   1      30.359  24.900  25.867  1.00  0.00    -0.385 OA
ATOM     12  C   UNL A   1      29.478  25.709  25.108  1.00  0.00     0.194 C 
ENDBRANCH  10  11
ENDBRANCH   9  10
ENDBRANCH   8   9
BRANCH   8  13
ATOM     13  N   UNL A   1      32.838  25.697  24.394  1.00  0.00    -0.340 N 
ATOM     14  C   UNL A   1      33.913  25.685  25.237  1.00  0.00     0.254 C 
ATOM     15  H   UNL A   1      32.254  26.486  24.481  1.00  0.00     0.164 HD
ATOM     16  O   UNL A   1      34.244  26.660  25.895  1.00  0.00    -0.269 OA
BRANCH  14  17
ATOM     17  C   UNL A   1      34.660  24.446  25.341  1.00  0.00     0.075 A 
ATOM     18  C   UNL A   1      35.884  24.040  24.086  1.00  0.00     0.017 A 
ATOM     19  C   UNL A   1      34.149  23.206  26.543  1.00  0.00     0.136 A 
ATOM     20  C   UNL A   1      36.465  22.341  23.916  1.00  0.00     0.004 A 
ATOM     21  C   UNL A   1      34.717  21.491  26.365  1.00  0.00     0.043 A 
ATOM     22  F   UNL A   1      33.236  23.503  27.480  1.00  0.00    -0.206 F 
ATOM     23  C   UNL A   1      35.923  21.075  25.079  1.00  0.00    -0.048 A 
ATOM     24  C   UNL A   1      36.283  19.642  24.814  1.00  0.00     0.044 C 
ENDBRANCH  14  17
ENDBRANCH   8  13
ENDBRANCH   5   8
ENDBRANCH   3   4
ENDBRANCH   2   3
ENDBRANCH   1   2
BRANCH   1  25
ATOM     25  C   UNL A   1      31.931  29.965  26.111  1.00  0.00     0.002 C 
BRANCH  25  26
ATOM     26  C   UNL A   1      32.723  29.321  27.248  1.00  0.00     0.021 C 
BRANCH  26  27
ATOM     27  C   UNL A   1      34.135  29.877  27.317  1.00  0.00     0.116 C 
BRANCH  27  28
ATOM     28  N   UNL A   1      34.077  31.266  27.775  1.00  0.00    -0.352 N 
ATOM     29  C   UNL A   1      34.749  31.768  28.859  1.00  0.00     0.251 C 
ATOM     30  H   UNL A   1      33.511  31.889  27.264  1.00  0.00     0.163 HD
ATOM     31  O   UNL A   1      34.308  32.681  29.542  1.00  0.00    -0.269 OA
BRANCH  29  32
ATOM     32  C   UNL A   1      36.065  31.167  29.105  1.00  0.00     0.039 A 
ATOM     33  C   UNL A   1      37.227  31.729  28.586  1.00  0.00     0.014 A 
ATOM     34  C   UNL A   1      36.098  30.079  29.985  1.00  0.00     0.014 A 
ATOM     35  C   UNL A   1      38.450  31.186  28.972  1.00  0.00     0.010 A 
ATOM     36  C   UNL A   1      37.308  29.641  30.469  1.00  0.00     0.010 A 
ATOM     37  C   UNL A   1      38.491  30.147  29.920  1.00  0.00    -0.014 A 
BRANCH  37  38
ATOM     38  C   UNL A   1      39.751  29.492  30.312  1.00  0.00     0.031 A 
ATOM     39  C   UNL A   1      40.531  30.065  31.466  1.00  0.00     0.074 A 
ATOM     40  C   UNL A   1      40.231  28.479  29.570  1.00  0.00     0.049 A 
ATOM     41  N   UNL A   1      41.700  29.712  31.925  1.00  0.00    -0.248 NA
ATOM     42  C   UNL A   1      39.946  31.230  32.162  1.00  0.00     0.031 C 
ATOM     43  C   UNL A   1      39.599  27.933  28.365  1.00  0.00     0.029 A 
ATOM     44  N   UNL A   1      41.377  27.743  29.708  1.00  0.00    -0.354 N 
ATOM     45  C   UNL A   1      42.007  30.636  32.917  1.00  0.00     0.074 A 
ATOM     46  C   UNL A   1      40.939  31.606  32.950  1.00  0.00     0.031 C 
ATOM     47  C   UNL A   1      40.356  26.933  27.887  1.00  0.00     0.029 A 
ATOM     48  C   UNL A   1      41.536  26.788  28.732  1.00  0.00     0.049 A 
ATOM     49  H   UNL A   1      42.024  27.884  30.435  1.00  0.00     0.167 HD
ATOM     50  C   UNL A   1      43.063  30.646  33.760  1.00  0.00     0.034 A 
ATOM     51  C   UNL A   1      42.530  25.898  28.553  1.00  0.00     0.034 A 
ATOM     52  C   UNL A   1      44.074  29.630  33.754  1.00  0.00     0.049 A 
ATOM     53  C   UNL A   1      43.650  25.875  29.556  1.00  0.00     0.074 A 
ATOM     54  C   UNL A   1      45.131  29.460  34.625  1.00  0.00     0.029 A 
ATOM     55  N   UNL A   1      44.146  28.605  32.822  1.00  0.00    -0.354 N 
ATOM     56  N   UNL A   1      43.841  26.650  30.598  1.00  0.00    -0.248 NA
ATOM     57  C   UNL A   1      44.669  24.831  29.388  1.00  0.00     0.031 C 
ATOM     58  C   UNL A   1      45.861  28.346  34.202  1.00  0.00     0.029 A 
ATOM     59  C   UNL A   1      45.237  27.802  33.090  1.00  0.00     0.049 A 
ATOM     60  H   UNL A   1      43.514  28.470  32.080  1.00  0.00     0.167 HD
ATOM     61  C   UNL A   1      44.980  26.169  31.228  1.00  0.00     0.074 A 
ATOM     62  C   UNL A   1      45.421  25.019  30.463  1.00  0.00     0.031 C 
ATOM     63  C   UNL A   1      45.617  26.638  32.331  1.00  0.00     0.034 A 
BRANCH  50  64
ATOM     64  C   UNL A   1      43.134  31.750  34.783  1.00  0.00     0.023 A 
ATOM     65  C   UNL A   1      43.822  32.945  34.481  1.00  0.00     0.012 A 
ATOM     66  C   UNL A   1      42.497  31.620  36.030  1.00  0.00     0.148 A 
ATOM     67  C   UNL A   1      43.912  33.972  35.418  1.00  0.00     0.002 A 
ATOM     68  C   UNL A   1      42.544  32.670  36.939  1.00  0.00     0.091 A 
ATOM     69  F   UNL A   1      41.870  30.468  36.311  1.00  0.00    -0.205 F 
ATOM     70  C   UNL A   1      43.262  33.840  36.642  1.00  0.00     0.022 A 
BRANCH  68  71
ATOM     71  S   UNL A   1      41.669  32.634  38.508  1.00  0.00     0.127 S 
ATOM     72  O   UNL A   1      41.874  33.999  38.990  1.00  0.00    -0.237 OA
ATOM     73  O   UNL A   1      40.299  32.337  38.085  1.00  0.00    -0.237 OA
ATOM     74  O   UNL A   1      42.303  31.591  39.300  1.00  0.00    -0.744 OA
ENDBRANCH  68  71
ENDBRANCH  50  64
BRANCH  51  75
ATOM     75  C   UNL A   1      42.458  24.914  27.436  1.00  0.00     0.023 A 
ATOM     76  C   UNL A   1      43.248  25.113  26.286  1.00  0.00     0.012 A 
ATOM     77  C   UNL A   1      41.649  23.766  27.522  1.00  0.00     0.148 A 
ATOM     78  C   UNL A   1      43.205  24.205  25.227  1.00  0.00     0.002 A 
ATOM     79  C   UNL A   1      41.653  22.836  26.489  1.00  0.00     0.091 A 
ATOM     80  F   UNL A   1      40.903  23.595  28.623  1.00  0.00    -0.205 F 
ATOM     81  C   UNL A   1      42.415  23.063  25.332  1.00  0.00     0.022 A 
BRANCH  79  82
ATOM     82  S   UNL A   1      40.776  21.272  26.597  1.00  0.00     0.127 S 
ATOM     83  O   UNL A   1      41.646  20.388  25.826  1.00  0.00    -0.237 OA
ATOM     84  O   UNL A   1      40.770  21.027  28.040  1.00  0.00    -0.237 OA
ATOM     85  O   UNL A   1      39.458  21.520  26.028  1.00  0.00    -0.744 OA
ENDBRANCH  79  82
ENDBRANCH  51  75
BRANCH  63  86
ATOM     86  C   UNL A   1      46.833  25.887  32.797  1.00  0.00     0.023 A 
ATOM     87  C   UNL A   1      46.715  24.921  33.814  1.00  0.00     0.012 A 
ATOM     88  C   UNL A   1      48.075  26.083  32.162  1.00  0.00     0.148 A 
ATOM     89  C   UNL A   1      47.826  24.184  34.219  1.00  0.00     0.002 A 
ATOM     90  C   UNL A   1      49.164  25.305  32.531  1.00  0.00     0.091 A 
ATOM     91  F   UNL A   1      48.164  27.019  31.206  1.00  0.00    -0.205 F 
ATOM     92  C   UNL A   1      49.045  24.366  33.568  1.00  0.00     0.022 A 
BRANCH  90  93
ATOM     93  S   UNL A   1      50.740  25.396  31.678  1.00  0.00     0.127 S 
ATOM     94  O   UNL A   1      51.545  24.442  32.440  1.00  0.00    -0.237 OA
ATOM     95  O   UNL A   1      50.386  24.957  30.328  1.00  0.00    -0.237 OA
ATOM     96  O   UNL A   1      51.168  26.786  31.768  1.00  0.00    -0.744 OA
ENDBRANCH  90  93
ENDBRANCH  63  86
ENDBRANCH  37  38
ENDBRANCH  29  32
ENDBRANCH  27  28
ENDBRANCH  26  27
ENDBRANCH  25  26
ENDBRANCH   1  25
TORSDOF 21
ENDMDL
