MODEL 1
REMARK VINA RESULT:     -10.2      0.000      0.000
REMARK SMILES CC(C)CC1(CNc2ccnc(C(=O)NCCCCCCNC(=O)c3ccc(-c4c5nc(c(-c6cccc(S(=O)(=O)[O-])c6F)c6ccc([nH]6)c(-c6cccc(S(=O)(=O)[O-])c6F)c6nc(c(-c7cccc(S(=O)(=O)[O-])c7F)c7ccc4[nH]7)C=C6)C=C5)cc3)c2)CCCC1
REMARK SMILES IDX 17 1 16 2 15 3 13 4 14 5 12 7 8 8 9 9 88 10 10 11 11 12 7 13
REMARK SMILES IDX 6 15 5 16 89 17 92 18 90 19 91 20 4 21 2 22 1 23 3 24 18 25
REMARK SMILES IDX 19 26 20 27 21 28 22 29 23 30 24 32 25 33 26 34 87 35 27 36
REMARK SMILES IDX 86 37 28 38 29 39 30 40 80 41 31 42 85 43 79 44 81 45 32 46
REMARK SMILES IDX 84 47 78 48 77 49 33 51 65 52 45 53 64 54 46 55 49 56 63 57
REMARK SMILES IDX 82 58 47 59 48 60 62 62 83 63 50 64 34 65 35 66 43 67 36 68
REMARK SMILES IDX 38 69 44 70 37 71 39 72 40 73 41 74 42 75 66 76 67 77 75 78
REMARK SMILES IDX 68 79 70 80 76 81 69 82 71 83 72 84 73 85 74 86 51 87 52 88
REMARK SMILES IDX 60 89 53 90 55 91 61 92 54 93 56 94 57 95 58 96 59 97
REMARK H PARENT 15 6 7 14 22 31 81 50 49 61
REMARK Flexibility Score: inf
ROOT
ATOM      1  C   UNL A   1      39.398  23.113  26.761  1.00  0.00     0.021 C 
ENDROOT
BRANCH   1   2
ATOM      2  C   UNL A   1      38.193  23.850  26.165  1.00  0.00     0.116 C 
BRANCH   2   3
ATOM      3  N   UNL A   1      37.789  23.351  24.868  1.00  0.00    -0.351 N 
ATOM      4  C   UNL A   1      36.593  22.991  24.280  1.00  0.00     0.269 C 
ATOM      5  O   UNL A   1      36.687  22.699  23.080  1.00  0.00    -0.268 OA
ATOM      6  H   UNL A   1      38.553  23.242  24.255  1.00  0.00     0.163 HD
BRANCH   4   7
ATOM      7  C   UNL A   1      35.239  22.856  24.959  1.00  0.00     0.130 A 
ATOM      8  C   UNL A   1      32.966  23.501  25.526  1.00  0.00     0.038 A 
ATOM      9  C   UNL A   1      33.013  22.585  26.571  1.00  0.00     0.046 A 
ATOM     10  C   UNL A   1      34.075  23.556  24.654  1.00  0.00     0.060 A 
ATOM     11  C   UNL A   1      34.157  21.830  26.744  1.00  0.00     0.114 A 
ATOM     12  N   UNL A   1      35.264  21.967  25.991  1.00  0.00    -0.251 NA
BRANCH   8  13
ATOM     13  N   UNL A   1      31.962  24.465  25.426  1.00  0.00    -0.384 N 
ATOM     14  H   UNL A   1      31.727  24.979  26.232  1.00  0.00     0.160 HD
BRANCH  13  15
ATOM     15  C   UNL A   1      31.237  24.757  24.177  1.00  0.00     0.119 C 
BRANCH  15  16
ATOM     16  C   UNL A   1      31.254  26.262  23.728  1.00  0.00    -0.012 C 
ATOM     17  C   UNL A   1      31.344  26.333  22.177  1.00  0.00     0.009 C 
ATOM     18  C   UNL A   1      32.563  26.984  24.113  1.00  0.00     0.009 C 
ATOM     19  C   UNL A   1      32.809  26.158  21.824  1.00  0.00     0.001 C 
ATOM     20  C   UNL A   1      33.581  26.725  23.004  1.00  0.00     0.001 C 
BRANCH  16  21
ATOM     21  C   UNL A   1      29.956  27.058  24.102  1.00  0.00     0.012 C 
BRANCH  21  22
ATOM     22  C   UNL A   1      29.499  28.199  23.193  1.00  0.00    -0.017 C 
ATOM     23  C   UNL A   1      27.982  28.315  23.087  1.00  0.00     0.007 C 
ATOM     24  C   UNL A   1      30.133  29.538  23.581  1.00  0.00     0.007 C 
ENDBRANCH  21  22
ENDBRANCH  16  21
ENDBRANCH  15  16
ENDBRANCH  13  15
ENDBRANCH   8  13
ENDBRANCH   4   7
ENDBRANCH   2   3
ENDBRANCH   1   2
BRANCH   1  25
ATOM     25  C   UNL A   1      39.662  21.709  26.213  1.00  0.00     0.002 C 
BRANCH  25  26
ATOM     26  C   UNL A   1      40.909  20.996  26.755  1.00  0.00     0.002 C 
BRANCH  26  27
ATOM     27  C   UNL A   1      41.250  19.640  26.126  1.00  0.00     0.021 C 
BRANCH  27  28
ATOM     28  C   UNL A   1      42.609  19.055  26.509  1.00  0.00     0.116 C 
BRANCH  28  29
ATOM     29  N   UNL A   1      43.492  18.907  25.360  1.00  0.00    -0.352 N 
ATOM     30  C   UNL A   1      44.172  19.851  24.636  1.00  0.00     0.251 C 
ATOM     31  H   UNL A   1      43.619  17.980  25.053  1.00  0.00     0.163 HD
ATOM     32  O   UNL A   1      44.697  19.526  23.565  1.00  0.00    -0.269 OA
BRANCH  30  33
ATOM     33  C   UNL A   1      44.285  21.247  25.110  1.00  0.00     0.039 A 
ATOM     34  C   UNL A   1      45.091  21.524  26.219  1.00  0.00     0.014 A 
ATOM     35  C   UNL A   1      43.563  22.278  24.503  1.00  0.00     0.014 A 
ATOM     36  C   UNL A   1      45.216  22.837  26.682  1.00  0.00     0.010 A 
ATOM     37  C   UNL A   1      43.741  23.596  24.923  1.00  0.00     0.010 A 
ATOM     38  C   UNL A   1      44.564  23.890  26.021  1.00  0.00    -0.014 A 
BRANCH  38  39
ATOM     39  C   UNL A   1      44.736  25.302  26.460  1.00  0.00     0.031 A 
ATOM     40  C   UNL A   1      46.093  25.954  26.413  1.00  0.00     0.074 A 
ATOM     41  C   UNL A   1      43.684  25.973  26.970  1.00  0.00     0.049 A 
ATOM     42  N   UNL A   1      46.448  27.150  26.811  1.00  0.00    -0.248 NA
ATOM     43  C   UNL A   1      47.203  25.154  25.869  1.00  0.00     0.031 C 
ATOM     44  C   UNL A   1      42.332  25.432  27.132  1.00  0.00     0.029 A 
ATOM     45  N   UNL A   1      43.591  27.248  27.472  1.00  0.00    -0.354 N 
ATOM     46  C   UNL A   1      47.818  27.235  26.593  1.00  0.00     0.074 A 
ATOM     47  C   UNL A   1      48.240  25.957  26.061  1.00  0.00     0.031 C 
ATOM     48  C   UNL A   1      41.546  26.368  27.689  1.00  0.00     0.029 A 
ATOM     49  C   UNL A   1      42.341  27.561  27.956  1.00  0.00     0.049 A 
ATOM     50  H   UNL A   1      44.347  27.878  27.485  1.00  0.00     0.167 HD
ATOM     51  C   UNL A   1      48.646  28.289  26.786  1.00  0.00     0.034 A 
ATOM     52  C   UNL A   1      41.889  28.680  28.557  1.00  0.00     0.034 A 
ATOM     53  C   UNL A   1      48.219  29.571  27.280  1.00  0.00     0.049 A 
ATOM     54  C   UNL A   1      42.829  29.842  28.743  1.00  0.00     0.074 A 
ATOM     55  C   UNL A   1      48.971  30.721  27.450  1.00  0.00     0.029 A 
ATOM     56  N   UNL A   1      46.929  29.874  27.684  1.00  0.00    -0.354 N 
ATOM     57  N   UNL A   1      44.090  29.947  28.400  1.00  0.00    -0.248 NA
ATOM     58  C   UNL A   1      42.274  31.052  29.364  1.00  0.00     0.031 C 
ATOM     59  C   UNL A   1      48.139  31.713  27.979  1.00  0.00     0.029 A 
ATOM     60  C   UNL A   1      46.862  31.191  28.106  1.00  0.00     0.049 A 
ATOM     61  H   UNL A   1      46.171  29.246  27.672  1.00  0.00     0.167 HD
ATOM     62  C   UNL A   1      44.464  31.247  28.720  1.00  0.00     0.074 A 
ATOM     63  C   UNL A   1      43.291  31.898  29.266  1.00  0.00     0.031 C 
ATOM     64  C   UNL A   1      45.673  31.845  28.587  1.00  0.00     0.034 A 
BRANCH  51  65
ATOM     65  C   UNL A   1      50.096  28.126  26.407  1.00  0.00     0.023 A 
ATOM     66  C   UNL A   1      50.507  28.428  25.093  1.00  0.00     0.012 A 
ATOM     67  C   UNL A   1      51.062  27.755  27.364  1.00  0.00     0.148 A 
ATOM     68  C   UNL A   1      51.849  28.334  24.727  1.00  0.00     0.002 A 
ATOM     69  C   UNL A   1      52.404  27.707  27.003  1.00  0.00     0.091 A 
ATOM     70  F   UNL A   1      50.651  27.456  28.604  1.00  0.00    -0.205 F 
ATOM     71  C   UNL A   1      52.797  27.986  25.684  1.00  0.00     0.022 A 
BRANCH  69  72
ATOM     72  S   UNL A   1      53.715  27.348  28.178  1.00  0.00     0.127 S 
ATOM     73  O   UNL A   1      54.854  27.122  27.288  1.00  0.00    -0.237 OA
ATOM     74  O   UNL A   1      53.782  28.589  28.951  1.00  0.00    -0.237 OA
ATOM     75  O   UNL A   1      53.276  26.182  28.930  1.00  0.00    -0.744 OA
ENDBRANCH  69  72
ENDBRANCH  51  65
BRANCH  52  76
ATOM     76  C   UNL A   1      40.463  28.785  28.982  1.00  0.00     0.023 A 
ATOM     77  C   UNL A   1      39.462  28.978  28.009  1.00  0.00     0.012 A 
ATOM     78  C   UNL A   1      40.092  28.705  30.338  1.00  0.00     0.148 A 
ATOM     79  C   UNL A   1      38.127  29.137  28.381  1.00  0.00     0.002 A 
ATOM     80  C   UNL A   1      38.753  28.805  30.698  1.00  0.00     0.091 A 
ATOM     81  F   UNL A   1      41.058  28.534  31.252  1.00  0.00    -0.205 F 
ATOM     82  C   UNL A   1      37.772  29.043  29.724  1.00  0.00     0.022 A 
BRANCH  80  83
ATOM     83  S   UNL A   1      38.196  28.566  32.388  1.00  0.00     0.127 S 
ATOM     84  O   UNL A   1      39.090  29.456  33.127  1.00  0.00    -0.237 OA
ATOM     85  O   UNL A   1      36.804  29.013  32.315  1.00  0.00    -0.237 OA
ATOM     86  O   UNL A   1      38.354  27.144  32.654  1.00  0.00    -0.744 OA
ENDBRANCH  80  83
ENDBRANCH  52  76
BRANCH  64  87
ATOM     87  C   UNL A   1      45.786  33.294  28.986  1.00  0.00     0.023 A 
ATOM     88  C   UNL A   1      46.244  33.639  30.273  1.00  0.00     0.012 A 
ATOM     89  C   UNL A   1      45.499  34.314  28.057  1.00  0.00     0.148 A 
ATOM     90  C   UNL A   1      46.379  34.977  30.641  1.00  0.00     0.002 A 
ATOM     91  C   UNL A   1      45.686  35.643  28.413  1.00  0.00     0.091 A 
ATOM     92  F   UNL A   1      45.047  33.965  26.843  1.00  0.00    -0.205 F 
ATOM     93  C   UNL A   1      46.112  35.978  29.709  1.00  0.00     0.022 A 
BRANCH  91  94
ATOM     94  S   UNL A   1      45.465  36.993  27.249  1.00  0.00     0.127 S 
ATOM     95  O   UNL A   1      44.046  36.871  26.919  1.00  0.00    -0.237 OA
ATOM     96  O   UNL A   1      45.805  38.161  28.062  1.00  0.00    -0.237 OA
ATOM     97  O   UNL A   1      46.386  36.732  26.151  1.00  0.00    -0.744 OA
ENDBRANCH  91  94
ENDBRANCH  64  87
ENDBRANCH  38  39
ENDBRANCH  30  33
ENDBRANCH  28  29
ENDBRANCH  27  28
ENDBRANCH  26  27
ENDBRANCH  25  26
ENDBRANCH   1  25
TORSDOF 21
ENDMDL
MODEL 2
REMARK VINA RESULT:     -10.2      2.251      3.521
REMARK SMILES CC(C)CC1(CNc2ccnc(C(=O)NCCCCCCNC(=O)c3ccc(-c4c5nc(c(-c6cccc(S(=O)(=O)[O-])c6F)c6ccc([nH]6)c(-c6cccc(S(=O)(=O)[O-])c6F)c6nc(c(-c7cccc(S(=O)(=O)[O-])c7F)c7ccc4[nH]7)C=C6)C=C5)cc3)c2)CCCC1
REMARK SMILES IDX 17 1 16 2 15 3 13 4 14 5 12 7 8 8 9 9 88 10 10 11 11 12 7 13
REMARK SMILES IDX 6 15 5 16 89 17 92 18 90 19 91 20 4 21 2 22 1 23 3 24 18 25
REMARK SMILES IDX 19 26 20 27 21 28 22 29 23 30 24 32 25 33 26 34 87 35 27 36
REMARK SMILES IDX 86 37 28 38 29 39 30 40 80 41 31 42 85 43 79 44 81 45 32 46
REMARK SMILES IDX 84 47 78 48 77 49 33 51 65 52 45 53 64 54 46 55 49 56 63 57
REMARK SMILES IDX 82 58 47 59 48 60 62 62 83 63 50 64 34 65 35 66 43 67 36 68
REMARK SMILES IDX 38 69 44 70 37 71 39 72 40 73 41 74 42 75 66 76 67 77 75 78
REMARK SMILES IDX 68 79 70 80 76 81 69 82 71 83 72 84 73 85 74 86 51 87 52 88
REMARK SMILES IDX 60 89 53 90 55 91 61 92 54 93 56 94 57 95 58 96 59 97
REMARK H PARENT 15 6 7 14 22 31 81 50 49 61
REMARK Flexibility Score: inf
ROOT
ATOM      1  C   UNL A   1      39.588  23.258  26.537  1.00  0.00     0.021 C 
ENDROOT
BRANCH   1   2
ATOM      2  C   UNL A   1      38.207  23.871  26.277  1.00  0.00     0.116 C 
BRANCH   2   3
ATOM      3  N   UNL A   1      37.678  23.574  24.962  1.00  0.00    -0.351 N 
ATOM      4  C   UNL A   1      36.437  23.253  24.451  1.00  0.00     0.269 C 
ATOM      5  O   UNL A   1      36.405  23.172  23.215  1.00  0.00    -0.268 OA
ATOM      6  H   UNL A   1      38.371  23.610  24.263  1.00  0.00     0.163 HD
BRANCH   4   7
ATOM      7  C   UNL A   1      35.173  22.933  25.234  1.00  0.00     0.130 A 
ATOM      8  C   UNL A   1      33.296  21.572  25.961  1.00  0.00     0.038 A 
ATOM      9  C   UNL A   1      32.714  22.726  26.473  1.00  0.00     0.046 A 
ATOM     10  C   UNL A   1      34.595  21.680  25.419  1.00  0.00     0.060 A 
ATOM     11  C   UNL A   1      33.398  23.921  26.367  1.00  0.00     0.114 A 
ATOM     12  N   UNL A   1      34.582  24.052  25.740  1.00  0.00    -0.251 NA
BRANCH   8  13
ATOM     13  N   UNL A   1      32.582  20.383  25.806  1.00  0.00    -0.384 N 
ATOM     14  H   UNL A   1      31.619  20.439  25.609  1.00  0.00     0.160 HD
BRANCH  13  15
ATOM     15  C   UNL A   1      33.192  19.048  25.923  1.00  0.00     0.119 C 
BRANCH  15  16
ATOM     16  C   UNL A   1      33.011  18.116  24.672  1.00  0.00    -0.012 C 
ATOM     17  C   UNL A   1      32.467  16.734  25.137  1.00  0.00     0.009 C 
ATOM     18  C   UNL A   1      34.356  17.687  24.048  1.00  0.00     0.009 C 
ATOM     19  C   UNL A   1      33.669  15.940  25.616  1.00  0.00     0.001 C 
ATOM     20  C   UNL A   1      34.844  16.449  24.799  1.00  0.00     0.001 C 
BRANCH  16  21
ATOM     21  C   UNL A   1      31.965  18.640  23.628  1.00  0.00     0.012 C 
BRANCH  21  22
ATOM     22  C   UNL A   1      32.463  19.398  22.397  1.00  0.00    -0.017 C 
ATOM     23  C   UNL A   1      32.105  18.714  21.082  1.00  0.00     0.007 C 
ATOM     24  C   UNL A   1      32.018  20.863  22.400  1.00  0.00     0.007 C 
ENDBRANCH  21  22
ENDBRANCH  16  21
ENDBRANCH  15  16
ENDBRANCH  13  15
ENDBRANCH   8  13
ENDBRANCH   4   7
ENDBRANCH   2   3
ENDBRANCH   1   2
BRANCH   1  25
ATOM     25  C   UNL A   1      39.686  21.738  26.387  1.00  0.00     0.002 C 
BRANCH  25  26
ATOM     26  C   UNL A   1      41.084  21.131  26.563  1.00  0.00     0.002 C 
BRANCH  26  27
ATOM     27  C   UNL A   1      41.273  19.691  26.070  1.00  0.00     0.021 C 
BRANCH  27  28
ATOM     28  C   UNL A   1      42.613  19.043  26.414  1.00  0.00     0.116 C 
BRANCH  28  29
ATOM     29  N   UNL A   1      43.455  18.855  25.240  1.00  0.00    -0.352 N 
ATOM     30  C   UNL A   1      44.140  19.770  24.484  1.00  0.00     0.251 C 
ATOM     31  H   UNL A   1      43.546  17.922  24.942  1.00  0.00     0.163 HD
ATOM     32  O   UNL A   1      44.623  19.418  23.402  1.00  0.00    -0.269 OA
BRANCH  30  33
ATOM     33  C   UNL A   1      44.308  21.169  24.937  1.00  0.00     0.039 A 
ATOM     34  C   UNL A   1      44.872  21.411  26.193  1.00  0.00     0.014 A 
ATOM     35  C   UNL A   1      43.867  22.240  24.156  1.00  0.00     0.014 A 
ATOM     36  C   UNL A   1      45.044  22.724  26.640  1.00  0.00     0.010 A 
ATOM     37  C   UNL A   1      44.101  23.550  24.573  1.00  0.00     0.010 A 
ATOM     38  C   UNL A   1      44.686  23.808  25.822  1.00  0.00    -0.014 A 
BRANCH  38  39
ATOM     39  C   UNL A   1      44.921  25.213  26.253  1.00  0.00     0.031 A 
ATOM     40  C   UNL A   1      46.312  25.790  26.245  1.00  0.00     0.074 A 
ATOM     41  C   UNL A   1      43.891  25.946  26.723  1.00  0.00     0.049 A 
ATOM     42  N   UNL A   1      46.719  26.968  26.644  1.00  0.00    -0.248 NA
ATOM     43  C   UNL A   1      47.394  24.924  25.744  1.00  0.00     0.031 C 
ATOM     44  C   UNL A   1      42.507  25.481  26.845  1.00  0.00     0.029 A 
ATOM     45  N   UNL A   1      43.852  27.229  27.211  1.00  0.00    -0.354 N 
ATOM     46  C   UNL A   1      48.098  26.977  26.469  1.00  0.00     0.074 A 
ATOM     47  C   UNL A   1      48.466  25.673  25.963  1.00  0.00     0.031 C 
ATOM     48  C   UNL A   1      41.756  26.463  27.368  1.00  0.00     0.029 A 
ATOM     49  C   UNL A   1      42.606  27.615  27.651  1.00  0.00     0.049 A 
ATOM     50  H   UNL A   1      44.640  27.817  27.242  1.00  0.00     0.167 HD
ATOM     51  C   UNL A   1      48.976  27.986  26.681  1.00  0.00     0.034 A 
ATOM     52  C   UNL A   1      42.196  28.763  28.227  1.00  0.00     0.034 A 
ATOM     53  C   UNL A   1      48.604  29.295  27.149  1.00  0.00     0.049 A 
ATOM     54  C   UNL A   1      43.193  29.874  28.433  1.00  0.00     0.074 A 
ATOM     55  C   UNL A   1      49.411  30.404  27.333  1.00  0.00     0.029 A 
ATOM     56  N   UNL A   1      47.320  29.672  27.508  1.00  0.00    -0.354 N 
ATOM     57  N   UNL A   1      44.467  29.906  28.130  1.00  0.00    -0.248 NA
ATOM     58  C   UNL A   1      42.685  31.119  29.024  1.00  0.00     0.031 C 
ATOM     59  C   UNL A   1      48.619  31.445  27.826  1.00  0.00     0.029 A 
ATOM     60  C   UNL A   1      47.312  30.995  27.915  1.00  0.00     0.049 A 
ATOM     61  H   UNL A   1      46.529  29.086  27.477  1.00  0.00     0.167 HD
ATOM     62  C   UNL A   1      44.902  31.188  28.450  1.00  0.00     0.074 A 
ATOM     63  C   UNL A   1      43.749  31.907  28.952  1.00  0.00     0.031 C 
ATOM     64  C   UNL A   1      46.146  31.718  28.352  1.00  0.00     0.034 A 
BRANCH  51  65
ATOM     65  C   UNL A   1      50.426  27.741  26.350  1.00  0.00     0.023 A 
ATOM     66  C   UNL A   1      51.320  27.383  27.379  1.00  0.00     0.012 A 
ATOM     67  C   UNL A   1      50.886  27.783  25.019  1.00  0.00     0.148 A 
ATOM     68  C   UNL A   1      52.656  27.101  27.095  1.00  0.00     0.002 A 
ATOM     69  C   UNL A   1      52.209  27.457  24.738  1.00  0.00     0.091 A 
ATOM     70  F   UNL A   1      50.026  28.140  24.056  1.00  0.00    -0.205 F 
ATOM     71  C   UNL A   1      53.096  27.127  25.775  1.00  0.00     0.022 A 
BRANCH  69  72
ATOM     72  S   UNL A   1      52.858  27.381  23.064  1.00  0.00     0.127 S 
ATOM     73  O   UNL A   1      53.123  28.793  22.788  1.00  0.00    -0.237 OA
ATOM     74  O   UNL A   1      54.057  26.559  23.238  1.00  0.00    -0.237 OA
ATOM     75  O   UNL A   1      51.814  26.776  22.252  1.00  0.00    -0.744 OA
ENDBRANCH  69  72
ENDBRANCH  51  65
BRANCH  52  76
ATOM     76  C   UNL A   1      40.766  28.949  28.604  1.00  0.00     0.023 A 
ATOM     77  C   UNL A   1      39.820  29.257  27.606  1.00  0.00     0.012 A 
ATOM     78  C   UNL A   1      40.337  28.835  29.941  1.00  0.00     0.148 A 
ATOM     79  C   UNL A   1      38.485  29.494  27.936  1.00  0.00     0.002 A 
ATOM     80  C   UNL A   1      38.995  29.014  30.256  1.00  0.00     0.091 A 
ATOM     81  F   UNL A   1      41.252  28.554  30.879  1.00  0.00    -0.205 F 
ATOM     82  C   UNL A   1      38.071  29.364  29.259  1.00  0.00     0.022 A 
BRANCH  80  83
ATOM     83  S   UNL A   1      38.356  28.738  31.911  1.00  0.00     0.127 S 
ATOM     84  O   UNL A   1      38.668  27.326  32.121  1.00  0.00    -0.237 OA
ATOM     85  O   UNL A   1      39.159  29.670  32.705  1.00  0.00    -0.237 OA
ATOM     86  O   UNL A   1      36.942  29.074  31.846  1.00  0.00    -0.744 OA
ENDBRANCH  80  83
ENDBRANCH  52  76
BRANCH  64  87
ATOM     87  C   UNL A   1      46.324  33.163  28.741  1.00  0.00     0.023 A 
ATOM     88  C   UNL A   1      46.783  33.495  30.031  1.00  0.00     0.012 A 
ATOM     89  C   UNL A   1      46.099  34.188  27.801  1.00  0.00     0.148 A 
ATOM     90  C   UNL A   1      46.979  34.827  30.390  1.00  0.00     0.002 A 
ATOM     91  C   UNL A   1      46.347  35.509  28.150  1.00  0.00     0.091 A 
ATOM     92  F   UNL A   1      45.645  33.852  26.584  1.00  0.00    -0.205 F 
ATOM     93  C   UNL A   1      46.773  35.833  29.448  1.00  0.00     0.022 A 
BRANCH  91  94
ATOM     94  S   UNL A   1      46.206  36.859  26.973  1.00  0.00     0.127 S 
ATOM     95  O   UNL A   1      44.756  36.966  26.816  1.00  0.00    -0.237 OA
ATOM     96  O   UNL A   1      46.825  37.968  27.699  1.00  0.00    -0.237 OA
ATOM     97  O   UNL A   1      46.933  36.433  25.784  1.00  0.00    -0.744 OA
ENDBRANCH  91  94
ENDBRANCH  64  87
ENDBRANCH  38  39
ENDBRANCH  30  33
ENDBRANCH  28  29
ENDBRANCH  27  28
ENDBRANCH  26  27
ENDBRANCH  25  26
ENDBRANCH   1  25
TORSDOF 21
ENDMDL
MODEL 3
REMARK VINA RESULT:      -9.9      1.608      2.012
REMARK SMILES CC(C)CC1(CNc2ccnc(C(=O)NCCCCCCNC(=O)c3ccc(-c4c5nc(c(-c6cccc(S(=O)(=O)[O-])c6F)c6ccc([nH]6)c(-c6cccc(S(=O)(=O)[O-])c6F)c6nc(c(-c7cccc(S(=O)(=O)[O-])c7F)c7ccc4[nH]7)C=C6)C=C5)cc3)c2)CCCC1
REMARK SMILES IDX 17 1 16 2 15 3 13 4 14 5 12 7 8 8 9 9 88 10 10 11 11 12 7 13
REMARK SMILES IDX 6 15 5 16 89 17 92 18 90 19 91 20 4 21 2 22 1 23 3 24 18 25
REMARK SMILES IDX 19 26 20 27 21 28 22 29 23 30 24 32 25 33 26 34 87 35 27 36
REMARK SMILES IDX 86 37 28 38 29 39 30 40 80 41 31 42 85 43 79 44 81 45 32 46
REMARK SMILES IDX 84 47 78 48 77 49 33 51 65 52 45 53 64 54 46 55 49 56 63 57
REMARK SMILES IDX 82 58 47 59 48 60 62 62 83 63 50 64 34 65 35 66 43 67 36 68
REMARK SMILES IDX 38 69 44 70 37 71 39 72 40 73 41 74 42 75 66 76 67 77 75 78
REMARK SMILES IDX 68 79 70 80 76 81 69 82 71 83 72 84 73 85 74 86 51 87 52 88
REMARK SMILES IDX 60 89 53 90 55 91 61 92 54 93 56 94 57 95 58 96 59 97
REMARK H PARENT 15 6 7 14 22 31 81 50 49 61
REMARK Flexibility Score: inf
ROOT
ATOM      1  C   UNL A   1      39.864  22.880  26.403  1.00  0.00     0.021 C 
ENDROOT
BRANCH   1   2
ATOM      2  C   UNL A   1      38.362  22.973  26.107  1.00  0.00     0.116 C 
BRANCH   2   3
ATOM      3  N   UNL A   1      37.783  21.730  25.641  1.00  0.00    -0.351 N 
ATOM      4  C   UNL A   1      36.504  21.266  25.411  1.00  0.00     0.269 C 
ATOM      5  O   UNL A   1      36.460  20.137  24.904  1.00  0.00    -0.268 OA
ATOM      6  H   UNL A   1      38.468  21.052  25.438  1.00  0.00     0.163 HD
BRANCH   4   7
ATOM      7  C   UNL A   1      35.197  21.954  25.773  1.00  0.00     0.130 A 
ATOM      8  C   UNL A   1      33.409  23.585  25.548  1.00  0.00     0.038 A 
ATOM      9  C   UNL A   1      33.004  23.254  26.836  1.00  0.00     0.046 A 
ATOM     10  C   UNL A   1      34.470  22.843  24.985  1.00  0.00     0.060 A 
ATOM     11  C   UNL A   1      33.694  22.272  27.520  1.00  0.00     0.114 A 
ATOM     12  N   UNL A   1      34.784  21.649  27.035  1.00  0.00    -0.251 NA
BRANCH   8  13
ATOM     13  N   UNL A   1      32.933  24.717  24.885  1.00  0.00    -0.384 N 
ATOM     14  H   UNL A   1      31.959  24.841  24.815  1.00  0.00     0.160 HD
BRANCH  13  15
ATOM     15  C   UNL A   1      33.810  25.736  24.284  1.00  0.00     0.119 C 
BRANCH  15  16
ATOM     16  C   UNL A   1      33.434  27.225  24.616  1.00  0.00    -0.012 C 
ATOM     17  C   UNL A   1      31.971  27.497  24.161  1.00  0.00     0.009 C 
ATOM     18  C   UNL A   1      34.190  28.241  23.735  1.00  0.00     0.009 C 
ATOM     19  C   UNL A   1      32.033  27.791  22.673  1.00  0.00     0.001 C 
ATOM     20  C   UNL A   1      33.399  28.415  22.440  1.00  0.00     0.001 C 
BRANCH  16  21
ATOM     21  C   UNL A   1      33.459  27.567  26.146  1.00  0.00     0.012 C 
BRANCH  21  22
ATOM     22  C   UNL A   1      32.521  28.651  26.678  1.00  0.00    -0.017 C 
ATOM     23  C   UNL A   1      31.534  28.137  27.720  1.00  0.00     0.007 C 
ATOM     24  C   UNL A   1      33.284  29.876  27.192  1.00  0.00     0.007 C 
ENDBRANCH  21  22
ENDBRANCH  16  21
ENDBRANCH  15  16
ENDBRANCH  13  15
ENDBRANCH   8  13
ENDBRANCH   4   7
ENDBRANCH   2   3
ENDBRANCH   1   2
BRANCH   1  25
ATOM     25  C   UNL A   1      40.291  21.759  27.353  1.00  0.00     0.002 C 
BRANCH  25  26
ATOM     26  C   UNL A   1      41.662  21.127  27.078  1.00  0.00     0.002 C 
BRANCH  26  27
ATOM     27  C   UNL A   1      41.669  19.851  26.227  1.00  0.00     0.021 C 
BRANCH  27  28
ATOM     28  C   UNL A   1      42.878  18.934  26.417  1.00  0.00     0.116 C 
BRANCH  28  29
ATOM     29  N   UNL A   1      43.670  18.805  25.202  1.00  0.00    -0.352 N 
ATOM     30  C   UNL A   1      44.284  19.761  24.437  1.00  0.00     0.251 C 
ATOM     31  H   UNL A   1      43.782  17.881  24.878  1.00  0.00     0.163 HD
ATOM     32  O   UNL A   1      44.728  19.451  23.326  1.00  0.00    -0.269 OA
BRANCH  30  33
ATOM     33  C   UNL A   1      44.420  21.155  24.913  1.00  0.00     0.039 A 
ATOM     34  C   UNL A   1      45.143  21.403  26.084  1.00  0.00     0.014 A 
ATOM     35  C   UNL A   1      43.798  22.212  24.244  1.00  0.00     0.014 A 
ATOM     36  C   UNL A   1      45.288  22.713  26.552  1.00  0.00     0.010 A 
ATOM     37  C   UNL A   1      44.000  23.524  24.673  1.00  0.00     0.010 A 
ATOM     38  C   UNL A   1      44.741  23.789  25.834  1.00  0.00    -0.014 A 
BRANCH  38  39
ATOM     39  C   UNL A   1      44.940  25.195  26.281  1.00  0.00     0.031 A 
ATOM     40  C   UNL A   1      46.309  25.821  26.240  1.00  0.00     0.074 A 
ATOM     41  C   UNL A   1      43.900  25.885  26.792  1.00  0.00     0.049 A 
ATOM     42  N   UNL A   1      46.686  27.007  26.646  1.00  0.00    -0.248 NA
ATOM     43  C   UNL A   1      47.405  25.002  25.696  1.00  0.00     0.031 C 
ATOM     44  C   UNL A   1      42.537  25.369  26.947  1.00  0.00     0.029 A 
ATOM     45  N   UNL A   1      43.830  27.158  27.300  1.00  0.00    -0.354 N 
ATOM     46  C   UNL A   1      48.058  27.067  26.432  1.00  0.00     0.074 A 
ATOM     47  C   UNL A   1      48.457  25.784  25.895  1.00  0.00     0.031 C 
ATOM     48  C   UNL A   1      41.767  26.317  27.507  1.00  0.00     0.029 A 
ATOM     49  C   UNL A   1      42.585  27.494  27.782  1.00  0.00     0.049 A 
ATOM     50  H   UNL A   1      44.598  27.774  27.318  1.00  0.00     0.167 HD
ATOM     51  C   UNL A   1      48.907  28.103  26.633  1.00  0.00     0.034 A 
ATOM     52  C   UNL A   1      42.153  28.618  28.387  1.00  0.00     0.034 A 
ATOM     53  C   UNL A   1      48.503  29.391  27.132  1.00  0.00     0.049 A 
ATOM     54  C   UNL A   1      43.116  29.760  28.581  1.00  0.00     0.074 A 
ATOM     55  C   UNL A   1      49.277  30.526  27.310  1.00  0.00     0.029 A 
ATOM     56  N   UNL A   1      47.218  29.718  27.534  1.00  0.00    -0.354 N 
ATOM     57  N   UNL A   1      44.379  29.842  28.242  1.00  0.00    -0.248 NA
ATOM     58  C   UNL A   1      42.583  30.978  29.207  1.00  0.00     0.031 C 
ATOM     59  C   UNL A   1      48.463  31.531  27.842  1.00  0.00     0.029 A 
ATOM     60  C   UNL A   1      47.176  31.033  27.962  1.00  0.00     0.049 A 
ATOM     61  H   UNL A   1      46.448  29.105  27.517  1.00  0.00     0.167 HD
ATOM     62  C   UNL A   1      44.778  31.134  28.570  1.00  0.00     0.074 A 
ATOM     63  C   UNL A   1      43.616  31.804  29.117  1.00  0.00     0.031 C 
ATOM     64  C   UNL A   1      45.999  31.709  28.444  1.00  0.00     0.034 A 
BRANCH  51  65
ATOM     65  C   UNL A   1      50.354  27.914  26.256  1.00  0.00     0.023 A 
ATOM     66  C   UNL A   1      51.300  27.628  27.262  1.00  0.00     0.012 A 
ATOM     67  C   UNL A   1      50.765  27.938  24.909  1.00  0.00     0.148 A 
ATOM     68  C   UNL A   1      52.636  27.399  26.937  1.00  0.00     0.002 A 
ATOM     69  C   UNL A   1      52.090  27.663  24.589  1.00  0.00     0.091 A 
ATOM     70  F   UNL A   1      49.855  28.226  23.968  1.00  0.00    -0.205 F 
ATOM     71  C   UNL A   1      53.028  27.405  25.602  1.00  0.00     0.022 A 
BRANCH  69  72
ATOM     72  S   UNL A   1      52.683  27.567  22.895  1.00  0.00     0.127 S 
ATOM     73  O   UNL A   1      51.570  26.887  22.233  1.00  0.00    -0.237 OA
ATOM     74  O   UNL A   1      52.831  28.980  22.543  1.00  0.00    -0.237 OA
ATOM     75  O   UNL A   1      53.927  26.816  22.944  1.00  0.00    -0.744 OA
ENDBRANCH  69  72
ENDBRANCH  51  65
BRANCH  52  76
ATOM     76  C   UNL A   1      40.729  28.749  28.809  1.00  0.00     0.023 A 
ATOM     77  C   UNL A   1      39.731  28.941  27.832  1.00  0.00     0.012 A 
ATOM     78  C   UNL A   1      40.355  28.694  30.166  1.00  0.00     0.148 A 
ATOM     79  C   UNL A   1      38.398  29.124  28.200  1.00  0.00     0.002 A 
ATOM     80  C   UNL A   1      39.018  28.818  30.522  1.00  0.00     0.091 A 
ATOM     81  F   UNL A   1      41.318  28.523  31.083  1.00  0.00    -0.205 F 
ATOM     82  C   UNL A   1      38.040  29.054  29.544  1.00  0.00     0.022 A 
BRANCH  80  83
ATOM     83  S   UNL A   1      38.456  28.611  32.215  1.00  0.00     0.127 S 
ATOM     84  O   UNL A   1      39.425  29.419  32.953  1.00  0.00    -0.237 OA
ATOM     85  O   UNL A   1      37.104  29.171  32.157  1.00  0.00    -0.237 OA
ATOM     86  O   UNL A   1      38.499  27.179  32.470  1.00  0.00    -0.744 OA
ENDBRANCH  80  83
ENDBRANCH  52  76
BRANCH  64  87
ATOM     87  C   UNL A   1      46.138  33.153  28.850  1.00  0.00     0.023 A 
ATOM     88  C   UNL A   1      46.628  33.482  30.129  1.00  0.00     0.012 A 
ATOM     89  C   UNL A   1      45.846  34.183  27.934  1.00  0.00     0.148 A 
ATOM     90  C   UNL A   1      46.788  34.815  30.503  1.00  0.00     0.002 A 
ATOM     91  C   UNL A   1      46.057  35.507  28.296  1.00  0.00     0.091 A 
ATOM     92  F   UNL A   1      45.363  33.849  26.728  1.00  0.00    -0.205 F 
ATOM     93  C   UNL A   1      46.515  35.827  29.584  1.00  0.00     0.022 A 
BRANCH  91  94
ATOM     94  S   UNL A   1      45.830  36.868  27.146  1.00  0.00     0.127 S 
ATOM     95  O   UNL A   1      46.325  38.002  27.926  1.00  0.00    -0.237 OA
ATOM     96  O   UNL A   1      46.687  36.476  26.028  1.00  0.00    -0.237 OA
ATOM     97  O   UNL A   1      44.406  36.898  26.835  1.00  0.00    -0.744 OA
ENDBRANCH  91  94
ENDBRANCH  64  87
ENDBRANCH  38  39
ENDBRANCH  30  33
ENDBRANCH  28  29
ENDBRANCH  27  28
ENDBRANCH  26  27
ENDBRANCH  25  26
ENDBRANCH   1  25
TORSDOF 21
ENDMDL
