MODEL 1
REMARK VINA RESULT:     -12.4      0.000      0.000
REMARK SMILES O=C(NCCCCCCNC(=O)c1ccc(N2C(=O)/C(=C/C3=c4ccccc4=NC3)SC2=S)cc1O)c1ccc(-c2c3nc(c(-c4cccc(S(=O)(=O)[O-])c4F)c4ccc([nH]4)c(-c4cccc(S(=O)(=O)[O-])c4F)c4nc(c(-c5cccc(S(=O)(=O)[O-])c5F)c5ccc2[nH]5)C=C4)C=C3)cc1
REMARK SMILES IDX 6 1 5 2 4 3 3 4 1 5 2 6 37 8 38 9 99 10 39 11 98 12 40 13
REMARK SMILES IDX 41 14 42 15 92 16 43 17 97 18 91 19 93 20 44 21 96 22 90 23
REMARK SMILES IDX 89 24 45 26 77 27 57 28 76 29 58 30 61 31 75 32 94 33 59 34
REMARK SMILES IDX 60 35 74 37 95 38 62 39 46 40 47 41 55 42 48 43 50 44 56 45
REMARK SMILES IDX 49 46 51 47 52 48 53 49 54 50 78 51 79 52 87 53 80 54 82 55
REMARK SMILES IDX 88 56 81 57 83 58 84 59 85 60 86 61 63 62 64 63 72 64 65 65
REMARK SMILES IDX 67 66 73 67 66 68 68 69 69 70 70 71 71 72 7 73 8 74 9 75
REMARK SMILES IDX 10 76 11 77 12 79 13 80 14 81 35 82 15 83 34 84 16 85 36 86
REMARK SMILES IDX 17 88 18 89 32 90 19 91 20 92 31 93 33 94 21 95 22 96 23 97
REMARK SMILES IDX 30 98 24 99 28 100 29 101 25 102 27 103 26 104
REMARK H PARENT 3 7 93 25 61 36 10 78 36 87
REMARK Flexibility Score: inf
ROOT
ATOM      1  C   UNL A   1      37.028  21.020  24.828  1.00  0.00     0.002 C 
ENDROOT
BRANCH   1   2
ATOM      2  C   UNL A   1      38.093  19.951  25.082  1.00  0.00     0.021 C 
BRANCH   2   3
ATOM      3  C   UNL A   1      39.278  20.417  25.921  1.00  0.00     0.116 C 
BRANCH   3   4
ATOM      4  N   UNL A   1      40.302  19.393  26.021  1.00  0.00    -0.352 N 
ATOM      5  O   UNL A   1      42.382  18.545  25.952  1.00  0.00    -0.269 OA
ATOM      6  C   UNL A   1      41.664  19.531  26.098  1.00  0.00     0.251 C 
ATOM      7  H   UNL A   1      39.971  18.467  26.038  1.00  0.00     0.163 HD
BRANCH   6   8
ATOM      8  C   UNL A   1      42.270  20.855  26.363  1.00  0.00     0.039 A 
ATOM      9  C   UNL A   1      42.491  21.242  27.688  1.00  0.00     0.014 A 
ATOM     10  C   UNL A   1      42.545  21.742  25.318  1.00  0.00     0.014 A 
ATOM     11  C   UNL A   1      42.983  22.519  27.965  1.00  0.00     0.010 A 
ATOM     12  C   UNL A   1      43.106  22.985  25.591  1.00  0.00     0.010 A 
ATOM     13  C   UNL A   1      43.286  23.401  26.918  1.00  0.00    -0.014 A 
BRANCH  13  14
ATOM     14  C   UNL A   1      43.672  24.810  27.178  1.00  0.00     0.031 A 
ATOM     15  C   UNL A   1      45.098  25.233  26.945  1.00  0.00     0.074 A 
ATOM     16  C   UNL A   1      42.779  25.689  27.666  1.00  0.00     0.049 A 
ATOM     17  N   UNL A   1      45.681  26.367  27.230  1.00  0.00    -0.248 NA
ATOM     18  C   UNL A   1      45.992  24.237  26.330  1.00  0.00     0.031 C 
ATOM     19  C   UNL A   1      41.375  25.399  27.954  1.00  0.00     0.029 A 
ATOM     20  N   UNL A   1      42.933  27.005  28.024  1.00  0.00    -0.354 N 
ATOM     21  C   UNL A   1      47.013  26.205  26.872  1.00  0.00     0.074 A 
ATOM     22  C   UNL A   1      47.163  24.855  26.379  1.00  0.00     0.031 C 
ATOM     23  C   UNL A   1      40.792  26.508  28.440  1.00  0.00     0.029 A 
ATOM     24  C   UNL A   1      41.790  27.572  28.530  1.00  0.00     0.049 A 
ATOM     25  H   UNL A   1      43.781  27.494  27.927  1.00  0.00     0.167 HD
ATOM     26  C   UNL A   1      48.019  27.109  26.915  1.00  0.00     0.034 A 
ATOM     27  C   UNL A   1      41.572  28.806  29.024  1.00  0.00     0.034 A 
ATOM     28  C   UNL A   1      47.861  28.470  27.344  1.00  0.00     0.049 A 
ATOM     29  C   UNL A   1      42.699  29.799  29.060  1.00  0.00     0.074 A 
ATOM     30  C   UNL A   1      48.807  29.478  27.368  1.00  0.00     0.029 A 
ATOM     31  N   UNL A   1      46.678  29.016  27.816  1.00  0.00    -0.354 N 
ATOM     32  N   UNL A   1      43.937  29.652  28.655  1.00  0.00    -0.248 NA
ATOM     33  C   UNL A   1      42.398  31.130  29.607  1.00  0.00     0.031 C 
ATOM     34  C   UNL A   1      48.196  30.635  27.864  1.00  0.00     0.029 A 
ATOM     35  C   UNL A   1      46.868  30.348  28.139  1.00  0.00     0.049 A 
ATOM     36  H   UNL A   1      45.828  28.529  27.908  1.00  0.00     0.167 HD
ATOM     37  C   UNL A   1      44.563  30.871  28.888  1.00  0.00     0.074 A 
ATOM     38  C   UNL A   1      43.559  31.754  29.449  1.00  0.00     0.031 C 
ATOM     39  C   UNL A   1      45.855  31.221  28.673  1.00  0.00     0.034 A 
BRANCH  26  40
ATOM     40  C   UNL A   1      49.370  26.664  26.425  1.00  0.00     0.023 A 
ATOM     41  C   UNL A   1      50.136  25.787  27.218  1.00  0.00     0.012 A 
ATOM     42  C   UNL A   1      49.864  27.082  25.175  1.00  0.00     0.148 A 
ATOM     43  C   UNL A   1      51.387  25.350  26.787  1.00  0.00     0.002 A 
ATOM     44  C   UNL A   1      51.097  26.615  24.736  1.00  0.00     0.091 A 
ATOM     45  F   UNL A   1      49.126  27.933  24.448  1.00  0.00    -0.205 F 
ATOM     46  C   UNL A   1      51.863  25.756  25.542  1.00  0.00     0.022 A 
BRANCH  44  47
ATOM     47  S   UNL A   1      51.781  27.038  23.130  1.00  0.00     0.127 S 
ATOM     48  O   UNL A   1      52.090  28.457  23.306  1.00  0.00    -0.237 OA
ATOM     49  O   UNL A   1      52.951  26.164  23.056  1.00  0.00    -0.237 OA
ATOM     50  O   UNL A   1      50.739  26.747  22.156  1.00  0.00    -0.744 OA
ENDBRANCH  44  47
ENDBRANCH  26  40
BRANCH  27  51
ATOM     51  C   UNL A   1      40.199  29.170  29.465  1.00  0.00     0.023 A 
ATOM     52  C   UNL A   1      39.201  29.369  28.494  1.00  0.00     0.012 A 
ATOM     53  C   UNL A   1      39.857  29.210  30.831  1.00  0.00     0.148 A 
ATOM     54  C   UNL A   1      37.879  29.598  28.875  1.00  0.00     0.002 A 
ATOM     55  C   UNL A   1      38.532  29.401  31.202  1.00  0.00     0.091 A 
ATOM     56  F   UNL A   1      40.828  29.009  31.732  1.00  0.00    -0.205 F 
ATOM     57  C   UNL A   1      37.542  29.603  30.226  1.00  0.00     0.022 A 
BRANCH  55  58
ATOM     58  S   UNL A   1      37.980  29.323  32.910  1.00  0.00     0.127 S 
ATOM     59  O   UNL A   1      36.905  30.311  32.924  1.00  0.00    -0.237 OA
ATOM     60  O   UNL A   1      37.542  27.931  33.015  1.00  0.00    -0.237 OA
ATOM     61  O   UNL A   1      39.142  29.662  33.721  1.00  0.00    -0.744 OA
ENDBRANCH  55  58
ENDBRANCH  27  51
BRANCH  39  62
ATOM     62  C   UNL A   1      46.280  32.612  29.057  1.00  0.00     0.023 A 
ATOM     63  C   UNL A   1      46.777  32.843  30.354  1.00  0.00     0.012 A 
ATOM     64  C   UNL A   1      46.286  33.657  28.112  1.00  0.00     0.148 A 
ATOM     65  C   UNL A   1      47.264  34.101  30.710  1.00  0.00     0.002 A 
ATOM     66  C   UNL A   1      46.803  34.898  28.464  1.00  0.00     0.091 A 
ATOM     67  F   UNL A   1      45.800  33.412  26.887  1.00  0.00    -0.205 F 
ATOM     68  C   UNL A   1      47.287  35.123  29.764  1.00  0.00     0.022 A 
BRANCH  66  69
ATOM     69  S   UNL A   1      46.941  36.257  27.298  1.00  0.00     0.127 S 
ATOM     70  O   UNL A   1      47.069  37.405  28.196  1.00  0.00    -0.237 OA
ATOM     71  O   UNL A   1      48.162  35.916  26.567  1.00  0.00    -0.237 OA
ATOM     72  O   UNL A   1      45.725  36.228  26.498  1.00  0.00    -0.744 OA
ENDBRANCH  66  69
ENDBRANCH  39  62
ENDBRANCH  13  14
ENDBRANCH   6   8
ENDBRANCH   3   4
ENDBRANCH   2   3
ENDBRANCH   1   2
BRANCH   1  73
ATOM     73  C   UNL A   1      35.583  20.515  24.817  1.00  0.00     0.002 C 
BRANCH  73  74
ATOM     74  C   UNL A   1      34.616  21.282  25.724  1.00  0.00     0.021 C 
BRANCH  74  75
ATOM     75  C   UNL A   1      33.166  20.820  25.644  1.00  0.00     0.116 C 
BRANCH  75  76
ATOM     76  N   UNL A   1      32.760  20.546  24.277  1.00  0.00    -0.352 N 
ATOM     77  C   UNL A   1      32.333  21.438  23.328  1.00  0.00     0.255 C 
ATOM     78  H   UNL A   1      32.797  19.603  23.997  1.00  0.00     0.163 HD
ATOM     79  O   UNL A   1      31.927  21.050  22.235  1.00  0.00    -0.269 OA
BRANCH  77  80
ATOM     80  C   UNL A   1      32.292  22.876  23.651  1.00  0.00     0.081 A 
ATOM     81  C   UNL A   1      31.195  23.345  24.379  1.00  0.00     0.020 A 
ATOM     82  C   UNL A   1      33.301  23.761  23.262  1.00  0.00     0.130 A 
ATOM     83  C   UNL A   1      31.122  24.693  24.741  1.00  0.00     0.028 A 
ATOM     84  C   UNL A   1      33.222  25.107  23.616  1.00  0.00     0.073 A 
ATOM     85  C   UNL A   1      32.123  25.593  24.346  1.00  0.00     0.054 A 
BRANCH  82  86
ATOM     86  O   UNL A   1      34.378  23.314  22.549  1.00  0.00    -0.507 OA
ATOM     87  H   UNL A   1      34.249  22.892  21.722  1.00  0.00     0.293 HD
ENDBRANCH  82  86
BRANCH  85  88
ATOM     88  N   UNL A   1      32.040  26.975  24.694  1.00  0.00    -0.261 N 
ATOM     89  C   UNL A   1      32.632  27.432  25.873  1.00  0.00     0.270 C 
ATOM     90  C   UNL A   1      31.381  27.930  23.927  1.00  0.00     0.152 C 
ATOM     91  O   UNL A   1      33.223  26.777  26.716  1.00  0.00    -0.268 OA
ATOM     92  C   UNL A   1      32.472  28.910  25.982  1.00  0.00     0.081 C 
ATOM     93  S   UNL A   1      31.619  29.524  24.628  1.00  0.00    -0.054 SA
ATOM     94  S   UNL A   1      30.377  27.739  22.600  1.00  0.00    -0.051 S 
ATOM     95  C   UNL A   1      32.980  29.612  27.004  1.00  0.00     0.027 C 
BRANCH  95  96
ATOM     96  C   UNL A   1      32.859  31.037  27.191  1.00  0.00    -0.016 C 
ATOM     97  C   UNL A   1      33.795  31.865  27.646  1.00  0.00     0.005 A 
ATOM     98  C   UNL A   1      31.595  31.789  26.879  1.00  0.00     0.179 C 
ATOM     99  C   UNL A   1      35.145  31.733  28.093  1.00  0.00     0.011 A 
ATOM    100  C   UNL A   1      33.120  33.174  27.595  1.00  0.00     0.065 A 
ATOM    101  N   UNL A   1      31.887  33.211  27.190  1.00  0.00    -0.280 NA
ATOM    102  C   UNL A   1      35.811  32.838  28.466  1.00  0.00     0.001 A 
ATOM    103  C   UNL A   1      33.923  34.345  28.012  1.00  0.00     0.028 A 
ATOM    104  C   UNL A   1      35.190  34.152  28.416  1.00  0.00     0.002 A 
ENDBRANCH  95  96
ENDBRANCH  85  88
ENDBRANCH  77  80
ENDBRANCH  75  76
ENDBRANCH  74  75
ENDBRANCH  73  74
ENDBRANCH   1  73
TORSDOF 19
ENDMDL
MODEL 2
REMARK VINA RESULT:     -12.2      0.515      7.386
REMARK SMILES O=C(NCCCCCCNC(=O)c1ccc(N2C(=O)/C(=C/C3=c4ccccc4=NC3)SC2=S)cc1O)c1ccc(-c2c3nc(c(-c4cccc(S(=O)(=O)[O-])c4F)c4ccc([nH]4)c(-c4cccc(S(=O)(=O)[O-])c4F)c4nc(c(-c5cccc(S(=O)(=O)[O-])c5F)c5ccc2[nH]5)C=C4)C=C3)cc1
REMARK SMILES IDX 6 1 5 2 4 3 3 4 1 5 2 6 37 8 38 9 99 10 39 11 98 12 40 13
REMARK SMILES IDX 41 14 42 15 92 16 43 17 97 18 91 19 93 20 44 21 96 22 90 23
REMARK SMILES IDX 89 24 45 26 77 27 57 28 76 29 58 30 61 31 75 32 94 33 59 34
REMARK SMILES IDX 60 35 74 37 95 38 62 39 46 40 47 41 55 42 48 43 50 44 56 45
REMARK SMILES IDX 49 46 51 47 52 48 53 49 54 50 78 51 79 52 87 53 80 54 82 55
REMARK SMILES IDX 88 56 81 57 83 58 84 59 85 60 86 61 63 62 64 63 72 64 65 65
REMARK SMILES IDX 67 66 73 67 66 68 68 69 69 70 70 71 71 72 7 73 8 74 9 75
REMARK SMILES IDX 10 76 11 77 12 79 13 80 14 81 35 82 15 83 34 84 16 85 36 86
REMARK SMILES IDX 17 88 18 89 32 90 19 91 20 92 31 93 33 94 21 95 22 96 23 97
REMARK SMILES IDX 30 98 24 99 28 100 29 101 25 102 27 103 26 104
REMARK H PARENT 3 7 93 25 61 36 10 78 36 87
REMARK Flexibility Score: inf
ROOT
ATOM      1  C   UNL A   1      37.717  20.432  24.801  1.00  0.00     0.002 C 
ENDROOT
BRANCH   1   2
ATOM      2  C   UNL A   1      38.591  19.286  25.316  1.00  0.00     0.021 C 
BRANCH   2   3
ATOM      3  C   UNL A   1      39.719  19.713  26.249  1.00  0.00     0.116 C 
BRANCH   3   4
ATOM      4  N   UNL A   1      40.941  18.973  25.991  1.00  0.00    -0.352 N 
ATOM      5  O   UNL A   1      43.085  18.682  25.385  1.00  0.00    -0.269 OA
ATOM      6  C   UNL A   1      42.219  19.438  25.816  1.00  0.00     0.251 C 
ATOM      7  H   UNL A   1      40.837  17.996  25.934  1.00  0.00     0.163 HD
BRANCH   6   8
ATOM      8  C   UNL A   1      42.558  20.839  26.151  1.00  0.00     0.039 A 
ATOM      9  C   UNL A   1      42.742  21.755  25.110  1.00  0.00     0.014 A 
ATOM     10  C   UNL A   1      42.773  21.231  27.476  1.00  0.00     0.014 A 
ATOM     11  C   UNL A   1      43.145  23.061  25.397  1.00  0.00     0.010 A 
ATOM     12  C   UNL A   1      43.100  22.551  27.766  1.00  0.00     0.010 A 
ATOM     13  C   UNL A   1      43.334  23.464  26.728  1.00  0.00    -0.014 A 
BRANCH  13  14
ATOM     14  C   UNL A   1      43.898  24.795  27.061  1.00  0.00     0.031 A 
ATOM     15  C   UNL A   1      42.986  25.860  27.609  1.00  0.00     0.074 A 
ATOM     16  C   UNL A   1      45.194  25.070  26.831  1.00  0.00     0.049 A 
ATOM     17  N   UNL A   1      43.234  27.122  27.841  1.00  0.00    -0.248 NA
ATOM     18  C   UNL A   1      41.602  25.456  27.911  1.00  0.00     0.031 C 
ATOM     19  C   UNL A   1      46.176  24.133  26.285  1.00  0.00     0.029 A 
ATOM     20  N   UNL A   1      45.901  26.233  27.011  1.00  0.00    -0.354 N 
ATOM     21  C   UNL A   1      42.033  27.668  28.273  1.00  0.00     0.074 A 
ATOM     22  C   UNL A   1      41.047  26.612  28.241  1.00  0.00     0.031 C 
ATOM     23  C   UNL A   1      47.361  24.756  26.181  1.00  0.00     0.029 A 
ATOM     24  C   UNL A   1      47.213  26.143  26.617  1.00  0.00     0.049 A 
ATOM     25  H   UNL A   1      45.505  27.051  27.386  1.00  0.00     0.167 HD
ATOM     26  C   UNL A   1      41.776  28.928  28.694  1.00  0.00     0.034 A 
ATOM     27  C   UNL A   1      48.185  27.075  26.596  1.00  0.00     0.034 A 
ATOM     28  C   UNL A   1      42.767  29.963  28.787  1.00  0.00     0.049 A 
ATOM     29  C   UNL A   1      47.884  28.469  27.071  1.00  0.00     0.074 A 
ATOM     30  C   UNL A   1      42.617  31.255  29.258  1.00  0.00     0.029 A 
ATOM     31  N   UNL A   1      44.093  29.822  28.412  1.00  0.00    -0.354 N 
ATOM     32  N   UNL A   1      46.760  28.952  27.541  1.00  0.00    -0.248 NA
ATOM     33  C   UNL A   1      48.986  29.440  27.028  1.00  0.00     0.031 C 
ATOM     34  C   UNL A   1      43.855  31.899  29.158  1.00  0.00     0.029 A 
ATOM     35  C   UNL A   1      44.776  31.005  28.635  1.00  0.00     0.049 A 
ATOM     36  H   UNL A   1      44.491  29.002  28.041  1.00  0.00     0.167 HD
ATOM     37  C   UNL A   1      47.017  30.281  27.859  1.00  0.00     0.074 A 
ATOM     38  C   UNL A   1      48.414  30.519  27.549  1.00  0.00     0.031 C 
ATOM     39  C   UNL A   1      46.170  31.220  28.345  1.00  0.00     0.034 A 
BRANCH  26  40
ATOM     40  C   UNL A   1      40.374  29.235  29.145  1.00  0.00     0.023 A 
ATOM     41  C   UNL A   1      39.425  29.664  28.196  1.00  0.00     0.012 A 
ATOM     42  C   UNL A   1      39.990  29.068  30.488  1.00  0.00     0.148 A 
ATOM     43  C   UNL A   1      38.115  29.947  28.582  1.00  0.00     0.002 A 
ATOM     44  C   UNL A   1      38.674  29.318  30.859  1.00  0.00     0.091 A 
ATOM     45  F   UNL A   1      40.916  28.679  31.375  1.00  0.00    -0.205 F 
ATOM     46  C   UNL A   1      37.738  29.765  29.910  1.00  0.00     0.022 A 
BRANCH  44  47
ATOM     47  S   UNL A   1      38.071  29.071  32.533  1.00  0.00     0.127 S 
ATOM     48  O   UNL A   1      38.425  27.672  32.769  1.00  0.00    -0.237 OA
ATOM     49  O   UNL A   1      38.866  30.037  33.290  1.00  0.00    -0.237 OA
ATOM     50  O   UNL A   1      36.643  29.351  32.494  1.00  0.00    -0.744 OA
ENDBRANCH  44  47
ENDBRANCH  26  40
BRANCH  27  51
ATOM     51  C   UNL A   1      49.549  26.680  26.158  1.00  0.00     0.023 A 
ATOM     52  C   UNL A   1      50.282  25.773  26.944  1.00  0.00     0.012 A 
ATOM     53  C   UNL A   1      50.072  27.107  24.922  1.00  0.00     0.148 A 
ATOM     54  C   UNL A   1      51.516  25.292  26.506  1.00  0.00     0.002 A 
ATOM     55  C   UNL A   1      51.284  26.596  24.474  1.00  0.00     0.091 A 
ATOM     56  F   UNL A   1      49.348  27.966  24.192  1.00  0.00    -0.205 F 
ATOM     57  C   UNL A   1      52.011  25.694  25.268  1.00  0.00     0.022 A 
BRANCH  55  58
ATOM     58  S   UNL A   1      51.958  26.972  22.852  1.00  0.00     0.127 S 
ATOM     59  O   UNL A   1      53.060  26.019  22.756  1.00  0.00    -0.237 OA
ATOM     60  O   UNL A   1      50.816  26.684  21.984  1.00  0.00    -0.237 OA
ATOM     61  O   UNL A   1      52.354  28.373  22.898  1.00  0.00    -0.744 OA
ENDBRANCH  55  58
ENDBRANCH  27  51
BRANCH  39  62
ATOM     62  C   UNL A   1      46.710  32.608  28.563  1.00  0.00     0.023 A 
ATOM     63  C   UNL A   1      47.274  32.935  29.810  1.00  0.00     0.012 A 
ATOM     64  C   UNL A   1      46.753  33.545  27.512  1.00  0.00     0.148 A 
ATOM     65  C   UNL A   1      47.865  34.183  30.014  1.00  0.00     0.002 A 
ATOM     66  C   UNL A   1      47.372  34.773  27.711  1.00  0.00     0.091 A 
ATOM     67  F   UNL A   1      46.202  33.210  26.336  1.00  0.00    -0.205 F 
ATOM     68  C   UNL A   1      47.923  35.095  28.963  1.00  0.00     0.022 A 
BRANCH  66  69
ATOM     69  S   UNL A   1      47.561  35.988  26.402  1.00  0.00     0.127 S 
ATOM     70  O   UNL A   1      46.216  36.014  25.827  1.00  0.00    -0.237 OA
ATOM     71  O   UNL A   1      47.929  37.192  27.147  1.00  0.00    -0.237 OA
ATOM     72  O   UNL A   1      48.602  35.475  25.521  1.00  0.00    -0.744 OA
ENDBRANCH  66  69
ENDBRANCH  39  62
ENDBRANCH  13  14
ENDBRANCH   6   8
ENDBRANCH   3   4
ENDBRANCH   2   3
ENDBRANCH   1   2
BRANCH   1  73
ATOM     73  C   UNL A   1      36.221  20.121  24.702  1.00  0.00     0.002 C 
BRANCH  73  74
ATOM     74  C   UNL A   1      35.288  21.282  25.054  1.00  0.00     0.021 C 
BRANCH  74  75
ATOM     75  C   UNL A   1      33.828  20.889  25.250  1.00  0.00     0.116 C 
BRANCH  75  76
ATOM     76  N   UNL A   1      33.174  20.591  23.989  1.00  0.00    -0.352 N 
ATOM     77  C   UNL A   1      32.487  21.451  23.171  1.00  0.00     0.255 C 
ATOM     78  H   UNL A   1      33.231  19.657  23.683  1.00  0.00     0.163 HD
ATOM     79  O   UNL A   1      31.899  21.037  22.175  1.00  0.00    -0.269 OA
BRANCH  77  80
ATOM     80  C   UNL A   1      32.392  22.877  23.532  1.00  0.00     0.081 A 
ATOM     81  C   UNL A   1      31.403  23.248  24.446  1.00  0.00     0.020 A 
ATOM     82  C   UNL A   1      33.251  23.843  23.002  1.00  0.00     0.130 A 
ATOM     83  C   UNL A   1      31.290  24.582  24.848  1.00  0.00     0.028 A 
ATOM     84  C   UNL A   1      33.132  25.174  23.398  1.00  0.00     0.073 A 
ATOM     85  C   UNL A   1      32.139  25.563  24.314  1.00  0.00     0.054 A 
BRANCH  82  86
ATOM     86  O   UNL A   1      34.223  23.490  22.107  1.00  0.00    -0.507 OA
ATOM     87  H   UNL A   1      35.088  23.293  22.409  1.00  0.00     0.293 HD
ENDBRANCH  82  86
BRANCH  85  88
ATOM     88  N   UNL A   1      32.012  26.930  24.706  1.00  0.00    -0.261 N 
ATOM     89  C   UNL A   1      32.749  27.414  25.789  1.00  0.00     0.270 C 
ATOM     90  C   UNL A   1      31.172  27.842  24.077  1.00  0.00     0.152 C 
ATOM     91  O   UNL A   1      33.512  26.795  26.511  1.00  0.00    -0.268 OA
ATOM     92  C   UNL A   1      32.501  28.874  25.959  1.00  0.00     0.081 C 
ATOM     93  S   UNL A   1      31.402  29.440  24.772  1.00  0.00    -0.054 SA
ATOM     94  S   UNL A   1      29.986  27.594  22.920  1.00  0.00    -0.051 S 
ATOM     95  C   UNL A   1      33.112  29.598  26.907  1.00  0.00     0.027 C 
BRANCH  95  96
ATOM     96  C   UNL A   1      32.919  31.007  27.147  1.00  0.00    -0.016 C 
ATOM     97  C   UNL A   1      33.815  31.866  27.627  1.00  0.00     0.005 A 
ATOM     98  C   UNL A   1      31.616  31.704  26.868  1.00  0.00     0.179 C 
ATOM     99  C   UNL A   1      35.172  31.788  28.062  1.00  0.00     0.011 A 
ATOM    100  C   UNL A   1      33.073  33.139  27.628  1.00  0.00     0.065 A 
ATOM    101  N   UNL A   1      31.837  33.127  27.231  1.00  0.00    -0.280 NA
ATOM    102  C   UNL A   1      35.783  32.911  28.473  1.00  0.00     0.001 A 
ATOM    103  C   UNL A   1      33.816  34.334  28.084  1.00  0.00     0.028 A 
ATOM    104  C   UNL A   1      35.094  34.193  28.474  1.00  0.00     0.002 A 
ENDBRANCH  95  96
ENDBRANCH  85  88
ENDBRANCH  77  80
ENDBRANCH  75  76
ENDBRANCH  74  75
ENDBRANCH  73  74
ENDBRANCH   1  73
TORSDOF 19
ENDMDL
MODEL 3
REMARK VINA RESULT:     -11.5      2.036      2.832
REMARK SMILES O=C(NCCCCCCNC(=O)c1ccc(N2C(=O)/C(=C/C3=c4ccccc4=NC3)SC2=S)cc1O)c1ccc(-c2c3nc(c(-c4cccc(S(=O)(=O)[O-])c4F)c4ccc([nH]4)c(-c4cccc(S(=O)(=O)[O-])c4F)c4nc(c(-c5cccc(S(=O)(=O)[O-])c5F)c5ccc2[nH]5)C=C4)C=C3)cc1
REMARK SMILES IDX 6 1 5 2 4 3 3 4 1 5 2 6 37 8 38 9 99 10 39 11 98 12 40 13
REMARK SMILES IDX 41 14 42 15 92 16 43 17 97 18 91 19 93 20 44 21 96 22 90 23
REMARK SMILES IDX 89 24 45 26 77 27 57 28 76 29 58 30 61 31 75 32 94 33 59 34
REMARK SMILES IDX 60 35 74 37 95 38 62 39 46 40 47 41 55 42 48 43 50 44 56 45
REMARK SMILES IDX 49 46 51 47 52 48 53 49 54 50 78 51 79 52 87 53 80 54 82 55
REMARK SMILES IDX 88 56 81 57 83 58 84 59 85 60 86 61 63 62 64 63 72 64 65 65
REMARK SMILES IDX 67 66 73 67 66 68 68 69 69 70 70 71 71 72 7 73 8 74 9 75
REMARK SMILES IDX 10 76 11 77 12 79 13 80 14 81 35 82 15 83 34 84 16 85 36 86
REMARK SMILES IDX 17 88 18 89 32 90 19 91 20 92 31 93 33 94 21 95 22 96 23 97
REMARK SMILES IDX 30 98 24 99 28 100 29 101 25 102 27 103 26 104
REMARK H PARENT 3 7 93 25 61 36 10 78 36 87
REMARK Flexibility Score: inf
ROOT
ATOM      1  C   UNL A   1      35.070  23.006  24.910  1.00  0.00     0.002 C 
ENDROOT
BRANCH   1   2
ATOM      2  C   UNL A   1      35.814  23.296  26.216  1.00  0.00     0.021 C 
BRANCH   2   3
ATOM      3  C   UNL A   1      37.270  23.712  26.043  1.00  0.00     0.116 C 
BRANCH   3   4
ATOM      4  N   UNL A   1      38.182  22.636  26.388  1.00  0.00    -0.352 N 
ATOM      5  O   UNL A   1      40.171  21.669  26.788  1.00  0.00    -0.269 OA
ATOM      6  C   UNL A   1      39.503  22.699  26.750  1.00  0.00     0.251 C 
ATOM      7  H   UNL A   1      37.797  21.731  26.359  1.00  0.00     0.163 HD
BRANCH   6   8
ATOM      8  C   UNL A   1      40.123  23.996  27.102  1.00  0.00     0.039 A 
ATOM      9  C   UNL A   1      39.961  25.078  26.231  1.00  0.00     0.014 A 
ATOM     10  C   UNL A   1      40.924  24.126  28.241  1.00  0.00     0.014 A 
ATOM     11  C   UNL A   1      40.606  26.287  26.499  1.00  0.00     0.010 A 
ATOM     12  C   UNL A   1      41.504  25.353  28.546  1.00  0.00     0.010 A 
ATOM     13  C   UNL A   1      41.388  26.429  27.655  1.00  0.00    -0.014 A 
BRANCH  13  14
ATOM     14  C   UNL A   1      42.201  27.646  27.897  1.00  0.00     0.031 A 
ATOM     15  C   UNL A   1      43.641  27.664  27.459  1.00  0.00     0.074 A 
ATOM     16  C   UNL A   1      41.680  28.703  28.545  1.00  0.00     0.049 A 
ATOM     17  N   UNL A   1      44.564  28.561  27.687  1.00  0.00    -0.248 NA
ATOM     18  C   UNL A   1      44.112  26.504  26.682  1.00  0.00     0.031 C 
ATOM     19  C   UNL A   1      40.306  28.802  29.038  1.00  0.00     0.029 A 
ATOM     20  N   UNL A   1      42.259  29.890  28.918  1.00  0.00    -0.354 N 
ATOM     21  C   UNL A   1      45.727  28.056  27.122  1.00  0.00     0.074 A 
ATOM     22  C   UNL A   1      45.406  26.760  26.569  1.00  0.00     0.031 C 
ATOM     23  C   UNL A   1      40.146  29.990  29.643  1.00  0.00     0.029 A 
ATOM     24  C   UNL A   1      41.413  30.718  29.612  1.00  0.00     0.049 A 
ATOM     25  H   UNL A   1      43.191  30.124  28.706  1.00  0.00     0.167 HD
ATOM     26  C   UNL A   1      46.949  28.631  27.038  1.00  0.00     0.034 A 
ATOM     27  C   UNL A   1      41.635  31.923  30.173  1.00  0.00     0.034 A 
ATOM     28  C   UNL A   1      47.256  29.945  27.530  1.00  0.00     0.049 A 
ATOM     29  C   UNL A   1      42.996  32.549  30.067  1.00  0.00     0.074 A 
ATOM     30  C   UNL A   1      48.448  30.638  27.439  1.00  0.00     0.029 A 
ATOM     31  N   UNL A   1      46.361  30.766  28.197  1.00  0.00    -0.354 N 
ATOM     32  N   UNL A   1      44.069  32.088  29.470  1.00  0.00    -0.248 NA
ATOM     33  C   UNL A   1      43.175  33.866  30.696  1.00  0.00     0.031 C 
ATOM     34  C   UNL A   1      48.277  31.880  28.061  1.00  0.00     0.029 A 
ATOM     35  C   UNL A   1      46.974  31.961  28.529  1.00  0.00     0.049 A 
ATOM     36  H   UNL A   1      45.427  30.535  28.404  1.00  0.00     0.167 HD
ATOM     37  C   UNL A   1      45.049  33.059  29.642  1.00  0.00     0.074 A 
ATOM     38  C   UNL A   1      44.435  34.145  30.380  1.00  0.00     0.031 C 
ATOM     39  C   UNL A   1      46.344  33.043  29.241  1.00  0.00     0.034 A 
BRANCH  26  40
ATOM     40  C   UNL A   1      48.029  27.860  26.330  1.00  0.00     0.023 A 
ATOM     41  C   UNL A   1      48.205  28.036  24.943  1.00  0.00     0.012 A 
ATOM     42  C   UNL A   1      48.886  26.995  27.036  1.00  0.00     0.148 A 
ATOM     43  C   UNL A   1      49.204  27.343  24.261  1.00  0.00     0.002 A 
ATOM     44  C   UNL A   1      49.902  26.333  26.356  1.00  0.00     0.091 A 
ATOM     45  F   UNL A   1      48.685  26.828  28.351  1.00  0.00    -0.205 F 
ATOM     46  C   UNL A   1      50.057  26.500  24.969  1.00  0.00     0.022 A 
BRANCH  44  47
ATOM     47  S   UNL A   1      51.085  25.261  27.178  1.00  0.00     0.127 S 
ATOM     48  O   UNL A   1      51.834  24.724  26.043  1.00  0.00    -0.237 OA
ATOM     49  O   UNL A   1      51.830  26.208  28.007  1.00  0.00    -0.237 OA
ATOM     50  O   UNL A   1      50.299  24.286  27.920  1.00  0.00    -0.744 OA
ENDBRANCH  44  47
ENDBRANCH  26  40
BRANCH  27  51
ATOM     51  C   UNL A   1      40.504  32.626  30.834  1.00  0.00     0.023 A 
ATOM     52  C   UNL A   1      39.799  33.608  30.114  1.00  0.00     0.012 A 
ATOM     53  C   UNL A   1      40.059  32.252  32.116  1.00  0.00     0.148 A 
ATOM     54  C   UNL A   1      38.663  34.205  30.659  1.00  0.00     0.002 A 
ATOM     55  C   UNL A   1      38.905  32.824  32.638  1.00  0.00     0.091 A 
ATOM     56  F   UNL A   1      40.747  31.309  32.774  1.00  0.00    -0.205 F 
ATOM     57  C   UNL A   1      38.210  33.807  31.915  1.00  0.00     0.022 A 
BRANCH  55  58
ATOM     58  S   UNL A   1      38.184  32.306  34.200  1.00  0.00     0.127 S 
ATOM     59  O   UNL A   1      37.963  30.880  33.970  1.00  0.00    -0.237 OA
ATOM     60  O   UNL A   1      39.259  32.620  35.140  1.00  0.00    -0.237 OA
ATOM     61  O   UNL A   1      36.974  33.101  34.365  1.00  0.00    -0.744 OA
ENDBRANCH  55  58
ENDBRANCH  27  51
BRANCH  39  62
ATOM     62  C   UNL A   1      47.206  34.223  29.599  1.00  0.00     0.023 A 
ATOM     63  C   UNL A   1      47.950  34.191  30.794  1.00  0.00     0.012 A 
ATOM     64  C   UNL A   1      47.358  35.307  28.713  1.00  0.00     0.148 A 
ATOM     65  C   UNL A   1      48.827  35.229  31.108  1.00  0.00     0.002 A 
ATOM     66  C   UNL A   1      48.258  36.321  29.017  1.00  0.00     0.091 A 
ATOM     67  F   UNL A   1      46.632  35.317  27.586  1.00  0.00    -0.205 F 
ATOM     68  C   UNL A   1      48.989  36.286  30.216  1.00  0.00     0.022 A 
BRANCH  66  69
ATOM     69  S   UNL A   1      48.590  37.690  27.902  1.00  0.00     0.127 S 
ATOM     70  O   UNL A   1      48.704  37.004  26.616  1.00  0.00    -0.237 OA
ATOM     71  O   UNL A   1      47.387  38.510  28.051  1.00  0.00    -0.237 OA
ATOM     72  O   UNL A   1      49.815  38.315  28.382  1.00  0.00    -0.744 OA
ENDBRANCH  66  69
ENDBRANCH  39  62
ENDBRANCH  13  14
ENDBRANCH   6   8
ENDBRANCH   3   4
ENDBRANCH   2   3
ENDBRANCH   1   2
BRANCH   1  73
ATOM     73  C   UNL A   1      35.202  21.574  24.385  1.00  0.00     0.002 C 
BRANCH  73  74
ATOM     74  C   UNL A   1      34.419  20.517  25.168  1.00  0.00     0.021 C 
BRANCH  74  75
ATOM     75  C   UNL A   1      32.904  20.615  25.029  1.00  0.00     0.116 C 
BRANCH  75  76
ATOM     76  N   UNL A   1      32.476  20.460  23.650  1.00  0.00    -0.352 N 
ATOM     77  C   UNL A   1      32.043  21.432  22.786  1.00  0.00     0.255 C 
ATOM     78  H   UNL A   1      32.500  19.544  23.292  1.00  0.00     0.163 HD
ATOM     79  O   UNL A   1      31.619  21.140  21.671  1.00  0.00    -0.269 OA
BRANCH  77  80
ATOM     80  C   UNL A   1      32.020  22.838  23.229  1.00  0.00     0.081 A 
ATOM     81  C   UNL A   1      31.308  23.138  24.394  1.00  0.00     0.020 A 
ATOM     82  C   UNL A   1      32.681  23.854  22.535  1.00  0.00     0.130 A 
ATOM     83  C   UNL A   1      31.281  24.449  24.877  1.00  0.00     0.028 A 
ATOM     84  C   UNL A   1      32.646  25.163  23.013  1.00  0.00     0.073 A 
ATOM     85  C   UNL A   1      31.931  25.479  24.181  1.00  0.00     0.054 A 
BRANCH  82  86
ATOM     86  O   UNL A   1      33.381  23.572  21.394  1.00  0.00    -0.507 OA
ATOM     87  H   UNL A   1      32.927  23.468  20.581  1.00  0.00     0.293 HD
ENDBRANCH  82  86
BRANCH  85  88
ATOM     88  N   UNL A   1      31.885  26.824  24.660  1.00  0.00    -0.261 N 
ATOM     89  C   UNL A   1      32.804  27.252  25.620  1.00  0.00     0.270 C 
ATOM     90  C   UNL A   1      30.956  27.767  24.236  1.00  0.00     0.152 C 
ATOM     91  O   UNL A   1      33.678  26.596  26.165  1.00  0.00    -0.268 OA
ATOM     92  C   UNL A   1      32.603  28.701  25.906  1.00  0.00     0.081 C 
ATOM     93  S   UNL A   1      31.317  29.327  24.962  1.00  0.00    -0.054 SA
ATOM     94  S   UNL A   1      29.584  27.579  23.293  1.00  0.00    -0.051 S 
ATOM     95  C   UNL A   1      33.376  29.375  26.768  1.00  0.00     0.027 C 
BRANCH  95  96
ATOM     96  C   UNL A   1      33.240  30.769  27.111  1.00  0.00    -0.016 C 
ATOM     97  C   UNL A   1      34.161  31.547  27.673  1.00  0.00     0.005 A 
ATOM     98  C   UNL A   1      31.975  31.543  26.862  1.00  0.00     0.179 C 
ATOM     99  C   UNL A   1      35.504  31.375  28.126  1.00  0.00     0.011 A 
ATOM    100  C   UNL A   1      33.476  32.850  27.755  1.00  0.00     0.065 A 
ATOM    101  N   UNL A   1      32.250  32.923  27.335  1.00  0.00    -0.280 NA
ATOM    102  C   UNL A   1      36.153  32.436  28.633  1.00  0.00     0.001 A 
ATOM    103  C   UNL A   1      34.261  33.971  28.315  1.00  0.00     0.028 A 
ATOM    104  C   UNL A   1      35.522  33.744  28.718  1.00  0.00     0.002 A 
ENDBRANCH  95  96
ENDBRANCH  85  88
ENDBRANCH  77  80
ENDBRANCH  75  76
ENDBRANCH  74  75
ENDBRANCH  73  74
ENDBRANCH   1  73
TORSDOF 19
ENDMDL
