MODEL 1
REMARK VINA RESULT:     -12.4      0.000      0.000
REMARK SMILES C[C@H](C(=O)NCCCCCCNC(=O)c1ccc(-c2c3nc(c(-c4cccc(S(=O)(=O)[O-])c4F)c4ccc([nH]4)c(-c4cccc(S(=O)(=O)[O-])c4F)c4nc(c(-c5cccc(S(=O)(=O)[O-])c5F)c5ccc2[nH]5)C=C4)C=C3)cc1)c1ccc2c(c1)[nH]c1ccc(Cl)cc12
REMARK SMILES IDX 9 1 8 2 7 3 6 4 5 5 3 6 4 7 2 9 1 10 78 11 79 12 83 13 80 14
REMARK SMILES IDX 82 15 81 16 84 17 91 18 85 19 90 21 86 22 88 23 87 24 89 25
REMARK SMILES IDX 10 26 11 27 12 28 13 29 14 31 15 32 16 33 77 34 17 35 76 36
REMARK SMILES IDX 18 37 19 38 20 39 70 40 21 41 75 42 69 43 71 44 22 45 74 46
REMARK SMILES IDX 68 47 67 48 23 50 55 51 35 52 54 53 36 54 39 55 53 56 72 57
REMARK SMILES IDX 37 58 38 59 52 61 73 62 40 63 24 64 25 65 33 66 26 67 28 68
REMARK SMILES IDX 34 69 27 70 29 71 30 72 31 73 32 74 56 75 57 76 65 77 58 78
REMARK SMILES IDX 60 79 66 80 59 81 61 82 62 83 63 84 64 85 41 86 42 87 50 88
REMARK SMILES IDX 43 89 45 90 51 91 44 92 46 93 47 94 48 95 49 96
REMARK H PARENT 5 8 84 20 12 30 71 49 39 60
REMARK Flexibility Score: inf
ROOT
ATOM      1  C   UNL A   1      35.360  22.825  23.880  1.00  0.00     0.002 C 
ENDROOT
BRANCH   1   2
ATOM      2  C   UNL A   1      35.721  24.161  24.536  1.00  0.00     0.002 C 
BRANCH   2   3
ATOM      3  C   UNL A   1      34.704  24.780  25.501  1.00  0.00     0.021 C 
BRANCH   3   4
ATOM      4  C   UNL A   1      34.179  26.176  25.178  1.00  0.00     0.116 C 
BRANCH   4   5
ATOM      5  N   UNL A   1      33.542  26.294  23.883  1.00  0.00    -0.356 N 
ATOM      6  C   UNL A   1      32.238  26.136  23.533  1.00  0.00     0.227 C 
ATOM      7  O   UNL A   1      31.919  26.643  22.446  1.00  0.00    -0.274 OA
ATOM      8  H   UNL A   1      34.148  26.523  23.142  1.00  0.00     0.163 HD
BRANCH   6   9
ATOM      9  C   UNL A   1      31.213  25.254  24.265  1.00  0.00     0.105 C 
ATOM     10  C   UNL A   1      29.847  25.632  23.660  1.00  0.00     0.023 C 
BRANCH   9  11
ATOM     11  C   UNL A   1      31.448  23.749  24.391  1.00  0.00    -0.034 A 
ATOM     12  C   UNL A   1      31.592  23.143  25.650  1.00  0.00     0.005 A 
ATOM     13  C   UNL A   1      31.476  22.923  23.252  1.00  0.00     0.031 A 
ATOM     14  C   UNL A   1      31.925  21.779  25.782  1.00  0.00     0.011 A 
ATOM     15  C   UNL A   1      31.790  21.568  23.398  1.00  0.00     0.047 A 
ATOM     16  C   UNL A   1      32.062  20.980  24.628  1.00  0.00     0.007 A 
ATOM     17  N   UNL A   1      31.911  20.593  22.441  1.00  0.00    -0.355 N 
ATOM     18  C   UNL A   1      32.471  19.629  24.366  1.00  0.00     0.009 A 
ATOM     19  C   UNL A   1      32.390  19.429  22.987  1.00  0.00     0.047 A 
ATOM     20  H   UNL A   1      31.684  20.712  21.491  1.00  0.00     0.167 HD
ATOM     21  C   UNL A   1      32.940  18.565  25.167  1.00  0.00     0.031 A 
ATOM     22  C   UNL A   1      32.760  18.236  22.356  1.00  0.00     0.028 A 
ATOM     23  C   UNL A   1      33.329  17.371  24.547  1.00  0.00     0.041 A 
ATOM     24  C   UNL A   1      33.245  17.208  23.166  1.00  0.00     0.022 A 
ATOM     25  Cl  UNL A   1      33.940  16.076  25.504  1.00  0.00    -0.084 Cl
ENDBRANCH   9  11
ENDBRANCH   6   9
ENDBRANCH   4   5
ENDBRANCH   3   4
ENDBRANCH   2   3
ENDBRANCH   1   2
BRANCH   1  26
ATOM     26  C   UNL A   1      35.776  21.554  24.617  1.00  0.00     0.021 C 
BRANCH  26  27
ATOM     27  C   UNL A   1      36.852  21.712  25.685  1.00  0.00     0.116 C 
BRANCH  27  28
ATOM     28  N   UNL A   1      37.826  20.633  25.695  1.00  0.00    -0.352 N 
ATOM     29  C   UNL A   1      39.158  20.677  26.046  1.00  0.00     0.251 C 
ATOM     30  H   UNL A   1      37.490  19.753  25.412  1.00  0.00     0.163 HD
ATOM     31  O   UNL A   1      39.864  19.687  25.912  1.00  0.00    -0.269 OA
BRANCH  29  32
ATOM     32  C   UNL A   1      39.737  21.941  26.557  1.00  0.00     0.039 A 
ATOM     33  C   UNL A   1      40.703  21.885  27.567  1.00  0.00     0.014 A 
ATOM     34  C   UNL A   1      39.346  23.172  26.025  1.00  0.00     0.014 A 
ATOM     35  C   UNL A   1      41.330  23.060  27.995  1.00  0.00     0.010 A 
ATOM     36  C   UNL A   1      40.020  24.329  26.401  1.00  0.00     0.010 A 
ATOM     37  C   UNL A   1      41.015  24.287  27.392  1.00  0.00    -0.014 A 
BRANCH  37  38
ATOM     38  C   UNL A   1      41.692  25.553  27.773  1.00  0.00     0.031 A 
ATOM     39  C   UNL A   1      40.917  26.617  28.501  1.00  0.00     0.074 A 
ATOM     40  C   UNL A   1      42.946  25.804  27.348  1.00  0.00     0.049 A 
ATOM     41  N   UNL A   1      41.253  27.851  28.768  1.00  0.00    -0.248 NA
ATOM     42  C   UNL A   1      39.565  26.251  28.956  1.00  0.00     0.031 C 
ATOM     43  C   UNL A   1      43.777  24.881  26.577  1.00  0.00     0.029 A 
ATOM     44  N   UNL A   1      43.719  26.934  27.461  1.00  0.00    -0.354 N 
ATOM     45  C   UNL A   1      40.137  28.426  29.364  1.00  0.00     0.074 A 
ATOM     46  C   UNL A   1      39.108  27.411  29.401  1.00  0.00     0.031 C 
ATOM     47  C   UNL A   1      44.934  25.487  26.266  1.00  0.00     0.029 A 
ATOM     48  C   UNL A   1      44.913  26.853  26.783  1.00  0.00     0.049 A 
ATOM     49  H   UNL A   1      43.444  27.726  27.977  1.00  0.00     0.167 HD
ATOM     50  C   UNL A   1      39.989  29.679  29.856  1.00  0.00     0.034 A 
ATOM     51  C   UNL A   1      45.872  27.779  26.579  1.00  0.00     0.034 A 
ATOM     52  C   UNL A   1      41.035  30.665  29.865  1.00  0.00     0.049 A 
ATOM     53  C   UNL A   1      45.712  29.147  27.183  1.00  0.00     0.074 A 
ATOM     54  C   UNL A   1      41.021  31.928  30.431  1.00  0.00     0.029 A 
ATOM     55  N   UNL A   1      42.280  30.501  29.277  1.00  0.00    -0.354 N 
ATOM     56  N   UNL A   1      44.708  29.628  27.877  1.00  0.00    -0.248 NA
ATOM     57  C   UNL A   1      46.827  30.090  27.013  1.00  0.00     0.031 C 
ATOM     58  C   UNL A   1      42.253  32.536  30.166  1.00  0.00     0.029 A 
ATOM     59  C   UNL A   1      43.043  31.640  29.461  1.00  0.00     0.049 A 
ATOM     60  H   UNL A   1      42.577  29.694  28.800  1.00  0.00     0.167 HD
ATOM     61  C   UNL A   1      45.086  30.909  28.260  1.00  0.00     0.074 A 
ATOM     62  C   UNL A   1      46.415  31.130  27.726  1.00  0.00     0.031 C 
ATOM     63  C   UNL A   1      44.391  31.822  28.983  1.00  0.00     0.034 A 
BRANCH  50  64
ATOM     64  C   UNL A   1      38.657  30.034  30.464  1.00  0.00     0.023 A 
ATOM     65  C   UNL A   1      38.359  29.624  31.780  1.00  0.00     0.012 A 
ATOM     66  C   UNL A   1      37.711  30.791  29.747  1.00  0.00     0.148 A 
ATOM     67  C   UNL A   1      37.122  29.917  32.354  1.00  0.00     0.002 A 
ATOM     68  C   UNL A   1      36.499  31.122  30.344  1.00  0.00     0.091 A 
ATOM     69  F   UNL A   1      37.998  31.154  28.489  1.00  0.00    -0.205 F 
ATOM     70  C   UNL A   1      36.197  30.673  31.639  1.00  0.00     0.022 A 
BRANCH  68  71
ATOM     71  S   UNL A   1      35.281  32.161  29.530  1.00  0.00     0.127 S 
ATOM     72  O   UNL A   1      34.351  32.439  30.623  1.00  0.00    -0.237 OA
ATOM     73  O   UNL A   1      36.084  33.310  29.107  1.00  0.00    -0.237 OA
ATOM     74  O   UNL A   1      34.749  31.364  28.434  1.00  0.00    -0.744 OA
ENDBRANCH  68  71
ENDBRANCH  50  64
BRANCH  51  75
ATOM     75  C   UNL A   1      47.094  27.408  25.812  1.00  0.00     0.023 A 
ATOM     76  C   UNL A   1      48.098  26.646  26.441  1.00  0.00     0.012 A 
ATOM     77  C   UNL A   1      47.236  27.741  24.451  1.00  0.00     0.148 A 
ATOM     78  C   UNL A   1      49.230  26.238  25.735  1.00  0.00     0.002 A 
ATOM     79  C   UNL A   1      48.340  27.287  23.739  1.00  0.00     0.091 A 
ATOM     80  F   UNL A   1      46.272  28.471  23.873  1.00  0.00    -0.205 F 
ATOM     81  C   UNL A   1      49.345  26.548  24.382  1.00  0.00     0.022 A 
BRANCH  79  82
ATOM     82  S   UNL A   1      48.511  27.517  21.965  1.00  0.00     0.127 S 
ATOM     83  O   UNL A   1      49.670  28.401  21.888  1.00  0.00    -0.237 OA
ATOM     84  O   UNL A   1      48.749  26.148  21.507  1.00  0.00    -0.237 OA
ATOM     85  O   UNL A   1      47.250  28.090  21.516  1.00  0.00    -0.744 OA
ENDBRANCH  79  82
ENDBRANCH  51  75
BRANCH  63  86
ATOM     86  C   UNL A   1      45.058  33.133  29.304  1.00  0.00     0.023 A 
ATOM     87  C   UNL A   1      45.855  33.253  30.458  1.00  0.00     0.012 A 
ATOM     88  C   UNL A   1      44.995  34.203  28.390  1.00  0.00     0.148 A 
ATOM     89  C   UNL A   1      46.568  34.427  30.705  1.00  0.00     0.002 A 
ATOM     90  C   UNL A   1      45.744  35.351  28.618  1.00  0.00     0.091 A 
ATOM     91  F   UNL A   1      44.215  34.072  27.306  1.00  0.00    -0.205 F 
ATOM     92  C   UNL A   1      46.524  35.467  29.779  1.00  0.00     0.022 A 
BRANCH  90  93
ATOM     93  S   UNL A   1      45.830  36.698  27.433  1.00  0.00     0.127 S 
ATOM     94  O   UNL A   1      44.446  37.167  27.412  1.00  0.00    -0.237 OA
ATOM     95  O   UNL A   1      46.775  37.613  28.074  1.00  0.00    -0.237 OA
ATOM     96  O   UNL A   1      46.307  36.111  26.188  1.00  0.00    -0.744 OA
ENDBRANCH  90  93
ENDBRANCH  63  86
ENDBRANCH  37  38
ENDBRANCH  29  32
ENDBRANCH  27  28
ENDBRANCH  26  27
ENDBRANCH   1  26
TORSDOF 17
ENDMDL
MODEL 2
REMARK VINA RESULT:     -12.2      2.459      7.868
REMARK SMILES C[C@H](C(=O)NCCCCCCNC(=O)c1ccc(-c2c3nc(c(-c4cccc(S(=O)(=O)[O-])c4F)c4ccc([nH]4)c(-c4cccc(S(=O)(=O)[O-])c4F)c4nc(c(-c5cccc(S(=O)(=O)[O-])c5F)c5ccc2[nH]5)C=C4)C=C3)cc1)c1ccc2c(c1)[nH]c1ccc(Cl)cc12
REMARK SMILES IDX 9 1 8 2 7 3 6 4 5 5 3 6 4 7 2 9 1 10 78 11 79 12 83 13 80 14
REMARK SMILES IDX 82 15 81 16 84 17 91 18 85 19 90 21 86 22 88 23 87 24 89 25
REMARK SMILES IDX 10 26 11 27 12 28 13 29 14 31 15 32 16 33 77 34 17 35 76 36
REMARK SMILES IDX 18 37 19 38 20 39 70 40 21 41 75 42 69 43 71 44 22 45 74 46
REMARK SMILES IDX 68 47 67 48 23 50 55 51 35 52 54 53 36 54 39 55 53 56 72 57
REMARK SMILES IDX 37 58 38 59 52 61 73 62 40 63 24 64 25 65 33 66 26 67 28 68
REMARK SMILES IDX 34 69 27 70 29 71 30 72 31 73 32 74 56 75 57 76 65 77 58 78
REMARK SMILES IDX 60 79 66 80 59 81 61 82 62 83 63 84 64 85 41 86 42 87 50 88
REMARK SMILES IDX 43 89 45 90 51 91 44 92 46 93 47 94 48 95 49 96
REMARK H PARENT 5 8 84 20 12 30 71 49 39 60
REMARK Flexibility Score: inf
ROOT
ATOM      1  C   UNL A   1      34.561  24.892  24.556  1.00  0.00     0.002 C 
ENDROOT
BRANCH   1   2
ATOM      2  C   UNL A   1      34.207  25.637  25.846  1.00  0.00     0.002 C 
BRANCH   2   3
ATOM      3  C   UNL A   1      34.056  27.161  25.772  1.00  0.00     0.021 C 
BRANCH   3   4
ATOM      4  C   UNL A   1      33.583  27.763  24.451  1.00  0.00     0.116 C 
BRANCH   4   5
ATOM      5  N   UNL A   1      32.813  28.981  24.587  1.00  0.00    -0.356 N 
ATOM      6  C   UNL A   1      31.476  29.156  24.760  1.00  0.00     0.227 C 
ATOM      7  O   UNL A   1      31.142  30.265  25.203  1.00  0.00    -0.274 OA
ATOM      8  H   UNL A   1      33.340  29.811  24.549  1.00  0.00     0.163 HD
BRANCH   6   9
ATOM      9  C   UNL A   1      30.377  28.187  24.292  1.00  0.00     0.105 C 
ATOM     10  C   UNL A   1      30.015  28.642  22.864  1.00  0.00     0.023 C 
BRANCH   9  11
ATOM     11  C   UNL A   1      30.571  26.678  24.438  1.00  0.00    -0.034 A 
ATOM     12  C   UNL A   1      30.460  26.053  25.691  1.00  0.00     0.005 A 
ATOM     13  C   UNL A   1      30.817  25.868  23.314  1.00  0.00     0.031 A 
ATOM     14  C   UNL A   1      30.751  24.684  25.865  1.00  0.00     0.011 A 
ATOM     15  C   UNL A   1      31.087  24.508  23.497  1.00  0.00     0.047 A 
ATOM     16  C   UNL A   1      31.107  23.900  24.747  1.00  0.00     0.007 A 
ATOM     17  N   UNL A   1      31.388  23.546  22.568  1.00  0.00    -0.355 N 
ATOM     18  C   UNL A   1      31.551  22.549  24.550  1.00  0.00     0.009 A 
ATOM     19  C   UNL A   1      31.742  22.369  23.179  1.00  0.00     0.047 A 
ATOM     20  H   UNL A   1      31.353  23.680  21.594  1.00  0.00     0.167 HD
ATOM     21  C   UNL A   1      31.845  21.469  25.410  1.00  0.00     0.031 A 
ATOM     22  C   UNL A   1      32.220  21.182  22.614  1.00  0.00     0.028 A 
ATOM     23  C   UNL A   1      32.340  20.280  24.860  1.00  0.00     0.041 A 
ATOM     24  C   UNL A   1      32.529  20.138  23.487  1.00  0.00     0.022 A 
ATOM     25  Cl  UNL A   1      32.742  18.965  25.898  1.00  0.00    -0.084 Cl
ENDBRANCH   9  11
ENDBRANCH   6   9
ENDBRANCH   4   5
ENDBRANCH   3   4
ENDBRANCH   2   3
ENDBRANCH   1   2
BRANCH   1  26
ATOM     26  C   UNL A   1      35.733  23.915  24.617  1.00  0.00     0.021 C 
BRANCH  26  27
ATOM     27  C   UNL A   1      36.434  23.782  25.964  1.00  0.00     0.116 C 
BRANCH  27  28
ATOM     28  N   UNL A   1      37.413  22.708  26.008  1.00  0.00    -0.352 N 
ATOM     29  C   UNL A   1      38.741  22.765  26.370  1.00  0.00     0.251 C 
ATOM     30  H   UNL A   1      37.082  21.819  25.743  1.00  0.00     0.163 HD
ATOM     31  O   UNL A   1      39.453  21.775  26.266  1.00  0.00    -0.269 OA
BRANCH  29  32
ATOM     32  C   UNL A   1      39.310  24.044  26.857  1.00  0.00     0.039 A 
ATOM     33  C   UNL A   1      39.973  24.878  25.952  1.00  0.00     0.014 A 
ATOM     34  C   UNL A   1      39.170  24.425  28.193  1.00  0.00     0.014 A 
ATOM     35  C   UNL A   1      40.434  26.131  26.372  1.00  0.00     0.010 A 
ATOM     36  C   UNL A   1      39.565  25.698  28.589  1.00  0.00     0.010 A 
ATOM     37  C   UNL A   1      40.204  26.563  27.686  1.00  0.00    -0.014 A 
BRANCH  37  38
ATOM     38  C   UNL A   1      40.625  27.906  28.164  1.00  0.00     0.031 A 
ATOM     39  C   UNL A   1      42.087  28.193  28.368  1.00  0.00     0.074 A 
ATOM     40  C   UNL A   1      39.700  28.808  28.544  1.00  0.00     0.049 A 
ATOM     41  N   UNL A   1      42.657  29.221  28.940  1.00  0.00    -0.248 NA
ATOM     42  C   UNL A   1      43.032  27.166  27.899  1.00  0.00     0.031 C 
ATOM     43  C   UNL A   1      38.252  28.622  28.458  1.00  0.00     0.029 A 
ATOM     44  N   UNL A   1      39.844  30.043  29.128  1.00  0.00    -0.354 N 
ATOM     45  C   UNL A   1      44.017  28.937  28.955  1.00  0.00     0.074 A 
ATOM     46  C   UNL A   1      44.184  27.633  28.354  1.00  0.00     0.031 C 
ATOM     47  C   UNL A   1      37.640  29.692  28.990  1.00  0.00     0.029 A 
ATOM     48  C   UNL A   1      38.649  30.623  29.488  1.00  0.00     0.049 A 
ATOM     49  H   UNL A   1      40.718  30.472  29.274  1.00  0.00     0.167 HD
ATOM     50  C   UNL A   1      45.039  29.703  29.408  1.00  0.00     0.034 A 
ATOM     51  C   UNL A   1      38.394  31.761  30.164  1.00  0.00     0.034 A 
ATOM     52  C   UNL A   1      44.869  31.022  29.955  1.00  0.00     0.049 A 
ATOM     53  C   UNL A   1      39.543  32.625  30.609  1.00  0.00     0.074 A 
ATOM     54  C   UNL A   1      45.845  31.921  30.349  1.00  0.00     0.029 A 
ATOM     55  N   UNL A   1      43.645  31.628  30.190  1.00  0.00    -0.354 N 
ATOM     56  N   UNL A   1      40.831  32.411  30.480  1.00  0.00    -0.248 NA
ATOM     57  C   UNL A   1      39.211  33.902  31.257  1.00  0.00     0.031 C 
ATOM     58  C   UNL A   1      45.209  33.064  30.841  1.00  0.00     0.029 A 
ATOM     59  C   UNL A   1      43.837  32.889  30.727  1.00  0.00     0.049 A 
ATOM     60  H   UNL A   1      42.769  31.223  30.002  1.00  0.00     0.167 HD
ATOM     61  C   UNL A   1      41.459  33.540  30.991  1.00  0.00     0.074 A 
ATOM     62  C   UNL A   1      40.411  34.440  31.427  1.00  0.00     0.031 C 
ATOM     63  C   UNL A   1      42.785  33.803  31.095  1.00  0.00     0.034 A 
BRANCH  50  64
ATOM     64  C   UNL A   1      46.432  29.144  29.290  1.00  0.00     0.023 A 
ATOM     65  C   UNL A   1      46.970  28.379  30.347  1.00  0.00     0.012 A 
ATOM     66  C   UNL A   1      47.203  29.354  28.130  1.00  0.00     0.148 A 
ATOM     67  C   UNL A   1      48.268  27.876  30.272  1.00  0.00     0.002 A 
ATOM     68  C   UNL A   1      48.478  28.808  28.043  1.00  0.00     0.091 A 
ATOM     69  F   UNL A   1      46.689  30.103  27.144  1.00  0.00    -0.205 F 
ATOM     70  C   UNL A   1      49.018  28.082  29.117  1.00  0.00     0.022 A 
BRANCH  68  71
ATOM     71  S   UNL A   1      49.484  28.952  26.562  1.00  0.00     0.127 S 
ATOM     72  O   UNL A   1      50.599  28.059  26.873  1.00  0.00    -0.237 OA
ATOM     73  O   UNL A   1      48.581  28.457  25.521  1.00  0.00    -0.237 OA
ATOM     74  O   UNL A   1      49.819  30.364  26.446  1.00  0.00    -0.744 OA
ENDBRANCH  68  71
ENDBRANCH  50  64
BRANCH  51  75
ATOM     75  C   UNL A   1      36.981  32.169  30.401  1.00  0.00     0.023 A 
ATOM     76  C   UNL A   1      36.406  31.957  31.669  1.00  0.00     0.012 A 
ATOM     77  C   UNL A   1      36.230  32.828  29.408  1.00  0.00     0.148 A 
ATOM     78  C   UNL A   1      35.102  32.376  31.939  1.00  0.00     0.002 A 
ATOM     79  C   UNL A   1      34.952  33.289  29.699  1.00  0.00     0.091 A 
ATOM     80  F   UNL A   1      36.795  33.015  28.207  1.00  0.00    -0.205 F 
ATOM     81  C   UNL A   1      34.381  33.051  30.959  1.00  0.00     0.022 A 
BRANCH  79  82
ATOM     82  S   UNL A   1      33.996  34.289  28.550  1.00  0.00     0.127 S 
ATOM     83  O   UNL A   1      34.870  35.442  28.358  1.00  0.00    -0.237 OA
ATOM     84  O   UNL A   1      33.890  33.396  27.395  1.00  0.00    -0.237 OA
ATOM     85  O   UNL A   1      32.731  34.560  29.218  1.00  0.00    -0.744 OA
ENDBRANCH  79  82
ENDBRANCH  51  75
BRANCH  63  86
ATOM     86  C   UNL A   1      43.204  35.140  31.647  1.00  0.00     0.023 A 
ATOM     87  C   UNL A   1      43.375  35.306  33.035  1.00  0.00     0.012 A 
ATOM     88  C   UNL A   1      43.551  36.190  30.774  1.00  0.00     0.148 A 
ATOM     89  C   UNL A   1      43.871  36.506  33.546  1.00  0.00     0.002 A 
ATOM     90  C   UNL A   1      44.089  37.364  31.286  1.00  0.00     0.091 A 
ATOM     91  F   UNL A   1      43.363  36.014  29.457  1.00  0.00    -0.205 F 
ATOM     92  C   UNL A   1      44.241  37.526  32.673  1.00  0.00     0.022 A 
BRANCH  90  93
ATOM     93  S   UNL A   1      44.688  38.691  30.234  1.00  0.00     0.127 S 
ATOM     94  O   UNL A   1      45.376  39.548  31.197  1.00  0.00    -0.237 OA
ATOM     95  O   UNL A   1      45.573  37.978  29.311  1.00  0.00    -0.237 OA
ATOM     96  O   UNL A   1      43.509  39.276  29.611  1.00  0.00    -0.744 OA
ENDBRANCH  90  93
ENDBRANCH  63  86
ENDBRANCH  37  38
ENDBRANCH  29  32
ENDBRANCH  27  28
ENDBRANCH  26  27
ENDBRANCH   1  26
TORSDOF 17
ENDMDL
MODEL 3
REMARK VINA RESULT:     -11.9      1.559      7.576
REMARK SMILES C[C@H](C(=O)NCCCCCCNC(=O)c1ccc(-c2c3nc(c(-c4cccc(S(=O)(=O)[O-])c4F)c4ccc([nH]4)c(-c4cccc(S(=O)(=O)[O-])c4F)c4nc(c(-c5cccc(S(=O)(=O)[O-])c5F)c5ccc2[nH]5)C=C4)C=C3)cc1)c1ccc2c(c1)[nH]c1ccc(Cl)cc12
REMARK SMILES IDX 9 1 8 2 7 3 6 4 5 5 3 6 4 7 2 9 1 10 78 11 79 12 83 13 80 14
REMARK SMILES IDX 82 15 81 16 84 17 91 18 85 19 90 21 86 22 88 23 87 24 89 25
REMARK SMILES IDX 10 26 11 27 12 28 13 29 14 31 15 32 16 33 77 34 17 35 76 36
REMARK SMILES IDX 18 37 19 38 20 39 70 40 21 41 75 42 69 43 71 44 22 45 74 46
REMARK SMILES IDX 68 47 67 48 23 50 55 51 35 52 54 53 36 54 39 55 53 56 72 57
REMARK SMILES IDX 37 58 38 59 52 61 73 62 40 63 24 64 25 65 33 66 26 67 28 68
REMARK SMILES IDX 34 69 27 70 29 71 30 72 31 73 32 74 56 75 57 76 65 77 58 78
REMARK SMILES IDX 60 79 66 80 59 81 61 82 62 83 63 84 64 85 41 86 42 87 50 88
REMARK SMILES IDX 43 89 45 90 51 91 44 92 46 93 47 94 48 95 49 96
REMARK H PARENT 5 8 84 20 12 30 71 49 39 60
REMARK Flexibility Score: inf
ROOT
ATOM      1  C   UNL A   1      35.332  23.337  23.864  1.00  0.00     0.002 C 
ENDROOT
BRANCH   1   2
ATOM      2  C   UNL A   1      35.232  24.404  24.957  1.00  0.00     0.002 C 
BRANCH   2   3
ATOM      3  C   UNL A   1      34.187  25.511  24.781  1.00  0.00     0.021 C 
BRANCH   3   4
ATOM      4  C   UNL A   1      33.713  25.819  23.363  1.00  0.00     0.116 C 
BRANCH   4   5
ATOM      5  N   UNL A   1      32.328  25.485  23.106  1.00  0.00    -0.356 N 
ATOM      6  C   UNL A   1      31.351  25.086  23.963  1.00  0.00     0.227 C 
ATOM      7  O   UNL A   1      30.192  25.218  23.540  1.00  0.00    -0.274 OA
ATOM      8  H   UNL A   1      32.051  25.559  22.164  1.00  0.00     0.163 HD
BRANCH   6   9
ATOM      9  C   UNL A   1      31.572  24.341  25.290  1.00  0.00     0.105 C 
ATOM     10  C   UNL A   1      30.315  24.634  26.134  1.00  0.00     0.023 C 
BRANCH   9  11
ATOM     11  C   UNL A   1      31.995  22.873  25.284  1.00  0.00    -0.034 A 
ATOM     12  C   UNL A   1      32.591  22.287  26.414  1.00  0.00     0.005 A 
ATOM     13  C   UNL A   1      31.754  22.054  24.165  1.00  0.00     0.031 A 
ATOM     14  C   UNL A   1      33.094  20.970  26.388  1.00  0.00     0.011 A 
ATOM     15  C   UNL A   1      32.242  20.744  24.158  1.00  0.00     0.047 A 
ATOM     16  C   UNL A   1      32.947  20.191  25.222  1.00  0.00     0.007 A 
ATOM     17  N   UNL A   1      32.162  19.788  23.178  1.00  0.00    -0.355 N 
ATOM     18  C   UNL A   1      33.398  18.895  24.798  1.00  0.00     0.009 A 
ATOM     19  C   UNL A   1      32.911  18.687  23.506  1.00  0.00     0.047 A 
ATOM     20  H   UNL A   1      31.638  19.880  22.350  1.00  0.00     0.167 HD
ATOM     21  C   UNL A   1      34.205  17.891  25.376  1.00  0.00     0.031 A 
ATOM     22  C   UNL A   1      33.190  17.543  22.751  1.00  0.00     0.028 A 
ATOM     23  C   UNL A   1      34.507  16.749  24.624  1.00  0.00     0.041 A 
ATOM     24  C   UNL A   1      34.013  16.577  23.333  1.00  0.00     0.022 A 
ATOM     25  Cl  UNL A   1      35.523  15.532  25.297  1.00  0.00    -0.084 Cl
ENDBRANCH   9  11
ENDBRANCH   6   9
ENDBRANCH   4   5
ENDBRANCH   3   4
ENDBRANCH   2   3
ENDBRANCH   1   2
BRANCH   1  26
ATOM     26  C   UNL A   1      35.976  22.007  24.248  1.00  0.00     0.021 C 
BRANCH  26  27
ATOM     27  C   UNL A   1      36.583  21.927  25.643  1.00  0.00     0.116 C 
BRANCH  27  28
ATOM     28  N   UNL A   1      37.628  20.924  25.768  1.00  0.00    -0.352 N 
ATOM     29  C   UNL A   1      38.950  21.093  26.118  1.00  0.00     0.251 C 
ATOM     30  H   UNL A   1      37.354  19.998  25.575  1.00  0.00     0.163 HD
ATOM     31  O   UNL A   1      39.723  20.145  26.089  1.00  0.00    -0.269 OA
BRANCH  29  32
ATOM     32  C   UNL A   1      39.437  22.439  26.499  1.00  0.00     0.039 A 
ATOM     33  C   UNL A   1      40.463  22.546  27.444  1.00  0.00     0.014 A 
ATOM     34  C   UNL A   1      38.901  23.586  25.910  1.00  0.00     0.014 A 
ATOM     35  C   UNL A   1      41.000  23.802  27.746  1.00  0.00     0.010 A 
ATOM     36  C   UNL A   1      39.485  24.824  26.158  1.00  0.00     0.010 A 
ATOM     37  C   UNL A   1      40.537  24.947  27.081  1.00  0.00    -0.014 A 
BRANCH  37  38
ATOM     38  C   UNL A   1      41.113  26.294  27.327  1.00  0.00     0.031 A 
ATOM     39  C   UNL A   1      42.527  26.582  26.903  1.00  0.00     0.074 A 
ATOM     40  C   UNL A   1      40.427  27.201  28.048  1.00  0.00     0.049 A 
ATOM     41  N   UNL A   1      43.279  27.615  27.175  1.00  0.00    -0.248 NA
ATOM     42  C   UNL A   1      43.195  25.549  26.093  1.00  0.00     0.031 C 
ATOM     43  C   UNL A   1      39.074  27.015  28.573  1.00  0.00     0.029 A 
ATOM     44  N   UNL A   1      40.795  28.442  28.507  1.00  0.00    -0.354 N 
ATOM     45  C   UNL A   1      44.524  27.331  26.627  1.00  0.00     0.074 A 
ATOM     46  C   UNL A   1      44.431  26.020  26.024  1.00  0.00     0.031 C 
ATOM     47  C   UNL A   1      38.735  28.091  29.301  1.00  0.00     0.029 A 
ATOM     48  C   UNL A   1      39.856  29.027  29.325  1.00  0.00     0.049 A 
ATOM     49  H   UNL A   1      41.650  28.872  28.273  1.00  0.00     0.167 HD
ATOM     50  C   UNL A   1      45.638  28.100  26.607  1.00  0.00     0.034 A 
ATOM     51  C   UNL A   1      39.901  30.173  30.034  1.00  0.00     0.034 A 
ATOM     52  C   UNL A   1      45.707  29.425  27.161  1.00  0.00     0.049 A 
ATOM     53  C   UNL A   1      41.128  31.040  29.953  1.00  0.00     0.074 A 
ATOM     54  C   UNL A   1      46.755  30.327  27.105  1.00  0.00     0.029 A 
ATOM     55  N   UNL A   1      44.689  30.035  27.878  1.00  0.00    -0.354 N 
ATOM     56  N   UNL A   1      42.246  30.823  29.303  1.00  0.00    -0.248 NA
ATOM     57  C   UNL A   1      41.090  32.324  30.668  1.00  0.00     0.031 C 
ATOM     58  C   UNL A   1      46.376  31.477  27.806  1.00  0.00     0.029 A 
ATOM     59  C   UNL A   1      45.082  31.301  28.274  1.00  0.00     0.049 A 
ATOM     60  H   UNL A   1      43.815  29.628  28.075  1.00  0.00     0.167 HD
ATOM     61  C   UNL A   1      43.026  31.958  29.495  1.00  0.00     0.074 A 
ATOM     62  C   UNL A   1      42.251  32.863  30.318  1.00  0.00     0.031 C 
ATOM     63  C   UNL A   1      44.275  32.220  29.036  1.00  0.00     0.034 A 
BRANCH  50  64
ATOM     64  C   UNL A   1      46.859  27.539  25.926  1.00  0.00     0.023 A 
ATOM     65  C   UNL A   1      47.019  27.701  24.534  1.00  0.00     0.012 A 
ATOM     66  C   UNL A   1      47.859  26.873  26.661  1.00  0.00     0.148 A 
ATOM     67  C   UNL A   1      48.126  27.166  23.878  1.00  0.00     0.002 A 
ATOM     68  C   UNL A   1      48.985  26.385  26.007  1.00  0.00     0.091 A 
ATOM     69  F   UNL A   1      47.683  26.706  27.980  1.00  0.00    -0.205 F 
ATOM     70  C   UNL A   1      49.113  26.517  24.615  1.00  0.00     0.022 A 
BRANCH  68  71
ATOM     71  S   UNL A   1      50.344  25.609  26.887  1.00  0.00     0.127 S 
ATOM     72  O   UNL A   1      50.733  26.663  27.822  1.00  0.00    -0.237 OA
ATOM     73  O   UNL A   1      49.695  24.453  27.508  1.00  0.00    -0.237 OA
ATOM     74  O   UNL A   1      51.331  25.270  25.872  1.00  0.00    -0.744 OA
ENDBRANCH  68  71
ENDBRANCH  50  64
BRANCH  51  75
ATOM     75  C   UNL A   1      38.712  30.584  30.833  1.00  0.00     0.023 A 
ATOM     76  C   UNL A   1      38.717  30.385  32.228  1.00  0.00     0.012 A 
ATOM     77  C   UNL A   1      37.615  31.233  30.235  1.00  0.00     0.148 A 
ATOM     78  C   UNL A   1      37.642  30.808  33.010  1.00  0.00     0.002 A 
ATOM     79  C   UNL A   1      36.572  31.699  31.027  1.00  0.00     0.091 A 
ATOM     80  F   UNL A   1      37.629  31.408  28.906  1.00  0.00    -0.205 F 
ATOM     81  C   UNL A   1      36.576  31.474  32.412  1.00  0.00     0.022 A 
BRANCH  79  82
ATOM     82  S   UNL A   1      35.222  32.688  30.369  1.00  0.00     0.127 S 
ATOM     83  O   UNL A   1      34.323  32.769  31.516  1.00  0.00    -0.237 OA
ATOM     84  O   UNL A   1      35.905  33.937  30.030  1.00  0.00    -0.237 OA
ATOM     85  O   UNL A   1      34.714  31.951  29.219  1.00  0.00    -0.744 OA
ENDBRANCH  79  82
ENDBRANCH  51  75
BRANCH  63  86
ATOM     86  C   UNL A   1      44.881  33.562  29.351  1.00  0.00     0.023 A 
ATOM     87  C   UNL A   1      45.625  33.739  30.532  1.00  0.00     0.012 A 
ATOM     88  C   UNL A   1      44.816  34.607  28.408  1.00  0.00     0.148 A 
ATOM     89  C   UNL A   1      46.284  34.944  30.778  1.00  0.00     0.002 A 
ATOM     90  C   UNL A   1      45.512  35.787  28.637  1.00  0.00     0.091 A 
ATOM     91  F   UNL A   1      44.085  34.422  27.298  1.00  0.00    -0.205 F 
ATOM     92  C   UNL A   1      46.240  35.960  29.825  1.00  0.00     0.022 A 
BRANCH  90  93
ATOM     93  S   UNL A   1      45.598  37.109  27.423  1.00  0.00     0.127 S 
ATOM     94  O   UNL A   1      44.186  37.441  27.243  1.00  0.00    -0.237 OA
ATOM     95  O   UNL A   1      46.379  38.126  28.128  1.00  0.00    -0.237 OA
ATOM     96  O   UNL A   1      46.257  36.542  26.255  1.00  0.00    -0.744 OA
ENDBRANCH  90  93
ENDBRANCH  63  86
ENDBRANCH  37  38
ENDBRANCH  29  32
ENDBRANCH  27  28
ENDBRANCH  26  27
ENDBRANCH   1  26
TORSDOF 17
ENDMDL
