MODEL 1
REMARK VINA RESULT:     -12.2      0.000      0.000
REMARK SMILES CC(C)[C@H](NC(=O)[C@H](Cc1ccccc1)n1c(=O)[nH]c2ccccc2c1=O)C(=O)NCCCCCCNC(=O)c1ccc(-c2c3nc(c(-c4cccc(S(=O)(=O)[O-])c4F)c4ccc([nH]4)c(-c4cccc(S(=O)(=O)[O-])c4F)c4nc(c(-c5cccc(S(=O)(=O)[O-])c5F)c5ccc2[nH]5)C=C4)C=C3)cc1
REMARK SMILES IDX 33 1 32 2 31 3 30 4 28 5 29 6 4 8 2 9 1 10 3 11 5 12 6 13
REMARK SMILES IDX 7 15 8 16 16 17 17 18 26 19 18 20 19 21 25 22 27 23 20 24
REMARK SMILES IDX 24 26 21 27 23 28 22 29 9 30 10 31 11 32 15 33 12 34 14 35
REMARK SMILES IDX 13 36 34 37 35 38 36 39 37 40 38 41 39 43 40 44 41 45 102 46
REMARK SMILES IDX 42 47 101 48 43 49 44 50 45 51 95 52 46 53 100 54 94 55
REMARK SMILES IDX 96 56 47 57 99 58 93 59 92 60 48 62 80 63 60 64 79 65 61 66
REMARK SMILES IDX 64 67 78 68 97 69 62 70 63 71 77 73 98 74 65 75 49 76 50 77
REMARK SMILES IDX 58 78 51 79 53 80 59 81 52 82 54 83 55 84 56 85 57 86 81 87
REMARK SMILES IDX 82 88 90 89 83 90 85 91 91 92 84 93 86 94 87 95 88 96 89 97
REMARK SMILES IDX 66 98 67 99 75 100 68 101 70 102 76 103 69 104 71 105 72 106
REMARK SMILES IDX 73 107 74 108
REMARK H PARENT 30 7 5 14 19 25 37 42 96 61 64 72
REMARK Flexibility Score: inf
ROOT
ATOM      1  C   UNL A   1      34.713  30.218  28.116  1.00  0.00     0.002 C 
ENDROOT
BRANCH   1   2
ATOM      2  C   UNL A   1      35.263  29.213  27.098  1.00  0.00     0.021 C 
BRANCH   2   3
ATOM      3  C   UNL A   1      34.190  28.353  26.456  1.00  0.00     0.116 C 
BRANCH   3   4
ATOM      4  N   UNL A   1      32.987  28.373  27.244  1.00  0.00    -0.354 N 
ATOM      5  C   UNL A   1      31.842  27.671  27.126  1.00  0.00     0.242 C 
ATOM      6  O   UNL A   1      31.005  27.837  28.021  1.00  0.00    -0.273 OA
ATOM      7  H   UNL A   1      33.002  29.007  27.996  1.00  0.00     0.163 HD
BRANCH   5   8
ATOM      8  C   UNL A   1      31.616  26.626  26.019  1.00  0.00     0.173 C 
BRANCH   8   9
ATOM      9  C   UNL A   1      31.172  27.210  24.653  1.00  0.00     0.015 C 
ATOM     10  C   UNL A   1      32.196  27.162  23.522  1.00  0.00     0.010 C 
ATOM     11  C   UNL A   1      29.870  26.566  24.157  1.00  0.00     0.010 C 
ENDBRANCH   8   9
BRANCH   8  12
ATOM     12  N   UNL A   1      30.925  25.395  26.390  1.00  0.00    -0.342 N 
ATOM     13  C   UNL A   1      31.434  24.161  26.674  1.00  0.00     0.244 C 
ATOM     14  H   UNL A   1      29.945  25.465  26.443  1.00  0.00     0.164 HD
ATOM     15  O   UNL A   1      30.682  23.426  27.330  1.00  0.00    -0.273 OA
BRANCH  13  16
ATOM     16  C   UNL A   1      32.895  23.707  26.402  1.00  0.00     0.189 C 
BRANCH  16  17
ATOM     17  N   UNL A   1      33.087  22.302  25.948  1.00  0.00    -0.247 N 
ATOM     18  C   UNL A   1      33.746  21.364  26.717  1.00  0.00     0.329 A 
ATOM     19  C   UNL A   1      32.545  21.985  24.694  1.00  0.00     0.264 A 
ATOM     20  O   UNL A   1      34.339  21.570  27.773  1.00  0.00    -0.248 OA
ATOM     21  N   UNL A   1      33.808  20.089  26.261  1.00  0.00    -0.307 N 
ATOM     22  C   UNL A   1      32.643  20.581  24.239  1.00  0.00     0.064 A 
ATOM     23  O   UNL A   1      31.994  22.801  23.959  1.00  0.00    -0.268 OA
ATOM     24  C   UNL A   1      33.282  19.665  25.060  1.00  0.00     0.055 A 
ATOM     25  H   UNL A   1      34.261  19.421  26.825  1.00  0.00     0.171 HD
ATOM     26  C   UNL A   1      32.119  20.159  23.016  1.00  0.00     0.016 A 
ATOM     27  C   UNL A   1      33.413  18.329  24.689  1.00  0.00     0.027 A 
ATOM     28  C   UNL A   1      32.241  18.818  22.637  1.00  0.00     0.001 A 
ATOM     29  C   UNL A   1      32.886  17.905  23.473  1.00  0.00     0.002 A 
ENDBRANCH  16  17
BRANCH  16  30
ATOM     30  C   UNL A   1      33.660  24.829  25.636  1.00  0.00     0.071 C 
BRANCH  30  31
ATOM     31  C   UNL A   1      35.008  24.372  25.108  1.00  0.00    -0.045 A 
ATOM     32  C   UNL A   1      35.113  23.950  23.774  1.00  0.00     0.004 A 
ATOM     33  C   UNL A   1      36.084  24.154  25.974  1.00  0.00     0.004 A 
ATOM     34  C   UNL A   1      36.158  23.120  23.380  1.00  0.00     0.000 A 
ATOM     35  C   UNL A   1      37.164  23.377  25.555  1.00  0.00     0.000 A 
ATOM     36  C   UNL A   1      37.173  22.814  24.278  1.00  0.00     0.000 A 
ENDBRANCH  30  31
ENDBRANCH  16  30
ENDBRANCH  13  16
ENDBRANCH   8  12
ENDBRANCH   5   8
ENDBRANCH   3   4
ENDBRANCH   2   3
ENDBRANCH   1   2
BRANCH   1  37
ATOM     37  C   UNL A   1      34.830  31.693  27.711  1.00  0.00     0.002 C 
BRANCH  37  38
ATOM     38  C   UNL A   1      33.553  32.518  27.884  1.00  0.00     0.021 C 
BRANCH  38  39
ATOM     39  C   UNL A   1      33.733  34.007  27.643  1.00  0.00     0.116 C 
BRANCH  39  40
ATOM     40  N   UNL A   1      33.118  34.803  28.688  1.00  0.00    -0.352 N 
ATOM     41  C   UNL A   1      33.420  34.821  30.022  1.00  0.00     0.251 C 
ATOM     42  H   UNL A   1      32.393  35.404  28.402  1.00  0.00     0.163 HD
ATOM     43  O   UNL A   1      32.685  35.407  30.815  1.00  0.00    -0.269 OA
BRANCH  41  44
ATOM     44  C   UNL A   1      34.623  34.112  30.492  1.00  0.00     0.039 A 
ATOM     45  C   UNL A   1      34.473  33.030  31.360  1.00  0.00     0.014 A 
ATOM     46  C   UNL A   1      35.894  34.508  30.061  1.00  0.00     0.014 A 
ATOM     47  C   UNL A   1      35.602  32.333  31.784  1.00  0.00     0.010 A 
ATOM     48  C   UNL A   1      37.006  33.754  30.410  1.00  0.00     0.010 A 
ATOM     49  C   UNL A   1      36.875  32.681  31.302  1.00  0.00    -0.014 A 
BRANCH  49  50
ATOM     50  C   UNL A   1      38.089  31.968  31.767  1.00  0.00     0.031 A 
ATOM     51  C   UNL A   1      38.780  32.419  33.027  1.00  0.00     0.074 A 
ATOM     52  C   UNL A   1      38.595  30.958  31.034  1.00  0.00     0.049 A 
ATOM     53  N   UNL A   1      39.868  31.954  33.582  1.00  0.00    -0.248 NA
ATOM     54  C   UNL A   1      38.186  33.561  33.746  1.00  0.00     0.031 C 
ATOM     55  C   UNL A   1      38.050  30.478  29.762  1.00  0.00     0.029 A 
ATOM     56  N   UNL A   1      39.693  30.164  31.246  1.00  0.00    -0.354 N 
ATOM     57  C   UNL A   1      40.105  32.762  34.688  1.00  0.00     0.074 A 
ATOM     58  C   UNL A   1      39.077  33.777  34.700  1.00  0.00     0.031 C 
ATOM     59  C   UNL A   1      38.808  29.464  29.314  1.00  0.00     0.029 A 
ATOM     60  C   UNL A   1      39.908  29.243  30.248  1.00  0.00     0.049 A 
ATOM     61  H   UNL A   1      40.272  30.245  32.038  1.00  0.00     0.167 HD
ATOM     62  C   UNL A   1      41.070  32.647  35.630  1.00  0.00     0.034 A 
ATOM     63  C   UNL A   1      40.886  28.329  30.102  1.00  0.00     0.034 A 
ATOM     64  C   UNL A   1      42.065  31.611  35.633  1.00  0.00     0.049 A 
ATOM     65  C   UNL A   1      41.932  28.208  31.178  1.00  0.00     0.074 A 
ATOM     66  C   UNL A   1      43.047  31.364  36.575  1.00  0.00     0.029 A 
ATOM     67  N   UNL A   1      42.207  30.652  34.643  1.00  0.00    -0.354 N 
ATOM     68  N   UNL A   1      42.060  28.895  32.288  1.00  0.00    -0.248 NA
ATOM     69  C   UNL A   1      42.947  27.160  31.001  1.00  0.00     0.031 C 
ATOM     70  C   UNL A   1      43.802  30.271  36.140  1.00  0.00     0.029 A 
ATOM     71  C   UNL A   1      43.262  29.811  34.948  1.00  0.00     0.049 A 
ATOM     72  H   UNL A   1      41.640  30.578  33.842  1.00  0.00     0.167 HD
ATOM     73  C   UNL A   1      43.135  28.330  32.964  1.00  0.00     0.074 A 
ATOM     74  C   UNL A   1      43.613  27.236  32.144  1.00  0.00     0.031 C 
ATOM     75  C   UNL A   1      43.684  28.689  34.150  1.00  0.00     0.034 A 
BRANCH  62  76
ATOM     76  C   UNL A   1      41.064  33.641  36.763  1.00  0.00     0.023 A 
ATOM     77  C   UNL A   1      41.767  34.856  36.629  1.00  0.00     0.012 A 
ATOM     78  C   UNL A   1      40.321  33.400  37.935  1.00  0.00     0.148 A 
ATOM     79  C   UNL A   1      41.764  35.798  37.658  1.00  0.00     0.002 A 
ATOM     80  C   UNL A   1      40.281  34.365  38.934  1.00  0.00     0.091 A 
ATOM     81  F   UNL A   1      39.675  32.231  38.053  1.00  0.00    -0.205 F 
ATOM     82  C   UNL A   1      41.012  35.557  38.804  1.00  0.00     0.022 A 
BRANCH  80  83
ATOM     83  S   UNL A   1      39.276  34.190  40.413  1.00  0.00     0.127 S 
ATOM     84  O   UNL A   1      37.964  33.886  39.844  1.00  0.00    -0.237 OA
ATOM     85  O   UNL A   1      39.922  33.064  41.089  1.00  0.00    -0.237 OA
ATOM     86  O   UNL A   1      39.370  35.460  41.118  1.00  0.00    -0.744 OA
ENDBRANCH  80  83
ENDBRANCH  62  76
BRANCH  63  87
ATOM     87  C   UNL A   1      40.889  27.411  28.928  1.00  0.00     0.023 A 
ATOM     88  C   UNL A   1      39.938  26.374  28.855  1.00  0.00     0.012 A 
ATOM     89  C   UNL A   1      41.824  27.557  27.885  1.00  0.00     0.148 A 
ATOM     90  C   UNL A   1      39.946  25.473  27.790  1.00  0.00     0.002 A 
ATOM     91  C   UNL A   1      41.790  26.691  26.799  1.00  0.00     0.091 A 
ATOM     92  F   UNL A   1      42.725  28.546  27.974  1.00  0.00    -0.205 F 
ATOM     93  C   UNL A   1      40.866  25.636  26.759  1.00  0.00     0.022 A 
BRANCH  91  94
ATOM     94  S   UNL A   1      42.852  26.902  25.366  1.00  0.00     0.127 S 
ATOM     95  O   UNL A   1      42.269  28.081  24.732  1.00  0.00    -0.237 OA
ATOM     96  O   UNL A   1      44.159  27.117  25.988  1.00  0.00    -0.237 OA
ATOM     97  O   UNL A   1      42.746  25.660  24.611  1.00  0.00    -0.744 OA
ENDBRANCH  91  94
ENDBRANCH  63  87
BRANCH  75  98
ATOM     98  C   UNL A   1      44.821  27.853  34.676  1.00  0.00     0.023 A 
ATOM     99  C   UNL A   1      46.155  28.245  34.450  1.00  0.00     0.012 A 
ATOM    100  C   UNL A   1      44.559  26.712  35.460  1.00  0.00     0.148 A 
ATOM    101  C   UNL A   1      47.211  27.493  34.964  1.00  0.00     0.002 A 
ATOM    102  C   UNL A   1      45.614  25.999  36.015  1.00  0.00     0.091 A 
ATOM    103  F   UNL A   1      43.282  26.344  35.649  1.00  0.00    -0.205 F 
ATOM    104  C   UNL A   1      46.940  26.379  35.756  1.00  0.00     0.022 A 
BRANCH 102 105
ATOM    105  S   UNL A   1      45.358  24.615  37.130  1.00  0.00     0.127 S 
ATOM    106  O   UNL A   1      46.726  24.310  37.545  1.00  0.00    -0.237 OA
ATOM    107  O   UNL A   1      44.522  25.209  38.173  1.00  0.00    -0.237 OA
ATOM    108  O   UNL A   1      44.699  23.580  36.344  1.00  0.00    -0.744 OA
ENDBRANCH 102 105
ENDBRANCH  75  98
ENDBRANCH  49  50
ENDBRANCH  41  44
ENDBRANCH  39  40
ENDBRANCH  38  39
ENDBRANCH  37  38
ENDBRANCH   1  37
TORSDOF 22
ENDMDL
MODEL 2
REMARK VINA RESULT:     -12.1      5.527      9.945
REMARK SMILES CC(C)[C@H](NC(=O)[C@H](Cc1ccccc1)n1c(=O)[nH]c2ccccc2c1=O)C(=O)NCCCCCCNC(=O)c1ccc(-c2c3nc(c(-c4cccc(S(=O)(=O)[O-])c4F)c4ccc([nH]4)c(-c4cccc(S(=O)(=O)[O-])c4F)c4nc(c(-c5cccc(S(=O)(=O)[O-])c5F)c5ccc2[nH]5)C=C4)C=C3)cc1
REMARK SMILES IDX 33 1 32 2 31 3 30 4 28 5 29 6 4 8 2 9 1 10 3 11 5 12 6 13
REMARK SMILES IDX 7 15 8 16 16 17 17 18 26 19 18 20 19 21 25 22 27 23 20 24
REMARK SMILES IDX 24 26 21 27 23 28 22 29 9 30 10 31 11 32 15 33 12 34 14 35
REMARK SMILES IDX 13 36 34 37 35 38 36 39 37 40 38 41 39 43 40 44 41 45 102 46
REMARK SMILES IDX 42 47 101 48 43 49 44 50 45 51 95 52 46 53 100 54 94 55
REMARK SMILES IDX 96 56 47 57 99 58 93 59 92 60 48 62 80 63 60 64 79 65 61 66
REMARK SMILES IDX 64 67 78 68 97 69 62 70 63 71 77 73 98 74 65 75 49 76 50 77
REMARK SMILES IDX 58 78 51 79 53 80 59 81 52 82 54 83 55 84 56 85 57 86 81 87
REMARK SMILES IDX 82 88 90 89 83 90 85 91 91 92 84 93 86 94 87 95 88 96 89 97
REMARK SMILES IDX 66 98 67 99 75 100 68 101 70 102 76 103 69 104 71 105 72 106
REMARK SMILES IDX 73 107 74 108
REMARK H PARENT 30 7 5 14 19 25 37 42 96 61 64 72
REMARK Flexibility Score: inf
ROOT
ATOM      1  C   UNL A   1      38.905  23.573  25.937  1.00  0.00     0.002 C 
ENDROOT
BRANCH   1   2
ATOM      2  C   UNL A   1      37.675  24.175  26.627  1.00  0.00     0.021 C 
BRANCH   2   3
ATOM      3  C   UNL A   1      36.392  23.997  25.837  1.00  0.00     0.116 C 
BRANCH   3   4
ATOM      4  N   UNL A   1      36.679  23.579  24.490  1.00  0.00    -0.354 N 
ATOM      5  C   UNL A   1      35.863  23.161  23.502  1.00  0.00     0.242 C 
ATOM      6  O   UNL A   1      36.395  22.955  22.405  1.00  0.00    -0.273 OA
ATOM      7  H   UNL A   1      37.633  23.600  24.251  1.00  0.00     0.163 HD
BRANCH   5   8
ATOM      8  C   UNL A   1      34.337  23.058  23.670  1.00  0.00     0.173 C 
BRANCH   8   9
ATOM      9  C   UNL A   1      33.837  21.723  24.280  1.00  0.00     0.015 C 
ATOM     10  C   UNL A   1      34.906  20.706  24.671  1.00  0.00     0.010 C 
ATOM     11  C   UNL A   1      32.924  21.958  25.491  1.00  0.00     0.010 C 
ENDBRANCH   8   9
BRANCH   8  12
ATOM     12  N   UNL A   1      33.507  23.558  22.578  1.00  0.00    -0.342 N 
ATOM     13  C   UNL A   1      33.020  24.813  22.357  1.00  0.00     0.244 C 
ATOM     14  H   UNL A   1      33.261  22.889  21.899  1.00  0.00     0.164 HD
ATOM     15  O   UNL A   1      32.693  25.046  21.185  1.00  0.00    -0.273 OA
BRANCH  13  16
ATOM     16  C   UNL A   1      33.022  25.972  23.391  1.00  0.00     0.189 C 
BRANCH  16  17
ATOM     17  N   UNL A   1      32.116  27.122  23.113  1.00  0.00    -0.247 N 
ATOM     18  C   UNL A   1      32.589  28.339  22.665  1.00  0.00     0.329 A 
ATOM     19  C   UNL A   1      30.750  26.887  23.321  1.00  0.00     0.264 A 
ATOM     20  O   UNL A   1      33.767  28.670  22.552  1.00  0.00    -0.248 OA
ATOM     21  N   UNL A   1      31.688  29.305  22.363  1.00  0.00    -0.307 N 
ATOM     22  C   UNL A   1      29.807  27.975  22.981  1.00  0.00     0.064 A 
ATOM     23  O   UNL A   1      30.294  25.835  23.764  1.00  0.00    -0.268 OA
ATOM     24  C   UNL A   1      30.323  29.168  22.500  1.00  0.00     0.055 A 
ATOM     25  H   UNL A   1      32.031  30.164  22.024  1.00  0.00     0.171 HD
ATOM     26  C   UNL A   1      28.427  27.836  23.133  1.00  0.00     0.016 A 
ATOM     27  C   UNL A   1      29.492  30.234  22.166  1.00  0.00     0.027 A 
ATOM     28  C   UNL A   1      27.583  28.898  22.795  1.00  0.00     0.001 A 
ATOM     29  C   UNL A   1      28.115  30.096  22.312  1.00  0.00     0.002 A 
ENDBRANCH  16  17
BRANCH  16  30
ATOM     30  C   UNL A   1      33.030  25.388  24.837  1.00  0.00     0.071 C 
BRANCH  30  31
ATOM     31  C   UNL A   1      33.054  26.461  25.910  1.00  0.00    -0.045 A 
ATOM     32  C   UNL A   1      31.909  26.672  26.692  1.00  0.00     0.004 A 
ATOM     33  C   UNL A   1      34.103  27.383  25.983  1.00  0.00     0.004 A 
ATOM     34  C   UNL A   1      31.714  27.889  27.339  1.00  0.00     0.000 A 
ATOM     35  C   UNL A   1      33.932  28.574  26.689  1.00  0.00     0.000 A 
ATOM     36  C   UNL A   1      32.717  28.850  27.319  1.00  0.00     0.000 A 
ENDBRANCH  30  31
ENDBRANCH  16  30
ENDBRANCH  13  16
ENDBRANCH   8  12
ENDBRANCH   5   8
ENDBRANCH   3   4
ENDBRANCH   2   3
ENDBRANCH   1   2
BRANCH   1  37
ATOM     37  C   UNL A   1      39.621  22.466  26.722  1.00  0.00     0.002 C 
BRANCH  37  38
ATOM     38  C   UNL A   1      39.651  21.098  26.036  1.00  0.00     0.021 C 
BRANCH  38  39
ATOM     39  C   UNL A   1      40.150  19.968  26.919  1.00  0.00     0.116 C 
BRANCH  39  40
ATOM     40  N   UNL A   1      41.169  19.174  26.258  1.00  0.00    -0.352 N 
ATOM     41  C   UNL A   1      42.368  19.594  25.753  1.00  0.00     0.251 C 
ATOM     42  H   UNL A   1      40.973  18.215  26.160  1.00  0.00     0.163 HD
ATOM     43  O   UNL A   1      43.043  18.841  25.052  1.00  0.00    -0.269 OA
BRANCH  41  44
ATOM     44  C   UNL A   1      42.827  20.964  26.044  1.00  0.00     0.039 A 
ATOM     45  C   UNL A   1      42.930  21.878  24.996  1.00  0.00     0.014 A 
ATOM     46  C   UNL A   1      43.136  21.345  27.355  1.00  0.00     0.014 A 
ATOM     47  C   UNL A   1      43.331  23.185  25.266  1.00  0.00     0.010 A 
ATOM     48  C   UNL A   1      43.443  22.670  27.633  1.00  0.00     0.010 A 
ATOM     49  C   UNL A   1      43.578  23.594  26.587  1.00  0.00    -0.014 A 
BRANCH  49  50
ATOM     50  C   UNL A   1      44.033  24.972  26.888  1.00  0.00     0.031 A 
ATOM     51  C   UNL A   1      43.062  25.967  27.468  1.00  0.00     0.074 A 
ATOM     52  C   UNL A   1      45.295  25.340  26.594  1.00  0.00     0.049 A 
ATOM     53  N   UNL A   1      43.252  27.224  27.769  1.00  0.00    -0.248 NA
ATOM     54  C   UNL A   1      41.688  25.494  27.718  1.00  0.00     0.031 C 
ATOM     55  C   UNL A   1      46.304  24.481  25.969  1.00  0.00     0.029 A 
ATOM     56  N   UNL A   1      45.938  26.538  26.768  1.00  0.00    -0.354 N 
ATOM     57  C   UNL A   1      42.022  27.699  28.209  1.00  0.00     0.074 A 
ATOM     58  C   UNL A   1      41.080  26.610  28.091  1.00  0.00     0.031 C 
ATOM     59  C   UNL A   1      47.444  25.179  25.824  1.00  0.00     0.029 A 
ATOM     60  C   UNL A   1      47.237  26.537  26.315  1.00  0.00     0.049 A 
ATOM     61  H   UNL A   1      45.512  27.325  27.178  1.00  0.00     0.167 HD
ATOM     62  C   UNL A   1      41.712  28.920  28.703  1.00  0.00     0.034 A 
ATOM     63  C   UNL A   1      48.153  27.525  26.294  1.00  0.00     0.034 A 
ATOM     64  C   UNL A   1      42.663  29.986  28.854  1.00  0.00     0.049 A 
ATOM     65  C   UNL A   1      47.788  28.866  26.871  1.00  0.00     0.074 A 
ATOM     66  C   UNL A   1      42.470  31.240  29.404  1.00  0.00     0.029 A 
ATOM     67  N   UNL A   1      43.987  29.923  28.451  1.00  0.00    -0.354 N 
ATOM     68  N   UNL A   1      46.656  29.254  27.408  1.00  0.00    -0.248 NA
ATOM     69  C   UNL A   1      48.837  29.894  26.875  1.00  0.00     0.031 C 
ATOM     70  C   UNL A   1      43.672  31.947  29.307  1.00  0.00     0.029 A 
ATOM     71  C   UNL A   1      44.625  31.117  28.737  1.00  0.00     0.049 A 
ATOM     72  H   UNL A   1      44.413  29.145  28.025  1.00  0.00     0.167 HD
ATOM     73  C   UNL A   1      46.873  30.551  27.860  1.00  0.00     0.074 A 
ATOM     74  C   UNL A   1      48.249  30.876  27.544  1.00  0.00     0.031 C 
ATOM     75  C   UNL A   1      46.012  31.400  28.471  1.00  0.00     0.034 A 
BRANCH  62  76
ATOM     76  C   UNL A   1      40.295  29.151  29.160  1.00  0.00     0.023 A 
ATOM     77  C   UNL A   1      39.297  29.462  28.213  1.00  0.00     0.012 A 
ATOM     78  C   UNL A   1      39.937  29.008  30.515  1.00  0.00     0.148 A 
ATOM     79  C   UNL A   1      37.976  29.666  28.610  1.00  0.00     0.002 A 
ATOM     80  C   UNL A   1      38.610  29.162  30.896  1.00  0.00     0.091 A 
ATOM     81  F   UNL A   1      40.902  28.732  31.404  1.00  0.00    -0.205 F 
ATOM     82  C   UNL A   1      37.631  29.505  29.948  1.00  0.00     0.022 A 
BRANCH  80  83
ATOM     83  S   UNL A   1      38.046  28.893  32.580  1.00  0.00     0.127 S 
ATOM     84  O   UNL A   1      36.652  29.329  32.498  1.00  0.00    -0.237 OA
ATOM     85  O   UNL A   1      38.224  27.449  32.735  1.00  0.00    -0.237 OA
ATOM     86  O   UNL A   1      38.904  29.709  33.428  1.00  0.00    -0.744 OA
ENDBRANCH  80  83
ENDBRANCH  62  76
BRANCH  63  87
ATOM     87  C   UNL A   1      49.524  27.268  25.768  1.00  0.00     0.023 A 
ATOM     88  C   UNL A   1      50.532  26.826  26.647  1.00  0.00     0.012 A 
ATOM     89  C   UNL A   1      49.834  27.455  24.408  1.00  0.00     0.148 A 
ATOM     90  C   UNL A   1      51.835  26.621  26.191  1.00  0.00     0.002 A 
ATOM     91  C   UNL A   1      51.120  27.194  23.949  1.00  0.00     0.091 A 
ATOM     92  F   UNL A   1      48.863  27.881  23.587  1.00  0.00    -0.205 F 
ATOM     93  C   UNL A   1      52.127  26.797  24.842  1.00  0.00     0.022 A 
BRANCH  91  94
ATOM     94  S   UNL A   1      51.556  27.272  22.208  1.00  0.00     0.127 S 
ATOM     95  O   UNL A   1      51.932  28.674  22.056  1.00  0.00    -0.237 OA
ATOM     96  O   UNL A   1      52.667  26.323  22.133  1.00  0.00    -0.237 OA
ATOM     97  O   UNL A   1      50.362  26.855  21.485  1.00  0.00    -0.744 OA
ENDBRANCH  91  94
ENDBRANCH  63  87
BRANCH  75  98
ATOM     98  C   UNL A   1      46.541  32.741  28.906  1.00  0.00     0.023 A 
ATOM     99  C   UNL A   1      47.118  32.898  30.181  1.00  0.00     0.012 A 
ATOM    100  C   UNL A   1      46.527  33.832  28.014  1.00  0.00     0.148 A 
ATOM    101  C   UNL A   1      47.639  34.130  30.575  1.00  0.00     0.002 A 
ATOM    102  C   UNL A   1      47.098  35.040  28.392  1.00  0.00     0.091 A 
ATOM    103  F   UNL A   1      45.956  33.668  26.810  1.00  0.00    -0.205 F 
ATOM    104  C   UNL A   1      47.640  35.195  29.677  1.00  0.00     0.022 A 
BRANCH 102 105
ATOM    105  S   UNL A   1      47.237  36.432  27.267  1.00  0.00     0.127 S 
ATOM    106  O   UNL A   1      45.838  36.820  27.098  1.00  0.00    -0.237 OA
ATOM    107  O   UNL A   1      48.043  37.376  28.041  1.00  0.00    -0.237 OA
ATOM    108  O   UNL A   1      47.892  35.919  26.070  1.00  0.00    -0.744 OA
ENDBRANCH 102 105
ENDBRANCH  75  98
ENDBRANCH  49  50
ENDBRANCH  41  44
ENDBRANCH  39  40
ENDBRANCH  38  39
ENDBRANCH  37  38
ENDBRANCH   1  37
TORSDOF 22
ENDMDL
MODEL 3
REMARK VINA RESULT:     -11.7      5.330     10.191
REMARK SMILES CC(C)[C@H](NC(=O)[C@H](Cc1ccccc1)n1c(=O)[nH]c2ccccc2c1=O)C(=O)NCCCCCCNC(=O)c1ccc(-c2c3nc(c(-c4cccc(S(=O)(=O)[O-])c4F)c4ccc([nH]4)c(-c4cccc(S(=O)(=O)[O-])c4F)c4nc(c(-c5cccc(S(=O)(=O)[O-])c5F)c5ccc2[nH]5)C=C4)C=C3)cc1
REMARK SMILES IDX 33 1 32 2 31 3 30 4 28 5 29 6 4 8 2 9 1 10 3 11 5 12 6 13
REMARK SMILES IDX 7 15 8 16 16 17 17 18 26 19 18 20 19 21 25 22 27 23 20 24
REMARK SMILES IDX 24 26 21 27 23 28 22 29 9 30 10 31 11 32 15 33 12 34 14 35
REMARK SMILES IDX 13 36 34 37 35 38 36 39 37 40 38 41 39 43 40 44 41 45 102 46
REMARK SMILES IDX 42 47 101 48 43 49 44 50 45 51 95 52 46 53 100 54 94 55
REMARK SMILES IDX 96 56 47 57 99 58 93 59 92 60 48 62 80 63 60 64 79 65 61 66
REMARK SMILES IDX 64 67 78 68 97 69 62 70 63 71 77 73 98 74 65 75 49 76 50 77
REMARK SMILES IDX 58 78 51 79 53 80 59 81 52 82 54 83 55 84 56 85 57 86 81 87
REMARK SMILES IDX 82 88 90 89 83 90 85 91 91 92 84 93 86 94 87 95 88 96 89 97
REMARK SMILES IDX 66 98 67 99 75 100 68 101 70 102 76 103 69 104 71 105 72 106
REMARK SMILES IDX 73 107 74 108
REMARK H PARENT 30 7 5 14 19 25 37 42 96 61 64 72
REMARK Flexibility Score: inf
ROOT
ATOM      1  C   UNL A   1      38.006  24.309  26.580  1.00  0.00     0.002 C 
ENDROOT
BRANCH   1   2
ATOM      2  C   UNL A   1      37.038  23.461  25.748  1.00  0.00     0.021 C 
BRANCH   2   3
ATOM      3  C   UNL A   1      35.747  24.180  25.404  1.00  0.00     0.116 C 
BRANCH   3   4
ATOM      4  N   UNL A   1      35.404  23.975  24.022  1.00  0.00    -0.354 N 
ATOM      5  C   UNL A   1      34.363  23.332  23.456  1.00  0.00     0.242 C 
ATOM      6  O   UNL A   1      34.283  23.403  22.223  1.00  0.00    -0.273 OA
ATOM      7  H   UNL A   1      36.039  24.370  23.382  1.00  0.00     0.163 HD
BRANCH   5   8
ATOM      8  C   UNL A   1      33.258  22.649  24.281  1.00  0.00     0.173 C 
BRANCH   8   9
ATOM      9  C   UNL A   1      33.535  21.167  24.639  1.00  0.00     0.015 C 
ATOM     10  C   UNL A   1      33.499  20.803  26.121  1.00  0.00     0.010 C 
ATOM     11  C   UNL A   1      32.599  20.215  23.882  1.00  0.00     0.010 C 
ENDBRANCH   8   9
BRANCH   8  12
ATOM     12  N   UNL A   1      31.875  22.918  23.900  1.00  0.00    -0.342 N 
ATOM     13  C   UNL A   1      31.219  24.108  23.783  1.00  0.00     0.244 C 
ATOM     14  H   UNL A   1      31.334  22.122  23.697  1.00  0.00     0.164 HD
ATOM     15  O   UNL A   1      30.200  24.075  23.078  1.00  0.00    -0.273 OA
BRANCH  13  16
ATOM     16  C   UNL A   1      31.741  25.477  24.300  1.00  0.00     0.189 C 
BRANCH  16  17
ATOM     17  N   UNL A   1      31.204  26.696  23.633  1.00  0.00    -0.247 N 
ATOM     18  C   UNL A   1      31.979  27.485  22.806  1.00  0.00     0.329 A 
ATOM     19  C   UNL A   1      29.856  26.986  23.885  1.00  0.00     0.264 A 
ATOM     20  O   UNL A   1      33.186  27.371  22.608  1.00  0.00    -0.248 OA
ATOM     21  N   UNL A   1      31.389  28.532  22.180  1.00  0.00    -0.307 N 
ATOM     22  C   UNL A   1      29.259  28.142  23.181  1.00  0.00     0.064 A 
ATOM     23  O   UNL A   1      29.146  26.338  24.651  1.00  0.00    -0.268 OA
ATOM     24  C   UNL A   1      30.066  28.885  22.333  1.00  0.00     0.055 A 
ATOM     25  H   UNL A   1      31.943  29.077  21.575  1.00  0.00     0.171 HD
ATOM     26  C   UNL A   1      27.921  28.504  23.348  1.00  0.00     0.016 A 
ATOM     27  C   UNL A   1      29.569  29.988  21.643  1.00  0.00     0.027 A 
ATOM     28  C   UNL A   1      27.411  29.607  22.656  1.00  0.00     0.001 A 
ATOM     29  C   UNL A   1      28.234  30.347  21.804  1.00  0.00     0.002 A 
ENDBRANCH  16  17
BRANCH  16  30
ATOM     30  C   UNL A   1      31.794  25.466  25.858  1.00  0.00     0.071 C 
BRANCH  30  31
ATOM     31  C   UNL A   1      32.360  26.748  26.441  1.00  0.00    -0.045 A 
ATOM     32  C   UNL A   1      31.502  27.632  27.112  1.00  0.00     0.004 A 
ATOM     33  C   UNL A   1      33.658  27.167  26.133  1.00  0.00     0.004 A 
ATOM     34  C   UNL A   1      31.845  28.974  27.253  1.00  0.00     0.000 A 
ATOM     35  C   UNL A   1      34.024  28.499  26.337  1.00  0.00     0.000 A 
ATOM     36  C   UNL A   1      33.098  29.412  26.844  1.00  0.00     0.000 A 
ENDBRANCH  30  31
ENDBRANCH  16  30
ENDBRANCH  13  16
ENDBRANCH   8  12
ENDBRANCH   5   8
ENDBRANCH   3   4
ENDBRANCH   2   3
ENDBRANCH   1   2
BRANCH   1  37
ATOM     37  C   UNL A   1      39.328  23.622  26.951  1.00  0.00     0.002 C 
BRANCH  37  38
ATOM     38  C   UNL A   1      39.524  22.225  26.356  1.00  0.00     0.021 C 
BRANCH  38  39
ATOM     39  C   UNL A   1      40.471  21.339  27.144  1.00  0.00     0.116 C 
BRANCH  39  40
ATOM     40  N   UNL A   1      41.624  20.945  26.356  1.00  0.00    -0.352 N 
ATOM     41  C   UNL A   1      42.682  21.719  25.965  1.00  0.00     0.251 C 
ATOM     42  H   UNL A   1      41.649  20.005  26.067  1.00  0.00     0.163 HD
ATOM     43  O   UNL A   1      43.490  21.293  25.140  1.00  0.00    -0.269 OA
BRANCH  41  44
ATOM     44  C   UNL A   1      42.824  23.073  26.530  1.00  0.00     0.039 A 
ATOM     45  C   UNL A   1      42.652  24.175  25.692  1.00  0.00     0.014 A 
ATOM     46  C   UNL A   1      43.111  23.249  27.888  1.00  0.00     0.014 A 
ATOM     47  C   UNL A   1      42.751  25.459  26.223  1.00  0.00     0.010 A 
ATOM     48  C   UNL A   1      43.117  24.526  28.431  1.00  0.00     0.010 A 
ATOM     49  C   UNL A   1      42.972  25.645  27.598  1.00  0.00    -0.014 A 
BRANCH  49  50
ATOM     50  C   UNL A   1      43.110  27.003  28.173  1.00  0.00     0.031 A 
ATOM     51  C   UNL A   1      44.479  27.618  28.310  1.00  0.00     0.074 A 
ATOM     52  C   UNL A   1      42.020  27.658  28.617  1.00  0.00     0.049 A 
ATOM     53  N   UNL A   1      44.816  28.774  28.816  1.00  0.00    -0.248 NA
ATOM     54  C   UNL A   1      45.624  26.815  27.840  1.00  0.00     0.031 C 
ATOM     55  C   UNL A   1      40.652  27.135  28.598  1.00  0.00     0.029 A 
ATOM     56  N   UNL A   1      41.894  28.899  29.186  1.00  0.00    -0.354 N 
ATOM     57  C   UNL A   1      46.204  28.824  28.756  1.00  0.00     0.074 A 
ATOM     58  C   UNL A   1      46.651  27.563  28.211  1.00  0.00     0.031 C 
ATOM     59  C   UNL A   1      39.824  28.055  29.119  1.00  0.00     0.029 A 
ATOM     60  C   UNL A   1      40.603  29.216  29.537  1.00  0.00     0.049 A 
ATOM     61  H   UNL A   1      42.655  29.506  29.329  1.00  0.00     0.167 HD
ATOM     62  C   UNL A   1      47.031  29.842  29.091  1.00  0.00     0.034 A 
ATOM     63  C   UNL A   1      40.108  30.317  30.134  1.00  0.00     0.034 A 
ATOM     64  C   UNL A   1      46.576  31.108  29.596  1.00  0.00     0.049 A 
ATOM     65  C   UNL A   1      41.047  31.444  30.473  1.00  0.00     0.074 A 
ATOM     66  C   UNL A   1      47.323  32.230  29.903  1.00  0.00     0.029 A 
ATOM     67  N   UNL A   1      45.254  31.418  29.869  1.00  0.00    -0.354 N 
ATOM     68  N   UNL A   1      42.343  31.524  30.283  1.00  0.00    -0.248 NA
ATOM     69  C   UNL A   1      40.452  32.646  31.072  1.00  0.00     0.031 C 
ATOM     70  C   UNL A   1      46.455  33.211  30.391  1.00  0.00     0.029 A 
ATOM     71  C   UNL A   1      45.161  32.714  30.346  1.00  0.00     0.049 A 
ATOM     72  H   UNL A   1      44.492  30.808  29.743  1.00  0.00     0.167 HD
ATOM     73  C   UNL A   1      42.708  32.803  30.691  1.00  0.00     0.074 A 
ATOM     74  C   UNL A   1      41.494  33.463  31.126  1.00  0.00     0.031 C 
ATOM     75  C   UNL A   1      43.936  33.375  30.715  1.00  0.00     0.034 A 
BRANCH  62  76
ATOM     76  C   UNL A   1      48.509  29.644  28.874  1.00  0.00     0.023 A 
ATOM     77  C   UNL A   1      49.299  29.101  29.909  1.00  0.00     0.012 A 
ATOM     78  C   UNL A   1      49.107  29.942  27.634  1.00  0.00     0.148 A 
ATOM     79  C   UNL A   1      50.666  28.894  29.727  1.00  0.00     0.002 A 
ATOM     80  C   UNL A   1      50.459  29.685  27.444  1.00  0.00     0.091 A 
ATOM     81  F   UNL A   1      48.345  30.476  26.669  1.00  0.00    -0.205 F 
ATOM     82  C   UNL A   1      51.243  29.175  28.492  1.00  0.00     0.022 A 
BRANCH  80  83
ATOM     83  S   UNL A   1      51.281  29.933  25.866  1.00  0.00     0.127 S 
ATOM     84  O   UNL A   1      52.667  29.606  26.201  1.00  0.00    -0.237 OA
ATOM     85  O   UNL A   1      50.612  28.947  25.016  1.00  0.00    -0.237 OA
ATOM     86  O   UNL A   1      51.040  31.320  25.498  1.00  0.00    -0.744 OA
ENDBRANCH  80  83
ENDBRANCH  62  76
BRANCH  63  87
ATOM     87  C   UNL A   1      38.645  30.441  30.390  1.00  0.00     0.023 A 
ATOM     88  C   UNL A   1      38.066  29.734  31.462  1.00  0.00     0.012 A 
ATOM     89  C   UNL A   1      37.825  31.251  29.582  1.00  0.00     0.148 A 
ATOM     90  C   UNL A   1      36.692  29.795  31.698  1.00  0.00     0.002 A 
ATOM     91  C   UNL A   1      36.466  31.353  29.856  1.00  0.00     0.091 A 
ATOM     92  F   UNL A   1      38.392  31.912  28.563  1.00  0.00    -0.205 F 
ATOM     93  C   UNL A   1      35.894  30.610  30.900  1.00  0.00     0.022 A 
BRANCH  91  94
ATOM     94  S   UNL A   1      35.384  32.475  28.964  1.00  0.00     0.127 S 
ATOM     95  O   UNL A   1      36.095  33.744  29.094  1.00  0.00    -0.237 OA
ATOM     96  O   UNL A   1      35.393  31.897  27.620  1.00  0.00    -0.237 OA
ATOM     97  O   UNL A   1      34.096  32.400  29.639  1.00  0.00    -0.744 OA
ENDBRANCH  91  94
ENDBRANCH  63  87
BRANCH  75  98
ATOM     98  C   UNL A   1      44.031  34.811  31.160  1.00  0.00     0.023 A 
ATOM     99  C   UNL A   1      44.290  35.121  32.509  1.00  0.00     0.012 A 
ATOM    100  C   UNL A   1      43.932  35.853  30.217  1.00  0.00     0.148 A 
ATOM    101  C   UNL A   1      44.411  36.448  32.919  1.00  0.00     0.002 A 
ATOM    102  C   UNL A   1      44.110  37.169  30.622  1.00  0.00     0.091 A 
ATOM    103  F   UNL A   1      43.668  35.538  28.940  1.00  0.00    -0.205 F 
ATOM    104  C   UNL A   1      44.334  37.469  31.975  1.00  0.00     0.022 A 
BRANCH 102 105
ATOM    105  S   UNL A   1      44.131  38.539  29.462  1.00  0.00     0.127 S 
ATOM    106  O   UNL A   1      42.794  38.455  28.878  1.00  0.00    -0.237 OA
ATOM    107  O   UNL A   1      44.342  39.688  30.343  1.00  0.00    -0.237 OA
ATOM    108  O   UNL A   1      45.231  38.273  28.543  1.00  0.00    -0.744 OA
ENDBRANCH 102 105
ENDBRANCH  75  98
ENDBRANCH  49  50
ENDBRANCH  41  44
ENDBRANCH  39  40
ENDBRANCH  38  39
ENDBRANCH  37  38
ENDBRANCH   1  37
TORSDOF 22
ENDMDL
