MODEL 1
REMARK VINA RESULT:     -11.7      0.000      0.000
REMARK SMILES CC(C)[C@@H](ON1C(=O)c2ccccc2C1=O)C(=O)NCCCCCCNC(=O)c1ccc(-c2c3nc(c(-c4cccc(S(=O)(=O)[O-])c4F)c4ccc([nH]4)c(-c4cccc(S(=O)(=O)[O-])c4F)c4nc(c(-c5cccc(S(=O)(=O)[O-])c5F)c5ccc2[nH]5)C=C4)C=C3)cc1
REMARK SMILES IDX 23 1 22 2 21 3 20 4 19 5 17 6 18 7 4 9 2 10 1 11 3 12 5 13
REMARK SMILES IDX 6 14 7 15 15 16 8 17 9 18 14 19 16 20 10 21 13 22 11 23
REMARK SMILES IDX 12 24 24 25 25 26 26 27 27 28 28 30 29 31 30 32 91 33 31 34
REMARK SMILES IDX 90 35 32 36 33 37 34 38 84 39 35 40 89 41 83 42 85 43 36 44
REMARK SMILES IDX 88 45 82 46 81 47 37 49 69 50 49 51 68 52 50 53 53 54 67 55
REMARK SMILES IDX 86 56 51 57 52 58 66 60 87 61 54 62 38 63 39 64 47 65 40 66
REMARK SMILES IDX 42 67 48 68 41 69 43 70 44 71 45 72 46 73 70 74 71 75 79 76
REMARK SMILES IDX 72 77 74 78 80 79 73 80 75 81 76 82 77 83 78 84 55 85 56 86
REMARK SMILES IDX 64 87 57 88 59 89 65 90 58 91 60 92 61 93 62 94 63 95
REMARK H PARENT 19 8 26 29 85 48 53 59
REMARK Flexibility Score: inf
ROOT
ATOM      1  C   UNL A   1      31.531  30.905  25.926  1.00  0.00     0.002 C 
ENDROOT
BRANCH   1   2
ATOM      2  C   UNL A   1      31.847  29.691  26.804  1.00  0.00     0.002 C 
BRANCH   2   3
ATOM      3  C   UNL A   1      31.603  28.330  26.143  1.00  0.00     0.021 C 
BRANCH   3   4
ATOM      4  C   UNL A   1      32.306  27.157  26.832  1.00  0.00     0.116 C 
BRANCH   4   5
ATOM      5  N   UNL A   1      31.488  25.957  26.778  1.00  0.00    -0.354 N 
ATOM      6  C   UNL A   1      31.254  25.093  25.743  1.00  0.00     0.252 C 
ATOM      7  O   UNL A   1      30.472  24.159  25.947  1.00  0.00    -0.272 OA
ATOM      8  H   UNL A   1      31.029  25.728  27.620  1.00  0.00     0.163 HD
BRANCH   6   9
ATOM      9  C   UNL A   1      31.924  25.286  24.365  1.00  0.00     0.241 C 
BRANCH   9  10
ATOM     10  C   UNL A   1      32.986  24.177  24.101  1.00  0.00     0.024 C 
ATOM     11  C   UNL A   1      32.858  23.428  22.774  1.00  0.00     0.011 C 
ATOM     12  C   UNL A   1      34.399  24.774  24.177  1.00  0.00     0.011 C 
ENDBRANCH   9  10
BRANCH   9  13
ATOM     13  O   UNL A   1      30.791  25.368  23.486  1.00  0.00    -0.249 OA
BRANCH  13  14
ATOM     14  N   UNL A   1      30.329  26.659  23.257  1.00  0.00    -0.144 N 
ATOM     15  C   UNL A   1      31.004  27.705  22.719  1.00  0.00     0.285 C 
ATOM     16  C   UNL A   1      29.043  26.956  23.607  1.00  0.00     0.285 C 
ATOM     17  O   UNL A   1      32.160  27.819  22.354  1.00  0.00    -0.266 OA
ATOM     18  C   UNL A   1      30.008  28.766  22.569  1.00  0.00     0.055 A 
ATOM     19  C   UNL A   1      28.822  28.322  23.135  1.00  0.00     0.055 A 
ATOM     20  O   UNL A   1      28.194  26.275  24.149  1.00  0.00    -0.266 OA
ATOM     21  C   UNL A   1      30.092  29.973  21.903  1.00  0.00     0.015 A 
ATOM     22  C   UNL A   1      27.666  29.074  23.099  1.00  0.00     0.015 A 
ATOM     23  C   UNL A   1      28.927  30.744  21.834  1.00  0.00     0.001 A 
ATOM     24  C   UNL A   1      27.729  30.304  22.434  1.00  0.00     0.001 A 
ENDBRANCH  13  14
ENDBRANCH   9  13
ENDBRANCH   6   9
ENDBRANCH   4   5
ENDBRANCH   3   4
ENDBRANCH   2   3
ENDBRANCH   1   2
BRANCH   1  25
ATOM     25  C   UNL A   1      31.365  32.227  26.680  1.00  0.00     0.021 C 
BRANCH  25  26
ATOM     26  C   UNL A   1      32.653  32.795  27.269  1.00  0.00     0.116 C 
BRANCH  26  27
ATOM     27  N   UNL A   1      32.502  34.182  27.677  1.00  0.00    -0.352 N 
ATOM     28  C   UNL A   1      33.135  34.862  28.687  1.00  0.00     0.251 C 
ATOM     29  H   UNL A   1      31.855  34.709  27.154  1.00  0.00     0.163 HD
ATOM     30  O   UNL A   1      32.741  35.980  29.011  1.00  0.00    -0.269 OA
BRANCH  28  31
ATOM     31  C   UNL A   1      34.280  34.246  29.392  1.00  0.00     0.039 A 
ATOM     32  C   UNL A   1      34.032  33.410  30.486  1.00  0.00     0.014 A 
ATOM     33  C   UNL A   1      35.594  34.512  28.999  1.00  0.00     0.014 A 
ATOM     34  C   UNL A   1      35.101  32.818  31.163  1.00  0.00     0.010 A 
ATOM     35  C   UNL A   1      36.653  33.866  29.631  1.00  0.00     0.010 A 
ATOM     36  C   UNL A   1      36.420  33.029  30.732  1.00  0.00    -0.014 A 
BRANCH  36  37
ATOM     37  C   UNL A   1      37.572  32.413  31.440  1.00  0.00     0.031 A 
ATOM     38  C   UNL A   1      38.319  31.269  30.804  1.00  0.00     0.074 A 
ATOM     39  C   UNL A   1      37.901  32.830  32.678  1.00  0.00     0.049 A 
ATOM     40  N   UNL A   1      39.309  30.561  31.284  1.00  0.00    -0.248 NA
ATOM     41  C   UNL A   1      37.877  30.847  29.464  1.00  0.00     0.031 C 
ATOM     42  C   UNL A   1      37.212  33.881  33.430  1.00  0.00     0.029 A 
ATOM     43  N   UNL A   1      38.888  32.404  33.533  1.00  0.00    -0.354 N 
ATOM     44  C   UNL A   1      39.583  29.592  30.327  1.00  0.00     0.074 A 
ATOM     45  C   UNL A   1      38.631  29.777  29.253  1.00  0.00     0.031 C 
ATOM     46  C   UNL A   1      37.798  34.020  34.631  1.00  0.00     0.029 A 
ATOM     47  C   UNL A   1      38.888  33.055  34.744  1.00  0.00     0.049 A 
ATOM     48  H   UNL A   1      39.533  31.698  33.301  1.00  0.00     0.167 HD
ATOM     49  C   UNL A   1      40.561  28.655  30.320  1.00  0.00     0.034 A 
ATOM     50  C   UNL A   1      39.678  32.893  35.824  1.00  0.00     0.034 A 
ATOM     51  C   UNL A   1      41.540  28.508  31.363  1.00  0.00     0.049 A 
ATOM     52  C   UNL A   1      40.790  31.878  35.768  1.00  0.00     0.074 A 
ATOM     53  C   UNL A   1      42.613  27.637  31.419  1.00  0.00     0.029 A 
ATOM     54  N   UNL A   1      41.569  29.257  32.529  1.00  0.00    -0.354 N 
ATOM     55  N   UNL A   1      41.121  31.068  34.793  1.00  0.00    -0.248 NA
ATOM     56  C   UNL A   1      41.664  31.786  36.948  1.00  0.00     0.031 C 
ATOM     57  C   UNL A   1      43.287  27.852  32.626  1.00  0.00     0.029 A 
ATOM     58  C   UNL A   1      42.645  28.872  33.309  1.00  0.00     0.049 A 
ATOM     59  H   UNL A   1      40.921  29.958  32.766  1.00  0.00     0.167 HD
ATOM     60  C   UNL A   1      42.266  30.405  35.220  1.00  0.00     0.074 A 
ATOM     61  C   UNL A   1      42.581  30.920  36.537  1.00  0.00     0.031 C 
ATOM     62  C   UNL A   1      42.985  29.445  34.586  1.00  0.00     0.034 A 
BRANCH  49  63
ATOM     63  C   UNL A   1      40.661  27.755  29.115  1.00  0.00     0.023 A 
ATOM     64  C   UNL A   1      39.769  26.670  28.986  1.00  0.00     0.012 A 
ATOM     65  C   UNL A   1      41.588  28.011  28.087  1.00  0.00     0.148 A 
ATOM     66  C   UNL A   1      39.821  25.833  27.873  1.00  0.00     0.002 A 
ATOM     67  C   UNL A   1      41.604  27.199  26.958  1.00  0.00     0.091 A 
ATOM     68  F   UNL A   1      42.441  29.035  28.234  1.00  0.00    -0.205 F 
ATOM     69  C   UNL A   1      40.731  26.104  26.855  1.00  0.00     0.022 A 
BRANCH  67  70
ATOM     70  S   UNL A   1      42.685  27.508  25.557  1.00  0.00     0.127 S 
ATOM     71  O   UNL A   1      43.933  27.878  26.222  1.00  0.00    -0.237 OA
ATOM     72  O   UNL A   1      42.712  26.203  24.894  1.00  0.00    -0.237 OA
ATOM     73  O   UNL A   1      42.050  28.567  24.785  1.00  0.00    -0.744 OA
ENDBRANCH  67  70
ENDBRANCH  49  63
BRANCH  50  74
ATOM     74  C   UNL A   1      39.506  33.769  37.018  1.00  0.00     0.023 A 
ATOM     75  C   UNL A   1      39.992  35.090  36.978  1.00  0.00     0.012 A 
ATOM     76  C   UNL A   1      38.856  33.311  38.181  1.00  0.00     0.148 A 
ATOM     77  C   UNL A   1      39.872  35.928  38.087  1.00  0.00     0.002 A 
ATOM     78  C   UNL A   1      38.692  34.168  39.264  1.00  0.00     0.091 A 
ATOM     79  F   UNL A   1      38.411  32.048  38.206  1.00  0.00    -0.205 F 
ATOM     80  C   UNL A   1      39.214  35.471  39.226  1.00  0.00     0.022 A 
BRANCH  78  81
ATOM     81  S   UNL A   1      37.751  33.703  40.721  1.00  0.00     0.127 S 
ATOM     82  O   UNL A   1      38.675  32.797  41.398  1.00  0.00    -0.237 OA
ATOM     83  O   UNL A   1      37.558  34.994  41.384  1.00  0.00    -0.237 OA
ATOM     84  O   UNL A   1      36.525  33.101  40.217  1.00  0.00    -0.744 OA
ENDBRANCH  78  81
ENDBRANCH  50  74
BRANCH  62  85
ATOM     85  C   UNL A   1      44.218  28.923  35.276  1.00  0.00     0.023 A 
ATOM     86  C   UNL A   1      45.470  29.517  35.024  1.00  0.00     0.012 A 
ATOM     87  C   UNL A   1      44.119  27.893  36.234  1.00  0.00     0.148 A 
ATOM     88  C   UNL A   1      46.610  29.073  35.691  1.00  0.00     0.002 A 
ATOM     89  C   UNL A   1      45.252  27.490  36.930  1.00  0.00     0.091 A 
ATOM     90  F   UNL A   1      42.922  27.327  36.444  1.00  0.00    -0.205 F 
ATOM     91  C   UNL A   1      46.500  28.070  36.652  1.00  0.00     0.022 A 
BRANCH  89  92
ATOM     92  S   UNL A   1      45.183  26.275  38.250  1.00  0.00     0.127 S 
ATOM     93  O   UNL A   1      44.161  26.843  39.127  1.00  0.00    -0.237 OA
ATOM     94  O   UNL A   1      44.771  25.063  37.539  1.00  0.00    -0.237 OA
ATOM     95  O   UNL A   1      46.527  26.215  38.809  1.00  0.00    -0.744 OA
ENDBRANCH  89  92
ENDBRANCH  62  85
ENDBRANCH  36  37
ENDBRANCH  28  31
ENDBRANCH  26  27
ENDBRANCH  25  26
ENDBRANCH   1  25
TORSDOF 19
ENDMDL
MODEL 2
REMARK VINA RESULT:     -11.6      3.637      8.833
REMARK SMILES CC(C)[C@@H](ON1C(=O)c2ccccc2C1=O)C(=O)NCCCCCCNC(=O)c1ccc(-c2c3nc(c(-c4cccc(S(=O)(=O)[O-])c4F)c4ccc([nH]4)c(-c4cccc(S(=O)(=O)[O-])c4F)c4nc(c(-c5cccc(S(=O)(=O)[O-])c5F)c5ccc2[nH]5)C=C4)C=C3)cc1
REMARK SMILES IDX 23 1 22 2 21 3 20 4 19 5 17 6 18 7 4 9 2 10 1 11 3 12 5 13
REMARK SMILES IDX 6 14 7 15 15 16 8 17 9 18 14 19 16 20 10 21 13 22 11 23
REMARK SMILES IDX 12 24 24 25 25 26 26 27 27 28 28 30 29 31 30 32 91 33 31 34
REMARK SMILES IDX 90 35 32 36 33 37 34 38 84 39 35 40 89 41 83 42 85 43 36 44
REMARK SMILES IDX 88 45 82 46 81 47 37 49 69 50 49 51 68 52 50 53 53 54 67 55
REMARK SMILES IDX 86 56 51 57 52 58 66 60 87 61 54 62 38 63 39 64 47 65 40 66
REMARK SMILES IDX 42 67 48 68 41 69 43 70 44 71 45 72 46 73 70 74 71 75 79 76
REMARK SMILES IDX 72 77 74 78 80 79 73 80 75 81 76 82 77 83 78 84 55 85 56 86
REMARK SMILES IDX 64 87 57 88 59 89 65 90 58 91 60 92 61 93 62 94 63 95
REMARK H PARENT 19 8 26 29 85 48 53 59
REMARK Flexibility Score: inf
ROOT
ATOM      1  C   UNL A   1      33.550  26.435  25.266  1.00  0.00     0.002 C 
ENDROOT
BRANCH   1   2
ATOM      2  C   UNL A   1      34.140  25.111  25.759  1.00  0.00     0.002 C 
BRANCH   2   3
ATOM      3  C   UNL A   1      35.148  24.455  24.808  1.00  0.00     0.021 C 
BRANCH   3   4
ATOM      4  C   UNL A   1      35.021  22.933  24.704  1.00  0.00     0.116 C 
BRANCH   4   5
ATOM      5  N   UNL A   1      34.680  22.351  25.992  1.00  0.00    -0.354 N 
ATOM      6  C   UNL A   1      33.808  21.343  26.302  1.00  0.00     0.252 C 
ATOM      7  O   UNL A   1      33.664  21.062  27.496  1.00  0.00    -0.272 OA
ATOM      8  H   UNL A   1      35.149  22.744  26.763  1.00  0.00     0.163 HD
BRANCH   6   9
ATOM      9  C   UNL A   1      33.017  20.595  25.206  1.00  0.00     0.241 C 
BRANCH   9  10
ATOM     10  C   UNL A   1      33.346  19.073  25.222  1.00  0.00     0.024 C 
ATOM     11  C   UNL A   1      32.365  18.167  24.477  1.00  0.00     0.011 C 
ATOM     12  C   UNL A   1      34.750  18.833  24.645  1.00  0.00     0.011 C 
ENDBRANCH   9  10
BRANCH   9  13
ATOM     13  O   UNL A   1      31.667  21.003  25.475  1.00  0.00    -0.249 OA
BRANCH  13  14
ATOM     14  N   UNL A   1      31.380  22.318  25.124  1.00  0.00    -0.144 N 
ATOM     15  C   UNL A   1      31.478  22.897  23.903  1.00  0.00     0.285 C 
ATOM     16  C   UNL A   1      30.944  23.167  26.102  1.00  0.00     0.285 C 
ATOM     17  O   UNL A   1      31.878  22.469  22.836  1.00  0.00    -0.266 OA
ATOM     18  C   UNL A   1      30.912  24.236  24.067  1.00  0.00     0.055 A 
ATOM     19  C   UNL A   1      30.613  24.412  25.410  1.00  0.00     0.055 A 
ATOM     20  O   UNL A   1      30.794  22.987  27.295  1.00  0.00    -0.266 OA
ATOM     21  C   UNL A   1      30.583  25.182  23.117  1.00  0.00     0.015 A 
ATOM     22  C   UNL A   1      30.004  25.556  25.882  1.00  0.00     0.015 A 
ATOM     23  C   UNL A   1      29.945  26.342  23.568  1.00  0.00     0.001 A 
ATOM     24  C   UNL A   1      29.668  26.532  24.938  1.00  0.00     0.001 A 
ENDBRANCH  13  14
ENDBRANCH   9  13
ENDBRANCH   6   9
ENDBRANCH   4   5
ENDBRANCH   3   4
ENDBRANCH   2   3
ENDBRANCH   1   2
BRANCH   1  25
ATOM     25  C   UNL A   1      33.635  27.595  26.262  1.00  0.00     0.021 C 
BRANCH  25  26
ATOM     26  C   UNL A   1      34.296  28.858  25.718  1.00  0.00     0.116 C 
BRANCH  26  27
ATOM     27  N   UNL A   1      33.897  30.045  26.457  1.00  0.00    -0.352 N 
ATOM     28  C   UNL A   1      34.468  30.604  27.573  1.00  0.00     0.251 C 
ATOM     29  H   UNL A   1      33.106  30.516  26.107  1.00  0.00     0.163 HD
ATOM     30  O   UNL A   1      33.882  31.499  28.176  1.00  0.00    -0.269 OA
BRANCH  28  31
ATOM     31  C   UNL A   1      35.781  30.121  28.055  1.00  0.00     0.039 A 
ATOM     32  C   UNL A   1      35.847  29.449  29.280  1.00  0.00     0.014 A 
ATOM     33  C   UNL A   1      36.947  30.354  27.321  1.00  0.00     0.014 A 
ATOM     34  C   UNL A   1      37.077  28.984  29.751  1.00  0.00     0.010 A 
ATOM     35  C   UNL A   1      38.160  29.829  27.758  1.00  0.00     0.010 A 
ATOM     36  C   UNL A   1      38.242  29.157  28.987  1.00  0.00    -0.014 A 
BRANCH  36  37
ATOM     37  C   UNL A   1      39.562  28.675  29.470  1.00  0.00     0.031 A 
ATOM     38  C   UNL A   1      40.270  29.412  30.578  1.00  0.00     0.074 A 
ATOM     39  C   UNL A   1      40.156  27.625  28.871  1.00  0.00     0.049 A 
ATOM     40  N   UNL A   1      41.449  29.187  31.097  1.00  0.00    -0.248 NA
ATOM     41  C   UNL A   1      39.572  30.572  31.160  1.00  0.00     0.031 C 
ATOM     42  C   UNL A   1      39.605  26.871  27.743  1.00  0.00     0.029 A 
ATOM     43  N   UNL A   1      41.366  27.024  29.112  1.00  0.00    -0.354 N 
ATOM     44  C   UNL A   1      41.650  30.192  32.036  1.00  0.00     0.074 A 
ATOM     45  C   UNL A   1      40.487  31.052  31.990  1.00  0.00     0.031 C 
ATOM     46  C   UNL A   1      40.473  25.907  27.392  1.00  0.00     0.029 A 
ATOM     47  C   UNL A   1      41.649  25.987  28.254  1.00  0.00     0.049 A 
ATOM     48  H   UNL A   1      41.975  27.308  29.831  1.00  0.00     0.167 HD
ATOM     49  C   UNL A   1      42.689  30.367  32.887  1.00  0.00     0.034 A 
ATOM     50  C   UNL A   1      42.733  25.191  28.172  1.00  0.00     0.034 A 
ATOM     51  C   UNL A   1      43.818  29.480  32.969  1.00  0.00     0.049 A 
ATOM     52  C   UNL A   1      43.851  25.375  29.165  1.00  0.00     0.074 A 
ATOM     53  C   UNL A   1      44.888  29.529  33.844  1.00  0.00     0.029 A 
ATOM     54  N   UNL A   1      44.018  28.380  32.151  1.00  0.00    -0.354 N 
ATOM     55  N   UNL A   1      43.955  26.245  30.139  1.00  0.00    -0.248 NA
ATOM     56  C   UNL A   1      44.982  24.439  29.073  1.00  0.00     0.031 C 
ATOM     57  C   UNL A   1      45.743  28.462  33.548  1.00  0.00     0.029 A 
ATOM     58  C   UNL A   1      45.192  27.738  32.503  1.00  0.00     0.049 A 
ATOM     59  H   UNL A   1      43.414  28.097  31.427  1.00  0.00     0.167 HD
ATOM     60  C   UNL A   1      45.135  25.934  30.805  1.00  0.00     0.074 A 
ATOM     61  C   UNL A   1      45.703  24.784  30.131  1.00  0.00     0.031 C 
ATOM     62  C   UNL A   1      45.706  26.552  31.868  1.00  0.00     0.034 A 
BRANCH  49  63
ATOM     63  C   UNL A   1      42.621  31.528  33.845  1.00  0.00     0.023 A 
ATOM     64  C   UNL A   1      43.245  32.746  33.502  1.00  0.00     0.012 A 
ATOM     65  C   UNL A   1      41.898  31.440  35.050  1.00  0.00     0.148 A 
ATOM     66  C   UNL A   1      43.183  33.844  34.358  1.00  0.00     0.002 A 
ATOM     67  C   UNL A   1      41.802  32.554  35.877  1.00  0.00     0.091 A 
ATOM     68  F   UNL A   1      41.327  30.270  35.370  1.00  0.00    -0.205 F 
ATOM     69  C   UNL A   1      42.453  33.752  35.539  1.00  0.00     0.022 A 
BRANCH  67  70
ATOM     70  S   UNL A   1      40.822  32.562  37.383  1.00  0.00     0.127 S 
ATOM     71  O   UNL A   1      39.693  31.713  37.005  1.00  0.00    -0.237 OA
ATOM     72  O   UNL A   1      41.739  31.960  38.352  1.00  0.00    -0.237 OA
ATOM     73  O   UNL A   1      40.495  33.958  37.643  1.00  0.00    -0.744 OA
ENDBRANCH  67  70
ENDBRANCH  49  63
BRANCH  50  74
ATOM     74  C   UNL A   1      42.780  24.089  27.168  1.00  0.00     0.023 A 
ATOM     75  C   UNL A   1      43.490  24.283  25.967  1.00  0.00     0.012 A 
ATOM     76  C   UNL A   1      42.143  22.855  27.397  1.00  0.00     0.148 A 
ATOM     77  C   UNL A   1      43.533  23.283  24.995  1.00  0.00     0.002 A 
ATOM     78  C   UNL A   1      42.233  21.843  26.447  1.00  0.00     0.091 A 
ATOM     79  F   UNL A   1      41.461  22.693  28.540  1.00  0.00    -0.205 F 
ATOM     80  C   UNL A   1      42.912  22.061  25.239  1.00  0.00     0.022 A 
BRANCH  78  81
ATOM     81  S   UNL A   1      41.569  20.199  26.731  1.00  0.00     0.127 S 
ATOM     82  O   UNL A   1      40.161  20.484  26.992  1.00  0.00    -0.237 OA
ATOM     83  O   UNL A   1      41.836  19.537  25.453  1.00  0.00    -0.237 OA
ATOM     84  O   UNL A   1      42.327  19.661  27.852  1.00  0.00    -0.744 OA
ENDBRANCH  78  81
ENDBRANCH  50  74
BRANCH  62  85
ATOM     85  C   UNL A   1      46.984  25.971  32.413  1.00  0.00     0.023 A 
ATOM     86  C   UNL A   1      48.226  26.463  31.968  1.00  0.00     0.012 A 
ATOM     87  C   UNL A   1      46.950  24.991  33.426  1.00  0.00     0.148 A 
ATOM     88  C   UNL A   1      49.415  25.966  32.498  1.00  0.00     0.002 A 
ATOM     89  C   UNL A   1      48.138  24.536  33.985  1.00  0.00     0.091 A 
ATOM     90  F   UNL A   1      45.758  24.521  33.821  1.00  0.00    -0.205 F 
ATOM     91  C   UNL A   1      49.372  25.013  33.514  1.00  0.00     0.022 A 
BRANCH  89  92
ATOM     92  S   UNL A   1      48.170  23.384  35.361  1.00  0.00     0.127 S 
ATOM     93  O   UNL A   1      47.297  24.048  36.327  1.00  0.00    -0.237 OA
ATOM     94  O   UNL A   1      47.609  22.170  34.766  1.00  0.00    -0.237 OA
ATOM     95  O   UNL A   1      49.568  23.269  35.754  1.00  0.00    -0.744 OA
ENDBRANCH  89  92
ENDBRANCH  62  85
ENDBRANCH  36  37
ENDBRANCH  28  31
ENDBRANCH  26  27
ENDBRANCH  25  26
ENDBRANCH   1  25
TORSDOF 19
ENDMDL
MODEL 3
REMARK VINA RESULT:     -11.6      5.480      8.560
REMARK SMILES CC(C)[C@@H](ON1C(=O)c2ccccc2C1=O)C(=O)NCCCCCCNC(=O)c1ccc(-c2c3nc(c(-c4cccc(S(=O)(=O)[O-])c4F)c4ccc([nH]4)c(-c4cccc(S(=O)(=O)[O-])c4F)c4nc(c(-c5cccc(S(=O)(=O)[O-])c5F)c5ccc2[nH]5)C=C4)C=C3)cc1
REMARK SMILES IDX 23 1 22 2 21 3 20 4 19 5 17 6 18 7 4 9 2 10 1 11 3 12 5 13
REMARK SMILES IDX 6 14 7 15 15 16 8 17 9 18 14 19 16 20 10 21 13 22 11 23
REMARK SMILES IDX 12 24 24 25 25 26 26 27 27 28 28 30 29 31 30 32 91 33 31 34
REMARK SMILES IDX 90 35 32 36 33 37 34 38 84 39 35 40 89 41 83 42 85 43 36 44
REMARK SMILES IDX 88 45 82 46 81 47 37 49 69 50 49 51 68 52 50 53 53 54 67 55
REMARK SMILES IDX 86 56 51 57 52 58 66 60 87 61 54 62 38 63 39 64 47 65 40 66
REMARK SMILES IDX 42 67 48 68 41 69 43 70 44 71 45 72 46 73 70 74 71 75 79 76
REMARK SMILES IDX 72 77 74 78 80 79 73 80 75 81 76 82 77 83 78 84 55 85 56 86
REMARK SMILES IDX 64 87 57 88 59 89 65 90 58 91 60 92 61 93 62 94 63 95
REMARK H PARENT 19 8 26 29 85 48 53 59
REMARK Flexibility Score: inf
ROOT
ATOM      1  C   UNL A   1      34.352  21.836  24.263  1.00  0.00     0.002 C 
ENDROOT
BRANCH   1   2
ATOM      2  C   UNL A   1      32.871  21.456  24.195  1.00  0.00     0.002 C 
BRANCH   2   3
ATOM      3  C   UNL A   1      32.073  22.149  23.085  1.00  0.00     0.021 C 
BRANCH   3   4
ATOM      4  C   UNL A   1      31.810  23.637  23.329  1.00  0.00     0.116 C 
BRANCH   4   5
ATOM      5  N   UNL A   1      32.772  24.459  22.614  1.00  0.00    -0.354 N 
ATOM      6  C   UNL A   1      33.160  25.753  22.827  1.00  0.00     0.252 C 
ATOM      7  O   UNL A   1      33.975  26.242  22.038  1.00  0.00    -0.272 OA
ATOM      8  H   UNL A   1      33.215  24.014  21.854  1.00  0.00     0.163 HD
BRANCH   6   9
ATOM      9  C   UNL A   1      32.590  26.583  23.999  1.00  0.00     0.241 C 
BRANCH   9  10
ATOM     10  C   UNL A   1      33.300  26.222  25.336  1.00  0.00     0.024 C 
ATOM     11  C   UNL A   1      34.494  25.272  25.226  1.00  0.00     0.011 C 
ATOM     12  C   UNL A   1      33.772  27.501  26.044  1.00  0.00     0.011 C 
ENDBRANCH   9  10
BRANCH   9  13
ATOM     13  O   UNL A   1      32.709  27.926  23.504  1.00  0.00    -0.249 OA
BRANCH  13  14
ATOM     14  N   UNL A   1      31.523  28.653  23.514  1.00  0.00    -0.144 N 
ATOM     15  C   UNL A   1      31.157  29.642  24.365  1.00  0.00     0.285 C 
ATOM     16  C   UNL A   1      30.581  28.365  22.567  1.00  0.00     0.285 C 
ATOM     17  O   UNL A   1      31.709  30.112  25.344  1.00  0.00    -0.266 OA
ATOM     18  C   UNL A   1      29.895  30.156  23.833  1.00  0.00     0.055 A 
ATOM     19  C   UNL A   1      29.529  29.362  22.757  1.00  0.00     0.055 A 
ATOM     20  O   UNL A   1      30.570  27.516  21.698  1.00  0.00    -0.266 OA
ATOM     21  C   UNL A   1      29.178  31.283  24.185  1.00  0.00     0.015 A 
ATOM     22  C   UNL A   1      28.409  29.627  21.998  1.00  0.00     0.015 A 
ATOM     23  C   UNL A   1      28.050  31.586  23.416  1.00  0.00     0.001 A 
ATOM     24  C   UNL A   1      27.663  30.760  22.340  1.00  0.00     0.001 A 
ENDBRANCH  13  14
ENDBRANCH   9  13
ENDBRANCH   6   9
ENDBRANCH   4   5
ENDBRANCH   3   4
ENDBRANCH   2   3
ENDBRANCH   1   2
BRANCH   1  25
ATOM     25  C   UNL A   1      35.035  21.554  25.605  1.00  0.00     0.021 C 
BRANCH  25  26
ATOM     26  C   UNL A   1      36.457  22.093  25.725  1.00  0.00     0.116 C 
BRANCH  26  27
ATOM     27  N   UNL A   1      37.437  21.025  25.845  1.00  0.00    -0.352 N 
ATOM     28  C   UNL A   1      38.788  21.110  26.070  1.00  0.00     0.251 C 
ATOM     29  H   UNL A   1      37.081  20.112  25.754  1.00  0.00     0.163 HD
ATOM     30  O   UNL A   1      39.492  20.110  25.951  1.00  0.00    -0.269 OA
BRANCH  28  31
ATOM     31  C   UNL A   1      39.398  22.405  26.443  1.00  0.00     0.039 A 
ATOM     32  C   UNL A   1      40.403  22.425  27.416  1.00  0.00     0.014 A 
ATOM     33  C   UNL A   1      38.964  23.599  25.862  1.00  0.00     0.014 A 
ATOM     34  C   UNL A   1      40.992  23.638  27.781  1.00  0.00     0.010 A 
ATOM     35  C   UNL A   1      39.600  24.797  26.175  1.00  0.00     0.010 A 
ATOM     36  C   UNL A   1      40.606  24.833  27.152  1.00  0.00    -0.014 A 
BRANCH  36  37
ATOM     37  C   UNL A   1      41.216  26.135  27.527  1.00  0.00     0.031 A 
ATOM     38  C   UNL A   1      42.645  26.431  27.152  1.00  0.00     0.074 A 
ATOM     39  C   UNL A   1      40.514  27.019  28.263  1.00  0.00     0.049 A 
ATOM     40  N   UNL A   1      43.374  27.479  27.438  1.00  0.00    -0.248 NA
ATOM     41  C   UNL A   1      43.358  25.400  26.378  1.00  0.00     0.031 C 
ATOM     42  C   UNL A   1      39.146  26.821  28.748  1.00  0.00     0.029 A 
ATOM     43  N   UNL A   1      40.863  28.254  28.751  1.00  0.00    -0.354 N 
ATOM     44  C   UNL A   1      44.634  27.220  26.913  1.00  0.00     0.074 A 
ATOM     45  C   UNL A   1      44.584  25.900  26.323  1.00  0.00     0.031 C 
ATOM     46  C   UNL A   1      38.772  27.896  29.461  1.00  0.00     0.029 A 
ATOM     47  C   UNL A   1      39.877  28.849  29.503  1.00  0.00     0.049 A 
ATOM     48  H   UNL A   1      41.737  28.673  28.580  1.00  0.00     0.167 HD
ATOM     49  C   UNL A   1      45.727  28.020  26.889  1.00  0.00     0.034 A 
ATOM     50  C   UNL A   1      39.867  30.030  30.152  1.00  0.00     0.034 A 
ATOM     51  C   UNL A   1      45.758  29.353  27.427  1.00  0.00     0.049 A 
ATOM     52  C   UNL A   1      41.078  30.922  30.065  1.00  0.00     0.074 A 
ATOM     53  C   UNL A   1      46.792  30.271  27.392  1.00  0.00     0.029 A 
ATOM     54  N   UNL A   1      44.704  29.961  28.092  1.00  0.00    -0.354 N 
ATOM     55  N   UNL A   1      42.211  30.717  29.441  1.00  0.00    -0.248 NA
ATOM     56  C   UNL A   1      40.990  32.228  30.737  1.00  0.00     0.031 C 
ATOM     57  C   UNL A   1      46.366  31.434  28.044  1.00  0.00     0.029 A 
ATOM     58  C   UNL A   1      45.060  31.245  28.466  1.00  0.00     0.049 A 
ATOM     59  H   UNL A   1      43.832  29.542  28.269  1.00  0.00     0.167 HD
ATOM     60  C   UNL A   1      42.952  31.882  29.603  1.00  0.00     0.074 A 
ATOM     61  C   UNL A   1      42.132  32.795  30.373  1.00  0.00     0.031 C 
ATOM     62  C   UNL A   1      44.205  32.166  29.169  1.00  0.00     0.034 A 
BRANCH  49  63
ATOM     63  C   UNL A   1      46.962  27.499  26.200  1.00  0.00     0.023 A 
ATOM     64  C   UNL A   1      47.169  27.794  24.837  1.00  0.00     0.012 A 
ATOM     65  C   UNL A   1      47.941  26.773  26.905  1.00  0.00     0.148 A 
ATOM     66  C   UNL A   1      48.311  27.345  24.176  1.00  0.00     0.002 A 
ATOM     67  C   UNL A   1      49.099  26.367  26.251  1.00  0.00     0.091 A 
ATOM     68  F   UNL A   1      47.719  26.484  28.196  1.00  0.00    -0.205 F 
ATOM     69  C   UNL A   1      49.280  26.641  24.886  1.00  0.00     0.022 A 
BRANCH  67  70
ATOM     70  S   UNL A   1      50.442  25.521  27.093  1.00  0.00     0.127 S 
ATOM     71  O   UNL A   1      51.398  25.327  26.004  1.00  0.00    -0.237 OA
ATOM     72  O   UNL A   1      50.850  26.509  28.092  1.00  0.00    -0.237 OA
ATOM     73  O   UNL A   1      49.867  24.302  27.645  1.00  0.00    -0.744 OA
ENDBRANCH  67  70
ENDBRANCH  49  63
BRANCH  50  74
ATOM     74  C   UNL A   1      38.639  30.480  30.870  1.00  0.00     0.023 A 
ATOM     75  C   UNL A   1      38.507  30.206  32.245  1.00  0.00     0.012 A 
ATOM     76  C   UNL A   1      37.615  31.184  30.209  1.00  0.00     0.148 A 
ATOM     77  C   UNL A   1      37.361  30.590  32.941  1.00  0.00     0.002 A 
ATOM     78  C   UNL A   1      36.498  31.609  30.920  1.00  0.00     0.091 A 
ATOM     79  F   UNL A   1      37.751  31.424  28.897  1.00  0.00    -0.205 F 
ATOM     80  C   UNL A   1      36.361  31.298  32.282  1.00  0.00     0.022 A 
BRANCH  78  81
ATOM     81  S   UNL A   1      35.221  32.632  30.179  1.00  0.00     0.127 S 
ATOM     82  O   UNL A   1      34.739  31.776  29.099  1.00  0.00    -0.237 OA
ATOM     83  O   UNL A   1      34.286  32.806  31.291  1.00  0.00    -0.237 OA
ATOM     84  O   UNL A   1      35.893  33.857  29.767  1.00  0.00    -0.744 OA
ENDBRANCH  78  81
ENDBRANCH  50  74
BRANCH  62  85
ATOM     85  C   UNL A   1      44.754  33.538  29.461  1.00  0.00     0.023 A 
ATOM     86  C   UNL A   1      45.420  33.784  30.677  1.00  0.00     0.012 A 
ATOM     87  C   UNL A   1      44.677  34.560  28.494  1.00  0.00     0.148 A 
ATOM     88  C   UNL A   1      45.973  35.036  30.940  1.00  0.00     0.002 A 
ATOM     89  C   UNL A   1      45.273  35.790  28.742  1.00  0.00     0.091 A 
ATOM     90  F   UNL A   1      44.022  34.311  27.351  1.00  0.00    -0.205 F 
ATOM     91  C   UNL A   1      45.911  36.034  29.970  1.00  0.00     0.022 A 
BRANCH  89  92
ATOM     92  S   UNL A   1      45.326  37.096  27.511  1.00  0.00     0.127 S 
ATOM     93  O   UNL A   1      45.973  36.422  26.387  1.00  0.00    -0.237 OA
ATOM     94  O   UNL A   1      43.907  37.392  27.309  1.00  0.00    -0.237 OA
ATOM     95  O   UNL A   1      46.085  38.183  28.114  1.00  0.00    -0.744 OA
ENDBRANCH  89  92
ENDBRANCH  62  85
ENDBRANCH  36  37
ENDBRANCH  28  31
ENDBRANCH  26  27
ENDBRANCH  25  26
ENDBRANCH   1  25
TORSDOF 19
ENDMDL
