MODEL 1
REMARK VINA RESULT:      -8.9      0.000      0.000
REMARK SMILES CC(C)C[C@H](NC(=O)[C@H](C)NC(=O)[C@@H](NC(=O)CNC(=O)OCc1ccccc1)C(C)C)C(=O)NCCCCCCNC(=O)c1ccc(-c2c3nc(c(-c4cccc(S(=O)(=O)[O-])c4F)c4ccc([nH]4)c(-c4cccc(S(=O)(=O)[O-])c4F)c4nc(c(-c5cccc(S(=O)(=O)[O-])c5F)c5ccc2[nH]5)C=C4)C=C3)cc1
REMARK SMILES IDX 33 1 34 2 35 3 5 5 4 6 2 7 1 8 3 9 6 10 7 11 8 13 9 14 10 15
REMARK SMILES IDX 11 16 12 17 13 19 14 20 15 21 16 22 17 24 18 25 19 26 20 27
REMARK SMILES IDX 21 29 22 30 23 31 24 32 25 33 29 34 26 35 28 36 27 37 30 38
REMARK SMILES IDX 31 39 32 40 36 41 37 42 38 43 39 44 40 45 41 46 42 47 43 48
REMARK SMILES IDX 44 50 45 51 46 52 107 53 47 54 106 55 48 56 49 57 50 58
REMARK SMILES IDX 100 59 51 60 105 61 99 62 101 63 52 64 104 65 98 66 97 67
REMARK SMILES IDX 53 69 85 70 65 71 84 72 66 73 69 74 83 75 102 76 67 77 68 78
REMARK SMILES IDX 82 80 103 81 70 82 54 83 55 84 63 85 56 86 58 87 64 88 57 89
REMARK SMILES IDX 59 90 60 91 61 92 62 93 86 94 87 95 95 96 88 97 90 98 96 99
REMARK SMILES IDX 89 100 91 101 92 102 93 103 94 104 71 105 72 106 80 107
REMARK SMILES IDX 73 108 75 109 81 110 74 111 76 112 77 113 78 114 79 115
REMARK H PARENT 35 4 6 12 11 18 15 23 19 28 42 49 101 68 69 79
REMARK Flexibility Score: inf
ROOT
ATOM      1  C   UNL A   1      37.272  22.939  24.916  1.00  0.00     0.242 C 
ATOM      2  O   UNL A   1      36.946  23.114  23.733  1.00  0.00    -0.273 OA
ATOM      3  N   UNL A   1      38.171  23.858  25.411  1.00  0.00    -0.354 N 
ATOM      4  H   UNL A   1      38.691  24.313  24.710  1.00  0.00     0.163 HD
ENDROOT
BRANCH   1   5
ATOM      5  C   UNL A   1      36.694  21.687  25.688  1.00  0.00     0.171 C 
BRANCH   5   6
ATOM      6  C   UNL A   1      36.640  20.317  24.996  1.00  0.00     0.038 C 
BRANCH   6   7
ATOM      7  C   UNL A   1      37.868  19.385  24.848  1.00  0.00    -0.015 C 
ATOM      8  C   UNL A   1      39.151  19.828  25.542  1.00  0.00     0.007 C 
ATOM      9  C   UNL A   1      37.549  17.980  25.410  1.00  0.00     0.007 C 
ENDBRANCH   6   7
ENDBRANCH   5   6
BRANCH   5  10
ATOM     10  N   UNL A   1      35.531  22.030  26.531  1.00  0.00    -0.343 N 
ATOM     11  C   UNL A   1      34.558  22.956  26.665  1.00  0.00     0.242 C 
ATOM     12  H   UNL A   1      35.432  21.352  27.238  1.00  0.00     0.164 HD
ATOM     13  O   UNL A   1      34.148  23.024  27.838  1.00  0.00    -0.273 OA
BRANCH  11  14
ATOM     14  C   UNL A   1      34.008  23.969  25.602  1.00  0.00     0.168 C 
ATOM     15  C   UNL A   1      34.790  25.291  25.795  1.00  0.00     0.041 C 
BRANCH  14  16
ATOM     16  N   UNL A   1      32.582  24.284  25.651  1.00  0.00    -0.343 N 
ATOM     17  C   UNL A   1      31.522  23.961  24.854  1.00  0.00     0.243 C 
ATOM     18  H   UNL A   1      32.334  24.848  26.419  1.00  0.00     0.164 HD
ATOM     19  O   UNL A   1      30.435  24.434  25.217  1.00  0.00    -0.273 OA
BRANCH  17  20
ATOM     20  C   UNL A   1      31.558  22.998  23.621  1.00  0.00     0.174 C 
BRANCH  20  21
ATOM     21  N   UNL A   1      32.225  23.642  22.477  1.00  0.00    -0.343 N 
ATOM     22  C   UNL A   1      32.532  24.915  22.112  1.00  0.00     0.240 C 
ATOM     23  H   UNL A   1      32.523  22.985  21.806  1.00  0.00     0.164 HD
ATOM     24  O   UNL A   1      32.954  25.033  20.952  1.00  0.00    -0.273 OA
BRANCH  22  25
ATOM     25  C   UNL A   1      32.220  26.187  22.942  1.00  0.00     0.219 C 
BRANCH  25  26
ATOM     26  N   UNL A   1      30.784  26.376  22.952  1.00  0.00    -0.312 N 
ATOM     27  C   UNL A   1      29.862  27.348  23.206  1.00  0.00     0.407 C 
ATOM     28  H   UNL A   1      30.332  25.541  22.694  1.00  0.00     0.167 HD
ATOM     29  O   UNL A   1      28.819  26.833  23.518  1.00  0.00    -0.225 OA
BRANCH  27  30
ATOM     30  O   UNL A   1      30.055  28.713  23.091  1.00  0.00    -0.445 OA
BRANCH  30  31
ATOM     31  C   UNL A   1      31.419  29.381  23.370  1.00  0.00     0.270 C 
BRANCH  31  32
ATOM     32  C   UNL A   1      32.181  29.399  24.760  1.00  0.00    -0.011 A 
ATOM     33  C   UNL A   1      31.584  29.810  25.959  1.00  0.00     0.007 A 
ATOM     34  C   UNL A   1      33.503  28.910  24.899  1.00  0.00     0.007 A 
ATOM     35  C   UNL A   1      32.214  29.596  27.212  1.00  0.00     0.000 A 
ATOM     36  C   UNL A   1      34.114  28.637  26.141  1.00  0.00     0.000 A 
ATOM     37  C   UNL A   1      33.453  28.962  27.310  1.00  0.00     0.000 A 
ENDBRANCH  31  32
ENDBRANCH  30  31
ENDBRANCH  27  30
ENDBRANCH  25  26
ENDBRANCH  22  25
ENDBRANCH  20  21
BRANCH  20  38
ATOM     38  C   UNL A   1      31.968  21.534  23.846  1.00  0.00     0.015 C 
ATOM     39  C   UNL A   1      33.356  21.053  23.488  1.00  0.00     0.010 C 
ATOM     40  C   UNL A   1      31.694  21.102  25.295  1.00  0.00     0.010 C 
ENDBRANCH  20  38
ENDBRANCH  17  20
ENDBRANCH  14  16
ENDBRANCH  11  14
ENDBRANCH   5  10
ENDBRANCH   1   5
BRANCH   3  41
ATOM     41  C   UNL A   1      38.513  24.296  26.779  1.00  0.00     0.116 C 
BRANCH  41  42
ATOM     42  C   UNL A   1      39.820  23.609  27.494  1.00  0.00     0.021 C 
BRANCH  42  43
ATOM     43  C   UNL A   1      41.069  22.713  26.899  1.00  0.00     0.002 C 
BRANCH  43  44
ATOM     44  C   UNL A   1      42.263  22.274  27.799  1.00  0.00     0.002 C 
BRANCH  44  45
ATOM     45  C   UNL A   1      42.562  22.884  29.191  1.00  0.00     0.021 C 
BRANCH  45  46
ATOM     46  C   UNL A   1      43.972  22.743  29.737  1.00  0.00     0.116 C 
BRANCH  46  47
ATOM     47  N   UNL A   1      45.074  22.848  28.782  1.00  0.00    -0.352 N 
ATOM     48  C   UNL A   1      45.614  24.017  28.231  1.00  0.00     0.251 C 
ATOM     49  H   UNL A   1      45.483  21.999  28.493  1.00  0.00     0.163 HD
ATOM     50  O   UNL A   1      46.515  23.996  27.444  1.00  0.00    -0.269 OA
BRANCH  48  51
ATOM     51  C   UNL A   1      44.956  25.303  28.615  1.00  0.00     0.039 A 
ATOM     52  C   UNL A   1      45.415  26.010  29.728  1.00  0.00     0.014 A 
ATOM     53  C   UNL A   1      44.050  25.887  27.736  1.00  0.00     0.014 A 
ATOM     54  C   UNL A   1      45.081  27.363  29.862  1.00  0.00     0.010 A 
ATOM     55  C   UNL A   1      43.871  27.257  27.775  1.00  0.00     0.010 A 
ATOM     56  C   UNL A   1      44.373  28.018  28.841  1.00  0.00    -0.014 A 
BRANCH  56  57
ATOM     57  C   UNL A   1      44.116  29.483  28.850  1.00  0.00     0.031 A 
ATOM     58  C   UNL A   1      45.221  30.423  28.434  1.00  0.00     0.074 A 
ATOM     59  C   UNL A   1      42.965  29.973  29.356  1.00  0.00     0.049 A 
ATOM     60  N   UNL A   1      45.269  31.727  28.511  1.00  0.00    -0.248 NA
ATOM     61  C   UNL A   1      46.465  29.811  27.933  1.00  0.00     0.031 C 
ATOM     62  C   UNL A   1      41.868  29.177  29.915  1.00  0.00     0.029 A 
ATOM     63  N   UNL A   1      42.536  31.269  29.509  1.00  0.00    -0.354 N 
ATOM     64  C   UNL A   1      46.565  32.074  28.142  1.00  0.00     0.074 A 
ATOM     65  C   UNL A   1      47.288  30.846  27.913  1.00  0.00     0.031 C 
ATOM     66  C   UNL A   1      40.885  29.998  30.321  1.00  0.00     0.029 A 
ATOM     67  C   UNL A   1      41.287  31.379  30.079  1.00  0.00     0.049 A 
ATOM     68  H   UNL A   1      43.072  32.048  29.236  1.00  0.00     0.167 HD
ATOM     69  C   UNL A   1      47.092  33.304  27.948  1.00  0.00     0.034 A 
ATOM     70  C   UNL A   1      40.548  32.472  30.360  1.00  0.00     0.034 A 
ATOM     71  C   UNL A   1      46.329  34.513  28.051  1.00  0.00     0.049 A 
ATOM     72  C   UNL A   1      41.102  33.827  30.000  1.00  0.00     0.074 A 
ATOM     73  C   UNL A   1      46.712  35.804  27.738  1.00  0.00     0.029 A 
ATOM     74  N   UNL A   1      45.012  34.573  28.479  1.00  0.00    -0.354 N 
ATOM     75  N   UNL A   1      42.269  34.127  29.479  1.00  0.00    -0.248 NA
ATOM     76  C   UNL A   1      40.228  34.987  30.222  1.00  0.00     0.031 C 
ATOM     77  C   UNL A   1      45.621  36.647  27.975  1.00  0.00     0.029 A 
ATOM     78  C   UNL A   1      44.560  35.878  28.430  1.00  0.00     0.049 A 
ATOM     79  H   UNL A   1      44.479  33.800  28.774  1.00  0.00     0.167 HD
ATOM     80  C   UNL A   1      42.257  35.503  29.282  1.00  0.00     0.074 A 
ATOM     81  C   UNL A   1      40.958  35.975  29.717  1.00  0.00     0.031 C 
ATOM     82  C   UNL A   1      43.238  36.308  28.805  1.00  0.00     0.034 A 
BRANCH  69  83
ATOM     83  C   UNL A   1      48.530  33.379  27.507  1.00  0.00     0.023 A 
ATOM     84  C   UNL A   1      48.828  33.591  26.144  1.00  0.00     0.012 A 
ATOM     85  C   UNL A   1      49.585  33.251  28.431  1.00  0.00     0.148 A 
ATOM     86  C   UNL A   1      50.148  33.617  25.698  1.00  0.00     0.002 A 
ATOM     87  C   UNL A   1      50.900  33.328  27.984  1.00  0.00     0.091 A 
ATOM     88  F   UNL A   1      49.287  33.026  29.718  1.00  0.00    -0.205 F 
ATOM     89  C   UNL A   1      51.183  33.494  26.618  1.00  0.00     0.022 A 
BRANCH  87  90
ATOM     90  S   UNL A   1      52.306  33.261  29.102  1.00  0.00     0.127 S 
ATOM     91  O   UNL A   1      51.856  34.121  30.195  1.00  0.00    -0.237 OA
ATOM     92  O   UNL A   1      52.367  31.837  29.434  1.00  0.00    -0.237 OA
ATOM     93  O   UNL A   1      53.444  33.755  28.340  1.00  0.00    -0.744 OA
ENDBRANCH  87  90
ENDBRANCH  69  83
BRANCH  70  94
ATOM     94  C   UNL A   1      39.168  32.323  30.908  1.00  0.00     0.023 A 
ATOM     95  C   UNL A   1      39.002  32.073  32.287  1.00  0.00     0.012 A 
ATOM     96  C   UNL A   1      38.024  32.463  30.099  1.00  0.00     0.148 A 
ATOM     97  C   UNL A   1      37.728  31.935  32.840  1.00  0.00     0.002 A 
ATOM     98  C   UNL A   1      36.757  32.378  30.667  1.00  0.00     0.091 A 
ATOM     99  F   UNL A   1      38.195  32.688  28.789  1.00  0.00    -0.205 F 
ATOM    100  C   UNL A   1      36.606  32.097  32.034  1.00  0.00     0.022 A 
BRANCH  98 101
ATOM    101  S   UNL A   1      35.262  32.716  29.727  1.00  0.00     0.127 S 
ATOM    102  O   UNL A   1      35.205  31.567  28.827  1.00  0.00    -0.237 OA
ATOM    103  O   UNL A   1      34.236  32.734  30.770  1.00  0.00    -0.237 OA
ATOM    104  O   UNL A   1      35.486  34.012  29.096  1.00  0.00    -0.744 OA
ENDBRANCH  98 101
ENDBRANCH  70  94
BRANCH  82 105
ATOM    105  C   UNL A   1      42.946  37.779  28.696  1.00  0.00     0.023 A 
ATOM    106  C   UNL A   1      42.288  38.272  27.553  1.00  0.00     0.012 A 
ATOM    107  C   UNL A   1      43.219  38.646  29.772  1.00  0.00     0.148 A 
ATOM    108  C   UNL A   1      41.924  39.615  27.473  1.00  0.00     0.002 A 
ATOM    109  C   UNL A   1      42.812  39.972  29.703  1.00  0.00     0.091 A 
ATOM    110  F   UNL A   1      43.863  38.158  30.842  1.00  0.00    -0.205 F 
ATOM    111  C   UNL A   1      42.173  40.460  28.551  1.00  0.00     0.022 A 
BRANCH 109 112
ATOM    112  S   UNL A   1      43.001  41.104  31.085  1.00  0.00     0.127 S 
ATOM    113  O   UNL A   1      41.908  42.045  30.851  1.00  0.00    -0.237 OA
ATOM    114  O   UNL A   1      42.812  40.223  32.239  1.00  0.00    -0.237 OA
ATOM    115  O   UNL A   1      44.344  41.658  30.967  1.00  0.00    -0.744 OA
ENDBRANCH 109 112
ENDBRANCH  82 105
ENDBRANCH  56  57
ENDBRANCH  48  51
ENDBRANCH  46  47
ENDBRANCH  45  46
ENDBRANCH  44  45
ENDBRANCH  43  44
ENDBRANCH  42  43
ENDBRANCH  41  42
ENDBRANCH   3  41
TORSDOF 29
ENDMDL
MODEL 2
REMARK VINA RESULT:      -8.2      5.566      9.690
REMARK SMILES CC(C)C[C@H](NC(=O)[C@H](C)NC(=O)[C@@H](NC(=O)CNC(=O)OCc1ccccc1)C(C)C)C(=O)NCCCCCCNC(=O)c1ccc(-c2c3nc(c(-c4cccc(S(=O)(=O)[O-])c4F)c4ccc([nH]4)c(-c4cccc(S(=O)(=O)[O-])c4F)c4nc(c(-c5cccc(S(=O)(=O)[O-])c5F)c5ccc2[nH]5)C=C4)C=C3)cc1
REMARK SMILES IDX 33 1 34 2 35 3 5 5 4 6 2 7 1 8 3 9 6 10 7 11 8 13 9 14 10 15
REMARK SMILES IDX 11 16 12 17 13 19 14 20 15 21 16 22 17 24 18 25 19 26 20 27
REMARK SMILES IDX 21 29 22 30 23 31 24 32 25 33 29 34 26 35 28 36 27 37 30 38
REMARK SMILES IDX 31 39 32 40 36 41 37 42 38 43 39 44 40 45 41 46 42 47 43 48
REMARK SMILES IDX 44 50 45 51 46 52 107 53 47 54 106 55 48 56 49 57 50 58
REMARK SMILES IDX 100 59 51 60 105 61 99 62 101 63 52 64 104 65 98 66 97 67
REMARK SMILES IDX 53 69 85 70 65 71 84 72 66 73 69 74 83 75 102 76 67 77 68 78
REMARK SMILES IDX 82 80 103 81 70 82 54 83 55 84 63 85 56 86 58 87 64 88 57 89
REMARK SMILES IDX 59 90 60 91 61 92 62 93 86 94 87 95 95 96 88 97 90 98 96 99
REMARK SMILES IDX 89 100 91 101 92 102 93 103 94 104 71 105 72 106 80 107
REMARK SMILES IDX 73 108 75 109 81 110 74 111 76 112 77 113 78 114 79 115
REMARK H PARENT 35 4 6 12 11 18 15 23 19 28 42 49 101 68 69 79
REMARK Flexibility Score: inf
ROOT
ATOM      1  C   UNL A   1      37.504  23.189  25.246  1.00  0.00     0.242 C 
ATOM      2  O   UNL A   1      36.995  23.714  24.245  1.00  0.00    -0.273 OA
ATOM      3  N   UNL A   1      38.585  23.864  25.767  1.00  0.00    -0.354 N 
ATOM      4  H   UNL A   1      39.024  24.462  25.119  1.00  0.00     0.163 HD
ENDROOT
BRANCH   1   5
ATOM      5  C   UNL A   1      36.923  21.813  25.763  1.00  0.00     0.171 C 
BRANCH   5   6
ATOM      6  C   UNL A   1      36.801  20.621  24.800  1.00  0.00     0.038 C 
BRANCH   6   7
ATOM      7  C   UNL A   1      37.853  19.488  24.707  1.00  0.00    -0.015 C 
ATOM      8  C   UNL A   1      39.087  19.625  25.589  1.00  0.00     0.007 C 
ATOM      9  C   UNL A   1      37.215  18.130  25.083  1.00  0.00     0.007 C 
ENDBRANCH   6   7
ENDBRANCH   5   6
BRANCH   5  10
ATOM     10  N   UNL A   1      35.806  21.992  26.712  1.00  0.00    -0.343 N 
ATOM     11  C   UNL A   1      34.617  22.620  26.840  1.00  0.00     0.242 C 
ATOM     12  H   UNL A   1      35.991  21.478  27.531  1.00  0.00     0.164 HD
ATOM     13  O   UNL A   1      34.331  22.819  28.034  1.00  0.00    -0.273 OA
BRANCH  11  14
ATOM     14  C   UNL A   1      33.678  23.191  25.722  1.00  0.00     0.168 C 
ATOM     15  C   UNL A   1      33.813  24.733  25.768  1.00  0.00     0.041 C 
BRANCH  14  16
ATOM     16  N   UNL A   1      32.256  22.866  25.809  1.00  0.00    -0.343 N 
ATOM     17  C   UNL A   1      31.502  21.827  25.346  1.00  0.00     0.243 C 
ATOM     18  H   UNL A   1      31.733  23.536  26.305  1.00  0.00     0.164 HD
ATOM     19  O   UNL A   1      30.294  21.902  25.613  1.00  0.00    -0.273 OA
BRANCH  17  20
ATOM     20  C   UNL A   1      32.042  20.551  24.617  1.00  0.00     0.174 C 
BRANCH  20  21
ATOM     21  N   UNL A   1      32.169  20.794  23.170  1.00  0.00    -0.343 N 
ATOM     22  C   UNL A   1      32.240  21.885  22.362  1.00  0.00     0.240 C 
ATOM     23  H   UNL A   1      32.213  19.953  22.658  1.00  0.00     0.164 HD
ATOM     24  O   UNL A   1      32.164  21.637  21.150  1.00  0.00    -0.273 OA
BRANCH  22  25
ATOM     25  C   UNL A   1      32.214  23.360  22.841  1.00  0.00     0.219 C 
BRANCH  25  26
ATOM     26  N   UNL A   1      32.727  24.189  21.770  1.00  0.00    -0.312 N 
ATOM     27  C   UNL A   1      33.006  25.497  21.506  1.00  0.00     0.407 C 
ATOM     28  H   UNL A   1      32.945  23.633  20.987  1.00  0.00     0.167 HD
ATOM     29  O   UNL A   1      32.965  25.679  20.316  1.00  0.00    -0.225 OA
BRANCH  27  30
ATOM     30  O   UNL A   1      33.328  26.471  22.435  1.00  0.00    -0.445 OA
BRANCH  30  31
ATOM     31  C   UNL A   1      32.266  27.137  23.335  1.00  0.00     0.270 C 
BRANCH  31  32
ATOM     32  C   UNL A   1      32.554  28.006  24.629  1.00  0.00    -0.011 A 
ATOM     33  C   UNL A   1      31.542  28.527  25.446  1.00  0.00     0.007 A 
ATOM     34  C   UNL A   1      33.869  28.241  25.101  1.00  0.00     0.007 A 
ATOM     35  C   UNL A   1      31.833  29.097  26.713  1.00  0.00     0.000 A 
ATOM     36  C   UNL A   1      34.167  28.751  26.382  1.00  0.00     0.000 A 
ATOM     37  C   UNL A   1      33.137  29.162  27.206  1.00  0.00     0.000 A 
ENDBRANCH  31  32
ENDBRANCH  30  31
ENDBRANCH  27  30
ENDBRANCH  25  26
ENDBRANCH  22  25
ENDBRANCH  20  21
BRANCH  20  38
ATOM     38  C   UNL A   1      33.231  19.800  25.236  1.00  0.00     0.015 C 
ATOM     39  C   UNL A   1      33.163  19.269  26.649  1.00  0.00     0.010 C 
ATOM     40  C   UNL A   1      33.682  18.641  24.333  1.00  0.00     0.010 C 
ENDBRANCH  20  38
ENDBRANCH  17  20
ENDBRANCH  14  16
ENDBRANCH  11  14
ENDBRANCH   5  10
ENDBRANCH   1   5
BRANCH   3  41
ATOM     41  C   UNL A   1      39.220  23.871  27.101  1.00  0.00     0.116 C 
BRANCH  41  42
ATOM     42  C   UNL A   1      40.655  23.094  27.266  1.00  0.00     0.021 C 
BRANCH  42  43
ATOM     43  C   UNL A   1      41.640  22.336  26.181  1.00  0.00     0.002 C 
BRANCH  43  44
ATOM     44  C   UNL A   1      43.189  22.332  26.346  1.00  0.00     0.002 C 
BRANCH  44  45
ATOM     45  C   UNL A   1      43.974  23.412  27.131  1.00  0.00     0.021 C 
BRANCH  45  46
ATOM     46  C   UNL A   1      44.570  24.565  26.343  1.00  0.00     0.116 C 
BRANCH  46  47
ATOM     47  N   UNL A   1      43.705  25.228  25.368  1.00  0.00    -0.352 N 
ATOM     48  C   UNL A   1      42.898  26.354  25.574  1.00  0.00     0.251 C 
ATOM     49  H   UNL A   1      43.689  24.837  24.463  1.00  0.00     0.163 HD
ATOM     50  O   UNL A   1      42.214  26.817  24.708  1.00  0.00    -0.269 OA
BRANCH  48  51
ATOM     51  C   UNL A   1      42.869  26.912  26.960  1.00  0.00     0.039 A 
ATOM     52  C   UNL A   1      42.047  26.324  27.924  1.00  0.00     0.014 A 
ATOM     53  C   UNL A   1      43.819  27.857  27.328  1.00  0.00     0.014 A 
ATOM     54  C   UNL A   1      42.296  26.577  29.279  1.00  0.00     0.010 A 
ATOM     55  C   UNL A   1      44.175  27.962  28.660  1.00  0.00     0.010 A 
ATOM     56  C   UNL A   1      43.416  27.334  29.659  1.00  0.00    -0.014 A 
BRANCH  56  57
ATOM     57  C   UNL A   1      43.824  27.514  31.078  1.00  0.00     0.031 A 
ATOM     58  C   UNL A   1      43.173  28.603  31.895  1.00  0.00     0.074 A 
ATOM     59  C   UNL A   1      44.858  26.813  31.587  1.00  0.00     0.049 A 
ATOM     60  N   UNL A   1      43.479  29.035  33.090  1.00  0.00    -0.248 NA
ATOM     61  C   UNL A   1      42.079  29.356  31.254  1.00  0.00     0.031 C 
ATOM     62  C   UNL A   1      45.660  25.823  30.862  1.00  0.00     0.029 A 
ATOM     63  N   UNL A   1      45.433  26.846  32.834  1.00  0.00    -0.354 N 
ATOM     64  C   UNL A   1      42.671  30.147  33.303  1.00  0.00     0.074 A 
ATOM     65  C   UNL A   1      41.917  30.366  32.092  1.00  0.00     0.031 C 
ATOM     66  C   UNL A   1      46.600  25.326  31.682  1.00  0.00     0.029 A 
ATOM     67  C   UNL A   1      46.490  25.976  32.983  1.00  0.00     0.049 A 
ATOM     68  H   UNL A   1      45.119  27.437  33.555  1.00  0.00     0.167 HD
ATOM     69  C   UNL A   1      42.519  30.885  34.427  1.00  0.00     0.034 A 
ATOM     70  C   UNL A   1      47.270  25.725  34.055  1.00  0.00     0.034 A 
ATOM     71  C   UNL A   1      43.175  30.579  35.664  1.00  0.00     0.049 A 
ATOM     72  C   UNL A   1      46.985  26.460  35.340  1.00  0.00     0.074 A 
ATOM     73  C   UNL A   1      42.993  31.161  36.903  1.00  0.00     0.029 A 
ATOM     74  N   UNL A   1      44.127  29.582  35.820  1.00  0.00    -0.354 N 
ATOM     75  N   UNL A   1      46.089  27.388  35.575  1.00  0.00    -0.248 NA
ATOM     76  C   UNL A   1      47.785  26.085  36.515  1.00  0.00     0.031 C 
ATOM     77  C   UNL A   1      43.834  30.512  37.813  1.00  0.00     0.029 A 
ATOM     78  C   UNL A   1      44.534  29.524  37.138  1.00  0.00     0.049 A 
ATOM     79  H   UNL A   1      44.460  29.003  35.097  1.00  0.00     0.167 HD
ATOM     80  C   UNL A   1      46.193  27.686  36.929  1.00  0.00     0.074 A 
ATOM     81  C   UNL A   1      47.224  26.821  37.467  1.00  0.00     0.031 C 
ATOM     82  C   UNL A   1      45.514  28.605  37.659  1.00  0.00     0.034 A 
BRANCH  69  83
ATOM     83  C   UNL A   1      41.533  32.022  34.381  1.00  0.00     0.023 A 
ATOM     84  C   UNL A   1      41.993  33.329  34.115  1.00  0.00     0.012 A 
ATOM     85  C   UNL A   1      40.157  31.805  34.590  1.00  0.00     0.148 A 
ATOM     86  C   UNL A   1      41.112  34.409  34.113  1.00  0.00     0.002 A 
ATOM     87  C   UNL A   1      39.278  32.881  34.537  1.00  0.00     0.091 A 
ATOM     88  F   UNL A   1      39.739  30.561  34.865  1.00  0.00    -0.205 F 
ATOM     89  C   UNL A   1      39.755  34.184  34.316  1.00  0.00     0.022 A 
BRANCH  87  90
ATOM     90  S   UNL A   1      37.500  32.686  34.706  1.00  0.00     0.127 S 
ATOM     91  O   UNL A   1      37.379  32.268  36.102  1.00  0.00    -0.237 OA
ATOM     92  O   UNL A   1      37.014  34.039  34.432  1.00  0.00    -0.237 OA
ATOM     93  O   UNL A   1      37.112  31.692  33.716  1.00  0.00    -0.744 OA
ENDBRANCH  87  90
ENDBRANCH  69  83
BRANCH  70  94
ATOM     94  C   UNL A   1      48.312  24.658  33.990  1.00  0.00     0.023 A 
ATOM     95  C   UNL A   1      49.612  24.997  33.559  1.00  0.00     0.012 A 
ATOM     96  C   UNL A   1      48.049  23.332  34.383  1.00  0.00     0.148 A 
ATOM     97  C   UNL A   1      50.617  24.030  33.491  1.00  0.00     0.002 A 
ATOM     98  C   UNL A   1      49.070  22.386  34.365  1.00  0.00     0.091 A 
ATOM     99  F   UNL A   1      46.807  23.020  34.779  1.00  0.00    -0.205 F 
ATOM    100  C   UNL A   1      50.350  22.728  33.903  1.00  0.00     0.022 A 
BRANCH  98 101
ATOM    101  S   UNL A   1      48.845  20.724  35.013  1.00  0.00     0.127 S 
ATOM    102  O   UNL A   1      48.078  20.976  36.230  1.00  0.00    -0.237 OA
ATOM    103  O   UNL A   1      48.098  20.071  33.938  1.00  0.00    -0.237 OA
ATOM    104  O   UNL A   1      50.191  20.197  35.203  1.00  0.00    -0.744 OA
ENDBRANCH  98 101
ENDBRANCH  70  94
BRANCH  82 105
ATOM    105  C   UNL A   1      45.835  28.713  39.124  1.00  0.00     0.023 A 
ATOM    106  C   UNL A   1      45.251  27.806  40.029  1.00  0.00     0.012 A 
ATOM    107  C   UNL A   1      46.797  29.633  39.582  1.00  0.00     0.148 A 
ATOM    108  C   UNL A   1      45.606  27.827  41.377  1.00  0.00     0.002 A 
ATOM    109  C   UNL A   1      47.179  29.618  40.917  1.00  0.00     0.091 A 
ATOM    110  F   UNL A   1      47.325  30.499  38.705  1.00  0.00    -0.205 F 
ATOM    111  C   UNL A   1      46.578  28.721  41.817  1.00  0.00     0.022 A 
BRANCH 109 112
ATOM    112  S   UNL A   1      48.495  30.665  41.549  1.00  0.00     0.127 S 
ATOM    113  O   UNL A   1      49.394  29.683  42.151  1.00  0.00    -0.237 OA
ATOM    114  O   UNL A   1      49.006  31.293  40.330  1.00  0.00    -0.237 OA
ATOM    115  O   UNL A   1      47.858  31.589  42.479  1.00  0.00    -0.744 OA
ENDBRANCH 109 112
ENDBRANCH  82 105
ENDBRANCH  56  57
ENDBRANCH  48  51
ENDBRANCH  46  47
ENDBRANCH  45  46
ENDBRANCH  44  45
ENDBRANCH  43  44
ENDBRANCH  42  43
ENDBRANCH  41  42
ENDBRANCH   3  41
TORSDOF 29
ENDMDL
MODEL 3
REMARK VINA RESULT:      -8.1      4.598      8.493
REMARK SMILES CC(C)C[C@H](NC(=O)[C@H](C)NC(=O)[C@@H](NC(=O)CNC(=O)OCc1ccccc1)C(C)C)C(=O)NCCCCCCNC(=O)c1ccc(-c2c3nc(c(-c4cccc(S(=O)(=O)[O-])c4F)c4ccc([nH]4)c(-c4cccc(S(=O)(=O)[O-])c4F)c4nc(c(-c5cccc(S(=O)(=O)[O-])c5F)c5ccc2[nH]5)C=C4)C=C3)cc1
REMARK SMILES IDX 33 1 34 2 35 3 5 5 4 6 2 7 1 8 3 9 6 10 7 11 8 13 9 14 10 15
REMARK SMILES IDX 11 16 12 17 13 19 14 20 15 21 16 22 17 24 18 25 19 26 20 27
REMARK SMILES IDX 21 29 22 30 23 31 24 32 25 33 29 34 26 35 28 36 27 37 30 38
REMARK SMILES IDX 31 39 32 40 36 41 37 42 38 43 39 44 40 45 41 46 42 47 43 48
REMARK SMILES IDX 44 50 45 51 46 52 107 53 47 54 106 55 48 56 49 57 50 58
REMARK SMILES IDX 100 59 51 60 105 61 99 62 101 63 52 64 104 65 98 66 97 67
REMARK SMILES IDX 53 69 85 70 65 71 84 72 66 73 69 74 83 75 102 76 67 77 68 78
REMARK SMILES IDX 82 80 103 81 70 82 54 83 55 84 63 85 56 86 58 87 64 88 57 89
REMARK SMILES IDX 59 90 60 91 61 92 62 93 86 94 87 95 95 96 88 97 90 98 96 99
REMARK SMILES IDX 89 100 91 101 92 102 93 103 94 104 71 105 72 106 80 107
REMARK SMILES IDX 73 108 75 109 81 110 74 111 76 112 77 113 78 114 79 115
REMARK H PARENT 35 4 6 12 11 18 15 23 19 28 42 49 101 68 69 79
REMARK Flexibility Score: inf
ROOT
ATOM      1  C   UNL A   1      37.898  23.518  25.351  1.00  0.00     0.242 C 
ATOM      2  O   UNL A   1      37.481  24.019  24.297  1.00  0.00    -0.273 OA
ATOM      3  N   UNL A   1      38.659  24.361  26.131  1.00  0.00    -0.354 N 
ATOM      4  H   UNL A   1      39.055  25.108  25.628  1.00  0.00     0.163 HD
ENDROOT
BRANCH   1   5
ATOM      5  C   UNL A   1      37.580  22.000  25.651  1.00  0.00     0.171 C 
BRANCH   5   6
ATOM      6  C   UNL A   1      37.787  20.942  24.555  1.00  0.00     0.038 C 
BRANCH   6   7
ATOM      7  C   UNL A   1      38.487  19.583  24.802  1.00  0.00    -0.015 C 
ATOM      8  C   UNL A   1      39.640  19.577  25.798  1.00  0.00     0.007 C 
ATOM      9  C   UNL A   1      37.472  18.541  25.327  1.00  0.00     0.007 C 
ENDBRANCH   6   7
ENDBRANCH   5   6
BRANCH   5  10
ATOM     10  N   UNL A   1      36.380  21.828  26.494  1.00  0.00    -0.343 N 
ATOM     11  C   UNL A   1      35.097  22.237  26.604  1.00  0.00     0.242 C 
ATOM     12  H   UNL A   1      36.584  21.202  27.225  1.00  0.00     0.164 HD
ATOM     13  O   UNL A   1      34.692  22.162  27.778  1.00  0.00    -0.273 OA
BRANCH  11  14
ATOM     14  C   UNL A   1      34.166  22.865  25.511  1.00  0.00     0.168 C 
ATOM     15  C   UNL A   1      34.558  24.357  25.389  1.00  0.00     0.041 C 
BRANCH  14  16
ATOM     16  N   UNL A   1      32.724  22.802  25.742  1.00  0.00    -0.343 N 
ATOM     17  C   UNL A   1      31.765  21.880  25.437  1.00  0.00     0.243 C 
ATOM     18  H   UNL A   1      32.371  23.589  26.217  1.00  0.00     0.164 HD
ATOM     19  O   UNL A   1      30.617  22.186  25.793  1.00  0.00    -0.273 OA
BRANCH  17  20
ATOM     20  C   UNL A   1      32.009  20.479  24.783  1.00  0.00     0.174 C 
BRANCH  20  21
ATOM     21  N   UNL A   1      32.120  20.600  23.319  1.00  0.00    -0.343 N 
ATOM     22  C   UNL A   1      32.045  21.609  22.412  1.00  0.00     0.240 C 
ATOM     23  H   UNL A   1      32.292  19.731  22.889  1.00  0.00     0.164 HD
ATOM     24  O   UNL A   1      32.022  21.240  21.228  1.00  0.00    -0.273 OA
BRANCH  22  25
ATOM     25  C   UNL A   1      31.799  23.103  22.747  1.00  0.00     0.219 C 
BRANCH  25  26
ATOM     26  N   UNL A   1      32.512  23.905  21.774  1.00  0.00    -0.312 N 
ATOM     27  C   UNL A   1      32.980  25.175  21.613  1.00  0.00     0.407 C 
ATOM     28  H   UNL A   1      32.726  23.363  20.982  1.00  0.00     0.167 HD
ATOM     29  O   UNL A   1      33.072  25.417  20.437  1.00  0.00    -0.225 OA
BRANCH  27  30
ATOM     30  O   UNL A   1      33.339  26.053  22.621  1.00  0.00    -0.445 OA
BRANCH  30  31
ATOM     31  C   UNL A   1      32.293  26.812  23.467  1.00  0.00     0.270 C 
BRANCH  31  32
ATOM     32  C   UNL A   1      32.488  27.317  24.956  1.00  0.00    -0.011 A 
ATOM     33  C   UNL A   1      33.558  28.127  25.359  1.00  0.00     0.007 A 
ATOM     34  C   UNL A   1      31.534  27.056  25.970  1.00  0.00     0.007 A 
ATOM     35  C   UNL A   1      33.577  28.748  26.635  1.00  0.00     0.000 A 
ATOM     36  C   UNL A   1      31.512  27.714  27.218  1.00  0.00     0.000 A 
ATOM     37  C   UNL A   1      32.531  28.586  27.545  1.00  0.00     0.000 A 
ENDBRANCH  31  32
ENDBRANCH  30  31
ENDBRANCH  27  30
ENDBRANCH  25  26
ENDBRANCH  22  25
ENDBRANCH  20  21
BRANCH  20  38
ATOM     38  C   UNL A   1      33.052  19.546  25.418  1.00  0.00     0.015 C 
ATOM     39  C   UNL A   1      32.659  18.184  25.941  1.00  0.00     0.010 C 
ATOM     40  C   UNL A   1      34.255  19.346  24.482  1.00  0.00     0.010 C 
ENDBRANCH  20  38
ENDBRANCH  17  20
ENDBRANCH  14  16
ENDBRANCH  11  14
ENDBRANCH   5  10
ENDBRANCH   1   5
BRANCH   3  41
ATOM     41  C   UNL A   1      39.000  24.368  27.568  1.00  0.00     0.116 C 
BRANCH  41  42
ATOM     42  C   UNL A   1      40.231  23.404  28.063  1.00  0.00     0.021 C 
BRANCH  42  43
ATOM     43  C   UNL A   1      41.279  22.431  27.243  1.00  0.00     0.002 C 
BRANCH  43  44
ATOM     44  C   UNL A   1      42.617  21.947  27.880  1.00  0.00     0.002 C 
BRANCH  44  45
ATOM     45  C   UNL A   1      43.352  22.703  29.015  1.00  0.00     0.021 C 
BRANCH  45  46
ATOM     46  C   UNL A   1      44.592  23.499  28.646  1.00  0.00     0.116 C 
BRANCH  46  47
ATOM     47  N   UNL A   1      44.799  23.798  27.230  1.00  0.00    -0.352 N 
ATOM     48  C   UNL A   1      44.527  25.002  26.566  1.00  0.00     0.251 C 
ATOM     49  H   UNL A   1      45.173  23.070  26.680  1.00  0.00     0.163 HD
ATOM     50  O   UNL A   1      44.724  25.144  25.395  1.00  0.00    -0.269 OA
BRANCH  48  51
ATOM     51  C   UNL A   1      43.900  26.087  27.380  1.00  0.00     0.039 A 
ATOM     52  C   UNL A   1      42.641  25.885  27.949  1.00  0.00     0.014 A 
ATOM     53  C   UNL A   1      44.667  27.187  27.745  1.00  0.00     0.014 A 
ATOM     54  C   UNL A   1      42.227  26.710  29.002  1.00  0.00     0.010 A 
ATOM     55  C   UNL A   1      44.338  27.880  28.895  1.00  0.00     0.010 A 
ATOM     56  C   UNL A   1      43.110  27.662  29.538  1.00  0.00    -0.014 A 
BRANCH  56  57
ATOM     57  C   UNL A   1      42.792  28.464  30.749  1.00  0.00     0.031 A 
ATOM     58  C   UNL A   1      41.683  29.485  30.682  1.00  0.00     0.074 A 
ATOM     59  C   UNL A   1      43.572  28.383  31.847  1.00  0.00     0.049 A 
ATOM     60  N   UNL A   1      41.341  30.392  31.559  1.00  0.00    -0.248 NA
ATOM     61  C   UNL A   1      40.903  29.543  29.432  1.00  0.00     0.031 C 
ATOM     62  C   UNL A   1      44.757  27.532  31.995  1.00  0.00     0.029 A 
ATOM     63  N   UNL A   1      43.502  29.052  33.046  1.00  0.00    -0.354 N 
ATOM     64  C   UNL A   1      40.367  31.165  30.935  1.00  0.00     0.074 A 
ATOM     65  C   UNL A   1      40.226  30.668  29.587  1.00  0.00     0.031 C 
ATOM     66  C   UNL A   1      45.281  27.709  33.219  1.00  0.00     0.029 A 
ATOM     67  C   UNL A   1      44.493  28.704  33.937  1.00  0.00     0.049 A 
ATOM     68  H   UNL A   1      42.808  29.719  33.248  1.00  0.00     0.167 HD
ATOM     69  C   UNL A   1      39.609  32.158  31.453  1.00  0.00     0.034 A 
ATOM     70  C   UNL A   1      44.724  29.131  35.195  1.00  0.00     0.034 A 
ATOM     71  C   UNL A   1      39.666  32.555  32.830  1.00  0.00     0.049 A 
ATOM     72  C   UNL A   1      43.777  30.135  35.800  1.00  0.00     0.074 A 
ATOM     73  C   UNL A   1      38.851  33.445  33.504  1.00  0.00     0.029 A 
ATOM     74  N   UNL A   1      40.579  32.063  33.749  1.00  0.00    -0.354 N 
ATOM     75  N   UNL A   1      42.743  30.726  35.250  1.00  0.00    -0.248 NA
ATOM     76  C   UNL A   1      43.997  30.499  37.207  1.00  0.00     0.031 C 
ATOM     77  C   UNL A   1      39.271  33.488  34.838  1.00  0.00     0.029 A 
ATOM     78  C   UNL A   1      40.344  32.622  34.990  1.00  0.00     0.049 A 
ATOM     79  H   UNL A   1      41.289  31.413  33.546  1.00  0.00     0.167 HD
ATOM     80  C   UNL A   1      42.171  31.505  36.249  1.00  0.00     0.074 A 
ATOM     81  C   UNL A   1      42.960  31.292  37.446  1.00  0.00     0.031 C 
ATOM     82  C   UNL A   1      41.103  32.338  36.181  1.00  0.00     0.034 A 
BRANCH  69  83
ATOM     83  C   UNL A   1      38.593  32.800  30.545  1.00  0.00     0.023 A 
ATOM     84  C   UNL A   1      39.022  33.722  29.567  1.00  0.00     0.012 A 
ATOM     85  C   UNL A   1      37.223  32.492  30.649  1.00  0.00     0.148 A 
ATOM     86  C   UNL A   1      38.102  34.368  28.744  1.00  0.00     0.002 A 
ATOM     87  C   UNL A   1      36.317  33.105  29.790  1.00  0.00     0.091 A 
ATOM     88  F   UNL A   1      36.829  31.633  31.599  1.00  0.00    -0.205 F 
ATOM     89  C   UNL A   1      36.751  34.054  28.850  1.00  0.00     0.022 A 
BRANCH  87  90
ATOM     90  S   UNL A   1      34.564  32.708  29.792  1.00  0.00     0.127 S 
ATOM     91  O   UNL A   1      34.535  31.489  28.987  1.00  0.00    -0.237 OA
ATOM     92  O   UNL A   1      34.297  32.504  31.216  1.00  0.00    -0.237 OA
ATOM     93  O   UNL A   1      33.894  33.862  29.211  1.00  0.00    -0.744 OA
ENDBRANCH  87  90
ENDBRANCH  69  83
BRANCH  70  94
ATOM     94  C   UNL A   1      45.829  28.530  35.999  1.00  0.00     0.023 A 
ATOM     95  C   UNL A   1      45.553  27.414  36.816  1.00  0.00     0.012 A 
ATOM     96  C   UNL A   1      47.148  29.018  35.937  1.00  0.00     0.148 A 
ATOM     97  C   UNL A   1      46.560  26.818  37.577  1.00  0.00     0.002 A 
ATOM     98  C   UNL A   1      48.158  28.386  36.656  1.00  0.00     0.091 A 
ATOM     99  F   UNL A   1      47.395  30.087  35.166  1.00  0.00    -0.205 F 
ATOM    100  C   UNL A   1      47.864  27.297  37.491  1.00  0.00     0.022 A 
BRANCH  98 101
ATOM    101  S   UNL A   1      49.887  28.851  36.489  1.00  0.00     0.127 S 
ATOM    102  O   UNL A   1      50.117  28.649  35.061  1.00  0.00    -0.237 OA
ATOM    103  O   UNL A   1      49.874  30.250  36.919  1.00  0.00    -0.237 OA
ATOM    104  O   UNL A   1      50.616  27.964  37.387  1.00  0.00    -0.744 OA
ENDBRANCH  98 101
ENDBRANCH  70  94
BRANCH  82 105
ATOM    105  C   UNL A   1      40.699  33.064  37.434  1.00  0.00     0.023 A 
ATOM    106  C   UNL A   1      41.326  34.281  37.763  1.00  0.00     0.012 A 
ATOM    107  C   UNL A   1      39.626  32.598  38.218  1.00  0.00     0.148 A 
ATOM    108  C   UNL A   1      40.903  35.017  38.867  1.00  0.00     0.002 A 
ATOM    109  C   UNL A   1      39.181  33.360  39.291  1.00  0.00     0.091 A 
ATOM    110  F   UNL A   1      39.058  31.427  37.897  1.00  0.00    -0.205 F 
ATOM    111  C   UNL A   1      39.823  34.564  39.622  1.00  0.00     0.022 A 
BRANCH 109 112
ATOM    112  S   UNL A   1      37.734  32.903  40.253  1.00  0.00     0.127 S 
ATOM    113  O   UNL A   1      38.119  31.590  40.764  1.00  0.00    -0.237 OA
ATOM    114  O   UNL A   1      37.684  33.961  41.263  1.00  0.00    -0.237 OA
ATOM    115  O   UNL A   1      36.615  32.912  39.320  1.00  0.00    -0.744 OA
ENDBRANCH 109 112
ENDBRANCH  82 105
ENDBRANCH  56  57
ENDBRANCH  48  51
ENDBRANCH  46  47
ENDBRANCH  45  46
ENDBRANCH  44  45
ENDBRANCH  43  44
ENDBRANCH  42  43
ENDBRANCH  41  42
ENDBRANCH   3  41
TORSDOF 29
ENDMDL
