MODEL 1
REMARK VINA RESULT:     -11.0      0.000      0.000
REMARK SMILES Cc1nc(-c2ccc(S(=O)(=O)N3CC[NH2+][C@H](C(=O)NCCCCCCNC(=O)c4ccc(-c5c6nc(c(-c7cccc(S(=O)(=O)[O-])c7F)c7ccc([nH]7)c(-c7cccc(S(=O)(=O)[O-])c7F)c7nc(c(-c8cccc(S(=O)(=O)[O-])c8F)c8ccc5[nH]8)C=C7)C=C6)cc4)C3)s2)cs1
REMARK SMILES IDX 22 1 21 2 20 3 19 4 17 5 18 6 16 8 12 9 13 10 92 11 14 12
REMARK SMILES IDX 15 13 9 16 10 17 11 18 8 19 5 20 6 21 93 22 7 23 4 24 1 25
REMARK SMILES IDX 2 26 3 27 95 28 94 29 23 30 24 31 25 32 26 33 27 34 28 36
REMARK SMILES IDX 29 37 30 38 91 39 31 40 90 41 32 42 33 43 34 44 84 45 35 46
REMARK SMILES IDX 89 47 83 48 85 49 36 50 88 51 82 52 81 53 37 55 69 56 49 57
REMARK SMILES IDX 68 58 50 59 53 60 67 61 86 62 51 63 52 64 66 66 87 67 54 68
REMARK SMILES IDX 38 69 39 70 47 71 40 72 42 73 48 74 41 75 43 76 44 77 45 78
REMARK SMILES IDX 46 79 70 80 71 81 79 82 72 83 74 84 80 85 73 86 75 87 76 88
REMARK SMILES IDX 77 89 78 90 55 91 56 92 64 93 57 94 59 95 65 96 58 97 60 98
REMARK SMILES IDX 61 99 62 100 63 101
REMARK H PARENT 19 7 15 14 15 15 26 35 85 54 53 65
REMARK Flexibility Score: inf
ROOT
ATOM      1  C   UNL A   1      35.051  30.762  28.453  1.00  0.00     0.002 C 
ENDROOT
BRANCH   1   2
ATOM      2  C   UNL A   1      35.272  29.588  27.485  1.00  0.00     0.021 C 
BRANCH   2   3
ATOM      3  C   UNL A   1      34.019  29.275  26.663  1.00  0.00     0.116 C 
BRANCH   3   4
ATOM      4  N   UNL A   1      33.072  28.568  27.500  1.00  0.00    -0.351 N 
ATOM      5  C   UNL A   1      32.118  27.664  27.145  1.00  0.00     0.279 C 
ATOM      6  O   UNL A   1      31.073  27.702  27.806  1.00  0.00    -0.268 OA
ATOM      7  H   UNL A   1      33.124  28.770  28.461  1.00  0.00     0.163 HD
BRANCH   5   8
ATOM      8  C   UNL A   1      32.383  26.522  26.123  1.00  0.00     0.287 C 
ATOM      9  N   UNL A   1      31.815  24.478  24.889  1.00  0.00    -0.185 NA
ATOM     10  C   UNL A   1      33.093  23.804  25.163  1.00  0.00     0.164 C 
ATOM     11  C   UNL A   1      31.408  25.355  26.018  1.00  0.00     0.178 C 
ATOM     12  C   UNL A   1      34.177  24.795  25.622  1.00  0.00     0.278 C 
ATOM     13  N   UNL A   1      33.787  26.026  26.333  1.00  0.00    -0.334 N 
ATOM     14  H   UNL A   1      34.422  26.766  26.038  1.00  0.00     0.347 HD
ATOM     15  H   UNL A   1      33.835  25.785  27.323  1.00  0.00     0.347 HD
BRANCH   9  16
ATOM     16  S   UNL A   1      31.368  24.888  23.304  1.00  0.00     0.253 S 
ATOM     17  O   UNL A   1      29.994  24.453  23.135  1.00  0.00    -0.206 OA
ATOM     18  O   UNL A   1      32.426  24.436  22.429  1.00  0.00    -0.206 OA
BRANCH  16  19
ATOM     19  C   UNL A   1      31.306  26.659  23.007  1.00  0.00     0.135 A 
ATOM     20  C   UNL A   1      30.327  28.923  22.741  1.00  0.00     0.055 A 
ATOM     21  C   UNL A   1      31.649  28.884  22.375  1.00  0.00     0.023 A 
ATOM     22  S   UNL A   1      29.787  27.424  23.341  1.00  0.00    -0.121 S 
ATOM     23  C   UNL A   1      32.206  27.598  22.542  1.00  0.00     0.034 A 
BRANCH  20  24
ATOM     24  C   UNL A   1      29.538  30.176  22.547  1.00  0.00     0.091 A 
ATOM     25  C   UNL A   1      27.695  32.114  20.079  1.00  0.00     0.079 C 
ATOM     26  C   UNL A   1      28.380  31.578  21.285  1.00  0.00     0.090 A 
ATOM     27  N   UNL A   1      29.150  30.517  21.260  1.00  0.00    -0.241 NA
ATOM     28  S   UNL A   1      28.208  32.319  22.824  1.00  0.00    -0.127 S 
ATOM     29  C   UNL A   1      29.132  31.049  23.531  1.00  0.00     0.096 A 
ENDBRANCH  20  24
ENDBRANCH  16  19
ENDBRANCH   9  16
ENDBRANCH   5   8
ENDBRANCH   3   4
ENDBRANCH   2   3
ENDBRANCH   1   2
BRANCH   1  30
ATOM     30  C   UNL A   1      34.994  32.133  27.770  1.00  0.00     0.002 C 
BRANCH  30  31
ATOM     31  C   UNL A   1      33.688  32.901  27.993  1.00  0.00     0.021 C 
BRANCH  31  32
ATOM     32  C   UNL A   1      33.843  34.416  27.932  1.00  0.00     0.116 C 
BRANCH  32  33
ATOM     33  N   UNL A   1      33.172  35.060  29.050  1.00  0.00    -0.352 N 
ATOM     34  C   UNL A   1      33.366  34.864  30.394  1.00  0.00     0.251 C 
ATOM     35  H   UNL A   1      32.486  35.724  28.812  1.00  0.00     0.163 HD
ATOM     36  O   UNL A   1      32.553  35.297  31.204  1.00  0.00    -0.269 OA
BRANCH  34  37
ATOM     37  C   UNL A   1      34.561  34.127  30.854  1.00  0.00     0.039 A 
ATOM     38  C   UNL A   1      35.827  34.589  30.490  1.00  0.00     0.014 A 
ATOM     39  C   UNL A   1      34.424  32.968  31.626  1.00  0.00     0.014 A 
ATOM     40  C   UNL A   1      36.962  33.902  30.926  1.00  0.00     0.010 A 
ATOM     41  C   UNL A   1      35.555  32.326  32.115  1.00  0.00     0.010 A 
ATOM     42  C   UNL A   1      36.835  32.773  31.752  1.00  0.00    -0.014 A 
BRANCH  42  43
ATOM     43  C   UNL A   1      38.029  32.031  32.225  1.00  0.00     0.031 A 
ATOM     44  C   UNL A   1      38.671  32.397  33.537  1.00  0.00     0.074 A 
ATOM     45  C   UNL A   1      38.580  31.085  31.441  1.00  0.00     0.049 A 
ATOM     46  N   UNL A   1      39.737  31.893  34.102  1.00  0.00    -0.248 NA
ATOM     47  C   UNL A   1      38.048  33.491  34.303  1.00  0.00     0.031 C 
ATOM     48  C   UNL A   1      38.099  30.703  30.111  1.00  0.00     0.029 A 
ATOM     49  N   UNL A   1      39.679  30.289  31.639  1.00  0.00    -0.354 N 
ATOM     50  C   UNL A   1      39.935  32.629  35.263  1.00  0.00     0.074 A 
ATOM     51  C   UNL A   1      38.900  33.638  35.307  1.00  0.00     0.031 C 
ATOM     52  C   UNL A   1      38.898  29.745  29.615  1.00  0.00     0.029 A 
ATOM     53  C   UNL A   1      39.954  29.457  30.579  1.00  0.00     0.049 A 
ATOM     54  H   UNL A   1      40.220  30.312  32.461  1.00  0.00     0.167 HD
ATOM     55  C   UNL A   1      40.874  32.460  36.225  1.00  0.00     0.034 A 
ATOM     56  C   UNL A   1      40.947  28.563  30.408  1.00  0.00     0.034 A 
ATOM     57  C   UNL A   1      41.864  31.419  36.205  1.00  0.00     0.049 A 
ATOM     58  C   UNL A   1      41.936  28.348  31.522  1.00  0.00     0.074 A 
ATOM     59  C   UNL A   1      42.799  31.101  37.174  1.00  0.00     0.029 A 
ATOM     60  N   UNL A   1      42.049  30.525  35.162  1.00  0.00    -0.354 N 
ATOM     61  N   UNL A   1      42.005  28.941  32.689  1.00  0.00    -0.248 NA
ATOM     62  C   UNL A   1      42.957  27.312  31.313  1.00  0.00     0.031 C 
ATOM     63  C   UNL A   1      43.558  30.020  36.711  1.00  0.00     0.029 A 
ATOM     64  C   UNL A   1      43.084  29.656  35.461  1.00  0.00     0.049 A 
ATOM     65  H   UNL A   1      41.522  30.510  34.331  1.00  0.00     0.167 HD
ATOM     66  C   UNL A   1      43.052  28.328  33.367  1.00  0.00     0.074 A 
ATOM     67  C   UNL A   1      43.573  27.301  32.488  1.00  0.00     0.031 C 
ATOM     68  C   UNL A   1      43.551  28.601  34.598  1.00  0.00     0.034 A 
BRANCH  55  69
ATOM     69  C   UNL A   1      40.827  33.382  37.415  1.00  0.00     0.023 A 
ATOM     70  C   UNL A   1      41.624  34.547  37.421  1.00  0.00     0.012 A 
ATOM     71  C   UNL A   1      39.968  33.130  38.502  1.00  0.00     0.148 A 
ATOM     72  C   UNL A   1      41.593  35.426  38.501  1.00  0.00     0.002 A 
ATOM     73  C   UNL A   1      39.911  34.033  39.557  1.00  0.00     0.091 A 
ATOM     74  F   UNL A   1      39.236  32.006  38.492  1.00  0.00    -0.205 F 
ATOM     75  C   UNL A   1      40.730  35.174  39.564  1.00  0.00     0.022 A 
BRANCH  73  76
ATOM     76  S   UNL A   1      38.777  33.838  40.938  1.00  0.00     0.127 S 
ATOM     77  O   UNL A   1      38.919  35.124  41.620  1.00  0.00    -0.237 OA
ATOM     78  O   UNL A   1      37.494  33.648  40.260  1.00  0.00    -0.237 OA
ATOM     79  O   UNL A   1      39.248  32.679  41.681  1.00  0.00    -0.744 OA
ENDBRANCH  73  76
ENDBRANCH  55  69
BRANCH  56  80
ATOM     80  C   UNL A   1      41.000  27.741  29.166  1.00  0.00     0.023 A 
ATOM     81  C   UNL A   1      40.184  26.597  29.063  1.00  0.00     0.012 A 
ATOM     82  C   UNL A   1      41.821  28.100  28.080  1.00  0.00     0.148 A 
ATOM     83  C   UNL A   1      40.209  25.806  27.913  1.00  0.00     0.002 A 
ATOM     84  C   UNL A   1      41.801  27.338  26.917  1.00  0.00     0.091 A 
ATOM     85  F   UNL A   1      42.599  29.184  28.202  1.00  0.00    -0.205 F 
ATOM     86  C   UNL A   1      41.008  26.182  26.838  1.00  0.00     0.022 A 
BRANCH  84  87
ATOM     87  S   UNL A   1      42.697  27.821  25.437  1.00  0.00     0.127 S 
ATOM     88  O   UNL A   1      42.619  26.606  24.631  1.00  0.00    -0.237 OA
ATOM     89  O   UNL A   1      41.893  28.941  24.947  1.00  0.00    -0.237 OA
ATOM     90  O   UNL A   1      44.028  28.197  25.894  1.00  0.00    -0.744 OA
ENDBRANCH  84  87
ENDBRANCH  56  80
BRANCH  68  91
ATOM     91  C   UNL A   1      44.703  27.761  35.085  1.00  0.00     0.023 A 
ATOM     92  C   UNL A   1      46.025  28.171  34.824  1.00  0.00     0.012 A 
ATOM     93  C   UNL A   1      44.475  26.607  35.858  1.00  0.00     0.148 A 
ATOM     94  C   UNL A   1      47.104  27.426  35.297  1.00  0.00     0.002 A 
ATOM     95  C   UNL A   1      45.556  25.895  36.367  1.00  0.00     0.091 A 
ATOM     96  F   UNL A   1      43.210  26.221  36.079  1.00  0.00    -0.205 F 
ATOM     97  C   UNL A   1      46.870  26.296  36.078  1.00  0.00     0.022 A 
BRANCH  95  98
ATOM     98  S   UNL A   1      45.343  24.486  37.460  1.00  0.00     0.127 S 
ATOM     99  O   UNL A   1      44.154  24.872  38.218  1.00  0.00    -0.237 OA
ATOM    100  O   UNL A   1      45.134  23.386  36.517  1.00  0.00    -0.237 OA
ATOM    101  O   UNL A   1      46.577  24.389  38.229  1.00  0.00    -0.744 OA
ENDBRANCH  95  98
ENDBRANCH  68  91
ENDBRANCH  42  43
ENDBRANCH  34  37
ENDBRANCH  32  33
ENDBRANCH  31  32
ENDBRANCH  30  31
ENDBRANCH   1  30
TORSDOF 19
ENDMDL
MODEL 2
REMARK VINA RESULT:     -11.0      2.076      4.103
REMARK SMILES Cc1nc(-c2ccc(S(=O)(=O)N3CC[NH2+][C@H](C(=O)NCCCCCCNC(=O)c4ccc(-c5c6nc(c(-c7cccc(S(=O)(=O)[O-])c7F)c7ccc([nH]7)c(-c7cccc(S(=O)(=O)[O-])c7F)c7nc(c(-c8cccc(S(=O)(=O)[O-])c8F)c8ccc5[nH]8)C=C7)C=C6)cc4)C3)s2)cs1
REMARK SMILES IDX 22 1 21 2 20 3 19 4 17 5 18 6 16 8 12 9 13 10 92 11 14 12
REMARK SMILES IDX 15 13 9 16 10 17 11 18 8 19 5 20 6 21 93 22 7 23 4 24 1 25
REMARK SMILES IDX 2 26 3 27 95 28 94 29 23 30 24 31 25 32 26 33 27 34 28 36
REMARK SMILES IDX 29 37 30 38 91 39 31 40 90 41 32 42 33 43 34 44 84 45 35 46
REMARK SMILES IDX 89 47 83 48 85 49 36 50 88 51 82 52 81 53 37 55 69 56 49 57
REMARK SMILES IDX 68 58 50 59 53 60 67 61 86 62 51 63 52 64 66 66 87 67 54 68
REMARK SMILES IDX 38 69 39 70 47 71 40 72 42 73 48 74 41 75 43 76 44 77 45 78
REMARK SMILES IDX 46 79 70 80 71 81 79 82 72 83 74 84 80 85 73 86 75 87 76 88
REMARK SMILES IDX 77 89 78 90 55 91 56 92 64 93 57 94 59 95 65 96 58 97 60 98
REMARK SMILES IDX 61 99 62 100 63 101
REMARK H PARENT 19 7 15 14 15 15 26 35 85 54 53 65
REMARK Flexibility Score: inf
ROOT
ATOM      1  C   UNL A   1      35.144  30.984  28.414  1.00  0.00     0.002 C 
ENDROOT
BRANCH   1   2
ATOM      2  C   UNL A   1      34.999  30.008  27.235  1.00  0.00     0.021 C 
BRANCH   2   3
ATOM      3  C   UNL A   1      33.647  29.290  27.245  1.00  0.00     0.116 C 
BRANCH   3   4
ATOM      4  N   UNL A   1      32.589  30.279  27.212  1.00  0.00    -0.351 N 
ATOM      5  C   UNL A   1      31.784  30.642  26.176  1.00  0.00     0.279 C 
ATOM      6  O   UNL A   1      31.470  31.838  26.138  1.00  0.00    -0.268 OA
ATOM      7  H   UNL A   1      32.431  30.757  28.057  1.00  0.00     0.163 HD
BRANCH   5   8
ATOM      8  C   UNL A   1      31.128  29.606  25.220  1.00  0.00     0.287 C 
ATOM      9  N   UNL A   1      31.098  27.582  23.832  1.00  0.00    -0.185 NA
ATOM     10  C   UNL A   1      30.503  28.241  22.659  1.00  0.00     0.164 C 
ATOM     11  C   UNL A   1      31.979  28.510  24.589  1.00  0.00     0.178 C 
ATOM     12  C   UNL A   1      29.847  29.583  23.028  1.00  0.00     0.278 C 
ATOM     13  N   UNL A   1      30.366  30.361  24.167  1.00  0.00    -0.334 N 
ATOM     14  H   UNL A   1      29.570  30.806  24.623  1.00  0.00     0.347 HD
ATOM     15  H   UNL A   1      31.045  31.004  23.760  1.00  0.00     0.347 HD
BRANCH   9  16
ATOM     16  S   UNL A   1      30.269  26.351  24.655  1.00  0.00     0.253 S 
ATOM     17  O   UNL A   1      28.887  26.418  24.217  1.00  0.00    -0.206 OA
ATOM     18  O   UNL A   1      30.634  26.446  26.049  1.00  0.00    -0.206 OA
BRANCH  16  19
ATOM     19  C   UNL A   1      30.794  24.696  24.194  1.00  0.00     0.135 A 
ATOM     20  C   UNL A   1      31.931  22.498  24.378  1.00  0.00     0.055 A 
ATOM     21  C   UNL A   1      31.396  22.701  23.131  1.00  0.00     0.023 A 
ATOM     22  S   UNL A   1      31.580  23.782  25.440  1.00  0.00    -0.121 S 
ATOM     23  C   UNL A   1      30.737  23.946  23.035  1.00  0.00     0.034 A 
BRANCH  20  24
ATOM     24  C   UNL A   1      32.749  21.278  24.647  1.00  0.00     0.091 A 
ATOM     25  C   UNL A   1      32.581  17.654  24.934  1.00  0.00     0.079 C 
ATOM     26  C   UNL A   1      32.965  19.090  24.905  1.00  0.00     0.090 A 
ATOM     27  N   UNL A   1      32.095  20.063  24.781  1.00  0.00    -0.241 NA
ATOM     28  S   UNL A   1      34.604  19.588  25.028  1.00  0.00    -0.127 S 
ATOM     29  C   UNL A   1      34.119  21.220  24.770  1.00  0.00     0.096 A 
ENDBRANCH  20  24
ENDBRANCH  16  19
ENDBRANCH   9  16
ENDBRANCH   5   8
ENDBRANCH   3   4
ENDBRANCH   2   3
ENDBRANCH   1   2
BRANCH   1  30
ATOM     30  C   UNL A   1      35.282  32.453  27.996  1.00  0.00     0.002 C 
BRANCH  30  31
ATOM     31  C   UNL A   1      33.990  33.268  28.108  1.00  0.00     0.021 C 
BRANCH  31  32
ATOM     32  C   UNL A   1      34.218  34.765  28.294  1.00  0.00     0.116 C 
BRANCH  32  33
ATOM     33  N   UNL A   1      33.484  35.270  29.444  1.00  0.00    -0.352 N 
ATOM     34  C   UNL A   1      33.619  34.927  30.765  1.00  0.00     0.251 C 
ATOM     35  H   UNL A   1      32.798  35.948  29.247  1.00  0.00     0.163 HD
ATOM     36  O   UNL A   1      32.761  35.256  31.578  1.00  0.00    -0.269 OA
BRANCH  34  37
ATOM     37  C   UNL A   1      34.804  34.159  31.197  1.00  0.00     0.039 A 
ATOM     38  C   UNL A   1      34.622  32.934  31.842  1.00  0.00     0.014 A 
ATOM     39  C   UNL A   1      36.092  34.662  30.984  1.00  0.00     0.014 A 
ATOM     40  C   UNL A   1      35.736  32.197  32.249  1.00  0.00     0.010 A 
ATOM     41  C   UNL A   1      37.199  33.896  31.328  1.00  0.00     0.010 A 
ATOM     42  C   UNL A   1      37.033  32.667  31.983  1.00  0.00    -0.014 A 
BRANCH  42  43
ATOM     43  C   UNL A   1      38.228  31.898  32.407  1.00  0.00     0.031 A 
ATOM     44  C   UNL A   1      38.924  32.240  33.698  1.00  0.00     0.074 A 
ATOM     45  C   UNL A   1      38.732  30.948  31.597  1.00  0.00     0.049 A 
ATOM     46  N   UNL A   1      40.000  31.712  34.220  1.00  0.00    -0.248 NA
ATOM     47  C   UNL A   1      38.351  33.340  34.494  1.00  0.00     0.031 C 
ATOM     48  C   UNL A   1      38.197  30.587  30.282  1.00  0.00     0.029 A 
ATOM     49  N   UNL A   1      39.822  30.130  31.748  1.00  0.00    -0.354 N 
ATOM     50  C   UNL A   1      40.254  32.435  35.378  1.00  0.00     0.074 A 
ATOM     51  C   UNL A   1      39.241  33.463  35.468  1.00  0.00     0.031 C 
ATOM     52  C   UNL A   1      38.958  29.618  29.750  1.00  0.00     0.029 A 
ATOM     53  C   UNL A   1      40.043  29.302  30.673  1.00  0.00     0.049 A 
ATOM     54  H   UNL A   1      40.393  30.136  32.551  1.00  0.00     0.167 HD
ATOM     55  C   UNL A   1      41.223  32.240  36.305  1.00  0.00     0.034 A 
ATOM     56  C   UNL A   1      41.012  28.390  30.459  1.00  0.00     0.034 A 
ATOM     57  C   UNL A   1      42.192  31.180  36.241  1.00  0.00     0.049 A 
ATOM     58  C   UNL A   1      42.036  28.147  31.534  1.00  0.00     0.074 A 
ATOM     59  C   UNL A   1      43.155  30.836  37.173  1.00  0.00     0.029 A 
ATOM     60  N   UNL A   1      42.322  30.292  35.185  1.00  0.00    -0.354 N 
ATOM     61  N   UNL A   1      42.158  28.730  32.703  1.00  0.00    -0.248 NA
ATOM     62  C   UNL A   1      43.029  27.095  31.281  1.00  0.00     0.031 C 
ATOM     63  C   UNL A   1      43.876  29.745  36.674  1.00  0.00     0.029 A 
ATOM     64  C   UNL A   1      43.351  29.401  35.439  1.00  0.00     0.049 A 
ATOM     65  H   UNL A   1      41.766  30.294  34.373  1.00  0.00     0.167 HD
ATOM     66  C   UNL A   1      43.218  28.091  33.338  1.00  0.00     0.074 A 
ATOM     67  C   UNL A   1      43.686  27.062  32.432  1.00  0.00     0.031 C 
ATOM     68  C   UNL A   1      43.766  28.345  34.552  1.00  0.00     0.034 A 
BRANCH  55  69
ATOM     69  C   UNL A   1      41.238  33.153  37.503  1.00  0.00     0.023 A 
ATOM     70  C   UNL A   1      40.381  32.883  38.590  1.00  0.00     0.012 A 
ATOM     71  C   UNL A   1      42.125  34.244  37.578  1.00  0.00     0.148 A 
ATOM     72  C   UNL A   1      40.382  33.702  39.718  1.00  0.00     0.002 A 
ATOM     73  C   UNL A   1      42.150  35.031  38.724  1.00  0.00     0.091 A 
ATOM     74  F   UNL A   1      42.915  34.501  36.525  1.00  0.00    -0.205 F 
ATOM     75  C   UNL A   1      41.272  34.769  39.788  1.00  0.00     0.022 A 
BRANCH  73  76
ATOM     76  S   UNL A   1      43.313  36.385  38.943  1.00  0.00     0.127 S 
ATOM     77  O   UNL A   1      44.585  35.731  38.642  1.00  0.00    -0.237 OA
ATOM     78  O   UNL A   1      42.866  37.342  37.931  1.00  0.00    -0.237 OA
ATOM     79  O   UNL A   1      43.147  36.835  40.317  1.00  0.00    -0.744 OA
ENDBRANCH  73  76
ENDBRANCH  55  69
BRANCH  56  80
ATOM     80  C   UNL A   1      41.004  27.578  29.210  1.00  0.00     0.023 A 
ATOM     81  C   UNL A   1      40.105  26.499  29.096  1.00  0.00     0.012 A 
ATOM     82  C   UNL A   1      41.850  27.884  28.127  1.00  0.00     0.148 A 
ATOM     83  C   UNL A   1      40.071  25.720  27.939  1.00  0.00     0.002 A 
ATOM     84  C   UNL A   1      41.774  27.136  26.957  1.00  0.00     0.091 A 
ATOM     85  F   UNL A   1      42.707  28.906  28.259  1.00  0.00    -0.205 F 
ATOM     86  C   UNL A   1      40.897  26.044  26.868  1.00  0.00     0.022 A 
BRANCH  84  87
ATOM     87  S   UNL A   1      42.706  27.564  25.482  1.00  0.00     0.127 S 
ATOM     88  O   UNL A   1      44.066  27.659  26.005  1.00  0.00    -0.237 OA
ATOM     89  O   UNL A   1      42.455  26.410  24.619  1.00  0.00    -0.237 OA
ATOM     90  O   UNL A   1      42.122  28.808  25.001  1.00  0.00    -0.744 OA
ENDBRANCH  84  87
ENDBRANCH  56  80
BRANCH  68  91
ATOM     91  C   UNL A   1      44.917  27.479  34.990  1.00  0.00     0.023 A 
ATOM     92  C   UNL A   1      46.240  27.894  34.736  1.00  0.00     0.012 A 
ATOM     93  C   UNL A   1      44.692  26.292  35.714  1.00  0.00     0.148 A 
ATOM     94  C   UNL A   1      47.319  27.124  35.166  1.00  0.00     0.002 A 
ATOM     95  C   UNL A   1      45.774  25.554  36.180  1.00  0.00     0.091 A 
ATOM     96  F   UNL A   1      43.427  25.901  35.928  1.00  0.00    -0.205 F 
ATOM     97  C   UNL A   1      47.087  25.962  35.897  1.00  0.00     0.022 A 
BRANCH  95  98
ATOM     98  S   UNL A   1      45.564  24.097  37.211  1.00  0.00     0.127 S 
ATOM     99  O   UNL A   1      44.679  24.599  38.261  1.00  0.00    -0.237 OA
ATOM    100  O   UNL A   1      44.940  23.148  36.289  1.00  0.00    -0.237 OA
ATOM    101  O   UNL A   1      46.904  23.721  37.643  1.00  0.00    -0.744 OA
ENDBRANCH  95  98
ENDBRANCH  68  91
ENDBRANCH  42  43
ENDBRANCH  34  37
ENDBRANCH  32  33
ENDBRANCH  31  32
ENDBRANCH  30  31
ENDBRANCH   1  30
TORSDOF 19
ENDMDL
MODEL 3
REMARK VINA RESULT:     -10.7      2.047      4.287
REMARK SMILES Cc1nc(-c2ccc(S(=O)(=O)N3CC[NH2+][C@H](C(=O)NCCCCCCNC(=O)c4ccc(-c5c6nc(c(-c7cccc(S(=O)(=O)[O-])c7F)c7ccc([nH]7)c(-c7cccc(S(=O)(=O)[O-])c7F)c7nc(c(-c8cccc(S(=O)(=O)[O-])c8F)c8ccc5[nH]8)C=C7)C=C6)cc4)C3)s2)cs1
REMARK SMILES IDX 22 1 21 2 20 3 19 4 17 5 18 6 16 8 12 9 13 10 92 11 14 12
REMARK SMILES IDX 15 13 9 16 10 17 11 18 8 19 5 20 6 21 93 22 7 23 4 24 1 25
REMARK SMILES IDX 2 26 3 27 95 28 94 29 23 30 24 31 25 32 26 33 27 34 28 36
REMARK SMILES IDX 29 37 30 38 91 39 31 40 90 41 32 42 33 43 34 44 84 45 35 46
REMARK SMILES IDX 89 47 83 48 85 49 36 50 88 51 82 52 81 53 37 55 69 56 49 57
REMARK SMILES IDX 68 58 50 59 53 60 67 61 86 62 51 63 52 64 66 66 87 67 54 68
REMARK SMILES IDX 38 69 39 70 47 71 40 72 42 73 48 74 41 75 43 76 44 77 45 78
REMARK SMILES IDX 46 79 70 80 71 81 79 82 72 83 74 84 80 85 73 86 75 87 76 88
REMARK SMILES IDX 77 89 78 90 55 91 56 92 64 93 57 94 59 95 65 96 58 97 60 98
REMARK SMILES IDX 61 99 62 100 63 101
REMARK H PARENT 19 7 15 14 15 15 26 35 85 54 53 65
REMARK Flexibility Score: inf
ROOT
ATOM      1  C   UNL A   1      34.180  31.090  27.641  1.00  0.00     0.002 C 
ENDROOT
BRANCH   1   2
ATOM      2  C   UNL A   1      32.810  30.994  26.950  1.00  0.00     0.021 C 
BRANCH   2   3
ATOM      3  C   UNL A   1      32.773  29.883  25.897  1.00  0.00     0.116 C 
BRANCH   3   4
ATOM      4  N   UNL A   1      31.637  30.100  25.025  1.00  0.00    -0.351 N 
ATOM      5  C   UNL A   1      31.097  29.268  24.092  1.00  0.00     0.279 C 
ATOM      6  O   UNL A   1      30.642  29.820  23.082  1.00  0.00    -0.268 OA
ATOM      7  H   UNL A   1      31.192  30.973  25.119  1.00  0.00     0.163 HD
BRANCH   5   8
ATOM      8  C   UNL A   1      30.872  27.752  24.351  1.00  0.00     0.287 C 
ATOM      9  N   UNL A   1      31.509  25.381  24.322  1.00  0.00    -0.185 NA
ATOM     10  C   UNL A   1      30.250  24.918  23.718  1.00  0.00     0.164 C 
ATOM     11  C   UNL A   1      31.883  26.734  23.833  1.00  0.00     0.178 C 
ATOM     12  C   UNL A   1      29.135  25.971  23.841  1.00  0.00     0.278 C 
ATOM     13  N   UNL A   1      29.483  27.402  23.893  1.00  0.00    -0.334 N 
ATOM     14  H   UNL A   1      28.827  27.854  24.528  1.00  0.00     0.347 HD
ATOM     15  H   UNL A   1      29.437  27.720  22.926  1.00  0.00     0.347 HD
BRANCH   9  16
ATOM     16  S   UNL A   1      31.951  24.902  25.889  1.00  0.00     0.253 S 
ATOM     17  O   UNL A   1      30.733  24.883  26.677  1.00  0.00    -0.206 OA
ATOM     18  O   UNL A   1      33.097  25.694  26.272  1.00  0.00    -0.206 OA
BRANCH  16  19
ATOM     19  C   UNL A   1      32.558  23.213  25.982  1.00  0.00     0.135 A 
ATOM     20  C   UNL A   1      32.869  20.833  25.353  1.00  0.00     0.055 A 
ATOM     21  C   UNL A   1      33.403  21.117  26.584  1.00  0.00     0.023 A 
ATOM     22  S   UNL A   1      32.228  22.219  24.600  1.00  0.00    -0.121 S 
ATOM     23  C   UNL A   1      33.237  22.476  26.931  1.00  0.00     0.034 A 
BRANCH  20  24
ATOM     24  C   UNL A   1      32.863  19.426  24.852  1.00  0.00     0.091 A 
ATOM     25  C   UNL A   1      32.397  15.964  25.872  1.00  0.00     0.079 C 
ATOM     26  C   UNL A   1      32.657  17.244  25.162  1.00  0.00     0.090 A 
ATOM     27  N   UNL A   1      32.755  18.398  25.776  1.00  0.00    -0.241 NA
ATOM     28  S   UNL A   1      32.848  17.306  23.456  1.00  0.00    -0.127 S 
ATOM     29  C   UNL A   1      32.943  19.024  23.538  1.00  0.00     0.096 A 
ENDBRANCH  20  24
ENDBRANCH  16  19
ENDBRANCH   9  16
ENDBRANCH   5   8
ENDBRANCH   3   4
ENDBRANCH   2   3
ENDBRANCH   1   2
BRANCH   1  30
ATOM     30  C   UNL A   1      34.590  32.518  28.020  1.00  0.00     0.002 C 
BRANCH  30  31
ATOM     31  C   UNL A   1      33.442  33.531  28.015  1.00  0.00     0.021 C 
BRANCH  31  32
ATOM     32  C   UNL A   1      33.860  34.941  28.417  1.00  0.00     0.116 C 
BRANCH  32  33
ATOM     33  N   UNL A   1      33.114  35.401  29.578  1.00  0.00    -0.352 N 
ATOM     34  C   UNL A   1      33.262  35.034  30.891  1.00  0.00     0.251 C 
ATOM     35  H   UNL A   1      32.408  36.063  29.397  1.00  0.00     0.163 HD
ATOM     36  O   UNL A   1      32.396  35.321  31.712  1.00  0.00    -0.269 OA
BRANCH  34  37
ATOM     37  C   UNL A   1      34.469  34.292  31.306  1.00  0.00     0.039 A 
ATOM     38  C   UNL A   1      35.717  34.907  31.194  1.00  0.00     0.014 A 
ATOM     39  C   UNL A   1      34.365  32.981  31.782  1.00  0.00     0.014 A 
ATOM     40  C   UNL A   1      36.864  34.215  31.589  1.00  0.00     0.010 A 
ATOM     41  C   UNL A   1      35.499  32.320  32.238  1.00  0.00     0.010 A 
ATOM     42  C   UNL A   1      36.762  32.921  32.126  1.00  0.00    -0.014 A 
BRANCH  42  43
ATOM     43  C   UNL A   1      37.968  32.171  32.552  1.00  0.00     0.031 A 
ATOM     44  C   UNL A   1      38.662  32.529  33.839  1.00  0.00     0.074 A 
ATOM     45  C   UNL A   1      38.483  31.222  31.746  1.00  0.00     0.049 A 
ATOM     46  N   UNL A   1      39.746  32.017  34.362  1.00  0.00    -0.248 NA
ATOM     47  C   UNL A   1      38.076  33.626  34.630  1.00  0.00     0.031 C 
ATOM     48  C   UNL A   1      37.950  30.847  30.435  1.00  0.00     0.029 A 
ATOM     49  N   UNL A   1      39.584  30.419  31.900  1.00  0.00    -0.354 N 
ATOM     50  C   UNL A   1      39.993  32.750  35.516  1.00  0.00     0.074 A 
ATOM     51  C   UNL A   1      38.967  33.765  35.602  1.00  0.00     0.031 C 
ATOM     52  C   UNL A   1      38.722  29.885  29.906  1.00  0.00     0.029 A 
ATOM     53  C   UNL A   1      39.813  29.588  30.829  1.00  0.00     0.049 A 
ATOM     54  H   UNL A   1      40.156  30.437  32.701  1.00  0.00     0.167 HD
ATOM     55  C   UNL A   1      40.966  32.572  36.442  1.00  0.00     0.034 A 
ATOM     56  C   UNL A   1      40.793  28.688  30.618  1.00  0.00     0.034 A 
ATOM     57  C   UNL A   1      41.948  31.525  36.382  1.00  0.00     0.049 A 
ATOM     58  C   UNL A   1      41.822  28.464  31.693  1.00  0.00     0.074 A 
ATOM     59  C   UNL A   1      42.918  31.199  37.314  1.00  0.00     0.029 A 
ATOM     60  N   UNL A   1      42.088  30.632  35.331  1.00  0.00    -0.354 N 
ATOM     61  N   UNL A   1      41.939  29.054  32.858  1.00  0.00    -0.248 NA
ATOM     62  C   UNL A   1      42.828  27.423  31.443  1.00  0.00     0.031 C 
ATOM     63  C   UNL A   1      43.651  30.114  36.820  1.00  0.00     0.029 A 
ATOM     64  C   UNL A   1      43.128  29.756  35.588  1.00  0.00     0.049 A 
ATOM     65  H   UNL A   1      41.530  30.623  34.520  1.00  0.00     0.167 HD
ATOM     66  C   UNL A   1      43.008  28.433  33.494  1.00  0.00     0.074 A 
ATOM     67  C   UNL A   1      43.488  27.405  32.593  1.00  0.00     0.031 C 
ATOM     68  C   UNL A   1      43.555  28.701  34.706  1.00  0.00     0.034 A 
BRANCH  55  69
ATOM     69  C   UNL A   1      40.971  33.493  37.634  1.00  0.00     0.023 A 
ATOM     70  C   UNL A   1      41.841  34.603  37.649  1.00  0.00     0.012 A 
ATOM     71  C   UNL A   1      40.090  33.293  38.715  1.00  0.00     0.148 A 
ATOM     72  C   UNL A   1      41.859  35.479  38.732  1.00  0.00     0.002 A 
ATOM     73  C   UNL A   1      40.084  34.195  39.772  1.00  0.00     0.091 A 
ATOM     74  F   UNL A   1      39.287  32.219  38.696  1.00  0.00    -0.205 F 
ATOM     75  C   UNL A   1      40.975  35.281  39.789  1.00  0.00     0.022 A 
BRANCH  73  76
ATOM     76  S   UNL A   1      38.930  34.070  41.145  1.00  0.00     0.127 S 
ATOM     77  O   UNL A   1      39.529  32.997  41.936  1.00  0.00    -0.237 OA
ATOM     78  O   UNL A   1      39.025  35.398  41.750  1.00  0.00    -0.237 OA
ATOM     79  O   UNL A   1      37.636  33.765  40.553  1.00  0.00    -0.744 OA
ENDBRANCH  73  76
ENDBRANCH  55  69
BRANCH  56  80
ATOM     80  C   UNL A   1      40.793  27.869  29.373  1.00  0.00     0.023 A 
ATOM     81  C   UNL A   1      39.889  26.794  29.257  1.00  0.00     0.012 A 
ATOM     82  C   UNL A   1      41.652  28.163  28.298  1.00  0.00     0.148 A 
ATOM     83  C   UNL A   1      39.862  26.008  28.104  1.00  0.00     0.002 A 
ATOM     84  C   UNL A   1      41.584  27.409  27.132  1.00  0.00     0.091 A 
ATOM     85  F   UNL A   1      42.514  29.181  28.433  1.00  0.00    -0.205 F 
ATOM     86  C   UNL A   1      40.701  26.321  27.039  1.00  0.00     0.022 A 
BRANCH  84  87
ATOM     87  S   UNL A   1      42.533  27.823  25.664  1.00  0.00     0.127 S 
ATOM     88  O   UNL A   1      42.185  26.727  24.764  1.00  0.00    -0.237 OA
ATOM     89  O   UNL A   1      41.973  29.124  25.297  1.00  0.00    -0.237 OA
ATOM     90  O   UNL A   1      43.922  27.872  26.100  1.00  0.00    -0.744 OA
ENDBRANCH  84  87
ENDBRANCH  56  80
BRANCH  68  91
ATOM     91  C   UNL A   1      44.719  27.852  35.147  1.00  0.00     0.023 A 
ATOM     92  C   UNL A   1      46.035  28.295  34.910  1.00  0.00     0.012 A 
ATOM     93  C   UNL A   1      44.509  26.653  35.855  1.00  0.00     0.148 A 
ATOM     94  C   UNL A   1      47.125  27.541  35.342  1.00  0.00     0.002 A 
ATOM     95  C   UNL A   1      45.600  25.931  36.325  1.00  0.00     0.091 A 
ATOM     96  F   UNL A   1      43.249  26.237  36.053  1.00  0.00    -0.205 F 
ATOM     97  C   UNL A   1      46.908  26.367  36.059  1.00  0.00     0.022 A 
BRANCH  95  98
ATOM     98  S   UNL A   1      45.408  24.460  37.338  1.00  0.00     0.127 S 
ATOM     99  O   UNL A   1      44.448  24.913  38.343  1.00  0.00    -0.237 OA
ATOM    100  O   UNL A   1      44.877  23.488  36.382  1.00  0.00    -0.237 OA
ATOM    101  O   UNL A   1      46.740  24.145  37.837  1.00  0.00    -0.744 OA
ENDBRANCH  95  98
ENDBRANCH  68  91
ENDBRANCH  42  43
ENDBRANCH  34  37
ENDBRANCH  32  33
ENDBRANCH  31  32
ENDBRANCH  30  31
ENDBRANCH   1  30
TORSDOF 19
ENDMDL
