MODEL 1
REMARK VINA RESULT:     -12.0      0.000      0.000
REMARK SMILES O=C(NCCCCCCNC(=O)c1ccc2nc(C3CCCCC3)[nH]c2c1)c1ccc(-c2c3nc(c(-c4cccc(S(=O)(=O)[O-])c4F)c4ccc([nH]4)c(-c4cccc(S(=O)(=O)[O-])c4F)c4nc(c(-c5cccc(S(=O)(=O)[O-])c5F)c5ccc2[nH]5)C=C4)C=C3)cc1
REMARK SMILES IDX 5 1 4 2 3 3 1 4 2 5 28 7 29 8 90 9 30 10 89 11 31 12 32 13
REMARK SMILES IDX 33 14 83 15 34 16 88 17 82 18 84 19 35 20 87 21 81 22 80 23
REMARK SMILES IDX 36 25 68 26 48 27 67 28 49 29 52 30 66 31 85 32 50 33 51 34
REMARK SMILES IDX 65 36 86 37 53 38 37 39 38 40 46 41 39 42 41 43 47 44 40 45
REMARK SMILES IDX 42 46 43 47 44 48 45 49 69 50 70 51 78 52 71 53 73 54 79 55
REMARK SMILES IDX 72 56 74 57 75 58 76 59 77 60 54 61 55 62 63 63 56 64 58 65
REMARK SMILES IDX 64 66 57 67 59 68 60 69 61 70 62 71 6 72 7 73 8 74 9 75
REMARK SMILES IDX 10 76 11 77 12 79 13 80 14 81 27 82 15 83 26 84 16 85 25 86
REMARK SMILES IDX 17 87 18 88 19 90 20 91 24 92 21 93 23 94 22 95
REMARK H PARENT 3 6 84 24 52 35 10 78 25 89
REMARK Flexibility Score: inf
ROOT
ATOM      1  C   UNL A   1      35.664  23.065  24.715  1.00  0.00     0.021 C 
ENDROOT
BRANCH   1   2
ATOM      2  C   UNL A   1      36.352  22.729  26.031  1.00  0.00     0.116 C 
BRANCH   2   3
ATOM      3  N   UNL A   1      37.257  21.597  25.928  1.00  0.00    -0.352 N 
ATOM      4  O   UNL A   1      39.250  20.548  25.817  1.00  0.00    -0.269 OA
ATOM      5  C   UNL A   1      38.626  21.576  26.066  1.00  0.00     0.251 C 
ATOM      6  H   UNL A   1      36.833  20.729  25.736  1.00  0.00     0.163 HD
BRANCH   5   7
ATOM      7  C   UNL A   1      39.339  22.806  26.482  1.00  0.00     0.039 A 
ATOM      8  C   UNL A   1      40.294  22.764  27.499  1.00  0.00     0.014 A 
ATOM      9  C   UNL A   1      39.037  24.020  25.858  1.00  0.00     0.014 A 
ATOM     10  C   UNL A   1      40.830  23.947  27.994  1.00  0.00     0.010 A 
ATOM     11  C   UNL A   1      39.649  25.201  26.297  1.00  0.00     0.010 A 
ATOM     12  C   UNL A   1      40.527  25.180  27.391  1.00  0.00    -0.014 A 
BRANCH  12  13
ATOM     13  C   UNL A   1      41.218  26.402  27.880  1.00  0.00     0.031 A 
ATOM     14  C   UNL A   1      42.651  26.699  27.533  1.00  0.00     0.074 A 
ATOM     15  C   UNL A   1      40.509  27.277  28.621  1.00  0.00     0.049 A 
ATOM     16  N   UNL A   1      43.353  27.771  27.804  1.00  0.00    -0.248 NA
ATOM     17  C   UNL A   1      43.399  25.668  26.799  1.00  0.00     0.031 C 
ATOM     18  C   UNL A   1      39.132  27.065  29.077  1.00  0.00     0.029 A 
ATOM     19  N   UNL A   1      40.830  28.517  29.107  1.00  0.00    -0.354 N 
ATOM     20  C   UNL A   1      44.627  27.536  27.303  1.00  0.00     0.074 A 
ATOM     21  C   UNL A   1      44.609  26.212  26.719  1.00  0.00     0.031 C 
ATOM     22  C   UNL A   1      38.713  28.153  29.735  1.00  0.00     0.029 A 
ATOM     23  C   UNL A   1      39.801  29.123  29.789  1.00  0.00     0.049 A 
ATOM     24  H   UNL A   1      41.713  28.935  28.980  1.00  0.00     0.167 HD
ATOM     25  C   UNL A   1      45.706  28.358  27.308  1.00  0.00     0.034 A 
ATOM     26  C   UNL A   1      39.734  30.325  30.391  1.00  0.00     0.034 A 
ATOM     27  C   UNL A   1      45.709  29.688  27.861  1.00  0.00     0.049 A 
ATOM     28  C   UNL A   1      40.924  31.236  30.325  1.00  0.00     0.074 A 
ATOM     29  C   UNL A   1      46.743  30.609  27.880  1.00  0.00     0.029 A 
ATOM     30  N   UNL A   1      44.630  30.289  28.490  1.00  0.00    -0.354 N 
ATOM     31  N   UNL A   1      42.077  31.041  29.732  1.00  0.00    -0.248 NA
ATOM     32  C   UNL A   1      40.795  32.544  30.981  1.00  0.00     0.031 C 
ATOM     33  C   UNL A   1      46.288  31.766  28.524  1.00  0.00     0.029 A 
ATOM     34  C   UNL A   1      44.970  31.569  28.898  1.00  0.00     0.049 A 
ATOM     35  H   UNL A   1      43.751  29.868  28.628  1.00  0.00     0.167 HD
ATOM     36  C   UNL A   1      42.811  32.201  29.939  1.00  0.00     0.074 A 
ATOM     37  C   UNL A   1      41.952  33.113  30.670  1.00  0.00     0.031 C 
ATOM     38  C   UNL A   1      44.090  32.477  29.588  1.00  0.00     0.034 A 
BRANCH  25  39
ATOM     39  C   UNL A   1      46.966  27.871  26.640  1.00  0.00     0.023 A 
ATOM     40  C   UNL A   1      47.937  27.201  27.412  1.00  0.00     0.012 A 
ATOM     41  C   UNL A   1      47.152  27.988  25.248  1.00  0.00     0.148 A 
ATOM     42  C   UNL A   1      49.081  26.673  26.815  1.00  0.00     0.002 A 
ATOM     43  C   UNL A   1      48.279  27.427  24.654  1.00  0.00     0.091 A 
ATOM     44  F   UNL A   1      46.227  28.644  24.532  1.00  0.00    -0.205 F 
ATOM     45  C   UNL A   1      49.246  26.776  25.436  1.00  0.00     0.022 A 
BRANCH  43  46
ATOM     46  S   UNL A   1      48.552  27.445  22.878  1.00  0.00     0.127 S 
ATOM     47  O   UNL A   1      47.404  28.219  22.410  1.00  0.00    -0.237 OA
ATOM     48  O   UNL A   1      49.837  28.136  22.769  1.00  0.00    -0.237 OA
ATOM     49  O   UNL A   1      48.577  26.050  22.462  1.00  0.00    -0.744 OA
ENDBRANCH  43  46
ENDBRANCH  25  39
BRANCH  26  50
ATOM     50  C   UNL A   1      38.470  30.743  31.059  1.00  0.00     0.023 A 
ATOM     51  C   UNL A   1      38.317  30.551  32.445  1.00  0.00     0.012 A 
ATOM     52  C   UNL A   1      37.445  31.386  30.339  1.00  0.00     0.148 A 
ATOM     53  C   UNL A   1      37.158  30.973  33.098  1.00  0.00     0.002 A 
ATOM     54  C   UNL A   1      36.322  31.861  31.006  1.00  0.00     0.091 A 
ATOM     55  F   UNL A   1      37.593  31.539  29.016  1.00  0.00    -0.205 F 
ATOM     56  C   UNL A   1      36.167  31.642  32.382  1.00  0.00     0.022 A 
BRANCH  54  57
ATOM     57  S   UNL A   1      35.099  32.875  30.167  1.00  0.00     0.127 S 
ATOM     58  O   UNL A   1      34.568  31.947  29.173  1.00  0.00    -0.237 OA
ATOM     59  O   UNL A   1      34.174  33.213  31.249  1.00  0.00    -0.237 OA
ATOM     60  O   UNL A   1      35.847  34.015  29.653  1.00  0.00    -0.744 OA
ENDBRANCH  54  57
ENDBRANCH  26  50
BRANCH  38  61
ATOM     61  C   UNL A   1      44.638  33.816  30.000  1.00  0.00     0.023 A 
ATOM     62  C   UNL A   1      45.340  33.929  31.216  1.00  0.00     0.012 A 
ATOM     63  C   UNL A   1      44.493  34.949  29.178  1.00  0.00     0.148 A 
ATOM     64  C   UNL A   1      45.857  35.157  31.627  1.00  0.00     0.002 A 
ATOM     65  C   UNL A   1      45.046  36.162  29.574  1.00  0.00     0.091 A 
ATOM     66  F   UNL A   1      43.800  34.830  28.036  1.00  0.00    -0.205 F 
ATOM     67  C   UNL A   1      45.719  36.270  30.802  1.00  0.00     0.022 A 
BRANCH  65  68
ATOM     68  S   UNL A   1      44.978  37.623  28.530  1.00  0.00     0.127 S 
ATOM     69  O   UNL A   1      45.692  37.171  27.337  1.00  0.00    -0.237 OA
ATOM     70  O   UNL A   1      43.538  37.812  28.344  1.00  0.00    -0.237 OA
ATOM     71  O   UNL A   1      45.627  38.680  29.294  1.00  0.00    -0.744 OA
ENDBRANCH  65  68
ENDBRANCH  38  61
ENDBRANCH  12  13
ENDBRANCH   5   7
ENDBRANCH   2   3
ENDBRANCH   1   2
BRANCH   1  72
ATOM     72  C   UNL A   1      35.035  24.455  24.641  1.00  0.00     0.002 C 
BRANCH  72  73
ATOM     73  C   UNL A   1      34.236  24.760  23.371  1.00  0.00     0.002 C 
BRANCH  73  74
ATOM     74  C   UNL A   1      33.392  26.040  23.397  1.00  0.00     0.021 C 
BRANCH  74  75
ATOM     75  C   UNL A   1      33.107  26.616  24.782  1.00  0.00     0.116 C 
BRANCH  75  76
ATOM     76  N   UNL A   1      31.690  26.606  25.101  1.00  0.00    -0.352 N 
ATOM     77  C   UNL A   1      30.901  25.553  25.486  1.00  0.00     0.251 C 
ATOM     78  H   UNL A   1      31.233  27.474  25.030  1.00  0.00     0.163 HD
ATOM     79  O   UNL A   1      29.684  25.681  25.568  1.00  0.00    -0.269 OA
BRANCH  77  80
ATOM     80  C   UNL A   1      31.520  24.244  25.775  1.00  0.00     0.042 A 
ATOM     81  C   UNL A   1      32.240  24.043  26.962  1.00  0.00     0.016 A 
ATOM     82  C   UNL A   1      31.334  23.214  24.842  1.00  0.00     0.042 A 
ATOM     83  C   UNL A   1      32.845  22.806  27.224  1.00  0.00     0.031 A 
ATOM     84  C   UNL A   1      31.949  21.997  25.136  1.00  0.00     0.066 A 
ATOM     85  C   UNL A   1      32.696  21.774  26.287  1.00  0.00     0.089 A 
ATOM     86  N   UNL A   1      31.997  20.803  24.466  1.00  0.00    -0.342 N 
ATOM     87  N   UNL A   1      33.183  20.492  26.310  1.00  0.00    -0.233 NA
ATOM     88  C   UNL A   1      32.754  19.923  25.202  1.00  0.00     0.110 A 
ATOM     89  H   UNL A   1      31.564  20.608  23.604  1.00  0.00     0.168 HD
BRANCH  88  90
ATOM     90  C   UNL A   1      33.008  18.507  24.783  1.00  0.00     0.055 C 
ATOM     91  C   UNL A   1      34.485  18.303  24.413  1.00  0.00     0.011 C 
ATOM     92  C   UNL A   1      32.555  17.502  25.852  1.00  0.00     0.011 C 
ATOM     93  C   UNL A   1      34.766  16.862  23.998  1.00  0.00     0.001 C 
ATOM     94  C   UNL A   1      32.848  16.063  25.429  1.00  0.00     0.001 C 
ATOM     95  C   UNL A   1      34.318  15.872  25.068  1.00  0.00     0.000 C 
ENDBRANCH  88  90
ENDBRANCH  77  80
ENDBRANCH  75  76
ENDBRANCH  74  75
ENDBRANCH  73  74
ENDBRANCH  72  73
ENDBRANCH   1  72
TORSDOF 17
ENDMDL
MODEL 2
REMARK VINA RESULT:     -11.9      4.968      9.561
REMARK SMILES O=C(NCCCCCCNC(=O)c1ccc2nc(C3CCCCC3)[nH]c2c1)c1ccc(-c2c3nc(c(-c4cccc(S(=O)(=O)[O-])c4F)c4ccc([nH]4)c(-c4cccc(S(=O)(=O)[O-])c4F)c4nc(c(-c5cccc(S(=O)(=O)[O-])c5F)c5ccc2[nH]5)C=C4)C=C3)cc1
REMARK SMILES IDX 5 1 4 2 3 3 1 4 2 5 28 7 29 8 90 9 30 10 89 11 31 12 32 13
REMARK SMILES IDX 33 14 83 15 34 16 88 17 82 18 84 19 35 20 87 21 81 22 80 23
REMARK SMILES IDX 36 25 68 26 48 27 67 28 49 29 52 30 66 31 85 32 50 33 51 34
REMARK SMILES IDX 65 36 86 37 53 38 37 39 38 40 46 41 39 42 41 43 47 44 40 45
REMARK SMILES IDX 42 46 43 47 44 48 45 49 69 50 70 51 78 52 71 53 73 54 79 55
REMARK SMILES IDX 72 56 74 57 75 58 76 59 77 60 54 61 55 62 63 63 56 64 58 65
REMARK SMILES IDX 64 66 57 67 59 68 60 69 61 70 62 71 6 72 7 73 8 74 9 75
REMARK SMILES IDX 10 76 11 77 12 79 13 80 14 81 27 82 15 83 26 84 16 85 25 86
REMARK SMILES IDX 17 87 18 88 19 90 20 91 24 92 21 93 23 94 22 95
REMARK H PARENT 3 6 84 24 52 35 10 78 25 89
REMARK Flexibility Score: inf
ROOT
ATOM      1  C   UNL A   1      33.009  27.898  26.440  1.00  0.00     0.021 C 
ENDROOT
BRANCH   1   2
ATOM      2  C   UNL A   1      33.470  29.103  25.631  1.00  0.00     0.116 C 
BRANCH   2   3
ATOM      3  N   UNL A   1      32.940  30.361  26.128  1.00  0.00    -0.352 N 
ATOM      4  O   UNL A   1      32.798  32.144  27.501  1.00  0.00    -0.269 OA
ATOM      5  C   UNL A   1      33.448  31.177  27.113  1.00  0.00     0.251 C 
ATOM      6  H   UNL A   1      32.108  30.671  25.703  1.00  0.00     0.163 HD
BRANCH   5   7
ATOM      7  C   UNL A   1      34.761  30.861  27.722  1.00  0.00     0.039 A 
ATOM      8  C   UNL A   1      34.986  29.621  28.321  1.00  0.00     0.014 A 
ATOM      9  C   UNL A   1      35.775  31.824  27.707  1.00  0.00     0.014 A 
ATOM     10  C   UNL A   1      36.159  29.401  29.034  1.00  0.00     0.010 A 
ATOM     11  C   UNL A   1      36.993  31.564  28.347  1.00  0.00     0.010 A 
ATOM     12  C   UNL A   1      37.184  30.362  29.045  1.00  0.00    -0.014 A 
BRANCH  12  13
ATOM     13  C   UNL A   1      38.466  30.031  29.721  1.00  0.00     0.031 A 
ATOM     14  C   UNL A   1      38.800  30.552  31.092  1.00  0.00     0.074 A 
ATOM     15  C   UNL A   1      39.322  29.203  29.088  1.00  0.00     0.049 A 
ATOM     16  N   UNL A   1      39.833  30.267  31.845  1.00  0.00    -0.248 NA
ATOM     17  C   UNL A   1      37.872  31.519  31.696  1.00  0.00     0.031 C 
ATOM     18  C   UNL A   1      39.135  28.689  27.728  1.00  0.00     0.029 A 
ATOM     19  N   UNL A   1      40.501  28.638  29.497  1.00  0.00    -0.354 N 
ATOM     20  C   UNL A   1      39.696  31.035  32.995  1.00  0.00     0.074 A 
ATOM     21  C   UNL A   1      38.485  31.812  32.837  1.00  0.00     0.031 C 
ATOM     22  C   UNL A   1      40.137  27.850  27.433  1.00  0.00     0.029 A 
ATOM     23  C   UNL A   1      41.061  27.800  28.561  1.00  0.00     0.049 A 
ATOM     24  H   UNL A   1      40.908  28.814  30.376  1.00  0.00     0.167 HD
ATOM     25  C   UNL A   1      40.495  31.073  34.090  1.00  0.00     0.034 A 
ATOM     26  C   UNL A   1      42.191  27.069  28.601  1.00  0.00     0.034 A 
ATOM     27  C   UNL A   1      41.682  30.274  34.256  1.00  0.00     0.049 A 
ATOM     28  C   UNL A   1      43.019  27.084  29.852  1.00  0.00     0.074 A 
ATOM     29  C   UNL A   1      42.535  30.216  35.346  1.00  0.00     0.029 A 
ATOM     30  N   UNL A   1      42.185  29.392  33.312  1.00  0.00    -0.354 N 
ATOM     31  N   UNL A   1      42.800  27.722  30.975  1.00  0.00    -0.248 NA
ATOM     32  C   UNL A   1      44.232  26.256  29.853  1.00  0.00     0.031 C 
ATOM     33  C   UNL A   1      43.555  29.301  35.057  1.00  0.00     0.029 A 
ATOM     34  C   UNL A   1      43.332  28.784  33.792  1.00  0.00     0.049 A 
ATOM     35  H   UNL A   1      41.785  29.224  32.428  1.00  0.00     0.167 HD
ATOM     36  C   UNL A   1      43.844  27.371  31.821  1.00  0.00     0.074 A 
ATOM     37  C   UNL A   1      44.668  26.424  31.094  1.00  0.00     0.031 C 
ATOM     38  C   UNL A   1      44.117  27.815  33.072  1.00  0.00     0.034 A 
BRANCH  25  39
ATOM     39  C   UNL A   1      40.083  31.965  35.233  1.00  0.00     0.023 A 
ATOM     40  C   UNL A   1      40.546  33.296  35.266  1.00  0.00     0.012 A 
ATOM     41  C   UNL A   1      39.173  31.527  36.215  1.00  0.00     0.148 A 
ATOM     42  C   UNL A   1      40.127  34.171  36.267  1.00  0.00     0.002 A 
ATOM     43  C   UNL A   1      38.731  32.416  37.191  1.00  0.00     0.091 A 
ATOM     44  F   UNL A   1      38.756  30.253  36.179  1.00  0.00    -0.205 F 
ATOM     45  C   UNL A   1      39.213  33.735  37.222  1.00  0.00     0.022 A 
BRANCH  43  46
ATOM     46  S   UNL A   1      37.502  31.974  38.425  1.00  0.00     0.127 S 
ATOM     47  O   UNL A   1      37.213  30.586  38.069  1.00  0.00    -0.237 OA
ATOM     48  O   UNL A   1      38.244  32.141  39.675  1.00  0.00    -0.237 OA
ATOM     49  O   UNL A   1      36.399  32.908  38.246  1.00  0.00    -0.744 OA
ENDBRANCH  43  46
ENDBRANCH  25  39
BRANCH  26  50
ATOM     50  C   UNL A   1      42.562  26.226  27.431  1.00  0.00     0.023 A 
ATOM     51  C   UNL A   1      43.414  26.746  26.439  1.00  0.00     0.012 A 
ATOM     52  C   UNL A   1      42.126  24.891  27.329  1.00  0.00     0.148 A 
ATOM     53  C   UNL A   1      43.808  25.959  25.356  1.00  0.00     0.002 A 
ATOM     54  C   UNL A   1      42.574  24.093  26.283  1.00  0.00     0.091 A 
ATOM     55  F   UNL A   1      41.295  24.417  28.268  1.00  0.00    -0.205 F 
ATOM     56  C   UNL A   1      43.401  24.628  25.286  1.00  0.00     0.022 A 
BRANCH  54  57
ATOM     57  S   UNL A   1      42.220  22.332  26.236  1.00  0.00     0.127 S 
ATOM     58  O   UNL A   1      43.006  21.896  25.086  1.00  0.00    -0.237 OA
ATOM     59  O   UNL A   1      42.720  21.876  27.533  1.00  0.00    -0.237 OA
ATOM     60  O   UNL A   1      40.771  22.246  26.098  1.00  0.00    -0.744 OA
ENDBRANCH  54  57
ENDBRANCH  26  50
BRANCH  38  61
ATOM     61  C   UNL A   1      45.365  27.287  33.726  1.00  0.00     0.023 A 
ATOM     62  C   UNL A   1      46.575  27.990  33.571  1.00  0.00     0.012 A 
ATOM     63  C   UNL A   1      45.337  26.124  34.520  1.00  0.00     0.148 A 
ATOM     64  C   UNL A   1      47.749  27.524  34.163  1.00  0.00     0.002 A 
ATOM     65  C   UNL A   1      46.502  25.688  35.141  1.00  0.00     0.091 A 
ATOM     66  F   UNL A   1      44.182  25.453  34.637  1.00  0.00    -0.205 F 
ATOM     67  C   UNL A   1      47.710  26.380  34.955  1.00  0.00     0.022 A 
BRANCH  65  68
ATOM     68  S   UNL A   1      46.518  24.267  36.240  1.00  0.00     0.127 S 
ATOM     69  O   UNL A   1      47.894  23.795  36.099  1.00  0.00    -0.237 OA
ATOM     70  O   UNL A   1      46.210  24.869  37.539  1.00  0.00    -0.237 OA
ATOM     71  O   UNL A   1      45.486  23.371  35.736  1.00  0.00    -0.744 OA
ENDBRANCH  65  68
ENDBRANCH  38  61
ENDBRANCH  12  13
ENDBRANCH   5   7
ENDBRANCH   2   3
ENDBRANCH   1   2
BRANCH   1  72
ATOM     72  C   UNL A   1      31.496  27.716  26.539  1.00  0.00     0.002 C 
BRANCH  72  73
ATOM     73  C   UNL A   1      30.893  26.631  25.642  1.00  0.00     0.002 C 
BRANCH  73  74
ATOM     74  C   UNL A   1      30.461  27.077  24.240  1.00  0.00     0.021 C 
BRANCH  74  75
ATOM     75  C   UNL A   1      30.555  26.012  23.150  1.00  0.00     0.116 C 
BRANCH  75  76
ATOM     76  N   UNL A   1      31.595  26.309  22.180  1.00  0.00    -0.352 N 
ATOM     77  C   UNL A   1      32.875  25.826  22.116  1.00  0.00     0.251 C 
ATOM     78  H   UNL A   1      31.345  26.946  21.472  1.00  0.00     0.163 HD
ATOM     79  O   UNL A   1      33.682  26.297  21.320  1.00  0.00    -0.269 OA
BRANCH  77  80
ATOM     80  C   UNL A   1      33.297  24.749  23.033  1.00  0.00     0.042 A 
ATOM     81  C   UNL A   1      34.060  25.042  24.173  1.00  0.00     0.016 A 
ATOM     82  C   UNL A   1      32.883  23.442  22.739  1.00  0.00     0.042 A 
ATOM     83  C   UNL A   1      34.478  24.015  25.030  1.00  0.00     0.031 A 
ATOM     84  C   UNL A   1      33.316  22.446  23.614  1.00  0.00     0.066 A 
ATOM     85  C   UNL A   1      34.099  22.698  24.735  1.00  0.00     0.089 A 
ATOM     86  N   UNL A   1      33.126  21.090  23.633  1.00  0.00    -0.342 N 
ATOM     87  N   UNL A   1      34.377  21.535  25.406  1.00  0.00    -0.233 NA
ATOM     88  C   UNL A   1      33.784  20.575  24.725  1.00  0.00     0.110 A 
ATOM     89  H   UNL A   1      32.606  20.571  22.978  1.00  0.00     0.168 HD
BRANCH  88  90
ATOM     90  C   UNL A   1      33.779  19.118  25.076  1.00  0.00     0.055 C 
ATOM     91  C   UNL A   1      32.395  18.501  24.825  1.00  0.00     0.011 C 
ATOM     92  C   UNL A   1      34.879  18.345  24.335  1.00  0.00     0.011 C 
ATOM     93  C   UNL A   1      32.374  17.013  25.163  1.00  0.00     0.001 C 
ATOM     94  C   UNL A   1      34.845  16.856  24.673  1.00  0.00     0.001 C 
ATOM     95  C   UNL A   1      33.466  16.253  24.417  1.00  0.00     0.000 C 
ENDBRANCH  88  90
ENDBRANCH  77  80
ENDBRANCH  75  76
ENDBRANCH  74  75
ENDBRANCH  73  74
ENDBRANCH  72  73
ENDBRANCH   1  72
TORSDOF 17
ENDMDL
MODEL 3
REMARK VINA RESULT:     -11.7      4.970      9.224
REMARK SMILES O=C(NCCCCCCNC(=O)c1ccc2nc(C3CCCCC3)[nH]c2c1)c1ccc(-c2c3nc(c(-c4cccc(S(=O)(=O)[O-])c4F)c4ccc([nH]4)c(-c4cccc(S(=O)(=O)[O-])c4F)c4nc(c(-c5cccc(S(=O)(=O)[O-])c5F)c5ccc2[nH]5)C=C4)C=C3)cc1
REMARK SMILES IDX 5 1 4 2 3 3 1 4 2 5 28 7 29 8 90 9 30 10 89 11 31 12 32 13
REMARK SMILES IDX 33 14 83 15 34 16 88 17 82 18 84 19 35 20 87 21 81 22 80 23
REMARK SMILES IDX 36 25 68 26 48 27 67 28 49 29 52 30 66 31 85 32 50 33 51 34
REMARK SMILES IDX 65 36 86 37 53 38 37 39 38 40 46 41 39 42 41 43 47 44 40 45
REMARK SMILES IDX 42 46 43 47 44 48 45 49 69 50 70 51 78 52 71 53 73 54 79 55
REMARK SMILES IDX 72 56 74 57 75 58 76 59 77 60 54 61 55 62 63 63 56 64 58 65
REMARK SMILES IDX 64 66 57 67 59 68 60 69 61 70 62 71 6 72 7 73 8 74 9 75
REMARK SMILES IDX 10 76 11 77 12 79 13 80 14 81 27 82 15 83 26 84 16 85 25 86
REMARK SMILES IDX 17 87 18 88 19 90 20 91 24 92 21 93 23 94 22 95
REMARK H PARENT 3 6 84 24 52 35 10 78 25 89
REMARK Flexibility Score: inf
ROOT
ATOM      1  C   UNL A   1      33.230  27.523  26.532  1.00  0.00     0.021 C 
ENDROOT
BRANCH   1   2
ATOM      2  C   UNL A   1      34.183  28.643  26.139  1.00  0.00     0.116 C 
BRANCH   2   3
ATOM      3  N   UNL A   1      33.860  29.913  26.765  1.00  0.00    -0.352 N 
ATOM      4  O   UNL A   1      34.095  31.617  28.223  1.00  0.00    -0.269 OA
ATOM      5  C   UNL A   1      34.582  30.618  27.701  1.00  0.00     0.251 C 
ATOM      6  H   UNL A   1      33.011  30.325  26.481  1.00  0.00     0.163 HD
BRANCH   5   7
ATOM      7  C   UNL A   1      35.929  30.145  28.095  1.00  0.00     0.039 A 
ATOM      8  C   UNL A   1      36.120  29.471  29.302  1.00  0.00     0.014 A 
ATOM      9  C   UNL A   1      37.018  30.394  27.254  1.00  0.00     0.014 A 
ATOM     10  C   UNL A   1      37.409  29.184  29.738  1.00  0.00     0.010 A 
ATOM     11  C   UNL A   1      38.307  30.019  27.654  1.00  0.00     0.010 A 
ATOM     12  C   UNL A   1      38.518  29.440  28.914  1.00  0.00    -0.014 A 
BRANCH  12  13
ATOM     13  C   UNL A   1      39.863  29.006  29.374  1.00  0.00     0.031 A 
ATOM     14  C   UNL A   1      40.569  29.680  30.520  1.00  0.00     0.074 A 
ATOM     15  C   UNL A   1      40.433  27.949  28.761  1.00  0.00     0.049 A 
ATOM     16  N   UNL A   1      41.697  29.347  31.094  1.00  0.00    -0.248 NA
ATOM     17  C   UNL A   1      39.941  30.881  31.091  1.00  0.00     0.031 C 
ATOM     18  C   UNL A   1      39.875  27.258  27.595  1.00  0.00     0.029 A 
ATOM     19  N   UNL A   1      41.587  27.262  29.031  1.00  0.00    -0.354 N 
ATOM     20  C   UNL A   1      41.931  30.306  32.072  1.00  0.00     0.074 A 
ATOM     21  C   UNL A   1      40.832  31.246  32.006  1.00  0.00     0.031 C 
ATOM     22  C   UNL A   1      40.660  26.220  27.280  1.00  0.00     0.029 A 
ATOM     23  C   UNL A   1      41.801  26.196  28.189  1.00  0.00     0.049 A 
ATOM     24  H   UNL A   1      42.204  27.507  29.759  1.00  0.00     0.167 HD
ATOM     25  C   UNL A   1      42.956  30.384  32.956  1.00  0.00     0.034 A 
ATOM     26  C   UNL A   1      42.801  25.296  28.147  1.00  0.00     0.034 A 
ATOM     27  C   UNL A   1      44.031  29.429  33.038  1.00  0.00     0.049 A 
ATOM     28  C   UNL A   1      43.887  25.372  29.180  1.00  0.00     0.074 A 
ATOM     29  C   UNL A   1      45.093  29.403  33.926  1.00  0.00     0.029 A 
ATOM     30  N   UNL A   1      44.181  28.329  32.208  1.00  0.00    -0.354 N 
ATOM     31  N   UNL A   1      44.018  26.215  30.175  1.00  0.00    -0.248 NA
ATOM     32  C   UNL A   1      44.945  24.356  29.104  1.00  0.00     0.031 C 
ATOM     33  C   UNL A   1      45.887  28.289  33.629  1.00  0.00     0.029 A 
ATOM     34  C   UNL A   1      45.315  27.617  32.561  1.00  0.00     0.049 A 
ATOM     35  H   UNL A   1      43.572  28.090  31.472  1.00  0.00     0.167 HD
ATOM     36  C   UNL A   1      45.170  25.831  30.849  1.00  0.00     0.074 A 
ATOM     37  C   UNL A   1      45.671  24.648  30.176  1.00  0.00     0.031 C 
ATOM     38  C   UNL A   1      45.777  26.421  31.907  1.00  0.00     0.034 A 
BRANCH  25  39
ATOM     39  C   UNL A   1      42.939  31.511  33.958  1.00  0.00     0.023 A 
ATOM     40  C   UNL A   1      43.502  32.753  33.602  1.00  0.00     0.012 A 
ATOM     41  C   UNL A   1      42.291  31.378  35.202  1.00  0.00     0.148 A 
ATOM     42  C   UNL A   1      43.439  33.839  34.475  1.00  0.00     0.002 A 
ATOM     43  C   UNL A   1      42.201  32.475  36.053  1.00  0.00     0.091 A 
ATOM     44  F   UNL A   1      41.776  30.184  35.531  1.00  0.00    -0.205 F 
ATOM     45  C   UNL A   1      42.780  33.704  35.693  1.00  0.00     0.022 A 
BRANCH  43  46
ATOM     46  S   UNL A   1      41.314  32.425  37.615  1.00  0.00     0.127 S 
ATOM     47  O   UNL A   1      42.148  31.518  38.399  1.00  0.00    -0.237 OA
ATOM     48  O   UNL A   1      41.363  33.823  38.044  1.00  0.00    -0.237 OA
ATOM     49  O   UNL A   1      39.979  31.935  37.302  1.00  0.00    -0.744 OA
ENDBRANCH  43  46
ENDBRANCH  25  39
BRANCH  26  50
ATOM     50  C   UNL A   1      42.779  24.220  27.118  1.00  0.00     0.023 A 
ATOM     51  C   UNL A   1      43.496  24.387  25.918  1.00  0.00     0.012 A 
ATOM     52  C   UNL A   1      42.104  23.006  27.350  1.00  0.00     0.148 A 
ATOM     53  C   UNL A   1      43.523  23.374  24.959  1.00  0.00     0.002 A 
ATOM     54  C   UNL A   1      42.189  21.977  26.419  1.00  0.00     0.091 A 
ATOM     55  F   UNL A   1      41.406  22.870  28.486  1.00  0.00    -0.205 F 
ATOM     56  C   UNL A   1      42.883  22.163  25.216  1.00  0.00     0.022 A 
BRANCH  54  57
ATOM     57  S   UNL A   1      41.528  20.344  26.773  1.00  0.00     0.127 S 
ATOM     58  O   UNL A   1      40.139  20.645  27.103  1.00  0.00    -0.237 OA
ATOM     59  O   UNL A   1      41.721  19.645  25.502  1.00  0.00    -0.237 OA
ATOM     60  O   UNL A   1      42.355  19.834  27.859  1.00  0.00    -0.744 OA
ENDBRANCH  54  57
ENDBRANCH  26  50
BRANCH  38  61
ATOM     61  C   UNL A   1      47.059  25.798  32.392  1.00  0.00     0.023 A 
ATOM     62  C   UNL A   1      48.281  26.205  31.822  1.00  0.00     0.012 A 
ATOM     63  C   UNL A   1      47.061  24.845  33.427  1.00  0.00     0.148 A 
ATOM     64  C   UNL A   1      49.485  25.644  32.249  1.00  0.00     0.002 A 
ATOM     65  C   UNL A   1      48.268  24.320  33.876  1.00  0.00     0.091 A 
ATOM     66  F   UNL A   1      45.886  24.451  33.941  1.00  0.00    -0.205 F 
ATOM     67  C   UNL A   1      49.478  24.710  33.282  1.00  0.00     0.022 A 
BRANCH  65  68
ATOM     68  S   UNL A   1      48.350  23.171  35.255  1.00  0.00     0.127 S 
ATOM     69  O   UNL A   1      47.764  23.960  36.337  1.00  0.00    -0.237 OA
ATOM     70  O   UNL A   1      47.516  22.060  34.791  1.00  0.00    -0.237 OA
ATOM     71  O   UNL A   1      49.760  22.840  35.405  1.00  0.00    -0.744 OA
ENDBRANCH  65  68
ENDBRANCH  38  61
ENDBRANCH  12  13
ENDBRANCH   5   7
ENDBRANCH   2   3
ENDBRANCH   1   2
BRANCH   1  72
ATOM     72  C   UNL A   1      31.751  27.800  26.271  1.00  0.00     0.002 C 
BRANCH  72  73
ATOM     73  C   UNL A   1      30.935  26.623  25.731  1.00  0.00     0.002 C 
BRANCH  73  74
ATOM     74  C   UNL A   1      30.235  26.848  24.385  1.00  0.00     0.021 C 
BRANCH  74  75
ATOM     75  C   UNL A   1      30.524  25.804  23.308  1.00  0.00     0.116 C 
BRANCH  75  76
ATOM     76  N   UNL A   1      31.653  26.175  22.473  1.00  0.00    -0.352 N 
ATOM     77  C   UNL A   1      32.898  25.606  22.405  1.00  0.00     0.251 C 
ATOM     78  H   UNL A   1      31.503  26.941  21.873  1.00  0.00     0.163 HD
ATOM     79  O   UNL A   1      33.793  26.137  21.756  1.00  0.00    -0.269 OA
BRANCH  77  80
ATOM     80  C   UNL A   1      33.172  24.357  23.145  1.00  0.00     0.042 A 
ATOM     81  C   UNL A   1      33.928  24.381  24.326  1.00  0.00     0.016 A 
ATOM     82  C   UNL A   1      32.626  23.168  22.642  1.00  0.00     0.042 A 
ATOM     83  C   UNL A   1      34.205  23.192  25.014  1.00  0.00     0.031 A 
ATOM     84  C   UNL A   1      32.922  22.004  23.352  1.00  0.00     0.066 A 
ATOM     85  C   UNL A   1      33.694  21.988  24.508  1.00  0.00     0.089 A 
ATOM     86  N   UNL A   1      32.584  20.692  23.153  1.00  0.00    -0.342 N 
ATOM     87  N   UNL A   1      33.823  20.711  24.989  1.00  0.00    -0.233 NA
ATOM     88  C   UNL A   1      33.150  19.942  24.157  1.00  0.00     0.110 A 
ATOM     89  H   UNL A   1      32.030  20.345  22.417  1.00  0.00     0.168 HD
BRANCH  88  90
ATOM     90  C   UNL A   1      32.975  18.458  24.272  1.00  0.00     0.055 C 
ATOM     91  C   UNL A   1      34.219  17.720  23.757  1.00  0.00     0.011 C 
ATOM     92  C   UNL A   1      32.624  18.031  25.705  1.00  0.00     0.011 C 
ATOM     93  C   UNL A   1      34.066  16.207  23.881  1.00  0.00     0.001 C 
ATOM     94  C   UNL A   1      32.480  16.515  25.820  1.00  0.00     0.001 C 
ATOM     95  C   UNL A   1      33.724  15.792  25.308  1.00  0.00     0.000 C 
ENDBRANCH  88  90
ENDBRANCH  77  80
ENDBRANCH  75  76
ENDBRANCH  74  75
ENDBRANCH  73  74
ENDBRANCH  72  73
ENDBRANCH   1  72
TORSDOF 17
ENDMDL
