MODEL 1
REMARK VINA RESULT:     -11.1      0.000      0.000
REMARK SMILES COc1cccc2ccc(C[N@@H+]3CC4(CC[NH2+]CC4)C[C@@H]3C(=O)NCCCCCCNC(=O)c3ccc(-c4c5nc(c(-c6cccc(S(=O)(=O)[O-])c6F)c6ccc([nH]6)c(-c6cccc(S(=O)(=O)[O-])c6F)c6nc(c(-c7cccc(S(=O)(=O)[O-])c7F)c7ccc4[nH]7)C=C6)C=C5)cc3)nc12
REMARK SMILES IDX 27 1 26 2 25 3 24 4 22 5 23 6 21 8 12 9 13 10 14 12 20 13
REMARK SMILES IDX 15 14 19 15 16 16 18 17 17 18 11 21 10 22 3 23 4 24 98 25
REMARK SMILES IDX 5 26 7 27 97 28 6 29 8 30 9 31 2 32 1 33 28 34 29 35 30 36
REMARK SMILES IDX 31 37 32 38 33 40 34 41 35 42 96 43 36 44 95 45 37 46 38 47
REMARK SMILES IDX 39 48 89 49 40 50 94 51 88 52 90 53 41 54 93 55 87 56 86 57
REMARK SMILES IDX 42 59 74 60 54 61 73 62 55 63 58 64 72 65 91 66 56 67 57 68
REMARK SMILES IDX 71 70 92 71 59 72 43 73 44 74 52 75 45 76 47 77 53 78 46 79
REMARK SMILES IDX 48 80 49 81 50 82 51 83 75 84 76 85 84 86 77 87 79 88 85 89
REMARK SMILES IDX 78 90 80 91 81 92 82 93 83 94 60 95 61 96 69 97 62 98 64 99
REMARK SMILES IDX 70 100 63 101 65 102 66 103 67 104 68 105
REMARK H PARENT 24 7 12 11 17 19 17 20 31 39 90 58 58 69
REMARK Flexibility Score: inf
ROOT
ATOM      1  C   UNL A   1      39.994  23.063  26.518  1.00  0.00     0.002 C 
ENDROOT
BRANCH   1   2
ATOM      2  C   UNL A   1      38.839  24.012  26.825  1.00  0.00     0.021 C 
BRANCH   2   3
ATOM      3  C   UNL A   1      37.556  23.797  26.010  1.00  0.00     0.116 C 
BRANCH   3   4
ATOM      4  N   UNL A   1      37.698  22.618  25.182  1.00  0.00    -0.351 N 
ATOM      5  C   UNL A   1      36.854  21.634  24.783  1.00  0.00     0.278 C 
ATOM      6  O   UNL A   1      37.450  20.663  24.275  1.00  0.00    -0.268 OA
ATOM      7  H   UNL A   1      38.612  22.504  24.830  1.00  0.00     0.163 HD
BRANCH   5   8
ATOM      8  C   UNL A   1      35.323  21.708  24.628  1.00  0.00     0.275 C 
ATOM      9  N   UNL A   1      34.555  22.633  23.769  1.00  0.00    -0.319 N 
ATOM     10  C   UNL A   1      33.181  22.549  24.287  1.00  0.00     0.270 C 
ATOM     11  H   UNL A   1      34.756  22.293  22.829  1.00  0.00     0.349 HD
ATOM     12  C   UNL A   1      33.264  22.428  25.821  1.00  0.00     0.036 C 
ATOM     13  C   UNL A   1      34.604  21.696  26.007  1.00  0.00     0.089 C 
ATOM     14  C   UNL A   1      32.038  21.669  26.374  1.00  0.00     0.074 C 
ATOM     15  C   UNL A   1      33.273  23.753  26.612  1.00  0.00     0.074 C 
ATOM     16  C   UNL A   1      30.753  22.500  26.206  1.00  0.00     0.261 C 
ATOM     17  C   UNL A   1      32.015  24.575  26.365  1.00  0.00     0.261 C 
ATOM     18  N   UNL A   1      30.830  23.836  26.806  1.00  0.00    -0.346 N 
ATOM     19  H   UNL A   1      30.864  23.739  27.822  1.00  0.00     0.346 HD
ATOM     20  H   UNL A   1      30.007  24.360  26.511  1.00  0.00     0.346 HD
BRANCH   9  21
ATOM     21  C   UNL A   1      34.942  24.002  23.430  1.00  0.00     0.320 C 
BRANCH  21  22
ATOM     22  C   UNL A   1      33.899  25.049  23.124  1.00  0.00     0.095 A 
ATOM     23  C   UNL A   1      32.810  28.191  24.608  1.00  0.00     0.145 A 
ATOM     24  C   UNL A   1      31.821  29.163  24.426  1.00  0.00     0.049 A 
ATOM     25  C   UNL A   1      32.879  27.063  23.768  1.00  0.00     0.113 A 
ATOM     26  C   UNL A   1      30.913  29.044  23.379  1.00  0.00     0.005 A 
ATOM     27  C   UNL A   1      31.992  26.987  22.678  1.00  0.00     0.004 A 
ATOM     28  N   UNL A   1      33.786  26.086  23.983  1.00  0.00    -0.243 NA
ATOM     29  C   UNL A   1      31.004  27.967  22.500  1.00  0.00     0.010 A 
ATOM     30  C   UNL A   1      32.131  25.922  21.778  1.00  0.00     0.012 A 
ATOM     31  C   UNL A   1      33.112  24.958  21.984  1.00  0.00     0.030 A 
BRANCH  23  32
ATOM     32  O   UNL A   1      33.760  28.259  25.603  1.00  0.00    -0.494 OA
ATOM     33  C   UNL A   1      33.317  28.215  26.949  1.00  0.00     0.278 C 
ENDBRANCH  23  32
ENDBRANCH  21  22
ENDBRANCH   9  21
ENDBRANCH   5   8
ENDBRANCH   3   4
ENDBRANCH   2   3
ENDBRANCH   1   2
BRANCH   1  34
ATOM     34  C   UNL A   1      40.541  22.311  27.730  1.00  0.00     0.002 C 
BRANCH  34  35
ATOM     35  C   UNL A   1      40.859  20.827  27.511  1.00  0.00     0.021 C 
BRANCH  35  36
ATOM     36  C   UNL A   1      40.751  20.329  26.069  1.00  0.00     0.116 C 
BRANCH  36  37
ATOM     37  N   UNL A   1      41.957  19.640  25.635  1.00  0.00    -0.352 N 
ATOM     38  C   UNL A   1      43.194  20.149  25.333  1.00  0.00     0.251 C 
ATOM     39  H   UNL A   1      41.873  18.664  25.545  1.00  0.00     0.163 HD
ATOM     40  O   UNL A   1      44.027  19.446  24.765  1.00  0.00    -0.269 OA
BRANCH  38  41
ATOM     41  C   UNL A   1      43.526  21.546  25.684  1.00  0.00     0.039 A 
ATOM     42  C   UNL A   1      43.273  22.559  24.756  1.00  0.00     0.014 A 
ATOM     43  C   UNL A   1      44.113  21.849  26.915  1.00  0.00     0.014 A 
ATOM     44  C   UNL A   1      43.562  23.886  25.084  1.00  0.00     0.010 A 
ATOM     45  C   UNL A   1      44.344  23.178  27.263  1.00  0.00     0.010 A 
ATOM     46  C   UNL A   1      44.077  24.209  26.350  1.00  0.00    -0.014 A 
BRANCH  46  47
ATOM     47  C   UNL A   1      44.338  25.619  26.740  1.00  0.00     0.031 A 
ATOM     48  C   UNL A   1      45.731  26.184  26.653  1.00  0.00     0.074 A 
ATOM     49  C   UNL A   1      43.341  26.359  27.263  1.00  0.00     0.049 A 
ATOM     50  N   UNL A   1      46.163  27.365  27.009  1.00  0.00    -0.248 NA
ATOM     51  C   UNL A   1      46.779  25.297  26.122  1.00  0.00     0.031 C 
ATOM     52  C   UNL A   1      41.968  25.896  27.479  1.00  0.00     0.029 A 
ATOM     53  N   UNL A   1      43.336  27.646  27.741  1.00  0.00    -0.354 N 
ATOM     54  C   UNL A   1      47.535  27.351  26.786  1.00  0.00     0.074 A 
ATOM     55  C   UNL A   1      47.868  26.035  26.287  1.00  0.00     0.031 C 
ATOM     56  C   UNL A   1      41.257  26.881  28.053  1.00  0.00     0.029 A 
ATOM     57  C   UNL A   1      42.125  28.035  28.266  1.00  0.00     0.049 A 
ATOM     58  H   UNL A   1      44.123  28.236  27.709  1.00  0.00     0.167 HD
ATOM     59  C   UNL A   1      48.433  28.351  26.955  1.00  0.00     0.034 A 
ATOM     60  C   UNL A   1      41.757  29.186  28.863  1.00  0.00     0.034 A 
ATOM     61  C   UNL A   1      48.088  29.676  27.397  1.00  0.00     0.049 A 
ATOM     62  C   UNL A   1      42.760  30.302  28.979  1.00  0.00     0.074 A 
ATOM     63  C   UNL A   1      48.906  30.788  27.498  1.00  0.00     0.029 A 
ATOM     64  N   UNL A   1      46.828  30.066  27.820  1.00  0.00    -0.354 N 
ATOM     65  N   UNL A   1      44.015  30.327  28.598  1.00  0.00    -0.248 NA
ATOM     66  C   UNL A   1      42.290  31.563  29.570  1.00  0.00     0.031 C 
ATOM     67  C   UNL A   1      48.142  31.847  27.998  1.00  0.00     0.029 A 
ATOM     68  C   UNL A   1      46.845  31.400  28.190  1.00  0.00     0.049 A 
ATOM     69  H   UNL A   1      46.036  29.482  27.851  1.00  0.00     0.167 HD
ATOM     70  C   UNL A   1      44.471  31.610  28.870  1.00  0.00     0.074 A 
ATOM     71  C   UNL A   1      43.354  32.342  29.429  1.00  0.00     0.031 C 
ATOM     72  C   UNL A   1      45.710  32.132  28.690  1.00  0.00     0.034 A 
BRANCH  59  73
ATOM     73  C   UNL A   1      49.871  28.073  26.603  1.00  0.00     0.023 A 
ATOM     74  C   UNL A   1      50.327  28.328  25.294  1.00  0.00     0.012 A 
ATOM     75  C   UNL A   1      50.785  27.629  27.579  1.00  0.00     0.148 A 
ATOM     76  C   UNL A   1      51.661  28.115  24.952  1.00  0.00     0.002 A 
ATOM     77  C   UNL A   1      52.123  27.461  27.242  1.00  0.00     0.091 A 
ATOM     78  F   UNL A   1      50.327  27.372  28.813  1.00  0.00    -0.205 F 
ATOM     79  C   UNL A   1      52.561  27.693  25.928  1.00  0.00     0.022 A 
BRANCH  77  80
ATOM     80  S   UNL A   1      53.373  26.993  28.444  1.00  0.00     0.127 S 
ATOM     81  O   UNL A   1      54.194  26.062  27.670  1.00  0.00    -0.237 OA
ATOM     82  O   UNL A   1      54.017  28.276  28.736  1.00  0.00    -0.237 OA
ATOM     83  O   UNL A   1      52.654  26.407  29.566  1.00  0.00    -0.744 OA
ENDBRANCH  77  80
ENDBRANCH  59  73
BRANCH  60  84
ATOM     84  C   UNL A   1      40.355  29.364  29.334  1.00  0.00     0.023 A 
ATOM     85  C   UNL A   1      39.365  29.772  28.420  1.00  0.00     0.012 A 
ATOM     86  C   UNL A   1      39.992  29.103  30.669  1.00  0.00     0.148 A 
ATOM     87  C   UNL A   1      38.043  29.946  28.834  1.00  0.00     0.002 A 
ATOM     88  C   UNL A   1      38.663  29.226  31.062  1.00  0.00     0.091 A 
ATOM     89  F   UNL A   1      40.952  28.730  31.529  1.00  0.00    -0.205 F 
ATOM     90  C   UNL A   1      37.691  29.663  30.151  1.00  0.00     0.022 A 
BRANCH  88  91
ATOM     91  S   UNL A   1      38.104  28.750  32.702  1.00  0.00     0.127 S 
ATOM     92  O   UNL A   1      39.005  29.518  33.559  1.00  0.00    -0.237 OA
ATOM     93  O   UNL A   1      36.715  29.217  32.697  1.00  0.00    -0.237 OA
ATOM     94  O   UNL A   1      38.246  27.304  32.760  1.00  0.00    -0.744 OA
ENDBRANCH  88  91
ENDBRANCH  60  84
BRANCH  72  95
ATOM     95  C   UNL A   1      45.925  33.573  29.069  1.00  0.00     0.023 A 
ATOM     96  C   UNL A   1      46.430  33.894  30.344  1.00  0.00     0.012 A 
ATOM     97  C   UNL A   1      45.708  34.603  28.132  1.00  0.00     0.148 A 
ATOM     98  C   UNL A   1      46.688  35.219  30.692  1.00  0.00     0.002 A 
ATOM     99  C   UNL A   1      46.013  35.916  28.469  1.00  0.00     0.091 A 
ATOM    100  F   UNL A   1      45.209  34.280  26.930  1.00  0.00    -0.205 F 
ATOM    101  C   UNL A   1      46.492  36.228  29.751  1.00  0.00     0.022 A 
BRANCH  99 102
ATOM    102  S   UNL A   1      45.883  37.266  27.291  1.00  0.00     0.127 S 
ATOM    103  O   UNL A   1      46.715  36.783  26.190  1.00  0.00    -0.237 OA
ATOM    104  O   UNL A   1      44.448  37.294  27.005  1.00  0.00    -0.237 OA
ATOM    105  O   UNL A   1      46.383  38.449  27.981  1.00  0.00    -0.744 OA
ENDBRANCH  99 102
ENDBRANCH  72  95
ENDBRANCH  46  47
ENDBRANCH  38  41
ENDBRANCH  36  37
ENDBRANCH  35  36
ENDBRANCH  34  35
ENDBRANCH   1  34
TORSDOF 19
ENDMDL
MODEL 2
REMARK VINA RESULT:     -10.9      1.503      7.264
REMARK SMILES COc1cccc2ccc(C[N@@H+]3CC4(CC[NH2+]CC4)C[C@@H]3C(=O)NCCCCCCNC(=O)c3ccc(-c4c5nc(c(-c6cccc(S(=O)(=O)[O-])c6F)c6ccc([nH]6)c(-c6cccc(S(=O)(=O)[O-])c6F)c6nc(c(-c7cccc(S(=O)(=O)[O-])c7F)c7ccc4[nH]7)C=C6)C=C5)cc3)nc12
REMARK SMILES IDX 27 1 26 2 25 3 24 4 22 5 23 6 21 8 12 9 13 10 14 12 20 13
REMARK SMILES IDX 15 14 19 15 16 16 18 17 17 18 11 21 10 22 3 23 4 24 98 25
REMARK SMILES IDX 5 26 7 27 97 28 6 29 8 30 9 31 2 32 1 33 28 34 29 35 30 36
REMARK SMILES IDX 31 37 32 38 33 40 34 41 35 42 96 43 36 44 95 45 37 46 38 47
REMARK SMILES IDX 39 48 89 49 40 50 94 51 88 52 90 53 41 54 93 55 87 56 86 57
REMARK SMILES IDX 42 59 74 60 54 61 73 62 55 63 58 64 72 65 91 66 56 67 57 68
REMARK SMILES IDX 71 70 92 71 59 72 43 73 44 74 52 75 45 76 47 77 53 78 46 79
REMARK SMILES IDX 48 80 49 81 50 82 51 83 75 84 76 85 84 86 77 87 79 88 85 89
REMARK SMILES IDX 78 90 80 91 81 92 82 93 83 94 60 95 61 96 69 97 62 98 64 99
REMARK SMILES IDX 70 100 63 101 65 102 66 103 67 104 68 105
REMARK H PARENT 24 7 12 11 17 19 17 20 31 39 90 58 58 69
REMARK Flexibility Score: inf
ROOT
ATOM      1  C   UNL A   1      39.928  23.080  26.518  1.00  0.00     0.002 C 
ENDROOT
BRANCH   1   2
ATOM      2  C   UNL A   1      38.766  24.014  26.843  1.00  0.00     0.021 C 
BRANCH   2   3
ATOM      3  C   UNL A   1      37.521  23.874  25.955  1.00  0.00     0.116 C 
BRANCH   3   4
ATOM      4  N   UNL A   1      37.654  22.703  25.113  1.00  0.00    -0.351 N 
ATOM      5  C   UNL A   1      36.811  21.715  24.726  1.00  0.00     0.278 C 
ATOM      6  O   UNL A   1      37.403  20.754  24.195  1.00  0.00    -0.268 OA
ATOM      7  H   UNL A   1      38.560  22.601  24.739  1.00  0.00     0.163 HD
BRANCH   5   8
ATOM      8  C   UNL A   1      35.276  21.776  24.607  1.00  0.00     0.275 C 
ATOM      9  N   UNL A   1      34.480  22.668  23.740  1.00  0.00    -0.319 N 
ATOM     10  C   UNL A   1      33.120  22.594  24.295  1.00  0.00     0.270 C 
ATOM     11  H   UNL A   1      34.659  22.300  22.806  1.00  0.00     0.349 HD
ATOM     12  C   UNL A   1      33.243  22.522  25.829  1.00  0.00     0.036 C 
ATOM     13  C   UNL A   1      34.592  21.804  26.004  1.00  0.00     0.089 C 
ATOM     14  C   UNL A   1      32.036  21.775  26.437  1.00  0.00     0.074 C 
ATOM     15  C   UNL A   1      33.264  23.872  26.577  1.00  0.00     0.074 C 
ATOM     16  C   UNL A   1      30.742  22.593  26.276  1.00  0.00     0.261 C 
ATOM     17  C   UNL A   1      31.995  24.679  26.337  1.00  0.00     0.261 C 
ATOM     18  N   UNL A   1      30.826  23.949  26.831  1.00  0.00    -0.346 N 
ATOM     19  H   UNL A   1      30.886  23.883  27.848  1.00  0.00     0.346 HD
ATOM     20  H   UNL A   1      29.992  24.458  26.541  1.00  0.00     0.346 HD
BRANCH   9  21
ATOM     21  C   UNL A   1      34.850  24.028  23.347  1.00  0.00     0.320 C 
BRANCH  21  22
ATOM     22  C   UNL A   1      33.793  25.062  23.044  1.00  0.00     0.095 A 
ATOM     23  C   UNL A   1      32.755  28.255  24.454  1.00  0.00     0.145 A 
ATOM     24  C   UNL A   1      31.757  29.219  24.275  1.00  0.00     0.049 A 
ATOM     25  C   UNL A   1      32.794  27.097  23.654  1.00  0.00     0.113 A 
ATOM     26  C   UNL A   1      30.808  29.060  23.270  1.00  0.00     0.005 A 
ATOM     27  C   UNL A   1      31.865  26.980  22.603  1.00  0.00     0.004 A 
ATOM     28  N   UNL A   1      33.711  26.130  23.869  1.00  0.00    -0.243 NA
ATOM     29  C   UNL A   1      30.868  27.952  22.428  1.00  0.00     0.010 A 
ATOM     30  C   UNL A   1      31.971  25.882  21.739  1.00  0.00     0.012 A 
ATOM     31  C   UNL A   1      32.962  24.928  21.941  1.00  0.00     0.030 A 
BRANCH  23  32
ATOM     32  O   UNL A   1      33.743  28.361  25.407  1.00  0.00    -0.494 OA
ATOM     33  C   UNL A   1      33.374  28.207  26.768  1.00  0.00     0.278 C 
ENDBRANCH  23  32
ENDBRANCH  21  22
ENDBRANCH   9  21
ENDBRANCH   5   8
ENDBRANCH   3   4
ENDBRANCH   2   3
ENDBRANCH   1   2
BRANCH   1  34
ATOM     34  C   UNL A   1      40.541  22.381  27.731  1.00  0.00     0.002 C 
BRANCH  34  35
ATOM     35  C   UNL A   1      40.791  20.875  27.580  1.00  0.00     0.021 C 
BRANCH  35  36
ATOM     36  C   UNL A   1      40.544  20.295  26.185  1.00  0.00     0.116 C 
BRANCH  36  37
ATOM     37  N   UNL A   1      41.680  19.526  25.702  1.00  0.00    -0.352 N 
ATOM     38  C   UNL A   1      42.945  19.944  25.378  1.00  0.00     0.251 C 
ATOM     39  H   UNL A   1      41.517  18.562  25.592  1.00  0.00     0.163 HD
ATOM     40  O   UNL A   1      43.705  19.192  24.772  1.00  0.00    -0.269 OA
BRANCH  38  41
ATOM     41  C   UNL A   1      43.396  21.301  25.752  1.00  0.00     0.039 A 
ATOM     42  C   UNL A   1      43.179  22.358  24.864  1.00  0.00     0.014 A 
ATOM     43  C   UNL A   1      44.056  21.522  26.963  1.00  0.00     0.014 A 
ATOM     44  C   UNL A   1      43.580  23.650  25.215  1.00  0.00     0.010 A 
ATOM     45  C   UNL A   1      44.399  22.820  27.337  1.00  0.00     0.010 A 
ATOM     46  C   UNL A   1      44.171  23.896  26.465  1.00  0.00    -0.014 A 
BRANCH  46  47
ATOM     47  C   UNL A   1      44.553  25.270  26.881  1.00  0.00     0.031 A 
ATOM     48  C   UNL A   1      43.523  26.199  27.464  1.00  0.00     0.074 A 
ATOM     49  C   UNL A   1      45.804  25.712  26.644  1.00  0.00     0.049 A 
ATOM     50  N   UNL A   1      43.651  27.450  27.823  1.00  0.00    -0.248 NA
ATOM     51  C   UNL A   1      42.164  25.662  27.643  1.00  0.00     0.031 C 
ATOM     52  C   UNL A   1      46.869  24.935  26.006  1.00  0.00     0.029 A 
ATOM     53  N   UNL A   1      46.382  26.934  26.881  1.00  0.00    -0.354 N 
ATOM     54  C   UNL A   1      42.388  27.861  28.229  1.00  0.00     0.074 A 
ATOM     55  C   UNL A   1      41.499  26.734  28.049  1.00  0.00     0.031 C 
ATOM     56  C   UNL A   1      47.966  25.701  25.895  1.00  0.00     0.029 A 
ATOM     57  C   UNL A   1      47.679  27.028  26.431  1.00  0.00     0.049 A 
ATOM     58  H   UNL A   1      45.914  27.674  27.331  1.00  0.00     0.167 HD
ATOM     59  C   UNL A   1      42.005  29.059  28.732  1.00  0.00     0.034 A 
ATOM     60  C   UNL A   1      48.537  28.067  26.440  1.00  0.00     0.034 A 
ATOM     61  C   UNL A   1      42.904  30.159  28.962  1.00  0.00     0.049 A 
ATOM     62  C   UNL A   1      48.105  29.367  27.063  1.00  0.00     0.074 A 
ATOM     63  C   UNL A   1      42.636  31.375  29.565  1.00  0.00     0.029 A 
ATOM     64  N   UNL A   1      44.239  30.181  28.593  1.00  0.00    -0.354 N 
ATOM     65  N   UNL A   1      46.952  29.680  27.603  1.00  0.00    -0.248 NA
ATOM     66  C   UNL A   1      49.102  30.446  27.114  1.00  0.00     0.031 C 
ATOM     67  C   UNL A   1      43.808  32.139  29.545  1.00  0.00     0.029 A 
ATOM     68  C   UNL A   1      44.809  31.391  28.947  1.00  0.00     0.049 A 
ATOM     69  H   UNL A   1      44.713  29.443  28.145  1.00  0.00     0.167 HD
ATOM     70  C   UNL A   1      47.095  30.974  28.088  1.00  0.00     0.074 A 
ATOM     71  C   UNL A   1      48.454  31.381  27.797  1.00  0.00     0.031 C 
ATOM     72  C   UNL A   1      46.179  31.762  28.704  1.00  0.00     0.034 A 
BRANCH  59  73
ATOM     73  C   UNL A   1      40.562  29.230  29.126  1.00  0.00     0.023 A 
ATOM     74  C   UNL A   1      39.599  29.507  28.135  1.00  0.00     0.012 A 
ATOM     75  C   UNL A   1      40.147  29.048  30.460  1.00  0.00     0.148 A 
ATOM     76  C   UNL A   1      38.252  29.632  28.467  1.00  0.00     0.002 A 
ATOM     77  C   UNL A   1      38.796  29.131  30.777  1.00  0.00     0.091 A 
ATOM     78  F   UNL A   1      41.080  28.806  31.393  1.00  0.00    -0.205 F 
ATOM     79  C   UNL A   1      37.849  29.433  29.785  1.00  0.00     0.022 A 
BRANCH  77  80
ATOM     80  S   UNL A   1      38.168  28.817  32.431  1.00  0.00     0.127 S 
ATOM     81  O   UNL A   1      36.745  29.117  32.268  1.00  0.00    -0.237 OA
ATOM     82  O   UNL A   1      38.474  27.397  32.613  1.00  0.00    -0.237 OA
ATOM     83  O   UNL A   1      38.898  29.713  33.315  1.00  0.00    -0.744 OA
ENDBRANCH  77  80
ENDBRANCH  59  73
BRANCH  60  84
ATOM     84  C   UNL A   1      49.916  27.897  25.900  1.00  0.00     0.023 A 
ATOM     85  C   UNL A   1      50.991  27.725  26.791  1.00  0.00     0.012 A 
ATOM     86  C   UNL A   1      50.162  27.874  24.513  1.00  0.00     0.148 A 
ATOM     87  C   UNL A   1      52.293  27.563  26.313  1.00  0.00     0.002 A 
ATOM     88  C   UNL A   1      51.453  27.658  24.043  1.00  0.00     0.091 A 
ATOM     89  F   UNL A   1      49.127  28.055  23.680  1.00  0.00    -0.205 F 
ATOM     90  C   UNL A   1      52.522  27.519  24.941  1.00  0.00     0.022 A 
BRANCH  88  91
ATOM     91  S   UNL A   1      51.810  27.452  22.294  1.00  0.00     0.127 S 
ATOM     92  O   UNL A   1      51.989  28.837  21.861  1.00  0.00    -0.237 OA
ATOM     93  O   UNL A   1      53.040  26.656  22.328  1.00  0.00    -0.237 OA
ATOM     94  O   UNL A   1      50.663  26.753  21.740  1.00  0.00    -0.744 OA
ENDBRANCH  88  91
ENDBRANCH  60  84
BRANCH  72  95
ATOM     95  C   UNL A   1      46.615  33.136  29.137  1.00  0.00     0.023 A 
ATOM     96  C   UNL A   1      47.226  33.313  30.393  1.00  0.00     0.012 A 
ATOM     97  C   UNL A   1      46.496  34.236  28.263  1.00  0.00     0.148 A 
ATOM     98  C   UNL A   1      47.686  34.568  30.787  1.00  0.00     0.002 A 
ATOM     99  C   UNL A   1      47.000  35.474  28.644  1.00  0.00     0.091 A 
ATOM    100  F   UNL A   1      45.894  34.052  27.080  1.00  0.00    -0.205 F 
ATOM    101  C   UNL A   1      47.585  35.645  29.909  1.00  0.00     0.022 A 
BRANCH  99 102
ATOM    102  S   UNL A   1      47.001  36.892  27.540  1.00  0.00     0.127 S 
ATOM    103  O   UNL A   1      47.685  36.355  26.365  1.00  0.00    -0.237 OA
ATOM    104  O   UNL A   1      45.572  37.143  27.353  1.00  0.00    -0.237 OA
ATOM    105  O   UNL A   1      47.710  37.950  28.249  1.00  0.00    -0.744 OA
ENDBRANCH  99 102
ENDBRANCH  72  95
ENDBRANCH  46  47
ENDBRANCH  38  41
ENDBRANCH  36  37
ENDBRANCH  35  36
ENDBRANCH  34  35
ENDBRANCH   1  34
TORSDOF 19
ENDMDL
MODEL 3
REMARK VINA RESULT:     -10.7      5.518     10.556
REMARK SMILES COc1cccc2ccc(C[N@@H+]3CC4(CC[NH2+]CC4)C[C@@H]3C(=O)NCCCCCCNC(=O)c3ccc(-c4c5nc(c(-c6cccc(S(=O)(=O)[O-])c6F)c6ccc([nH]6)c(-c6cccc(S(=O)(=O)[O-])c6F)c6nc(c(-c7cccc(S(=O)(=O)[O-])c7F)c7ccc4[nH]7)C=C6)C=C5)cc3)nc12
REMARK SMILES IDX 27 1 26 2 25 3 24 4 22 5 23 6 21 8 12 9 13 10 14 12 20 13
REMARK SMILES IDX 15 14 19 15 16 16 18 17 17 18 11 21 10 22 3 23 4 24 98 25
REMARK SMILES IDX 5 26 7 27 97 28 6 29 8 30 9 31 2 32 1 33 28 34 29 35 30 36
REMARK SMILES IDX 31 37 32 38 33 40 34 41 35 42 96 43 36 44 95 45 37 46 38 47
REMARK SMILES IDX 39 48 89 49 40 50 94 51 88 52 90 53 41 54 93 55 87 56 86 57
REMARK SMILES IDX 42 59 74 60 54 61 73 62 55 63 58 64 72 65 91 66 56 67 57 68
REMARK SMILES IDX 71 70 92 71 59 72 43 73 44 74 52 75 45 76 47 77 53 78 46 79
REMARK SMILES IDX 48 80 49 81 50 82 51 83 75 84 76 85 84 86 77 87 79 88 85 89
REMARK SMILES IDX 78 90 80 91 81 92 82 93 83 94 60 95 61 96 69 97 62 98 64 99
REMARK SMILES IDX 70 100 63 101 65 102 66 103 67 104 68 105
REMARK H PARENT 24 7 12 11 17 19 17 20 31 39 90 58 58 69
REMARK Flexibility Score: inf
ROOT
ATOM      1  C   UNL A   1      31.346  29.374  22.967  1.00  0.00     0.002 C 
ENDROOT
BRANCH   1   2
ATOM      2  C   UNL A   1      30.061  28.820  23.576  1.00  0.00     0.021 C 
BRANCH   2   3
ATOM      3  C   UNL A   1      30.066  27.321  23.910  1.00  0.00     0.116 C 
BRANCH   3   4
ATOM      4  N   UNL A   1      30.541  27.127  25.264  1.00  0.00    -0.351 N 
ATOM      5  C   UNL A   1      31.425  26.277  25.844  1.00  0.00     0.278 C 
ATOM      6  O   UNL A   1      31.351  26.280  27.089  1.00  0.00    -0.268 OA
ATOM      7  H   UNL A   1      30.130  27.750  25.908  1.00  0.00     0.163 HD
BRANCH   5   8
ATOM      8  C   UNL A   1      32.632  25.579  25.190  1.00  0.00     0.275 C 
ATOM      9  N   UNL A   1      32.618  24.358  24.358  1.00  0.00    -0.319 N 
ATOM     10  C   UNL A   1      34.022  23.921  24.334  1.00  0.00     0.270 C 
ATOM     11  H   UNL A   1      32.178  24.675  23.494  1.00  0.00     0.349 HD
ATOM     12  C   UNL A   1      34.620  24.187  25.729  1.00  0.00     0.036 C 
ATOM     13  C   UNL A   1      33.810  25.410  26.192  1.00  0.00     0.089 C 
ATOM     14  C   UNL A   1      36.142  24.427  25.631  1.00  0.00     0.074 C 
ATOM     15  C   UNL A   1      34.486  23.045  26.758  1.00  0.00     0.074 C 
ATOM     16  C   UNL A   1      36.880  23.138  25.226  1.00  0.00     0.261 C 
ATOM     17  C   UNL A   1      35.172  21.769  26.290  1.00  0.00     0.261 C 
ATOM     18  N   UNL A   1      36.607  21.998  26.109  1.00  0.00    -0.346 N 
ATOM     19  H   UNL A   1      37.027  22.181  27.021  1.00  0.00     0.346 HD
ATOM     20  H   UNL A   1      37.005  21.165  25.678  1.00  0.00     0.346 HD
BRANCH   9  21
ATOM     21  C   UNL A   1      31.687  23.239  24.502  1.00  0.00     0.320 C 
BRANCH  21  22
ATOM     22  C   UNL A   1      31.869  21.972  23.705  1.00  0.00     0.095 A 
ATOM     23  C   UNL A   1      32.635  18.489  24.439  1.00  0.00     0.145 A 
ATOM     24  C   UNL A   1      32.887  17.292  23.760  1.00  0.00     0.049 A 
ATOM     25  C   UNL A   1      32.374  19.679  23.735  1.00  0.00     0.113 A 
ATOM     26  C   UNL A   1      32.842  17.259  22.369  1.00  0.00     0.005 A 
ATOM     27  C   UNL A   1      32.272  19.617  22.332  1.00  0.00     0.004 A 
ATOM     28  N   UNL A   1      32.201  20.851  24.383  1.00  0.00    -0.243 NA
ATOM     29  C   UNL A   1      32.523  18.412  21.657  1.00  0.00     0.010 A 
ATOM     30  C   UNL A   1      31.904  20.777  21.638  1.00  0.00     0.012 A 
ATOM     31  C   UNL A   1      31.671  21.961  22.331  1.00  0.00     0.030 A 
BRANCH  23  32
ATOM     32  O   UNL A   1      32.633  18.589  25.812  1.00  0.00    -0.494 OA
ATOM     33  C   UNL A   1      32.598  17.389  26.567  1.00  0.00     0.278 C 
ENDBRANCH  23  32
ENDBRANCH  21  22
ENDBRANCH   9  21
ENDBRANCH   5   8
ENDBRANCH   3   4
ENDBRANCH   2   3
ENDBRANCH   1   2
BRANCH   1  34
ATOM     34  C   UNL A   1      32.602  28.564  23.284  1.00  0.00     0.002 C 
BRANCH  34  35
ATOM     35  C   UNL A   1      33.553  29.179  24.318  1.00  0.00     0.021 C 
BRANCH  35  36
ATOM     36  C   UNL A   1      32.974  29.380  25.719  1.00  0.00     0.116 C 
BRANCH  36  37
ATOM     37  N   UNL A   1      32.757  30.786  26.026  1.00  0.00    -0.352 N 
ATOM     38  C   UNL A   1      33.348  31.573  26.981  1.00  0.00     0.251 C 
ATOM     39  H   UNL A   1      32.088  31.240  25.465  1.00  0.00     0.163 HD
ATOM     40  O   UNL A   1      32.877  32.678  27.246  1.00  0.00    -0.269 OA
BRANCH  38  41
ATOM     41  C   UNL A   1      34.547  31.093  27.699  1.00  0.00     0.039 A 
ATOM     42  C   UNL A   1      35.606  31.978  27.921  1.00  0.00     0.014 A 
ATOM     43  C   UNL A   1      34.636  29.766  28.126  1.00  0.00     0.014 A 
ATOM     44  C   UNL A   1      36.737  31.542  28.618  1.00  0.00     0.010 A 
ATOM     45  C   UNL A   1      35.737  29.352  28.873  1.00  0.00     0.010 A 
ATOM     46  C   UNL A   1      36.801  30.233  29.121  1.00  0.00    -0.014 A 
BRANCH  46  47
ATOM     47  C   UNL A   1      37.968  29.767  29.913  1.00  0.00     0.031 A 
ATOM     48  C   UNL A   1      38.219  30.320  31.291  1.00  0.00     0.074 A 
ATOM     49  C   UNL A   1      38.855  28.920  29.354  1.00  0.00     0.049 A 
ATOM     50  N   UNL A   1      39.216  30.085  32.103  1.00  0.00    -0.248 NA
ATOM     51  C   UNL A   1      37.235  31.282  31.813  1.00  0.00     0.031 C 
ATOM     52  C   UNL A   1      38.769  28.382  27.995  1.00  0.00     0.029 A 
ATOM     53  N   UNL A   1      40.022  28.391  29.847  1.00  0.00    -0.354 N 
ATOM     54  C   UNL A   1      39.004  30.897  33.210  1.00  0.00     0.074 A 
ATOM     55  C   UNL A   1      37.795  31.651  32.956  1.00  0.00     0.031 C 
ATOM     56  C   UNL A   1      39.840  27.606  27.761  1.00  0.00     0.029 A 
ATOM     57  C   UNL A   1      40.699  27.609  28.941  1.00  0.00     0.049 A 
ATOM     58  H   UNL A   1      40.343  28.554  30.763  1.00  0.00     0.167 HD
ATOM     59  C   UNL A   1      39.733  30.989  34.349  1.00  0.00     0.034 A 
ATOM     60  C   UNL A   1      41.884  26.973  29.043  1.00  0.00     0.034 A 
ATOM     61  C   UNL A   1      40.902  30.196  34.621  1.00  0.00     0.049 A 
ATOM     62  C   UNL A   1      42.640  27.042  30.342  1.00  0.00     0.074 A 
ATOM     63  C   UNL A   1      41.647  30.137  35.786  1.00  0.00     0.029 A 
ATOM     64  N   UNL A   1      41.500  29.332  33.719  1.00  0.00    -0.354 N 
ATOM     65  N   UNL A   1      42.330  27.681  31.444  1.00  0.00    -0.248 NA
ATOM     66  C   UNL A   1      43.890  26.273  30.428  1.00  0.00     0.031 C 
ATOM     67  C   UNL A   1      42.707  29.248  35.581  1.00  0.00     0.029 A 
ATOM     68  C   UNL A   1      42.610  28.739  34.295  1.00  0.00     0.049 A 
ATOM     69  H   UNL A   1      41.181  29.162  32.803  1.00  0.00     0.167 HD
ATOM     70  C   UNL A   1      43.323  27.363  32.362  1.00  0.00     0.074 A 
ATOM     71  C   UNL A   1      44.235  26.458  31.695  1.00  0.00     0.031 C 
ATOM     72  C   UNL A   1      43.477  27.795  33.639  1.00  0.00     0.034 A 
BRANCH  59  73
ATOM     73  C   UNL A   1      39.256  31.939  35.416  1.00  0.00     0.023 A 
ATOM     74  C   UNL A   1      38.337  31.490  36.385  1.00  0.00     0.012 A 
ATOM     75  C   UNL A   1      39.767  33.249  35.503  1.00  0.00     0.148 A 
ATOM     76  C   UNL A   1      37.909  32.336  37.406  1.00  0.00     0.002 A 
ATOM     77  C   UNL A   1      39.369  34.074  36.549  1.00  0.00     0.091 A 
ATOM     78  F   UNL A   1      40.624  33.665  34.560  1.00  0.00    -0.205 F 
ATOM     79  C   UNL A   1      38.432  33.624  37.494  1.00  0.00     0.022 A 
BRANCH  77  80
ATOM     80  S   UNL A   1      40.042  35.721  36.793  1.00  0.00     0.127 S 
ATOM     81  O   UNL A   1      41.471  35.440  36.925  1.00  0.00    -0.237 OA
ATOM     82  O   UNL A   1      39.666  36.397  35.550  1.00  0.00    -0.237 OA
ATOM     83  O   UNL A   1      39.397  36.247  37.987  1.00  0.00    -0.744 OA
ENDBRANCH  77  80
ENDBRANCH  59  73
BRANCH  60  84
ATOM     84  C   UNL A   1      42.393  26.162  27.902  1.00  0.00     0.023 A 
ATOM     85  C   UNL A   1      43.365  26.709  27.043  1.00  0.00     0.012 A 
ATOM     86  C   UNL A   1      41.944  24.846  27.680  1.00  0.00     0.148 A 
ATOM     87  C   UNL A   1      43.860  25.972  25.967  1.00  0.00     0.002 A 
ATOM     88  C   UNL A   1      42.481  24.097  26.638  1.00  0.00     0.091 A 
ATOM     89  F   UNL A   1      41.007  24.346  28.499  1.00  0.00    -0.205 F 
ATOM     90  C   UNL A   1      43.426  24.664  25.770  1.00  0.00     0.022 A 
BRANCH  88  91
ATOM     91  S   UNL A   1      42.078  22.362  26.401  1.00  0.00     0.127 S 
ATOM     92  O   UNL A   1      40.643  22.424  26.128  1.00  0.00    -0.237 OA
ATOM     93  O   UNL A   1      42.908  22.013  25.245  1.00  0.00    -0.237 OA
ATOM     94  O   UNL A   1      42.464  21.698  27.635  1.00  0.00    -0.744 OA
ENDBRANCH  88  91
ENDBRANCH  60  84
BRANCH  72  95
ATOM     95  C   UNL A   1      44.656  27.275  34.418  1.00  0.00     0.023 A 
ATOM     96  C   UNL A   1      45.856  28.010  34.443  1.00  0.00     0.012 A 
ATOM     97  C   UNL A   1      44.544  26.103  35.192  1.00  0.00     0.148 A 
ATOM     98  C   UNL A   1      46.940  27.573  35.203  1.00  0.00     0.002 A 
ATOM     99  C   UNL A   1      45.612  25.699  35.986  1.00  0.00     0.091 A 
ATOM    100  F   UNL A   1      43.400  25.407  35.140  1.00  0.00    -0.205 F 
ATOM    101  C   UNL A   1      46.813  26.426  35.984  1.00  0.00     0.022 A 
BRANCH  99 102
ATOM    102  S   UNL A   1      45.505  24.290  37.095  1.00  0.00     0.127 S 
ATOM    103  O   UNL A   1      44.939  23.265  36.222  1.00  0.00    -0.237 OA
ATOM    104  O   UNL A   1      46.905  24.075  37.462  1.00  0.00    -0.237 OA
ATOM    105  O   UNL A   1      44.652  24.714  38.199  1.00  0.00    -0.744 OA
ENDBRANCH  99 102
ENDBRANCH  72  95
ENDBRANCH  46  47
ENDBRANCH  38  41
ENDBRANCH  36  37
ENDBRANCH  35  36
ENDBRANCH  34  35
ENDBRANCH   1  34
TORSDOF 19
ENDMDL
