MODEL 1
REMARK VINA RESULT:     -12.0      0.000      0.000
REMARK SMILES COc1ccc(CCc2nnc(NC(=O)[C@@H]3[C@@H](C(=O)NCCCCCCNC(=O)c4ccc(-c5c6nc(c(-c7cccc(S(=O)(=O)[O-])c7F)c7ccc([nH]7)c(-c7cccc(S(=O)(=O)[O-])c7F)c7nc(c(-c8cccc(S(=O)(=O)[O-])c8F)c8ccc5[nH]8)C=C7)C=C6)cc4)C3(C)C)s2)cc1
REMARK SMILES IDX 22 1 21 2 20 3 18 4 19 5 17 7 16 8 93 9 94 10 95 11 14 12
REMARK SMILES IDX 13 13 15 15 12 16 9 17 10 18 96 19 11 20 8 21 7 22 6 23 3 24
REMARK SMILES IDX 4 25 98 26 5 27 97 28 2 29 1 30 23 31 24 32 25 33 26 34
REMARK SMILES IDX 27 35 28 36 29 38 30 39 31 40 92 41 32 42 91 43 33 44 34 45
REMARK SMILES IDX 35 46 85 47 36 48 90 49 84 50 86 51 37 52 89 53 83 54 82 55
REMARK SMILES IDX 38 57 70 58 50 59 69 60 51 61 54 62 68 63 87 64 52 65 53 66
REMARK SMILES IDX 67 68 88 69 55 70 39 71 40 72 48 73 41 74 43 75 49 76 42 77
REMARK SMILES IDX 44 78 45 79 46 80 47 81 71 82 72 83 80 84 73 85 75 86 81 87
REMARK SMILES IDX 74 88 76 89 77 90 78 91 79 92 56 93 57 94 65 95 58 96 60 97
REMARK SMILES IDX 66 98 59 99 61 100 62 101 63 102 64 103
REMARK H PARENT 20 6 13 14 27 37 86 56 54 67
REMARK Flexibility Score: inf
ROOT
ATOM      1  C   UNL A   1      33.717  27.571  24.694  1.00  0.00     0.021 C 
ENDROOT
BRANCH   1   2
ATOM      2  C   UNL A   1      33.933  26.085  24.991  1.00  0.00     0.116 C 
BRANCH   2   3
ATOM      3  N   UNL A   1      33.952  25.310  23.763  1.00  0.00    -0.356 N 
ATOM      4  C   UNL A   1      34.274  24.024  23.444  1.00  0.00     0.224 C 
ATOM      5  O   UNL A   1      34.300  23.752  22.241  1.00  0.00    -0.275 OA
ATOM      6  H   UNL A   1      33.668  25.834  22.980  1.00  0.00     0.163 HD
BRANCH   4   7
ATOM      7  C   UNL A   1      34.550  22.911  24.388  1.00  0.00     0.098 C 
ATOM      8  C   UNL A   1      34.605  22.934  25.885  1.00  0.00     0.098 C 
ATOM      9  C   UNL A   1      35.884  22.646  25.080  1.00  0.00    -0.011 C 
ATOM     10  C   UNL A   1      36.964  23.704  25.151  1.00  0.00     0.013 C 
ATOM     11  C   UNL A   1      36.444  21.245  24.996  1.00  0.00     0.013 C 
BRANCH   8  12
ATOM     12  C   UNL A   1      33.836  21.910  26.662  1.00  0.00     0.230 C 
ATOM     13  N   UNL A   1      32.472  22.028  26.770  1.00  0.00    -0.300 N 
ATOM     14  H   UNL A   1      32.025  21.511  27.479  1.00  0.00     0.172 HD
ATOM     15  O   UNL A   1      34.409  21.002  27.264  1.00  0.00    -0.274 OA
BRANCH  13  16
ATOM     16  C   UNL A   1      31.688  22.810  25.971  1.00  0.00     0.212 A 
ATOM     17  C   UNL A   1      30.508  24.663  25.106  1.00  0.00     0.119 A 
ATOM     18  N   UNL A   1      30.647  23.700  24.217  1.00  0.00    -0.142 NA
ATOM     19  S   UNL A   1      31.066  24.232  26.683  1.00  0.00    -0.080 S 
ATOM     20  N   UNL A   1      31.350  22.628  24.719  1.00  0.00    -0.120 NA
BRANCH  17  21
ATOM     21  C   UNL A   1      29.949  26.016  24.792  1.00  0.00     0.074 C 
BRANCH  21  22
ATOM     22  C   UNL A   1      30.299  26.534  23.386  1.00  0.00     0.043 C 
BRANCH  22  23
ATOM     23  C   UNL A   1      29.660  27.848  22.984  1.00  0.00    -0.047 A 
ATOM     24  C   UNL A   1      28.438  30.250  22.210  1.00  0.00     0.118 A 
ATOM     25  C   UNL A   1      27.705  29.300  22.905  1.00  0.00     0.046 A 
ATOM     26  C   UNL A   1      29.779  30.016  21.897  1.00  0.00     0.046 A 
ATOM     27  C   UNL A   1      28.306  28.094  23.260  1.00  0.00     0.007 A 
ATOM     28  C   UNL A   1      30.390  28.822  22.292  1.00  0.00     0.007 A 
BRANCH  24  29
ATOM     29  O   UNL A   1      27.834  31.452  21.966  1.00  0.00    -0.497 OA
ATOM     30  C   UNL A   1      28.670  32.544  22.341  1.00  0.00     0.278 C 
ENDBRANCH  24  29
ENDBRANCH  22  23
ENDBRANCH  21  22
ENDBRANCH  17  21
ENDBRANCH  13  16
ENDBRANCH   8  12
ENDBRANCH   4   7
ENDBRANCH   2   3
ENDBRANCH   1   2
BRANCH   1  31
ATOM     31  C   UNL A   1      33.258  28.411  25.893  1.00  0.00     0.002 C 
BRANCH  31  32
ATOM     32  C   UNL A   1      31.865  29.039  25.771  1.00  0.00     0.002 C 
BRANCH  32  33
ATOM     33  C   UNL A   1      31.810  30.557  25.950  1.00  0.00     0.021 C 
BRANCH  33  34
ATOM     34  C   UNL A   1      32.468  31.087  27.224  1.00  0.00     0.116 C 
BRANCH  34  35
ATOM     35  N   UNL A   1      32.711  32.520  27.162  1.00  0.00    -0.352 N 
ATOM     36  C   UNL A   1      33.748  33.248  27.698  1.00  0.00     0.251 C 
ATOM     37  H   UNL A   1      32.038  33.042  26.667  1.00  0.00     0.163 HD
ATOM     38  O   UNL A   1      33.681  34.474  27.730  1.00  0.00    -0.269 OA
BRANCH  36  39
ATOM     39  C   UNL A   1      34.944  32.565  28.249  1.00  0.00     0.039 A 
ATOM     40  C   UNL A   1      36.171  33.234  28.253  1.00  0.00     0.014 A 
ATOM     41  C   UNL A   1      34.875  31.256  28.722  1.00  0.00     0.014 A 
ATOM     42  C   UNL A   1      37.311  32.612  28.788  1.00  0.00     0.010 A 
ATOM     43  C   UNL A   1      36.004  30.661  29.301  1.00  0.00     0.010 A 
ATOM     44  C   UNL A   1      37.237  31.331  29.361  1.00  0.00    -0.014 A 
BRANCH  44  45
ATOM     45  C   UNL A   1      38.418  30.710  30.049  1.00  0.00     0.031 A 
ATOM     46  C   UNL A   1      38.797  31.084  31.466  1.00  0.00     0.074 A 
ATOM     47  C   UNL A   1      39.227  29.861  29.377  1.00  0.00     0.049 A 
ATOM     48  N   UNL A   1      39.811  30.671  32.188  1.00  0.00    -0.248 NA
ATOM     49  C   UNL A   1      37.954  32.080  32.145  1.00  0.00     0.031 C 
ATOM     50  C   UNL A   1      39.080  29.482  27.971  1.00  0.00     0.029 A 
ATOM     51  N   UNL A   1      40.352  29.175  29.782  1.00  0.00    -0.354 N 
ATOM     52  C   UNL A   1      39.756  31.387  33.378  1.00  0.00     0.074 A 
ATOM     53  C   UNL A   1      38.640  32.301  33.258  1.00  0.00     0.031 C 
ATOM     54  C   UNL A   1      40.052  28.618  27.640  1.00  0.00     0.029 A 
ATOM     55  C   UNL A   1      40.919  28.401  28.795  1.00  0.00     0.049 A 
ATOM     56  H   UNL A   1      40.717  29.234  30.694  1.00  0.00     0.167 HD
ATOM     57  C   UNL A   1      40.524  31.278  34.490  1.00  0.00     0.034 A 
ATOM     58  C   UNL A   1      42.008  27.605  28.803  1.00  0.00     0.034 A 
ATOM     59  C   UNL A   1      41.595  30.330  34.653  1.00  0.00     0.049 A 
ATOM     60  C   UNL A   1      42.805  27.437  30.071  1.00  0.00     0.074 A 
ATOM     61  C   UNL A   1      42.351  30.073  35.784  1.00  0.00     0.029 A 
ATOM     62  N   UNL A   1      42.070  29.488  33.661  1.00  0.00    -0.354 N 
ATOM     63  N   UNL A   1      42.621  27.996  31.242  1.00  0.00    -0.248 NA
ATOM     64  C   UNL A   1      43.939  26.500  30.030  1.00  0.00     0.031 C 
ATOM     65  C   UNL A   1      43.299  29.093  35.469  1.00  0.00     0.029 A 
ATOM     66  C   UNL A   1      43.112  28.716  34.150  1.00  0.00     0.049 A 
ATOM     67  H   UNL A   1      41.718  29.444  32.742  1.00  0.00     0.167 HD
ATOM     68  C   UNL A   1      43.589  27.454  32.081  1.00  0.00     0.074 A 
ATOM     69  C   UNL A   1      44.345  26.505  31.292  1.00  0.00     0.031 C 
ATOM     70  C   UNL A   1      43.835  27.732  33.385  1.00  0.00     0.034 A 
BRANCH  57  71
ATOM     71  C   UNL A   1      40.187  32.171  35.661  1.00  0.00     0.023 A 
ATOM     72  C   UNL A   1      40.885  33.386  35.831  1.00  0.00     0.012 A 
ATOM     73  C   UNL A   1      39.160  31.836  36.565  1.00  0.00     0.148 A 
ATOM     74  C   UNL A   1      40.609  34.221  36.912  1.00  0.00     0.002 A 
ATOM     75  C   UNL A   1      38.854  32.701  37.610  1.00  0.00     0.091 A 
ATOM     76  F   UNL A   1      38.512  30.674  36.397  1.00  0.00    -0.205 F 
ATOM     77  C   UNL A   1      39.588  33.883  37.796  1.00  0.00     0.022 A 
BRANCH  75  78
ATOM     78  S   UNL A   1      37.497  32.401  38.749  1.00  0.00     0.127 S 
ATOM     79  O   UNL A   1      37.857  33.267  39.870  1.00  0.00    -0.237 OA
ATOM     80  O   UNL A   1      36.340  32.853  37.976  1.00  0.00    -0.237 OA
ATOM     81  O   UNL A   1      37.518  30.972  39.028  1.00  0.00    -0.744 OA
ENDBRANCH  75  78
ENDBRANCH  57  71
BRANCH  58  82
ATOM     82  C   UNL A   1      42.376  26.840  27.575  1.00  0.00     0.023 A 
ATOM     83  C   UNL A   1      42.997  27.510  26.502  1.00  0.00     0.012 A 
ATOM     84  C   UNL A   1      42.145  25.454  27.476  1.00  0.00     0.148 A 
ATOM     85  C   UNL A   1      43.347  26.821  25.340  1.00  0.00     0.002 A 
ATOM     86  C   UNL A   1      42.553  24.762  26.342  1.00  0.00     0.091 A 
ATOM     87  F   UNL A   1      41.549  24.837  28.506  1.00  0.00    -0.205 F 
ATOM     88  C   UNL A   1      43.134  25.448  25.264  1.00  0.00     0.022 A 
BRANCH  86  89
ATOM     89  S   UNL A   1      42.450  22.974  26.208  1.00  0.00     0.127 S 
ATOM     90  O   UNL A   1      43.440  22.540  27.189  1.00  0.00    -0.237 OA
ATOM     91  O   UNL A   1      41.057  22.725  26.586  1.00  0.00    -0.237 OA
ATOM     92  O   UNL A   1      42.758  22.657  24.821  1.00  0.00    -0.744 OA
ENDBRANCH  86  89
ENDBRANCH  58  82
BRANCH  70  93
ATOM     93  C   UNL A   1      44.945  26.979  34.076  1.00  0.00     0.023 A 
ATOM     94  C   UNL A   1      46.274  27.441  33.988  1.00  0.00     0.012 A 
ATOM     95  C   UNL A   1      44.659  25.858  34.881  1.00  0.00     0.148 A 
ATOM     96  C   UNL A   1      47.302  26.782  34.663  1.00  0.00     0.002 A 
ATOM     97  C   UNL A   1      45.681  25.236  35.591  1.00  0.00     0.091 A 
ATOM     98  F   UNL A   1      43.393  25.420  34.941  1.00  0.00    -0.205 F 
ATOM     99  C   UNL A   1      47.004  25.689  35.473  1.00  0.00     0.022 A 
BRANCH  97 100
ATOM    100  S   UNL A   1      45.379  23.882  36.734  1.00  0.00     0.127 S 
ATOM    101  O   UNL A   1      46.707  23.679  37.311  1.00  0.00    -0.237 OA
ATOM    102  O   UNL A   1      44.399  24.464  37.651  1.00  0.00    -0.237 OA
ATOM    103  O   UNL A   1      44.874  22.779  35.928  1.00  0.00    -0.744 OA
ENDBRANCH  97 100
ENDBRANCH  70  93
ENDBRANCH  44  45
ENDBRANCH  36  39
ENDBRANCH  34  35
ENDBRANCH  33  34
ENDBRANCH  32  33
ENDBRANCH  31  32
ENDBRANCH   1  31
TORSDOF 22
ENDMDL
MODEL 2
REMARK VINA RESULT:     -11.6      1.884      7.549
REMARK SMILES COc1ccc(CCc2nnc(NC(=O)[C@@H]3[C@@H](C(=O)NCCCCCCNC(=O)c4ccc(-c5c6nc(c(-c7cccc(S(=O)(=O)[O-])c7F)c7ccc([nH]7)c(-c7cccc(S(=O)(=O)[O-])c7F)c7nc(c(-c8cccc(S(=O)(=O)[O-])c8F)c8ccc5[nH]8)C=C7)C=C6)cc4)C3(C)C)s2)cc1
REMARK SMILES IDX 22 1 21 2 20 3 18 4 19 5 17 7 16 8 93 9 94 10 95 11 14 12
REMARK SMILES IDX 13 13 15 15 12 16 9 17 10 18 96 19 11 20 8 21 7 22 6 23 3 24
REMARK SMILES IDX 4 25 98 26 5 27 97 28 2 29 1 30 23 31 24 32 25 33 26 34
REMARK SMILES IDX 27 35 28 36 29 38 30 39 31 40 92 41 32 42 91 43 33 44 34 45
REMARK SMILES IDX 35 46 85 47 36 48 90 49 84 50 86 51 37 52 89 53 83 54 82 55
REMARK SMILES IDX 38 57 70 58 50 59 69 60 51 61 54 62 68 63 87 64 52 65 53 66
REMARK SMILES IDX 67 68 88 69 55 70 39 71 40 72 48 73 41 74 43 75 49 76 42 77
REMARK SMILES IDX 44 78 45 79 46 80 47 81 71 82 72 83 80 84 73 85 75 86 81 87
REMARK SMILES IDX 74 88 76 89 77 90 78 91 79 92 56 93 57 94 65 95 58 96 60 97
REMARK SMILES IDX 66 98 59 99 61 100 62 101 63 102 64 103
REMARK H PARENT 20 6 13 14 27 37 86 56 54 67
REMARK Flexibility Score: inf
ROOT
ATOM      1  C   UNL A   1      33.505  27.743  25.402  1.00  0.00     0.021 C 
ENDROOT
BRANCH   1   2
ATOM      2  C   UNL A   1      33.989  26.291  25.469  1.00  0.00     0.116 C 
BRANCH   2   3
ATOM      3  N   UNL A   1      34.059  25.709  24.141  1.00  0.00    -0.356 N 
ATOM      4  C   UNL A   1      34.307  24.460  23.651  1.00  0.00     0.224 C 
ATOM      5  O   UNL A   1      34.420  24.368  22.427  1.00  0.00    -0.275 OA
ATOM      6  H   UNL A   1      33.888  26.367  23.429  1.00  0.00     0.163 HD
BRANCH   4   7
ATOM      7  C   UNL A   1      34.409  23.199  24.430  1.00  0.00     0.098 C 
ATOM      8  C   UNL A   1      34.252  22.984  25.905  1.00  0.00     0.098 C 
ATOM      9  C   UNL A   1      35.622  22.755  25.243  1.00  0.00    -0.011 C 
ATOM     10  C   UNL A   1      36.716  23.726  25.630  1.00  0.00     0.013 C 
ATOM     11  C   UNL A   1      36.141  21.356  25.009  1.00  0.00     0.013 C 
BRANCH   8  12
ATOM     12  C   UNL A   1      33.346  21.896  26.394  1.00  0.00     0.230 C 
ATOM     13  N   UNL A   1      31.987  22.093  26.387  1.00  0.00    -0.300 N 
ATOM     14  H   UNL A   1      31.437  21.490  26.937  1.00  0.00     0.172 HD
ATOM     15  O   UNL A   1      33.799  20.853  26.867  1.00  0.00    -0.274 OA
BRANCH  13  16
ATOM     16  C   UNL A   1      31.341  23.063  25.676  1.00  0.00     0.212 A 
ATOM     17  C   UNL A   1      30.444  25.148  25.026  1.00  0.00     0.119 A 
ATOM     18  N   UNL A   1      30.488  24.290  24.026  1.00  0.00    -0.142 NA
ATOM     19  S   UNL A   1      30.885  24.459  26.547  1.00  0.00    -0.080 S 
ATOM     20  N   UNL A   1      31.027  23.081  24.405  1.00  0.00    -0.120 NA
BRANCH  17  21
ATOM     21  C   UNL A   1      30.078  26.592  24.872  1.00  0.00     0.074 C 
BRANCH  21  22
ATOM     22  C   UNL A   1      29.547  26.965  23.476  1.00  0.00     0.043 C 
BRANCH  22  23
ATOM     23  C   UNL A   1      29.064  28.391  23.308  1.00  0.00    -0.047 A 
ATOM     24  C   UNL A   1      28.189  31.043  23.050  1.00  0.00     0.118 A 
ATOM     25  C   UNL A   1      29.530  30.782  23.291  1.00  0.00     0.046 A 
ATOM     26  C   UNL A   1      27.277  29.992  22.933  1.00  0.00     0.046 A 
ATOM     27  C   UNL A   1      29.956  29.466  23.452  1.00  0.00     0.007 A 
ATOM     28  C   UNL A   1      27.716  28.669  23.052  1.00  0.00     0.007 A 
BRANCH  24  29
ATOM     29  O   UNL A   1      27.837  32.342  22.808  1.00  0.00    -0.497 OA
ATOM     30  C   UNL A   1      28.939  33.226  22.993  1.00  0.00     0.278 C 
ENDBRANCH  24  29
ENDBRANCH  22  23
ENDBRANCH  21  22
ENDBRANCH  17  21
ENDBRANCH  13  16
ENDBRANCH   8  12
ENDBRANCH   4   7
ENDBRANCH   2   3
ENDBRANCH   1   2
BRANCH   1  31
ATOM     31  C   UNL A   1      33.222  28.394  26.761  1.00  0.00     0.002 C 
BRANCH  31  32
ATOM     32  C   UNL A   1      31.839  29.038  26.916  1.00  0.00     0.002 C 
BRANCH  32  33
ATOM     33  C   UNL A   1      31.788  30.550  26.684  1.00  0.00     0.021 C 
BRANCH  33  34
ATOM     34  C   UNL A   1      32.984  31.332  27.228  1.00  0.00     0.116 C 
BRANCH  34  35
ATOM     35  N   UNL A   1      32.694  32.751  27.368  1.00  0.00    -0.352 N 
ATOM     36  C   UNL A   1      33.262  33.672  28.218  1.00  0.00     0.251 C 
ATOM     37  H   UNL A   1      31.992  33.100  26.772  1.00  0.00     0.163 HD
ATOM     38  O   UNL A   1      32.747  34.780  28.350  1.00  0.00    -0.269 OA
BRANCH  36  39
ATOM     39  C   UNL A   1      34.486  33.338  28.984  1.00  0.00     0.039 A 
ATOM     40  C   UNL A   1      34.388  32.497  30.097  1.00  0.00     0.014 A 
ATOM     41  C   UNL A   1      35.725  33.879  28.642  1.00  0.00     0.014 A 
ATOM     42  C   UNL A   1      35.538  32.153  30.824  1.00  0.00     0.010 A 
ATOM     43  C   UNL A   1      36.875  33.490  29.340  1.00  0.00     0.010 A 
ATOM     44  C   UNL A   1      36.809  32.609  30.431  1.00  0.00    -0.014 A 
BRANCH  44  45
ATOM     45  C   UNL A   1      38.057  32.145  31.123  1.00  0.00     0.031 A 
ATOM     46  C   UNL A   1      38.920  31.043  30.548  1.00  0.00     0.074 A 
ATOM     47  C   UNL A   1      38.391  32.647  32.333  1.00  0.00     0.049 A 
ATOM     48  N   UNL A   1      40.005  30.498  31.042  1.00  0.00    -0.248 NA
ATOM     49  C   UNL A   1      38.486  30.447  29.275  1.00  0.00     0.031 C 
ATOM     50  C   UNL A   1      37.612  33.629  33.089  1.00  0.00     0.029 A 
ATOM     51  N   UNL A   1      39.467  32.386  33.154  1.00  0.00    -0.354 N 
ATOM     52  C   UNL A   1      40.353  29.470  30.172  1.00  0.00     0.074 A 
ATOM     53  C   UNL A   1      39.331  29.433  29.147  1.00  0.00     0.031 C 
ATOM     54  C   UNL A   1      38.243  33.906  34.240  1.00  0.00     0.029 A 
ATOM     55  C   UNL A   1      39.457  33.100  34.330  1.00  0.00     0.049 A 
ATOM     56  H   UNL A   1      40.178  31.747  32.920  1.00  0.00     0.167 HD
ATOM     57  C   UNL A   1      41.438  28.656  30.184  1.00  0.00     0.034 A 
ATOM     58  C   UNL A   1      40.318  33.115  35.370  1.00  0.00     0.034 A 
ATOM     59  C   UNL A   1      42.498  28.722  31.155  1.00  0.00     0.049 A 
ATOM     60  C   UNL A   1      41.557  32.259  35.331  1.00  0.00     0.074 A 
ATOM     61  C   UNL A   1      43.688  28.014  31.179  1.00  0.00     0.029 A 
ATOM     62  N   UNL A   1      42.500  29.536  32.276  1.00  0.00    -0.354 N 
ATOM     63  N   UNL A   1      41.953  31.423  34.403  1.00  0.00    -0.248 NA
ATOM     64  C   UNL A   1      42.488  32.377  36.464  1.00  0.00     0.031 C 
ATOM     65  C   UNL A   1      44.397  28.381  32.328  1.00  0.00     0.029 A 
ATOM     66  C   UNL A   1      43.665  29.343  33.003  1.00  0.00     0.049 A 
ATOM     67  H   UNL A   1      41.780  30.161  32.521  1.00  0.00     0.167 HD
ATOM     68  C   UNL A   1      43.190  30.943  34.823  1.00  0.00     0.074 A 
ATOM     69  C   UNL A   1      43.490  31.598  36.078  1.00  0.00     0.031 C 
ATOM     70  C   UNL A   1      43.994  30.030  34.226  1.00  0.00     0.034 A 
BRANCH  57  71
ATOM     71  C   UNL A   1      41.570  27.655  29.061  1.00  0.00     0.023 A 
ATOM     72  C   UNL A   1      40.878  26.427  29.140  1.00  0.00     0.012 A 
ATOM     73  C   UNL A   1      42.338  27.938  27.914  1.00  0.00     0.148 A 
ATOM     74  C   UNL A   1      40.996  25.476  28.129  1.00  0.00     0.002 A 
ATOM     75  C   UNL A   1      42.407  27.006  26.885  1.00  0.00     0.091 A 
ATOM     76  F   UNL A   1      42.998  29.103  27.857  1.00  0.00    -0.205 F 
ATOM     77  C   UNL A   1      41.752  25.769  26.998  1.00  0.00     0.022 A 
BRANCH  75  78
ATOM     78  S   UNL A   1      43.281  27.323  25.348  1.00  0.00     0.127 S 
ATOM     79  O   UNL A   1      43.466  25.969  24.828  1.00  0.00    -0.237 OA
ATOM     80  O   UNL A   1      42.315  28.135  24.606  1.00  0.00    -0.237 OA
ATOM     81  O   UNL A   1      44.501  28.026  25.719  1.00  0.00    -0.744 OA
ENDBRANCH  75  78
ENDBRANCH  57  71
BRANCH  58  82
ATOM     82  C   UNL A   1      40.072  34.033  36.521  1.00  0.00     0.023 A 
ATOM     83  C   UNL A   1      40.374  35.404  36.391  1.00  0.00     0.012 A 
ATOM     84  C   UNL A   1      39.516  33.566  37.728  1.00  0.00     0.148 A 
ATOM     85  C   UNL A   1      40.160  36.284  37.452  1.00  0.00     0.002 A 
ATOM     86  C   UNL A   1      39.247  34.459  38.759  1.00  0.00     0.091 A 
ATOM     87  F   UNL A   1      39.240  32.259  37.833  1.00  0.00    -0.205 F 
ATOM     88  C   UNL A   1      39.588  35.814  38.631  1.00  0.00     0.022 A 
BRANCH  86  89
ATOM     89  S   UNL A   1      38.384  33.975  40.259  1.00  0.00     0.127 S 
ATOM     90  O   UNL A   1      37.141  33.424  39.728  1.00  0.00    -0.237 OA
ATOM     91  O   UNL A   1      39.303  32.988  40.827  1.00  0.00    -0.237 OA
ATOM     92  O   UNL A   1      38.247  35.189  41.051  1.00  0.00    -0.744 OA
ENDBRANCH  86  89
ENDBRANCH  58  82
BRANCH  70  93
ATOM     93  C   UNL A   1      45.308  29.697  34.889  1.00  0.00     0.023 A 
ATOM     94  C   UNL A   1      46.460  30.452  34.590  1.00  0.00     0.012 A 
ATOM     95  C   UNL A   1      45.383  28.688  35.869  1.00  0.00     0.148 A 
ATOM     96  C   UNL A   1      47.670  30.187  35.233  1.00  0.00     0.002 A 
ATOM     97  C   UNL A   1      46.579  28.462  36.541  1.00  0.00     0.091 A 
ATOM     98  F   UNL A   1      44.282  27.967  36.130  1.00  0.00    -0.205 F 
ATOM     99  C   UNL A   1      47.727  29.202  36.216  1.00  0.00     0.022 A 
BRANCH  97 100
ATOM    100  S   UNL A   1      46.723  27.282  37.889  1.00  0.00     0.127 S 
ATOM    101  O   UNL A   1      48.127  27.435  38.270  1.00  0.00    -0.237 OA
ATOM    102  O   UNL A   1      45.767  27.807  38.865  1.00  0.00    -0.237 OA
ATOM    103  O   UNL A   1      46.367  25.985  37.329  1.00  0.00    -0.744 OA
ENDBRANCH  97 100
ENDBRANCH  70  93
ENDBRANCH  44  45
ENDBRANCH  36  39
ENDBRANCH  34  35
ENDBRANCH  33  34
ENDBRANCH  32  33
ENDBRANCH  31  32
ENDBRANCH   1  31
TORSDOF 22
ENDMDL
MODEL 3
REMARK VINA RESULT:     -11.4      4.831      9.698
REMARK SMILES COc1ccc(CCc2nnc(NC(=O)[C@@H]3[C@@H](C(=O)NCCCCCCNC(=O)c4ccc(-c5c6nc(c(-c7cccc(S(=O)(=O)[O-])c7F)c7ccc([nH]7)c(-c7cccc(S(=O)(=O)[O-])c7F)c7nc(c(-c8cccc(S(=O)(=O)[O-])c8F)c8ccc5[nH]8)C=C7)C=C6)cc4)C3(C)C)s2)cc1
REMARK SMILES IDX 22 1 21 2 20 3 18 4 19 5 17 7 16 8 93 9 94 10 95 11 14 12
REMARK SMILES IDX 13 13 15 15 12 16 9 17 10 18 96 19 11 20 8 21 7 22 6 23 3 24
REMARK SMILES IDX 4 25 98 26 5 27 97 28 2 29 1 30 23 31 24 32 25 33 26 34
REMARK SMILES IDX 27 35 28 36 29 38 30 39 31 40 92 41 32 42 91 43 33 44 34 45
REMARK SMILES IDX 35 46 85 47 36 48 90 49 84 50 86 51 37 52 89 53 83 54 82 55
REMARK SMILES IDX 38 57 70 58 50 59 69 60 51 61 54 62 68 63 87 64 52 65 53 66
REMARK SMILES IDX 67 68 88 69 55 70 39 71 40 72 48 73 41 74 43 75 49 76 42 77
REMARK SMILES IDX 44 78 45 79 46 80 47 81 71 82 72 83 80 84 73 85 75 86 81 87
REMARK SMILES IDX 74 88 76 89 77 90 78 91 79 92 56 93 57 94 65 95 58 96 60 97
REMARK SMILES IDX 66 98 59 99 61 100 62 101 63 102 64 103
REMARK H PARENT 20 6 13 14 27 37 86 56 54 67
REMARK Flexibility Score: inf
ROOT
ATOM      1  C   UNL A   1      33.664  23.813  22.765  1.00  0.00     0.021 C 
ENDROOT
BRANCH   1   2
ATOM      2  C   UNL A   1      32.309  23.111  22.888  1.00  0.00     0.116 C 
BRANCH   2   3
ATOM      3  N   UNL A   1      32.473  21.751  23.370  1.00  0.00    -0.356 N 
ATOM      4  C   UNL A   1      32.409  21.151  24.594  1.00  0.00     0.224 C 
ATOM      5  O   UNL A   1      32.748  19.966  24.637  1.00  0.00    -0.275 OA
ATOM      6  H   UNL A   1      32.678  21.115  22.648  1.00  0.00     0.163 HD
BRANCH   4   7
ATOM      7  C   UNL A   1      31.934  21.759  25.863  1.00  0.00     0.098 C 
ATOM      8  C   UNL A   1      31.454  23.155  26.121  1.00  0.00     0.098 C 
ATOM      9  C   UNL A   1      32.757  22.665  26.775  1.00  0.00    -0.011 C 
ATOM     10  C   UNL A   1      34.030  23.328  26.294  1.00  0.00     0.013 C 
ATOM     11  C   UNL A   1      32.800  22.318  28.244  1.00  0.00     0.013 C 
BRANCH   8  12
ATOM     12  C   UNL A   1      30.160  23.362  26.845  1.00  0.00     0.230 C 
ATOM     13  N   UNL A   1      29.545  24.590  26.795  1.00  0.00    -0.300 N 
ATOM     14  H   UNL A   1      28.853  24.780  27.469  1.00  0.00     0.172 HD
ATOM     15  O   UNL A   1      29.669  22.474  27.542  1.00  0.00    -0.274 OA
BRANCH  13  16
ATOM     16  C   UNL A   1      29.824  25.567  25.883  1.00  0.00     0.212 A 
ATOM     17  C   UNL A   1      30.853  27.388  24.788  1.00  0.00     0.119 A 
ATOM     18  N   UNL A   1      30.030  26.729  23.996  1.00  0.00    -0.142 NA
ATOM     19  S   UNL A   1      30.813  26.848  26.428  1.00  0.00    -0.080 S 
ATOM     20  N   UNL A   1      29.444  25.658  24.634  1.00  0.00    -0.120 NA
BRANCH  17  21
ATOM     21  C   UNL A   1      31.763  28.481  24.322  1.00  0.00     0.074 C 
BRANCH  21  22
ATOM     22  C   UNL A   1      31.272  29.901  24.659  1.00  0.00     0.043 C 
BRANCH  22  23
ATOM     23  C   UNL A   1      30.209  30.471  23.743  1.00  0.00    -0.047 A 
ATOM     24  C   UNL A   1      28.200  31.510  22.085  1.00  0.00     0.118 A 
ATOM     25  C   UNL A   1      28.337  31.987  23.381  1.00  0.00     0.046 A 
ATOM     26  C   UNL A   1      29.058  30.519  21.606  1.00  0.00     0.046 A 
ATOM     27  C   UNL A   1      29.314  31.446  24.212  1.00  0.00     0.007 A 
ATOM     28  C   UNL A   1      30.066  30.008  22.429  1.00  0.00     0.007 A 
BRANCH  24  29
ATOM     29  O   UNL A   1      27.288  32.136  21.280  1.00  0.00    -0.497 OA
ATOM     30  C   UNL A   1      27.837  32.426  19.997  1.00  0.00     0.278 C 
ENDBRANCH  24  29
ENDBRANCH  22  23
ENDBRANCH  21  22
ENDBRANCH  17  21
ENDBRANCH  13  16
ENDBRANCH   8  12
ENDBRANCH   4   7
ENDBRANCH   2   3
ENDBRANCH   1   2
BRANCH   1  31
ATOM     31  C   UNL A   1      34.876  22.875  22.702  1.00  0.00     0.002 C 
BRANCH  31  32
ATOM     32  C   UNL A   1      36.087  23.295  23.544  1.00  0.00     0.002 C 
BRANCH  32  33
ATOM     33  C   UNL A   1      37.000  22.153  23.998  1.00  0.00     0.021 C 
BRANCH  33  34
ATOM     34  C   UNL A   1      37.304  22.118  25.496  1.00  0.00     0.116 C 
BRANCH  34  35
ATOM     35  N   UNL A   1      38.349  21.160  25.822  1.00  0.00    -0.352 N 
ATOM     36  C   UNL A   1      39.627  21.393  26.274  1.00  0.00     0.251 C 
ATOM     37  H   UNL A   1      38.108  20.213  25.701  1.00  0.00     0.163 HD
ATOM     38  O   UNL A   1      40.444  20.476  26.295  1.00  0.00    -0.269 OA
BRANCH  36  39
ATOM     39  C   UNL A   1      40.033  22.745  26.729  1.00  0.00     0.039 A 
ATOM     40  C   UNL A   1      40.890  22.868  27.826  1.00  0.00     0.014 A 
ATOM     41  C   UNL A   1      39.542  23.894  26.110  1.00  0.00     0.014 A 
ATOM     42  C   UNL A   1      41.301  24.139  28.259  1.00  0.00     0.010 A 
ATOM     43  C   UNL A   1      39.997  25.155  26.515  1.00  0.00     0.010 A 
ATOM     44  C   UNL A   1      40.897  25.303  27.583  1.00  0.00    -0.014 A 
BRANCH  44  45
ATOM     45  C   UNL A   1      41.432  26.654  27.959  1.00  0.00     0.031 A 
ATOM     46  C   UNL A   1      42.870  27.040  27.691  1.00  0.00     0.074 A 
ATOM     47  C   UNL A   1      40.653  27.531  28.631  1.00  0.00     0.049 A 
ATOM     48  N   UNL A   1      43.499  28.151  27.991  1.00  0.00    -0.248 NA
ATOM     49  C   UNL A   1      43.724  26.035  27.041  1.00  0.00     0.031 C 
ATOM     50  C   UNL A   1      39.280  27.280  29.076  1.00  0.00     0.029 A 
ATOM     51  N   UNL A   1      40.910  28.809  29.079  1.00  0.00    -0.354 N 
ATOM     52  C   UNL A   1      44.823  27.961  27.613  1.00  0.00     0.074 A 
ATOM     53  C   UNL A   1      44.919  26.606  27.112  1.00  0.00     0.031 C 
ATOM     54  C   UNL A   1      38.811  28.369  29.703  1.00  0.00     0.029 A 
ATOM     55  C   UNL A   1      39.854  29.391  29.742  1.00  0.00     0.049 A 
ATOM     56  H   UNL A   1      41.772  29.263  28.938  1.00  0.00     0.167 HD
ATOM     57  C   UNL A   1      45.862  28.832  27.633  1.00  0.00     0.034 A 
ATOM     58  C   UNL A   1      39.724  30.604  30.319  1.00  0.00     0.034 A 
ATOM     59  C   UNL A   1      45.772  30.202  28.065  1.00  0.00     0.049 A 
ATOM     60  C   UNL A   1      40.865  31.586  30.264  1.00  0.00     0.074 A 
ATOM     61  C   UNL A   1      46.745  31.186  28.013  1.00  0.00     0.029 A 
ATOM     62  N   UNL A   1      44.651  30.784  28.633  1.00  0.00    -0.354 N 
ATOM     63  N   UNL A   1      42.056  31.440  29.737  1.00  0.00    -0.248 NA
ATOM     64  C   UNL A   1      40.632  32.916  30.850  1.00  0.00     0.031 C 
ATOM     65  C   UNL A   1      46.220  32.356  28.573  1.00  0.00     0.029 A 
ATOM     66  C   UNL A   1      44.908  32.110  28.943  1.00  0.00     0.049 A 
ATOM     67  H   UNL A   1      43.795  30.324  28.793  1.00  0.00     0.167 HD
ATOM     68  C   UNL A   1      42.699  32.664  29.896  1.00  0.00     0.074 A 
ATOM     69  C   UNL A   1      41.759  33.549  30.550  1.00  0.00     0.031 C 
ATOM     70  C   UNL A   1      43.961  33.013  29.546  1.00  0.00     0.034 A 
BRANCH  57  71
ATOM     71  C   UNL A   1      47.190  28.344  27.103  1.00  0.00     0.023 A 
ATOM     72  C   UNL A   1      48.265  28.150  27.997  1.00  0.00     0.012 A 
ATOM     73  C   UNL A   1      47.367  28.039  25.739  1.00  0.00     0.148 A 
ATOM     74  C   UNL A   1      49.508  27.720  27.535  1.00  0.00     0.002 A 
ATOM     75  C   UNL A   1      48.594  27.558  25.295  1.00  0.00     0.091 A 
ATOM     76  F   UNL A   1      46.340  28.238  24.900  1.00  0.00    -0.205 F 
ATOM     77  C   UNL A   1      49.669  27.415  26.186  1.00  0.00     0.022 A 
BRANCH  75  78
ATOM     78  S   UNL A   1      48.877  27.051  23.595  1.00  0.00     0.127 S 
ATOM     79  O   UNL A   1      50.260  26.583  23.653  1.00  0.00    -0.237 OA
ATOM     80  O   UNL A   1      47.881  25.993  23.419  1.00  0.00    -0.237 OA
ATOM     81  O   UNL A   1      48.649  28.237  22.781  1.00  0.00    -0.744 OA
ENDBRANCH  75  78
ENDBRANCH  57  71
BRANCH  58  82
ATOM     82  C   UNL A   1      38.426  30.991  30.947  1.00  0.00     0.023 A 
ATOM     83  C   UNL A   1      38.226  30.761  32.323  1.00  0.00     0.012 A 
ATOM     84  C   UNL A   1      37.405  31.611  30.200  1.00  0.00     0.148 A 
ATOM     85  C   UNL A   1      37.021  31.108  32.935  1.00  0.00     0.002 A 
ATOM     86  C   UNL A   1      36.232  32.011  30.829  1.00  0.00     0.091 A 
ATOM     87  F   UNL A   1      37.613  31.816  28.892  1.00  0.00    -0.205 F 
ATOM     88  C   UNL A   1      36.030  31.741  32.191  1.00  0.00     0.022 A 
BRANCH  86  89
ATOM     89  S   UNL A   1      34.956  32.957  29.989  1.00  0.00     0.127 S 
ATOM     90  O   UNL A   1      34.097  33.357  31.099  1.00  0.00    -0.237 OA
ATOM     91  O   UNL A   1      35.734  34.042  29.388  1.00  0.00    -0.237 OA
ATOM     92  O   UNL A   1      34.355  32.048  29.023  1.00  0.00    -0.744 OA
ENDBRANCH  86  89
ENDBRANCH  58  82
BRANCH  70  93
ATOM     93  C   UNL A   1      44.409  34.428  29.816  1.00  0.00     0.023 A 
ATOM     94  C   UNL A   1      45.027  34.751  31.040  1.00  0.00     0.012 A 
ATOM     95  C   UNL A   1      44.290  35.421  28.822  1.00  0.00     0.148 A 
ATOM     96  C   UNL A   1      45.491  36.045  31.283  1.00  0.00     0.002 A 
ATOM     97  C   UNL A   1      44.799  36.695  29.052  1.00  0.00     0.091 A 
ATOM     98  F   UNL A   1      43.684  35.103  27.669  1.00  0.00    -0.205 F 
ATOM     99  C   UNL A   1      45.388  37.012  30.286  1.00  0.00     0.022 A 
BRANCH  97 100
ATOM    100  S   UNL A   1      44.800  37.977  27.793  1.00  0.00     0.127 S 
ATOM    101  O   UNL A   1      45.558  39.040  28.451  1.00  0.00    -0.237 OA
ATOM    102  O   UNL A   1      45.502  37.325  26.687  1.00  0.00    -0.237 OA
ATOM    103  O   UNL A   1      43.400  38.282  27.527  1.00  0.00    -0.744 OA
ENDBRANCH  97 100
ENDBRANCH  70  93
ENDBRANCH  44  45
ENDBRANCH  36  39
ENDBRANCH  34  35
ENDBRANCH  33  34
ENDBRANCH  32  33
ENDBRANCH  31  32
ENDBRANCH   1  31
TORSDOF 22
ENDMDL
