MODEL 1
REMARK VINA RESULT:     -10.1      0.000      0.000
REMARK SMILES COc1cc(NC(=O)c2ccc([N+](=O)[O-])cc2)c(C(=O)NCCCCCCNC(=O)c2ccc(-c3c4nc(c(-c5cccc(S(=O)(=O)[O-])c5F)c5ccc([nH]5)c(-c5cccc(S(=O)(=O)[O-])c5F)c5nc(c(-c6cccc(S(=O)(=O)[O-])c6F)c6ccc3[nH]6)C=C5)C=C4)cc2)cc1OC
REMARK SMILES IDX 24 1 23 2 22 3 21 4 19 5 20 6 18 8 3 9 4 10 95 11 5 12 94 13
REMARK SMILES IDX 2 14 1 15 96 16 97 17 6 18 7 19 8 21 9 22 10 23 17 24 11 25
REMARK SMILES IDX 16 26 12 27 13 28 14 29 15 30 25 31 26 32 27 33 28 34 29 35
REMARK SMILES IDX 30 37 31 38 32 39 93 40 33 41 92 42 34 43 35 44 36 45 86 46
REMARK SMILES IDX 37 47 91 48 85 49 87 50 38 51 90 52 84 53 83 54 39 56 71 57
REMARK SMILES IDX 51 58 70 59 52 60 55 61 69 62 88 63 53 64 54 65 68 67 89 68
REMARK SMILES IDX 56 69 40 70 41 71 49 72 42 73 44 74 50 75 43 76 45 77 46 78
REMARK SMILES IDX 47 79 48 80 72 81 73 82 81 83 74 84 76 85 82 86 75 87 77 88
REMARK SMILES IDX 78 89 79 90 80 91 57 92 58 93 66 94 59 95 61 96 67 97 60 98
REMARK SMILES IDX 62 99 63 100 64 101 65 102
REMARK H PARENT 21 7 6 20 28 36 87 55 55 66
REMARK Flexibility Score: inf
ROOT
ATOM      1  C   UNL A   1      37.293  21.963  24.575  1.00  0.00     0.002 C 
ENDROOT
BRANCH   1   2
ATOM      2  C   UNL A   1      35.814  22.109  24.953  1.00  0.00     0.021 C 
BRANCH   2   3
ATOM      3  C   UNL A   1      35.015  22.937  23.943  1.00  0.00     0.116 C 
BRANCH   3   4
ATOM      4  N   UNL A   1      33.753  22.277  23.663  1.00  0.00    -0.352 N 
ATOM      5  C   UNL A   1      32.521  22.732  23.269  1.00  0.00     0.253 C 
ATOM      6  O   UNL A   1      31.622  21.888  23.218  1.00  0.00    -0.269 OA
ATOM      7  H   UNL A   1      33.789  21.300  23.781  1.00  0.00     0.163 HD
BRANCH   5   8
ATOM      8  C   UNL A   1      32.232  24.140  22.838  1.00  0.00     0.067 A 
ATOM      9  C   UNL A   1      31.499  26.703  21.935  1.00  0.00     0.162 A 
ATOM     10  C   UNL A   1      31.264  26.316  23.263  1.00  0.00     0.077 A 
ATOM     11  C   UNL A   1      32.210  25.865  21.089  1.00  0.00     0.161 A 
ATOM     12  C   UNL A   1      31.582  25.033  23.731  1.00  0.00     0.058 A 
ATOM     13  C   UNL A   1      32.610  24.615  21.573  1.00  0.00     0.066 A 
BRANCH   9  14
ATOM     14  O   UNL A   1      31.123  27.963  21.557  1.00  0.00    -0.493 OA
ATOM     15  C   UNL A   1      30.489  28.661  22.635  1.00  0.00     0.278 C 
ENDBRANCH   9  14
BRANCH  11  16
ATOM     16  O   UNL A   1      32.631  26.111  19.813  1.00  0.00    -0.493 OA
ATOM     17  C   UNL A   1      32.227  25.206  18.793  1.00  0.00     0.278 C 
ENDBRANCH  11  16
BRANCH  12  18
ATOM     18  N   UNL A   1      31.338  24.613  25.070  1.00  0.00    -0.321 N 
ATOM     19  C   UNL A   1      31.639  25.110  26.315  1.00  0.00     0.255 C 
ATOM     20  H   UNL A   1      30.836  23.767  25.114  1.00  0.00     0.170 HD
ATOM     21  O   UNL A   1      31.480  24.436  27.331  1.00  0.00    -0.269 OA
BRANCH  19  22
ATOM     22  C   UNL A   1      32.141  26.476  26.483  1.00  0.00     0.040 A 
ATOM     23  C   UNL A   1      31.298  27.434  27.058  1.00  0.00     0.021 A 
ATOM     24  C   UNL A   1      33.461  26.785  26.130  1.00  0.00     0.021 A 
ATOM     25  C   UNL A   1      31.810  28.691  27.382  1.00  0.00     0.086 A 
ATOM     26  C   UNL A   1      33.978  28.039  26.457  1.00  0.00     0.086 A 
ATOM     27  C   UNL A   1      33.157  28.974  27.107  1.00  0.00     0.269 A 
BRANCH  27  28
ATOM     28  N   UNL A   1      33.732  30.247  27.555  1.00  0.00     0.062 N 
ATOM     29  O   UNL A   1      33.108  31.285  27.292  1.00  0.00    -0.258 OA
ATOM     30  O   UNL A   1      34.799  30.203  28.183  1.00  0.00    -0.258 OA
ENDBRANCH  27  28
ENDBRANCH  19  22
ENDBRANCH  12  18
ENDBRANCH   5   8
ENDBRANCH   3   4
ENDBRANCH   2   3
ENDBRANCH   1   2
BRANCH   1  31
ATOM     31  C   UNL A   1      38.219  21.626  25.749  1.00  0.00     0.002 C 
BRANCH  31  32
ATOM     32  C   UNL A   1      39.436  20.770  25.387  1.00  0.00     0.021 C 
BRANCH  32  33
ATOM     33  C   UNL A   1      40.076  20.054  26.573  1.00  0.00     0.116 C 
BRANCH  33  34
ATOM     34  N   UNL A   1      41.227  19.265  26.160  1.00  0.00    -0.352 N 
ATOM     35  C   UNL A   1      42.490  19.686  25.827  1.00  0.00     0.251 C 
ATOM     36  H   UNL A   1      41.078  18.293  26.113  1.00  0.00     0.163 HD
ATOM     37  O   UNL A   1      43.265  18.917  25.267  1.00  0.00    -0.269 OA
BRANCH  35  38
ATOM     38  C   UNL A   1      42.910  21.069  26.140  1.00  0.00     0.039 A 
ATOM     39  C   UNL A   1      43.276  21.388  27.450  1.00  0.00     0.014 A 
ATOM     40  C   UNL A   1      42.920  22.052  25.147  1.00  0.00     0.014 A 
ATOM     41  C   UNL A   1      43.696  22.686  27.754  1.00  0.00     0.010 A 
ATOM     42  C   UNL A   1      43.402  23.325  25.437  1.00  0.00     0.010 A 
ATOM     43  C   UNL A   1      43.784  23.658  26.746  1.00  0.00    -0.014 A 
BRANCH  43  44
ATOM     44  C   UNL A   1      44.270  25.031  27.039  1.00  0.00     0.031 A 
ATOM     45  C   UNL A   1      43.319  26.072  27.567  1.00  0.00     0.074 A 
ATOM     46  C   UNL A   1      45.548  25.357  26.763  1.00  0.00     0.049 A 
ATOM     47  N   UNL A   1      43.542  27.333  27.832  1.00  0.00    -0.248 NA
ATOM     48  C   UNL A   1      41.930  25.647  27.807  1.00  0.00     0.031 C 
ATOM     49  C   UNL A   1      46.546  24.456  26.184  1.00  0.00     0.029 A 
ATOM     50  N   UNL A   1      46.221  26.545  26.911  1.00  0.00    -0.354 N 
ATOM     51  C   UNL A   1      42.323  27.857  28.245  1.00  0.00     0.074 A 
ATOM     52  C   UNL A   1      41.352  26.788  28.156  1.00  0.00     0.031 C 
ATOM     53  C   UNL A   1      47.704  25.120  26.031  1.00  0.00     0.029 A 
ATOM     54  C   UNL A   1      47.524  26.499  26.476  1.00  0.00     0.049 A 
ATOM     55  H   UNL A   1      45.808  27.354  27.292  1.00  0.00     0.167 HD
ATOM     56  C   UNL A   1      42.042  29.103  28.696  1.00  0.00     0.034 A 
ATOM     57  C   UNL A   1      48.468  27.460  26.438  1.00  0.00     0.034 A 
ATOM     58  C   UNL A   1      43.018  30.152  28.822  1.00  0.00     0.049 A 
ATOM     59  C   UNL A   1      48.134  28.828  26.969  1.00  0.00     0.074 A 
ATOM     60  C   UNL A   1      42.846  31.433  29.318  1.00  0.00     0.029 A 
ATOM     61  N   UNL A   1      44.349  30.041  28.453  1.00  0.00    -0.354 N 
ATOM     62  N   UNL A   1      47.011  29.262  27.488  1.00  0.00    -0.248 NA
ATOM     63  C   UNL A   1      49.210  29.830  26.947  1.00  0.00     0.031 C 
ATOM     64  C   UNL A   1      44.074  32.098  29.241  1.00  0.00     0.029 A 
ATOM     65  C   UNL A   1      45.013  31.227  28.713  1.00  0.00     0.049 A 
ATOM     66  H   UNL A   1      44.761  29.237  28.062  1.00  0.00     0.167 HD
ATOM     67  C   UNL A   1      47.257  30.570  27.890  1.00  0.00     0.074 A 
ATOM     68  C   UNL A   1      48.642  30.850  27.575  1.00  0.00     0.031 C 
ATOM     69  C   UNL A   1      46.409  31.466  28.454  1.00  0.00     0.034 A 
BRANCH  56  70
ATOM     70  C   UNL A   1      40.634  29.379  29.158  1.00  0.00     0.023 A 
ATOM     71  C   UNL A   1      39.661  29.759  28.210  1.00  0.00     0.012 A 
ATOM     72  C   UNL A   1      40.255  29.205  30.504  1.00  0.00     0.148 A 
ATOM     73  C   UNL A   1      38.343  29.991  28.597  1.00  0.00     0.002 A 
ATOM     74  C   UNL A   1      38.929  29.397  30.875  1.00  0.00     0.091 A 
ATOM     75  F   UNL A   1      41.197  28.862  31.393  1.00  0.00    -0.205 F 
ATOM     76  C   UNL A   1      37.975  29.801  29.925  1.00  0.00     0.022 A 
BRANCH  74  77
ATOM     77  S   UNL A   1      38.334  29.106  32.545  1.00  0.00     0.127 S 
ATOM     78  O   UNL A   1      38.757  30.329  33.226  1.00  0.00    -0.237 OA
ATOM     79  O   UNL A   1      36.890  28.990  32.341  1.00  0.00    -0.237 OA
ATOM     80  O   UNL A   1      38.985  27.884  32.995  1.00  0.00    -0.744 OA
ENDBRANCH  74  77
ENDBRANCH  56  70
BRANCH  57  81
ATOM     81  C   UNL A   1      49.841  27.148  25.950  1.00  0.00     0.023 A 
ATOM     82  C   UNL A   1      50.785  26.612  26.847  1.00  0.00     0.012 A 
ATOM     83  C   UNL A   1      50.217  27.369  24.611  1.00  0.00     0.148 A 
ATOM     84  C   UNL A   1      52.091  26.342  26.433  1.00  0.00     0.002 A 
ATOM     85  C   UNL A   1      51.503  27.046  24.190  1.00  0.00     0.091 A 
ATOM     86  F   UNL A   1      49.311  27.894  23.773  1.00  0.00    -0.205 F 
ATOM     87  C   UNL A   1      52.447  26.551  25.103  1.00  0.00     0.022 A 
BRANCH  85  88
ATOM     88  S   UNL A   1      52.000  27.162  22.468  1.00  0.00     0.127 S 
ATOM     89  O   UNL A   1      52.504  28.530  22.391  1.00  0.00    -0.237 OA
ATOM     90  O   UNL A   1      53.025  26.121  22.372  1.00  0.00    -0.237 OA
ATOM     91  O   UNL A   1      50.796  26.881  21.697  1.00  0.00    -0.744 OA
ENDBRANCH  85  88
ENDBRANCH  57  81
BRANCH  69  92
ATOM     92  C   UNL A   1      46.962  32.821  28.808  1.00  0.00     0.023 A 
ATOM     93  C   UNL A   1      47.543  33.031  30.075  1.00  0.00     0.012 A 
ATOM     94  C   UNL A   1      46.968  33.864  27.862  1.00  0.00     0.148 A 
ATOM     95  C   UNL A   1      48.089  34.269  30.407  1.00  0.00     0.002 A 
ATOM     96  C   UNL A   1      47.558  35.081  28.182  1.00  0.00     0.091 A 
ATOM     97  F   UNL A   1      46.393  33.651  26.669  1.00  0.00    -0.205 F 
ATOM     98  C   UNL A   1      48.108  35.289  29.458  1.00  0.00     0.022 A 
BRANCH  96  99
ATOM     99  S   UNL A   1      47.711  36.418  26.993  1.00  0.00     0.127 S 
ATOM    100  O   UNL A   1      48.415  37.433  27.775  1.00  0.00    -0.237 OA
ATOM    101  O   UNL A   1      48.511  35.802  25.933  1.00  0.00    -0.237 OA
ATOM    102  O   UNL A   1      46.352  36.762  26.600  1.00  0.00    -0.744 OA
ENDBRANCH  96  99
ENDBRANCH  69  92
ENDBRANCH  43  44
ENDBRANCH  35  38
ENDBRANCH  33  34
ENDBRANCH  32  33
ENDBRANCH  31  32
ENDBRANCH   1  31
TORSDOF 21
ENDMDL
MODEL 2
REMARK VINA RESULT:     -10.1      6.798     12.374
REMARK SMILES COc1cc(NC(=O)c2ccc([N+](=O)[O-])cc2)c(C(=O)NCCCCCCNC(=O)c2ccc(-c3c4nc(c(-c5cccc(S(=O)(=O)[O-])c5F)c5ccc([nH]5)c(-c5cccc(S(=O)(=O)[O-])c5F)c5nc(c(-c6cccc(S(=O)(=O)[O-])c6F)c6ccc3[nH]6)C=C5)C=C4)cc2)cc1OC
REMARK SMILES IDX 24 1 23 2 22 3 21 4 19 5 20 6 18 8 3 9 4 10 95 11 5 12 94 13
REMARK SMILES IDX 2 14 1 15 96 16 97 17 6 18 7 19 8 21 9 22 10 23 17 24 11 25
REMARK SMILES IDX 16 26 12 27 13 28 14 29 15 30 25 31 26 32 27 33 28 34 29 35
REMARK SMILES IDX 30 37 31 38 32 39 93 40 33 41 92 42 34 43 35 44 36 45 86 46
REMARK SMILES IDX 37 47 91 48 85 49 87 50 38 51 90 52 84 53 83 54 39 56 71 57
REMARK SMILES IDX 51 58 70 59 52 60 55 61 69 62 88 63 53 64 54 65 68 67 89 68
REMARK SMILES IDX 56 69 40 70 41 71 49 72 42 73 44 74 50 75 43 76 45 77 46 78
REMARK SMILES IDX 47 79 48 80 72 81 73 82 81 83 74 84 76 85 82 86 75 87 77 88
REMARK SMILES IDX 78 89 79 90 80 91 57 92 58 93 66 94 59 95 61 96 67 97 60 98
REMARK SMILES IDX 62 99 63 100 64 101 65 102
REMARK H PARENT 21 7 6 20 28 36 87 55 55 66
REMARK Flexibility Score: inf
ROOT
ATOM      1  C   UNL A   1      34.948  33.380  32.988  1.00  0.00     0.002 C 
ENDROOT
BRANCH   1   2
ATOM      2  C   UNL A   1      36.220  32.653  33.443  1.00  0.00     0.021 C 
BRANCH   2   3
ATOM      3  C   UNL A   1      36.784  33.197  34.758  1.00  0.00     0.116 C 
BRANCH   3   4
ATOM      4  N   UNL A   1      37.318  32.103  35.548  1.00  0.00    -0.352 N 
ATOM      5  C   UNL A   1      38.155  32.047  36.632  1.00  0.00     0.253 C 
ATOM      6  O   UNL A   1      38.490  30.918  37.002  1.00  0.00    -0.269 OA
ATOM      7  H   UNL A   1      37.016  31.217  35.241  1.00  0.00     0.163 HD
BRANCH   5   8
ATOM      8  C   UNL A   1      38.613  33.242  37.416  1.00  0.00     0.067 A 
ATOM      9  C   UNL A   1      39.259  35.565  38.868  1.00  0.00     0.162 A 
ATOM     10  C   UNL A   1      38.975  34.362  39.531  1.00  0.00     0.077 A 
ATOM     11  C   UNL A   1      39.345  35.586  37.484  1.00  0.00     0.161 A 
ATOM     12  C   UNL A   1      38.611  33.198  38.836  1.00  0.00     0.058 A 
ATOM     13  C   UNL A   1      39.070  34.408  36.783  1.00  0.00     0.066 A 
BRANCH   9  14
ATOM     14  O   UNL A   1      39.570  36.659  39.630  1.00  0.00    -0.493 OA
ATOM     15  C   UNL A   1      40.211  36.276  40.851  1.00  0.00     0.278 C 
ENDBRANCH   9  14
BRANCH  11  16
ATOM     16  O   UNL A   1      39.718  36.622  36.675  1.00  0.00    -0.493 OA
ATOM     17  C   UNL A   1      40.457  36.316  35.500  1.00  0.00     0.278 C 
ENDBRANCH  11  16
BRANCH  12  18
ATOM     18  N   UNL A   1      38.303  31.970  39.488  1.00  0.00    -0.321 N 
ATOM     19  C   UNL A   1      37.318  31.545  40.345  1.00  0.00     0.255 C 
ATOM     20  H   UNL A   1      38.949  31.259  39.275  1.00  0.00     0.170 HD
ATOM     21  O   UNL A   1      37.395  30.466  40.930  1.00  0.00    -0.269 OA
BRANCH  19  22
ATOM     22  C   UNL A   1      36.117  32.354  40.580  1.00  0.00     0.040 A 
ATOM     23  C   UNL A   1      35.186  32.487  39.544  1.00  0.00     0.021 A 
ATOM     24  C   UNL A   1      35.892  32.921  41.840  1.00  0.00     0.021 A 
ATOM     25  C   UNL A   1      33.963  33.108  39.798  1.00  0.00     0.086 A 
ATOM     26  C   UNL A   1      34.667  33.538  42.099  1.00  0.00     0.086 A 
ATOM     27  C   UNL A   1      33.699  33.601  41.084  1.00  0.00     0.269 A 
BRANCH  27  28
ATOM     28  N   UNL A   1      32.371  34.144  41.390  1.00  0.00     0.062 N 
ATOM     29  O   UNL A   1      32.314  35.258  41.930  1.00  0.00    -0.258 OA
ATOM     30  O   UNL A   1      31.387  33.459  41.076  1.00  0.00    -0.258 OA
ENDBRANCH  27  28
ENDBRANCH  19  22
ENDBRANCH  12  18
ENDBRANCH   5   8
ENDBRANCH   3   4
ENDBRANCH   2   3
ENDBRANCH   1   2
BRANCH   1  31
ATOM     31  C   UNL A   1      35.119  34.226  31.721  1.00  0.00     0.002 C 
BRANCH  31  32
ATOM     32  C   UNL A   1      34.277  33.775  30.525  1.00  0.00     0.021 C 
BRANCH  32  33
ATOM     33  C   UNL A   1      35.093  33.285  29.331  1.00  0.00     0.116 C 
BRANCH  33  34
ATOM     34  N   UNL A   1      34.330  32.357  28.510  1.00  0.00    -0.352 N 
ATOM     35  C   UNL A   1      34.717  31.152  27.978  1.00  0.00     0.251 C 
ATOM     36  H   UNL A   1      33.407  32.632  28.309  1.00  0.00     0.163 HD
ATOM     37  O   UNL A   1      34.034  30.617  27.111  1.00  0.00    -0.269 OA
BRANCH  35  38
ATOM     38  C   UNL A   1      35.961  30.506  28.450  1.00  0.00     0.039 A 
ATOM     39  C   UNL A   1      37.133  30.665  27.707  1.00  0.00     0.014 A 
ATOM     40  C   UNL A   1      35.963  29.727  29.611  1.00  0.00     0.014 A 
ATOM     41  C   UNL A   1      38.320  30.078  28.154  1.00  0.00     0.010 A 
ATOM     42  C   UNL A   1      37.159  29.200  30.089  1.00  0.00     0.010 A 
ATOM     43  C   UNL A   1      38.347  29.361  29.360  1.00  0.00    -0.014 A 
BRANCH  43  44
ATOM     44  C   UNL A   1      39.608  28.766  29.874  1.00  0.00     0.031 A 
ATOM     45  C   UNL A   1      40.291  29.366  31.074  1.00  0.00     0.074 A 
ATOM     46  C   UNL A   1      40.171  27.733  29.218  1.00  0.00     0.049 A 
ATOM     47  N   UNL A   1      41.421  29.021  31.636  1.00  0.00    -0.248 NA
ATOM     48  C   UNL A   1      39.632  30.517  31.713  1.00  0.00     0.031 C 
ATOM     49  C   UNL A   1      39.641  27.111  28.003  1.00  0.00     0.029 A 
ATOM     50  N   UNL A   1      41.328  27.038  29.468  1.00  0.00    -0.354 N 
ATOM     51  C   UNL A   1      41.621  29.923  32.674  1.00  0.00     0.074 A 
ATOM     52  C   UNL A   1      40.516  30.857  32.639  1.00  0.00     0.031 C 
ATOM     53  C   UNL A   1      40.467  26.124  27.616  1.00  0.00     0.029 A 
ATOM     54  C   UNL A   1      41.596  26.060  28.539  1.00  0.00     0.049 A 
ATOM     55  H   UNL A   1      41.913  27.223  30.238  1.00  0.00     0.167 HD
ATOM     56  C   UNL A   1      42.611  29.951  33.598  1.00  0.00     0.034 A 
ATOM     57  C   UNL A   1      42.636  25.208  28.441  1.00  0.00     0.034 A 
ATOM     58  C   UNL A   1      43.685  28.996  33.655  1.00  0.00     0.049 A 
ATOM     59  C   UNL A   1      43.708  25.245  29.497  1.00  0.00     0.074 A 
ATOM     60  C   UNL A   1      44.707  28.905  34.583  1.00  0.00     0.029 A 
ATOM     61  N   UNL A   1      43.874  27.966  32.748  1.00  0.00    -0.354 N 
ATOM     62  N   UNL A   1      43.802  26.016  30.553  1.00  0.00    -0.248 NA
ATOM     63  C   UNL A   1      44.799  24.267  29.371  1.00  0.00     0.031 C 
ATOM     64  C   UNL A   1      45.519  27.822  34.231  1.00  0.00     0.029 A 
ATOM     65  C   UNL A   1      44.994  27.230  33.095  1.00  0.00     0.049 A 
ATOM     66  H   UNL A   1      43.298  27.785  31.971  1.00  0.00     0.167 HD
ATOM     67  C   UNL A   1      44.935  25.590  31.236  1.00  0.00     0.074 A 
ATOM     68  C   UNL A   1      45.482  24.478  30.487  1.00  0.00     0.031 C 
ATOM     69  C   UNL A   1      45.485  26.084  32.373  1.00  0.00     0.034 A 
BRANCH  56  70
ATOM     70  C   UNL A   1      42.536  31.006  34.672  1.00  0.00     0.023 A 
ATOM     71  C   UNL A   1      41.888  30.704  35.888  1.00  0.00     0.012 A 
ATOM     72  C   UNL A   1      43.152  32.262  34.511  1.00  0.00     0.148 A 
ATOM     73  C   UNL A   1      41.828  31.645  36.915  1.00  0.00     0.002 A 
ATOM     74  C   UNL A   1      43.124  33.180  35.555  1.00  0.00     0.091 A 
ATOM     75  F   UNL A   1      43.747  32.538  33.342  1.00  0.00    -0.205 F 
ATOM     76  C   UNL A   1      42.453  32.877  36.753  1.00  0.00     0.022 A 
BRANCH  74  77
ATOM     77  S   UNL A   1      43.963  34.767  35.479  1.00  0.00     0.127 S 
ATOM     78  O   UNL A   1      43.597  35.356  36.766  1.00  0.00    -0.237 OA
ATOM     79  O   UNL A   1      45.366  34.369  35.368  1.00  0.00    -0.237 OA
ATOM     80  O   UNL A   1      43.429  35.446  34.307  1.00  0.00    -0.744 OA
ENDBRANCH  74  77
ENDBRANCH  56  70
BRANCH  57  81
ATOM     81  C   UNL A   1      42.681  24.196  27.347  1.00  0.00     0.023 A 
ATOM     82  C   UNL A   1      43.356  24.506  26.151  1.00  0.00     0.012 A 
ATOM     83  C   UNL A   1      42.070  22.935  27.482  1.00  0.00     0.148 A 
ATOM     84  C   UNL A   1      43.387  23.597  25.092  1.00  0.00     0.002 A 
ATOM     85  C   UNL A   1      42.151  22.011  26.445  1.00  0.00     0.091 A 
ATOM     86  F   UNL A   1      41.419  22.661  28.621  1.00  0.00    -0.205 F 
ATOM     87  C   UNL A   1      42.792  22.347  25.242  1.00  0.00     0.022 A 
BRANCH  85  88
ATOM     88  S   UNL A   1      41.526  20.335  26.609  1.00  0.00     0.127 S 
ATOM     89  O   UNL A   1      42.187  19.886  27.832  1.00  0.00    -0.237 OA
ATOM     90  O   UNL A   1      40.084  20.555  26.733  1.00  0.00    -0.237 OA
ATOM     91  O   UNL A   1      41.920  19.653  25.383  1.00  0.00    -0.744 OA
ENDBRANCH  85  88
ENDBRANCH  57  81
BRANCH  69  92
ATOM     92  C   UNL A   1      46.719  25.402  32.904  1.00  0.00     0.023 A 
ATOM     93  C   UNL A   1      46.598  24.414  33.901  1.00  0.00     0.012 A 
ATOM     94  C   UNL A   1      47.988  25.693  32.366  1.00  0.00     0.148 A 
ATOM     95  C   UNL A   1      47.726  23.750  34.380  1.00  0.00     0.002 A 
ATOM     96  C   UNL A   1      49.102  24.992  32.813  1.00  0.00     0.091 A 
ATOM     97  F   UNL A   1      48.084  26.650  31.431  1.00  0.00    -0.205 F 
ATOM     98  C   UNL A   1      48.974  24.029  33.828  1.00  0.00     0.022 A 
BRANCH  96  99
ATOM     99  S   UNL A   1      50.732  25.219  32.094  1.00  0.00     0.127 S 
ATOM    100  O   UNL A   1      50.633  24.421  30.873  1.00  0.00    -0.237 OA
ATOM    101  O   UNL A   1      50.778  26.665  31.875  1.00  0.00    -0.237 OA
ATOM    102  O   UNL A   1      51.678  24.729  33.087  1.00  0.00    -0.744 OA
ENDBRANCH  96  99
ENDBRANCH  69  92
ENDBRANCH  43  44
ENDBRANCH  35  38
ENDBRANCH  33  34
ENDBRANCH  32  33
ENDBRANCH  31  32
ENDBRANCH   1  31
TORSDOF 21
ENDMDL
MODEL 3
REMARK VINA RESULT:      -9.8      5.481      9.030
REMARK SMILES COc1cc(NC(=O)c2ccc([N+](=O)[O-])cc2)c(C(=O)NCCCCCCNC(=O)c2ccc(-c3c4nc(c(-c5cccc(S(=O)(=O)[O-])c5F)c5ccc([nH]5)c(-c5cccc(S(=O)(=O)[O-])c5F)c5nc(c(-c6cccc(S(=O)(=O)[O-])c6F)c6ccc3[nH]6)C=C5)C=C4)cc2)cc1OC
REMARK SMILES IDX 24 1 23 2 22 3 21 4 19 5 20 6 18 8 3 9 4 10 95 11 5 12 94 13
REMARK SMILES IDX 2 14 1 15 96 16 97 17 6 18 7 19 8 21 9 22 10 23 17 24 11 25
REMARK SMILES IDX 16 26 12 27 13 28 14 29 15 30 25 31 26 32 27 33 28 34 29 35
REMARK SMILES IDX 30 37 31 38 32 39 93 40 33 41 92 42 34 43 35 44 36 45 86 46
REMARK SMILES IDX 37 47 91 48 85 49 87 50 38 51 90 52 84 53 83 54 39 56 71 57
REMARK SMILES IDX 51 58 70 59 52 60 55 61 69 62 88 63 53 64 54 65 68 67 89 68
REMARK SMILES IDX 56 69 40 70 41 71 49 72 42 73 44 74 50 75 43 76 45 77 46 78
REMARK SMILES IDX 47 79 48 80 72 81 73 82 81 83 74 84 76 85 82 86 75 87 77 88
REMARK SMILES IDX 78 89 79 90 80 91 57 92 58 93 66 94 59 95 61 96 67 97 60 98
REMARK SMILES IDX 62 99 63 100 64 101 65 102
REMARK H PARENT 21 7 6 20 28 36 87 55 55 66
REMARK Flexibility Score: inf
ROOT
ATOM      1  C   UNL A   1      31.774  28.498  27.097  1.00  0.00     0.002 C 
ENDROOT
BRANCH   1   2
ATOM      2  C   UNL A   1      31.018  27.280  26.555  1.00  0.00     0.021 C 
BRANCH   2   3
ATOM      3  C   UNL A   1      31.821  25.980  26.658  1.00  0.00     0.116 C 
BRANCH   3   4
ATOM      4  N   UNL A   1      33.178  26.209  26.197  1.00  0.00    -0.352 N 
ATOM      5  C   UNL A   1      34.095  25.426  25.546  1.00  0.00     0.253 C 
ATOM      6  O   UNL A   1      35.217  25.916  25.391  1.00  0.00    -0.269 OA
ATOM      7  H   UNL A   1      33.509  27.116  26.394  1.00  0.00     0.163 HD
BRANCH   5   8
ATOM      8  C   UNL A   1      33.798  24.075  24.962  1.00  0.00     0.067 A 
ATOM      9  C   UNL A   1      33.021  21.587  23.902  1.00  0.00     0.162 A 
ATOM     10  C   UNL A   1      33.331  22.661  23.056  1.00  0.00     0.077 A 
ATOM     11  C   UNL A   1      33.218  21.708  25.270  1.00  0.00     0.161 A 
ATOM     12  C   UNL A   1      33.682  23.924  23.555  1.00  0.00     0.058 A 
ATOM     13  C   UNL A   1      33.653  22.938  25.772  1.00  0.00     0.066 A 
BRANCH   9  14
ATOM     14  O   UNL A   1      32.653  20.401  23.326  1.00  0.00    -0.493 OA
ATOM     15  C   UNL A   1      31.947  20.616  22.100  1.00  0.00     0.278 C 
ENDBRANCH   9  14
BRANCH  11  16
ATOM     16  O   UNL A   1      33.083  20.748  26.232  1.00  0.00    -0.493 OA
ATOM     17  C   UNL A   1      33.576  21.038  27.534  1.00  0.00     0.278 C 
ENDBRANCH  11  16
BRANCH  12  18
ATOM     18  N   UNL A   1      33.984  25.034  22.714  1.00  0.00    -0.321 N 
ATOM     19  C   UNL A   1      33.273  26.096  22.213  1.00  0.00     0.255 C 
ATOM     20  H   UNL A   1      34.925  25.040  22.423  1.00  0.00     0.170 HD
ATOM     21  O   UNL A   1      33.733  26.819  21.331  1.00  0.00    -0.269 OA
BRANCH  19  22
ATOM     22  C   UNL A   1      31.941  26.426  22.729  1.00  0.00     0.040 A 
ATOM     23  C   UNL A   1      31.559  27.771  22.786  1.00  0.00     0.021 A 
ATOM     24  C   UNL A   1      31.058  25.401  23.092  1.00  0.00     0.021 A 
ATOM     25  C   UNL A   1      30.243  28.096  23.113  1.00  0.00     0.086 A 
ATOM     26  C   UNL A   1      29.739  25.722  23.413  1.00  0.00     0.086 A 
ATOM     27  C   UNL A   1      29.332  27.065  23.393  1.00  0.00     0.269 A 
BRANCH  27  28
ATOM     28  N   UNL A   1      27.919  27.393  23.616  1.00  0.00     0.062 N 
ATOM     29  O   UNL A   1      27.235  26.585  24.260  1.00  0.00    -0.258 OA
ATOM     30  O   UNL A   1      27.502  28.466  23.157  1.00  0.00    -0.258 OA
ENDBRANCH  27  28
ENDBRANCH  19  22
ENDBRANCH  12  18
ENDBRANCH   5   8
ENDBRANCH   3   4
ENDBRANCH   2   3
ENDBRANCH   1   2
BRANCH   1  31
ATOM     31  C   UNL A   1      31.969  29.629  26.079  1.00  0.00     0.002 C 
BRANCH  31  32
ATOM     32  C   UNL A   1      31.926  31.041  26.668  1.00  0.00     0.021 C 
BRANCH  32  33
ATOM     33  C   UNL A   1      33.230  31.490  27.323  1.00  0.00     0.116 C 
BRANCH  33  34
ATOM     34  N   UNL A   1      33.206  32.910  27.638  1.00  0.00    -0.352 N 
ATOM     35  C   UNL A   1      33.993  33.616  28.513  1.00  0.00     0.251 C 
ATOM     36  H   UNL A   1      32.531  33.439  27.155  1.00  0.00     0.163 HD
ATOM     37  O   UNL A   1      33.678  34.756  28.838  1.00  0.00    -0.269 OA
BRANCH  35  38
ATOM     38  C   UNL A   1      35.216  32.995  29.066  1.00  0.00     0.039 A 
ATOM     39  C   UNL A   1      35.093  32.015  30.055  1.00  0.00     0.014 A 
ATOM     40  C   UNL A   1      36.480  33.397  28.626  1.00  0.00     0.014 A 
ATOM     41  C   UNL A   1      36.239  31.405  30.569  1.00  0.00     0.010 A 
ATOM     42  C   UNL A   1      37.616  32.741  29.092  1.00  0.00     0.010 A 
ATOM     43  C   UNL A   1      37.508  31.747  30.076  1.00  0.00    -0.014 A 
BRANCH  43  44
ATOM     44  C   UNL A   1      38.736  31.079  30.579  1.00  0.00     0.031 A 
ATOM     45  C   UNL A   1      39.374  31.538  31.864  1.00  0.00     0.074 A 
ATOM     46  C   UNL A   1      39.315  30.110  29.842  1.00  0.00     0.049 A 
ATOM     47  N   UNL A   1      40.472  31.116  32.434  1.00  0.00    -0.248 NA
ATOM     48  C   UNL A   1      38.701  32.627  32.591  1.00  0.00     0.031 C 
ATOM     49  C   UNL A   1      38.832  29.628  28.547  1.00  0.00     0.029 A 
ATOM     50  N   UNL A   1      40.451  29.372  30.068  1.00  0.00    -0.354 N 
ATOM     51  C   UNL A   1      40.637  31.901  33.570  1.00  0.00     0.074 A 
ATOM     52  C   UNL A   1      39.548  32.853  33.585  1.00  0.00     0.031 C 
ATOM     53  C   UNL A   1      39.661  28.672  28.095  1.00  0.00     0.029 A 
ATOM     54  C   UNL A   1      40.747  28.492  29.054  1.00  0.00     0.049 A 
ATOM     55  H   UNL A   1      41.002  29.466  30.878  1.00  0.00     0.167 HD
ATOM     56  C   UNL A   1      41.585  31.814  34.534  1.00  0.00     0.034 A 
ATOM     57  C   UNL A   1      41.779  27.636  28.912  1.00  0.00     0.034 A 
ATOM     58  C   UNL A   1      42.642  30.840  34.536  1.00  0.00     0.049 A 
ATOM     59  C   UNL A   1      42.803  27.544  30.012  1.00  0.00     0.074 A 
ATOM     60  C   UNL A   1      43.621  30.633  35.492  1.00  0.00     0.029 A 
ATOM     61  N   UNL A   1      42.859  29.907  33.535  1.00  0.00    -0.354 N 
ATOM     62  N   UNL A   1      42.859  28.199  31.146  1.00  0.00    -0.248 NA
ATOM     63  C   UNL A   1      43.885  26.565  29.830  1.00  0.00     0.031 C 
ATOM     64  C   UNL A   1      44.433  29.579  35.064  1.00  0.00     0.029 A 
ATOM     65  C   UNL A   1      43.951  29.118  33.851  1.00  0.00     0.049 A 
ATOM     66  H   UNL A   1      42.315  29.818  32.719  1.00  0.00     0.167 HD
ATOM     67  C   UNL A   1      43.954  27.683  31.829  1.00  0.00     0.074 A 
ATOM     68  C   UNL A   1      44.520  26.646  30.991  1.00  0.00     0.031 C 
ATOM     69  C   UNL A   1      44.459  28.046  33.034  1.00  0.00     0.034 A 
BRANCH  56  70
ATOM     70  C   UNL A   1      41.476  32.752  35.708  1.00  0.00     0.023 A 
ATOM     71  C   UNL A   1      40.773  32.336  36.858  1.00  0.00     0.012 A 
ATOM     72  C   UNL A   1      42.112  34.009  35.706  1.00  0.00     0.148 A 
ATOM     73  C   UNL A   1      40.679  33.165  37.974  1.00  0.00     0.002 A 
ATOM     74  C   UNL A   1      42.050  34.813  36.838  1.00  0.00     0.091 A 
ATOM     75  F   UNL A   1      42.759  34.396  34.597  1.00  0.00    -0.205 F 
ATOM     76  C   UNL A   1      41.325  34.397  37.968  1.00  0.00     0.022 A 
BRANCH  74  77
ATOM     77  S   UNL A   1      42.909  36.386  36.964  1.00  0.00     0.127 S 
ATOM     78  O   UNL A   1      42.558  37.016  35.692  1.00  0.00    -0.237 OA
ATOM     79  O   UNL A   1      42.277  36.989  38.137  1.00  0.00    -0.237 OA
ATOM     80  O   UNL A   1      44.318  36.061  37.132  1.00  0.00    -0.744 OA
ENDBRANCH  74  77
ENDBRANCH  56  70
BRANCH  57  81
ATOM     81  C   UNL A   1      41.859  26.744  27.721  1.00  0.00     0.023 A 
ATOM     82  C   UNL A   1      42.412  27.242  26.525  1.00  0.00     0.012 A 
ATOM     83  C   UNL A   1      41.402  25.413  27.763  1.00  0.00     0.148 A 
ATOM     84  C   UNL A   1      42.470  26.445  25.380  1.00  0.00     0.002 A 
ATOM     85  C   UNL A   1      41.513  24.607  26.635  1.00  0.00     0.091 A 
ATOM     86  F   UNL A   1      40.865  24.959  28.904  1.00  0.00    -0.205 F 
ATOM     87  C   UNL A   1      42.028  25.126  25.437  1.00  0.00     0.022 A 
BRANCH  85  88
ATOM     88  S   UNL A   1      41.089  22.861  26.665  1.00  0.00     0.127 S 
ATOM     89  O   UNL A   1      41.607  22.448  27.966  1.00  0.00    -0.237 OA
ATOM     90  O   UNL A   1      39.629  22.897  26.565  1.00  0.00    -0.237 OA
ATOM     91  O   UNL A   1      41.749  22.283  25.502  1.00  0.00    -0.744 OA
ENDBRANCH  85  88
ENDBRANCH  57  81
BRANCH  69  92
ATOM     92  C   UNL A   1      45.659  27.290  33.544  1.00  0.00     0.023 A 
ATOM     93  C   UNL A   1      45.476  26.136  34.331  1.00  0.00     0.012 A 
ATOM     94  C   UNL A   1      46.962  27.685  33.184  1.00  0.00     0.148 A 
ATOM     95  C   UNL A   1      46.575  25.407  34.783  1.00  0.00     0.002 A 
ATOM     96  C   UNL A   1      48.050  26.925  33.597  1.00  0.00     0.091 A 
ATOM     97  F   UNL A   1      47.115  28.797  32.450  1.00  0.00    -0.205 F 
ATOM     98  C   UNL A   1      47.859  25.793  34.406  1.00  0.00     0.022 A 
BRANCH  96  99
ATOM     99  S   UNL A   1      49.731  27.294  33.082  1.00  0.00     0.127 S 
ATOM    100  O   UNL A   1      50.174  28.201  34.138  1.00  0.00    -0.237 OA
ATOM    101  O   UNL A   1      50.361  25.973  33.108  1.00  0.00    -0.237 OA
ATOM    102  O   UNL A   1      49.622  27.883  31.755  1.00  0.00    -0.744 OA
ENDBRANCH  96  99
ENDBRANCH  69  92
ENDBRANCH  43  44
ENDBRANCH  35  38
ENDBRANCH  33  34
ENDBRANCH  32  33
ENDBRANCH  31  32
ENDBRANCH   1  31
TORSDOF 21
ENDMDL
