MODEL 1
REMARK VINA RESULT:     -12.8      0.000      0.000
REMARK SMILES Cc1cc2c(cc1C(=O)c1ccccc1C(=O)NCCCCCCNC(=O)c1ccc(-c3c4nc(c(-c5cccc(S(=O)(=O)[O-])c5F)c5ccc([nH]5)c(-c5cccc(S(=O)(=O)[O-])c5F)c5nc(c(-c6cccc(S(=O)(=O)[O-])c6F)c6ccc3[nH]6)C=C5)C=C4)cc1)CCCC2
REMARK SMILES IDX 22 1 21 2 20 3 19 4 18 5 16 6 17 7 15 9 10 10 11 11 12 12
REMARK SMILES IDX 14 13 13 14 8 15 9 16 7 17 1 18 2 19 3 20 4 21 6 22 5 23
REMARK SMILES IDX 94 24 91 25 93 26 92 27 23 28 24 29 25 30 26 31 27 33 28 34
REMARK SMILES IDX 29 35 90 36 30 37 89 38 31 39 32 40 33 41 83 42 34 43 88 44
REMARK SMILES IDX 82 45 84 46 35 47 87 48 81 49 80 50 36 52 68 53 48 54 67 55
REMARK SMILES IDX 49 56 52 57 66 58 85 59 50 60 51 61 65 63 86 64 53 65 37 66
REMARK SMILES IDX 38 67 46 68 39 69 41 70 47 71 40 72 42 73 43 74 44 75 45 76
REMARK SMILES IDX 69 77 70 78 78 79 71 80 73 81 79 82 72 83 74 84 75 85 76 86
REMARK SMILES IDX 77 87 54 88 55 89 63 90 56 91 58 92 64 93 57 94 59 95 60 96
REMARK SMILES IDX 61 97 62 98
REMARK H PARENT 18 8 25 32 84 51 52 62
REMARK Flexibility Score: inf
ROOT
ATOM      1  C   UNL A   1      35.563  22.015  24.217  1.00  0.00     0.002 C 
ENDROOT
BRANCH   1   2
ATOM      2  C   UNL A   1      35.683  23.518  24.486  1.00  0.00     0.002 C 
BRANCH   2   3
ATOM      3  C   UNL A   1      35.142  24.082  25.800  1.00  0.00     0.021 C 
BRANCH   3   4
ATOM      4  C   UNL A   1      34.686  23.106  26.879  1.00  0.00     0.116 C 
BRANCH   4   5
ATOM      5  N   UNL A   1      33.301  23.159  27.246  1.00  0.00    -0.352 N 
ATOM      6  C   UNL A   1      32.166  22.723  26.612  1.00  0.00     0.252 C 
ATOM      7  O   UNL A   1      31.119  22.923  27.244  1.00  0.00    -0.269 OA
ATOM      8  H   UNL A   1      33.133  23.589  28.117  1.00  0.00     0.163 HD
BRANCH   6   9
ATOM      9  C   UNL A   1      32.032  22.092  25.248  1.00  0.00     0.050 A 
ATOM     10  C   UNL A   1      31.738  22.649  23.990  1.00  0.00     0.035 A 
ATOM     11  C   UNL A   1      31.925  21.902  22.802  1.00  0.00     0.013 A 
ATOM     12  C   UNL A   1      32.274  20.557  22.845  1.00  0.00     0.001 A 
ATOM     13  C   UNL A   1      32.369  20.712  25.248  1.00  0.00     0.014 A 
ATOM     14  C   UNL A   1      32.469  19.953  24.075  1.00  0.00     0.001 A 
BRANCH  10  15
ATOM     15  C   UNL A   1      31.258  24.006  23.736  1.00  0.00     0.194 C 
ATOM     16  O   UNL A   1      30.162  24.100  23.190  1.00  0.00    -0.289 OA
BRANCH  15  17
ATOM     17  C   UNL A   1      32.055  25.239  24.131  1.00  0.00     0.026 A 
ATOM     18  C   UNL A   1      33.616  25.427  22.057  1.00  0.00     0.045 C 
ATOM     19  C   UNL A   1      33.059  25.887  23.375  1.00  0.00    -0.040 A 
ATOM     20  C   UNL A   1      33.607  27.093  23.863  1.00  0.00     0.008 A 
ATOM     21  C   UNL A   1      33.136  27.710  25.024  1.00  0.00    -0.044 A 
ATOM     22  C   UNL A   1      31.619  25.853  25.328  1.00  0.00     0.016 A 
ATOM     23  C   UNL A   1      32.129  27.087  25.766  1.00  0.00    -0.044 A 
ATOM     24  C   UNL A   1      33.764  29.009  25.466  1.00  0.00     0.036 C 
ATOM     25  C   UNL A   1      31.502  27.773  26.955  1.00  0.00     0.036 C 
ATOM     26  C   UNL A   1      32.858  29.811  26.389  1.00  0.00     0.005 C 
ATOM     27  C   UNL A   1      32.342  28.921  27.511  1.00  0.00     0.005 C 
ENDBRANCH  15  17
ENDBRANCH  10  15
ENDBRANCH   6   9
ENDBRANCH   4   5
ENDBRANCH   3   4
ENDBRANCH   2   3
ENDBRANCH   1   2
BRANCH   1  28
ATOM     28  C   UNL A   1      36.748  21.114  24.560  1.00  0.00     0.021 C 
BRANCH  28  29
ATOM     29  C   UNL A   1      37.941  21.752  25.263  1.00  0.00     0.116 C 
BRANCH  29  30
ATOM     30  N   UNL A   1      38.926  20.808  25.761  1.00  0.00    -0.352 N 
ATOM     31  C   UNL A   1      39.992  21.013  26.610  1.00  0.00     0.251 C 
ATOM     32  H   UNL A   1      38.816  19.883  25.443  1.00  0.00     0.163 HD
ATOM     33  O   UNL A   1      40.738  20.074  26.884  1.00  0.00    -0.269 OA
BRANCH  31  34
ATOM     34  C   UNL A   1      40.276  22.362  27.157  1.00  0.00     0.039 A 
ATOM     35  C   UNL A   1      39.478  23.463  26.844  1.00  0.00     0.014 A 
ATOM     36  C   UNL A   1      41.385  22.530  27.995  1.00  0.00     0.014 A 
ATOM     37  C   UNL A   1      39.887  24.744  27.218  1.00  0.00     0.010 A 
ATOM     38  C   UNL A   1      41.756  23.812  28.421  1.00  0.00     0.010 A 
ATOM     39  C   UNL A   1      41.045  24.939  27.986  1.00  0.00    -0.014 A 
BRANCH  39  40
ATOM     40  C   UNL A   1      41.523  26.322  28.268  1.00  0.00     0.031 A 
ATOM     41  C   UNL A   1      42.904  26.750  27.836  1.00  0.00     0.074 A 
ATOM     42  C   UNL A   1      40.710  27.218  28.861  1.00  0.00     0.049 A 
ATOM     43  N   UNL A   1      43.510  27.894  28.033  1.00  0.00    -0.248 NA
ATOM     44  C   UNL A   1      43.706  25.773  27.083  1.00  0.00     0.031 C 
ATOM     45  C   UNL A   1      39.342  26.954  29.307  1.00  0.00     0.029 A 
ATOM     46  N   UNL A   1      40.915  28.539  29.183  1.00  0.00    -0.354 N 
ATOM     47  C   UNL A   1      44.777  27.755  27.478  1.00  0.00     0.074 A 
ATOM     48  C   UNL A   1      44.853  26.420  26.926  1.00  0.00     0.031 C 
ATOM     49  C   UNL A   1      38.820  28.080  29.819  1.00  0.00     0.029 A 
ATOM     50  C   UNL A   1      39.833  29.132  29.790  1.00  0.00     0.049 A 
ATOM     51  H   UNL A   1      41.757  29.014  28.998  1.00  0.00     0.167 HD
ATOM     52  C   UNL A   1      45.782  28.661  27.415  1.00  0.00     0.034 A 
ATOM     53  C   UNL A   1      39.674  30.375  30.288  1.00  0.00     0.034 A 
ATOM     54  C   UNL A   1      45.697  30.010  27.898  1.00  0.00     0.049 A 
ATOM     55  C   UNL A   1      40.808  31.357  30.216  1.00  0.00     0.074 A 
ATOM     56  C   UNL A   1      46.664  31.001  27.850  1.00  0.00     0.029 A 
ATOM     57  N   UNL A   1      44.586  30.566  28.507  1.00  0.00    -0.354 N 
ATOM     58  N   UNL A   1      41.984  31.214  29.657  1.00  0.00    -0.248 NA
ATOM     59  C   UNL A   1      40.593  32.672  30.841  1.00  0.00     0.031 C 
ATOM     60  C   UNL A   1      46.134  32.159  28.427  1.00  0.00     0.029 A 
ATOM     61  C   UNL A   1      44.839  31.887  28.836  1.00  0.00     0.049 A 
ATOM     62  H   UNL A   1      43.740  30.092  28.681  1.00  0.00     0.167 HD
ATOM     63  C   UNL A   1      42.647  32.420  29.853  1.00  0.00     0.074 A 
ATOM     64  C   UNL A   1      41.733  33.293  30.562  1.00  0.00     0.031 C 
ATOM     65  C   UNL A   1      43.909  32.762  29.499  1.00  0.00     0.034 A 
BRANCH  52  66
ATOM     66  C   UNL A   1      47.066  28.240  26.753  1.00  0.00     0.023 A 
ATOM     67  C   UNL A   1      48.166  27.878  27.553  1.00  0.00     0.012 A 
ATOM     68  C   UNL A   1      47.148  28.112  25.353  1.00  0.00     0.148 A 
ATOM     69  C   UNL A   1      49.338  27.402  26.968  1.00  0.00     0.002 A 
ATOM     70  C   UNL A   1      48.310  27.611  24.779  1.00  0.00     0.091 A 
ATOM     71  F   UNL A   1      46.091  28.477  24.616  1.00  0.00    -0.205 F 
ATOM     72  C   UNL A   1      49.407  27.259  25.584  1.00  0.00     0.022 A 
BRANCH  70  73
ATOM     73  S   UNL A   1      48.483  27.337  23.011  1.00  0.00     0.127 S 
ATOM     74  O   UNL A   1      47.469  28.242  22.472  1.00  0.00    -0.237 OA
ATOM     75  O   UNL A   1      49.864  27.756  22.770  1.00  0.00    -0.237 OA
ATOM     76  O   UNL A   1      48.228  25.920  22.795  1.00  0.00    -0.744 OA
ENDBRANCH  70  73
ENDBRANCH  52  66
BRANCH  53  77
ATOM     77  C   UNL A   1      38.362  30.765  30.874  1.00  0.00     0.023 A 
ATOM     78  C   UNL A   1      38.122  30.527  32.240  1.00  0.00     0.012 A 
ATOM     79  C   UNL A   1      37.385  31.424  30.103  1.00  0.00     0.148 A 
ATOM     80  C   UNL A   1      36.926  30.935  32.830  1.00  0.00     0.002 A 
ATOM     81  C   UNL A   1      36.216  31.869  30.707  1.00  0.00     0.091 A 
ATOM     82  F   UNL A   1      37.635  31.626  28.802  1.00  0.00    -0.205 F 
ATOM     83  C   UNL A   1      35.979  31.616  32.068  1.00  0.00     0.022 A 
BRANCH  81  84
ATOM     84  S   UNL A   1      34.990  32.852  29.838  1.00  0.00     0.127 S 
ATOM     85  O   UNL A   1      34.089  33.235  30.923  1.00  0.00    -0.237 OA
ATOM     86  O   UNL A   1      35.809  33.941  29.303  1.00  0.00    -0.237 OA
ATOM     87  O   UNL A   1      34.419  31.972  28.828  1.00  0.00    -0.744 OA
ENDBRANCH  81  84
ENDBRANCH  53  77
BRANCH  65  88
ATOM     88  C   UNL A   1      44.396  34.136  29.866  1.00  0.00     0.023 A 
ATOM     89  C   UNL A   1      45.125  34.309  31.059  1.00  0.00     0.012 A 
ATOM     90  C   UNL A   1      44.229  35.224  28.989  1.00  0.00     0.148 A 
ATOM     91  C   UNL A   1      45.673  35.549  31.379  1.00  0.00     0.002 A 
ATOM     92  C   UNL A   1      44.804  36.451  29.300  1.00  0.00     0.091 A 
ATOM     93  F   UNL A   1      43.518  35.037  27.867  1.00  0.00    -0.205 F 
ATOM     94  C   UNL A   1      45.522  36.617  30.496  1.00  0.00     0.022 A 
BRANCH  92  95
ATOM     95  S   UNL A   1      44.723  37.864  28.192  1.00  0.00     0.127 S 
ATOM     96  O   UNL A   1      44.949  38.977  29.112  1.00  0.00    -0.237 OA
ATOM     97  O   UNL A   1      45.828  37.600  27.270  1.00  0.00    -0.237 OA
ATOM     98  O   UNL A   1      43.401  37.818  27.580  1.00  0.00    -0.744 OA
ENDBRANCH  92  95
ENDBRANCH  65  88
ENDBRANCH  39  40
ENDBRANCH  31  34
ENDBRANCH  29  30
ENDBRANCH  28  29
ENDBRANCH   1  28
TORSDOF 18
ENDMDL
MODEL 2
REMARK VINA RESULT:     -12.7      1.710      2.261
REMARK SMILES Cc1cc2c(cc1C(=O)c1ccccc1C(=O)NCCCCCCNC(=O)c1ccc(-c3c4nc(c(-c5cccc(S(=O)(=O)[O-])c5F)c5ccc([nH]5)c(-c5cccc(S(=O)(=O)[O-])c5F)c5nc(c(-c6cccc(S(=O)(=O)[O-])c6F)c6ccc3[nH]6)C=C5)C=C4)cc1)CCCC2
REMARK SMILES IDX 22 1 21 2 20 3 19 4 18 5 16 6 17 7 15 9 10 10 11 11 12 12
REMARK SMILES IDX 14 13 13 14 8 15 9 16 7 17 1 18 2 19 3 20 4 21 6 22 5 23
REMARK SMILES IDX 94 24 91 25 93 26 92 27 23 28 24 29 25 30 26 31 27 33 28 34
REMARK SMILES IDX 29 35 90 36 30 37 89 38 31 39 32 40 33 41 83 42 34 43 88 44
REMARK SMILES IDX 82 45 84 46 35 47 87 48 81 49 80 50 36 52 68 53 48 54 67 55
REMARK SMILES IDX 49 56 52 57 66 58 85 59 50 60 51 61 65 63 86 64 53 65 37 66
REMARK SMILES IDX 38 67 46 68 39 69 41 70 47 71 40 72 42 73 43 74 44 75 45 76
REMARK SMILES IDX 69 77 70 78 78 79 71 80 73 81 79 82 72 83 74 84 75 85 76 86
REMARK SMILES IDX 77 87 54 88 55 89 63 90 56 91 58 92 64 93 57 94 59 95 60 96
REMARK SMILES IDX 61 97 62 98
REMARK H PARENT 18 8 25 32 84 51 52 62
REMARK Flexibility Score: inf
ROOT
ATOM      1  C   UNL A   1      37.631  21.045  24.947  1.00  0.00     0.002 C 
ENDROOT
BRANCH   1   2
ATOM      2  C   UNL A   1      38.044  22.161  25.912  1.00  0.00     0.002 C 
BRANCH   2   3
ATOM      3  C   UNL A   1      37.611  23.597  25.615  1.00  0.00     0.021 C 
BRANCH   3   4
ATOM      4  C   UNL A   1      36.137  23.958  25.758  1.00  0.00     0.116 C 
BRANCH   4   5
ATOM      5  N   UNL A   1      35.413  23.290  26.800  1.00  0.00    -0.352 N 
ATOM      6  C   UNL A   1      34.211  22.630  26.803  1.00  0.00     0.252 C 
ATOM      7  O   UNL A   1      33.895  22.149  27.900  1.00  0.00    -0.269 OA
ATOM      8  H   UNL A   1      35.862  23.308  27.677  1.00  0.00     0.163 HD
BRANCH   6   9
ATOM      9  C   UNL A   1      33.222  22.466  25.675  1.00  0.00     0.050 A 
ATOM     10  C   UNL A   1      32.096  23.226  25.307  1.00  0.00     0.035 A 
ATOM     11  C   UNL A   1      31.469  23.036  24.052  1.00  0.00     0.013 A 
ATOM     12  C   UNL A   1      31.857  22.006  23.202  1.00  0.00     0.001 A 
ATOM     13  C   UNL A   1      33.575  21.417  24.786  1.00  0.00     0.014 A 
ATOM     14  C   UNL A   1      32.896  21.176  23.585  1.00  0.00     0.001 A 
BRANCH  10  15
ATOM     15  C   UNL A   1      31.466  24.279  26.101  1.00  0.00     0.194 C 
ATOM     16  O   UNL A   1      31.121  23.969  27.238  1.00  0.00    -0.289 OA
BRANCH  15  17
ATOM     17  C   UNL A   1      31.255  25.687  25.564  1.00  0.00     0.026 A 
ATOM     18  C   UNL A   1      33.624  26.674  25.997  1.00  0.00     0.045 C 
ATOM     19  C   UNL A   1      32.214  26.722  25.479  1.00  0.00    -0.040 A 
ATOM     20  C   UNL A   1      31.857  27.928  24.840  1.00  0.00     0.008 A 
ATOM     21  C   UNL A   1      30.619  28.106  24.218  1.00  0.00    -0.044 A 
ATOM     22  C   UNL A   1      29.990  25.896  24.969  1.00  0.00     0.016 A 
ATOM     23  C   UNL A   1      29.673  27.079  24.279  1.00  0.00    -0.044 A 
ATOM     24  C   UNL A   1      30.324  29.421  23.541  1.00  0.00     0.036 C 
ATOM     25  C   UNL A   1      28.372  27.174  23.519  1.00  0.00     0.036 C 
ATOM     26  C   UNL A   1      29.220  29.307  22.498  1.00  0.00     0.005 C 
ATOM     27  C   UNL A   1      28.015  28.597  23.097  1.00  0.00     0.005 C 
ENDBRANCH  15  17
ENDBRANCH  10  15
ENDBRANCH   6   9
ENDBRANCH   4   5
ENDBRANCH   3   4
ENDBRANCH   2   3
ENDBRANCH   1   2
BRANCH   1  28
ATOM     28  C   UNL A   1      38.477  19.774  24.894  1.00  0.00     0.021 C 
BRANCH  28  29
ATOM     29  C   UNL A   1      39.185  19.342  26.173  1.00  0.00     0.116 C 
BRANCH  29  30
ATOM     30  N   UNL A   1      40.535  18.841  25.978  1.00  0.00    -0.352 N 
ATOM     31  C   UNL A   1      41.741  19.500  26.077  1.00  0.00     0.251 C 
ATOM     32  H   UNL A   1      40.596  17.889  25.738  1.00  0.00     0.163 HD
ATOM     33  O   UNL A   1      42.783  18.894  25.835  1.00  0.00    -0.269 OA
BRANCH  31  34
ATOM     34  C   UNL A   1      41.791  20.941  26.425  1.00  0.00     0.039 A 
ATOM     35  C   UNL A   1      41.557  21.934  25.472  1.00  0.00     0.014 A 
ATOM     36  C   UNL A   1      42.099  21.307  27.741  1.00  0.00     0.014 A 
ATOM     37  C   UNL A   1      41.803  23.270  25.791  1.00  0.00     0.010 A 
ATOM     38  C   UNL A   1      42.283  22.656  28.071  1.00  0.00     0.010 A 
ATOM     39  C   UNL A   1      42.196  23.647  27.083  1.00  0.00    -0.014 A 
BRANCH  39  40
ATOM     40  C   UNL A   1      42.568  25.062  27.362  1.00  0.00     0.031 A 
ATOM     41  C   UNL A   1      43.907  25.597  26.916  1.00  0.00     0.074 A 
ATOM     42  C   UNL A   1      41.694  25.893  27.965  1.00  0.00     0.049 A 
ATOM     43  N   UNL A   1      44.424  26.784  27.108  1.00  0.00    -0.248 NA
ATOM     44  C   UNL A   1      44.775  24.685  26.153  1.00  0.00     0.031 C 
ATOM     45  C   UNL A   1      40.355  25.523  28.425  1.00  0.00     0.029 A 
ATOM     46  N   UNL A   1      41.799  27.225  28.287  1.00  0.00    -0.354 N 
ATOM     47  C   UNL A   1      45.692  26.745  26.539  1.00  0.00     0.074 A 
ATOM     48  C   UNL A   1      45.866  25.420  25.985  1.00  0.00     0.031 C 
ATOM     49  C   UNL A   1      39.753  26.604  28.944  1.00  0.00     0.029 A 
ATOM     50  C   UNL A   1      40.681  27.732  28.906  1.00  0.00     0.049 A 
ATOM     51  H   UNL A   1      42.600  27.764  28.093  1.00  0.00     0.167 HD
ATOM     52  C   UNL A   1      46.623  27.725  26.467  1.00  0.00     0.034 A 
ATOM     53  C   UNL A   1      40.431  28.959  29.407  1.00  0.00     0.034 A 
ATOM     54  C   UNL A   1      46.439  29.064  26.953  1.00  0.00     0.049 A 
ATOM     55  C   UNL A   1      41.485  30.026  29.325  1.00  0.00     0.074 A 
ATOM     56  C   UNL A   1      47.325  30.127  26.895  1.00  0.00     0.029 A 
ATOM     57  N   UNL A   1      45.294  29.532  27.574  1.00  0.00    -0.354 N 
ATOM     58  N   UNL A   1      42.662  29.975  28.753  1.00  0.00    -0.248 NA
ATOM     59  C   UNL A   1      41.176  31.320  29.953  1.00  0.00     0.031 C 
ATOM     60  C   UNL A   1      46.713  31.240  27.480  1.00  0.00     0.029 A 
ATOM     61  C   UNL A   1      45.447  30.868  27.902  1.00  0.00     0.049 A 
ATOM     62  H   UNL A   1      44.490  28.994  27.757  1.00  0.00     0.167 HD
ATOM     63  C   UNL A   1      43.232  31.229  28.944  1.00  0.00     0.074 A 
ATOM     64  C   UNL A   1      42.261  32.027  29.663  1.00  0.00     0.031 C 
ATOM     65  C   UNL A   1      44.460  31.668  28.576  1.00  0.00     0.034 A 
BRANCH  52  66
ATOM     66  C   UNL A   1      47.928  27.407  25.791  1.00  0.00     0.023 A 
ATOM     67  C   UNL A   1      48.986  26.874  26.552  1.00  0.00     0.012 A 
ATOM     68  C   UNL A   1      48.072  27.543  24.396  1.00  0.00     0.148 A 
ATOM     69  C   UNL A   1      50.175  26.488  25.936  1.00  0.00     0.002 A 
ATOM     70  C   UNL A   1      49.250  27.130  23.786  1.00  0.00     0.091 A 
ATOM     71  F   UNL A   1      47.054  28.065  23.699  1.00  0.00    -0.205 F 
ATOM     72  C   UNL A   1      50.304  26.607  24.554  1.00  0.00     0.022 A 
BRANCH  70  73
ATOM     73  S   UNL A   1      49.498  27.191  22.007  1.00  0.00     0.127 S 
ATOM     74  O   UNL A   1      48.590  26.141  21.546  1.00  0.00    -0.237 OA
ATOM     75  O   UNL A   1      49.071  28.553  21.684  1.00  0.00    -0.237 OA
ATOM     76  O   UNL A   1      50.913  26.926  21.788  1.00  0.00    -0.744 OA
ENDBRANCH  70  73
ENDBRANCH  52  66
BRANCH  53  77
ATOM     77  C   UNL A   1      39.100  29.246  30.007  1.00  0.00     0.023 A 
ATOM     78  C   UNL A   1      38.845  28.851  31.334  1.00  0.00     0.012 A 
ATOM     79  C   UNL A   1      38.116  29.958  29.295  1.00  0.00     0.148 A 
ATOM     80  C   UNL A   1      37.629  29.159  31.943  1.00  0.00     0.002 A 
ATOM     81  C   UNL A   1      36.924  30.301  29.922  1.00  0.00     0.091 A 
ATOM     82  F   UNL A   1      38.380  30.309  28.029  1.00  0.00    -0.205 F 
ATOM     83  C   UNL A   1      36.674  29.893  31.243  1.00  0.00     0.022 A 
BRANCH  81  84
ATOM     84  S   UNL A   1      35.684  31.341  29.144  1.00  0.00     0.127 S 
ATOM     85  O   UNL A   1      34.946  30.371  28.337  1.00  0.00    -0.237 OA
ATOM     86  O   UNL A   1      34.958  31.857  30.305  1.00  0.00    -0.237 OA
ATOM     87  O   UNL A   1      36.424  32.347  28.395  1.00  0.00    -0.744 OA
ENDBRANCH  81  84
ENDBRANCH  53  77
BRANCH  65  88
ATOM     88  C   UNL A   1      44.842  33.075  28.940  1.00  0.00     0.023 A 
ATOM     89  C   UNL A   1      45.440  33.321  30.192  1.00  0.00     0.012 A 
ATOM     90  C   UNL A   1      44.712  34.126  28.013  1.00  0.00     0.148 A 
ATOM     91  C   UNL A   1      45.894  34.597  30.519  1.00  0.00     0.002 A 
ATOM     92  C   UNL A   1      45.195  35.390  28.334  1.00  0.00     0.091 A 
ATOM     93  F   UNL A   1      44.126  33.869  26.833  1.00  0.00    -0.205 F 
ATOM     94  C   UNL A   1      45.782  35.628  29.588  1.00  0.00     0.022 A 
BRANCH  92  95
ATOM     95  S   UNL A   1      45.158  36.761  27.174  1.00  0.00     0.127 S 
ATOM     96  O   UNL A   1      45.667  37.859  27.995  1.00  0.00    -0.237 OA
ATOM     97  O   UNL A   1      46.072  36.307  26.126  1.00  0.00    -0.237 OA
ATOM     98  O   UNL A   1      43.769  36.891  26.750  1.00  0.00    -0.744 OA
ENDBRANCH  92  95
ENDBRANCH  65  88
ENDBRANCH  39  40
ENDBRANCH  31  34
ENDBRANCH  29  30
ENDBRANCH  28  29
ENDBRANCH   1  28
TORSDOF 18
ENDMDL
MODEL 3
REMARK VINA RESULT:     -12.6      1.482      3.682
REMARK SMILES Cc1cc2c(cc1C(=O)c1ccccc1C(=O)NCCCCCCNC(=O)c1ccc(-c3c4nc(c(-c5cccc(S(=O)(=O)[O-])c5F)c5ccc([nH]5)c(-c5cccc(S(=O)(=O)[O-])c5F)c5nc(c(-c6cccc(S(=O)(=O)[O-])c6F)c6ccc3[nH]6)C=C5)C=C4)cc1)CCCC2
REMARK SMILES IDX 22 1 21 2 20 3 19 4 18 5 16 6 17 7 15 9 10 10 11 11 12 12
REMARK SMILES IDX 14 13 13 14 8 15 9 16 7 17 1 18 2 19 3 20 4 21 6 22 5 23
REMARK SMILES IDX 94 24 91 25 93 26 92 27 23 28 24 29 25 30 26 31 27 33 28 34
REMARK SMILES IDX 29 35 90 36 30 37 89 38 31 39 32 40 33 41 83 42 34 43 88 44
REMARK SMILES IDX 82 45 84 46 35 47 87 48 81 49 80 50 36 52 68 53 48 54 67 55
REMARK SMILES IDX 49 56 52 57 66 58 85 59 50 60 51 61 65 63 86 64 53 65 37 66
REMARK SMILES IDX 38 67 46 68 39 69 41 70 47 71 40 72 42 73 43 74 44 75 45 76
REMARK SMILES IDX 69 77 70 78 78 79 71 80 73 81 79 82 72 83 74 84 75 85 76 86
REMARK SMILES IDX 77 87 54 88 55 89 63 90 56 91 58 92 64 93 57 94 59 95 60 96
REMARK SMILES IDX 61 97 62 98
REMARK H PARENT 18 8 25 32 84 51 52 62
REMARK Flexibility Score: inf
ROOT
ATOM      1  C   UNL A   1      37.028  19.938  24.861  1.00  0.00     0.002 C 
ENDROOT
BRANCH   1   2
ATOM      2  C   UNL A   1      37.039  21.437  24.546  1.00  0.00     0.002 C 
BRANCH   2   3
ATOM      3  C   UNL A   1      36.918  22.437  25.697  1.00  0.00     0.021 C 
BRANCH   3   4
ATOM      4  C   UNL A   1      36.291  23.797  25.418  1.00  0.00     0.116 C 
BRANCH   4   5
ATOM      5  N   UNL A   1      35.617  23.946  24.161  1.00  0.00    -0.352 N 
ATOM      6  C   UNL A   1      34.472  24.612  23.808  1.00  0.00     0.252 C 
ATOM      7  O   UNL A   1      34.190  24.540  22.604  1.00  0.00    -0.269 OA
ATOM      8  H   UNL A   1      36.058  23.483  23.412  1.00  0.00     0.163 HD
BRANCH   6   9
ATOM      9  C   UNL A   1      33.505  25.361  24.693  1.00  0.00     0.050 A 
ATOM     10  C   UNL A   1      32.334  24.945  25.352  1.00  0.00     0.035 A 
ATOM     11  C   UNL A   1      31.731  25.755  26.344  1.00  0.00     0.013 A 
ATOM     12  C   UNL A   1      32.194  27.040  26.603  1.00  0.00     0.001 A 
ATOM     13  C   UNL A   1      33.935  26.684  24.975  1.00  0.00     0.014 A 
ATOM     14  C   UNL A   1      33.284  27.517  25.895  1.00  0.00     0.001 A 
BRANCH  10  15
ATOM     15  C   UNL A   1      31.628  23.681  25.148  1.00  0.00     0.194 C 
ATOM     16  O   UNL A   1      30.413  23.758  24.985  1.00  0.00    -0.289 OA
BRANCH  15  17
ATOM     17  C   UNL A   1      32.348  22.342  25.123  1.00  0.00     0.026 A 
ATOM     18  C   UNL A   1      33.439  22.396  27.486  1.00  0.00     0.045 C 
ATOM     19  C   UNL A   1      33.106  21.759  26.165  1.00  0.00    -0.040 A 
ATOM     20  C   UNL A   1      33.604  20.450  25.994  1.00  0.00     0.008 A 
ATOM     21  C   UNL A   1      33.306  19.680  24.868  1.00  0.00    -0.044 A 
ATOM     22  C   UNL A   1      32.092  21.566  23.969  1.00  0.00     0.016 A 
ATOM     23  C   UNL A   1      32.540  20.240  23.843  1.00  0.00    -0.044 A 
ATOM     24  C   UNL A   1      33.863  18.281  24.772  1.00  0.00     0.036 C 
ATOM     25  C   UNL A   1      32.088  19.410  22.666  1.00  0.00     0.036 C 
ATOM     26  C   UNL A   1      33.075  17.403  23.811  1.00  0.00     0.005 C 
ATOM     27  C   UNL A   1      32.890  18.124  22.483  1.00  0.00     0.005 C 
ENDBRANCH  15  17
ENDBRANCH  10  15
ENDBRANCH   6   9
ENDBRANCH   4   5
ENDBRANCH   3   4
ENDBRANCH   2   3
ENDBRANCH   1   2
BRANCH   1  28
ATOM     28  C   UNL A   1      38.364  19.211  25.005  1.00  0.00     0.021 C 
BRANCH  28  29
ATOM     29  C   UNL A   1      39.284  19.642  26.143  1.00  0.00     0.116 C 
BRANCH  29  30
ATOM     30  N   UNL A   1      40.636  19.117  26.060  1.00  0.00    -0.352 N 
ATOM     31  C   UNL A   1      41.840  19.750  26.276  1.00  0.00     0.251 C 
ATOM     32  H   UNL A   1      40.701  18.167  25.810  1.00  0.00     0.163 HD
ATOM     33  O   UNL A   1      42.889  19.127  26.117  1.00  0.00    -0.269 OA
BRANCH  31  34
ATOM     34  C   UNL A   1      41.886  21.185  26.651  1.00  0.00     0.039 A 
ATOM     35  C   UNL A   1      41.540  22.190  25.747  1.00  0.00     0.014 A 
ATOM     36  C   UNL A   1      42.305  21.531  27.941  1.00  0.00     0.014 A 
ATOM     37  C   UNL A   1      41.781  23.526  26.072  1.00  0.00     0.010 A 
ATOM     38  C   UNL A   1      42.484  22.878  28.284  1.00  0.00     0.010 A 
ATOM     39  C   UNL A   1      42.282  23.886  27.331  1.00  0.00    -0.014 A 
BRANCH  39  40
ATOM     40  C   UNL A   1      42.643  25.305  27.607  1.00  0.00     0.031 A 
ATOM     41  C   UNL A   1      43.987  25.843  27.182  1.00  0.00     0.074 A 
ATOM     42  C   UNL A   1      41.755  26.135  28.189  1.00  0.00     0.049 A 
ATOM     43  N   UNL A   1      44.496  27.034  27.375  1.00  0.00    -0.248 NA
ATOM     44  C   UNL A   1      44.872  24.930  26.440  1.00  0.00     0.031 C 
ATOM     45  C   UNL A   1      40.410  25.762  28.628  1.00  0.00     0.029 A 
ATOM     46  N   UNL A   1      41.848  27.470  28.504  1.00  0.00    -0.354 N 
ATOM     47  C   UNL A   1      45.774  26.997  26.829  1.00  0.00     0.074 A 
ATOM     48  C   UNL A   1      45.963  25.669  26.286  1.00  0.00     0.031 C 
ATOM     49  C   UNL A   1      39.794  26.844  29.129  1.00  0.00     0.029 A 
ATOM     50  C   UNL A   1      40.717  27.976  29.100  1.00  0.00     0.049 A 
ATOM     51  H   UNL A   1      42.649  28.012  28.321  1.00  0.00     0.167 HD
ATOM     52  C   UNL A   1      46.701  27.981  26.766  1.00  0.00     0.034 A 
ATOM     53  C   UNL A   1      40.452  29.205  29.589  1.00  0.00     0.034 A 
ATOM     54  C   UNL A   1      46.502  29.322  27.241  1.00  0.00     0.049 A 
ATOM     55  C   UNL A   1      41.503  30.276  29.518  1.00  0.00     0.074 A 
ATOM     56  C   UNL A   1      47.384  30.389  27.192  1.00  0.00     0.029 A 
ATOM     57  N   UNL A   1      45.344  29.788  27.839  1.00  0.00    -0.354 N 
ATOM     58  N   UNL A   1      42.690  30.227  28.967  1.00  0.00    -0.248 NA
ATOM     59  C   UNL A   1      41.176  31.573  30.132  1.00  0.00     0.031 C 
ATOM     60  C   UNL A   1      46.757  31.502  27.758  1.00  0.00     0.029 A 
ATOM     61  C   UNL A   1      45.486  31.127  28.160  1.00  0.00     0.049 A 
ATOM     62  H   UNL A   1      44.540  29.248  28.010  1.00  0.00     0.167 HD
ATOM     63  C   UNL A   1      43.250  31.485  29.160  1.00  0.00     0.074 A 
ATOM     64  C   UNL A   1      42.263  32.283  29.856  1.00  0.00     0.031 C 
ATOM     65  C   UNL A   1      44.483  31.927  28.812  1.00  0.00     0.034 A 
BRANCH  52  66
ATOM     66  C   UNL A   1      48.019  27.664  26.116  1.00  0.00     0.023 A 
ATOM     67  C   UNL A   1      49.094  27.230  26.914  1.00  0.00     0.012 A 
ATOM     68  C   UNL A   1      48.162  27.703  24.715  1.00  0.00     0.148 A 
ATOM     69  C   UNL A   1      50.299  26.846  26.328  1.00  0.00     0.002 A 
ATOM     70  C   UNL A   1      49.356  27.292  24.136  1.00  0.00     0.091 A 
ATOM     71  F   UNL A   1      47.127  28.133  23.981  1.00  0.00    -0.205 F 
ATOM     72  C   UNL A   1      50.428  26.868  24.941  1.00  0.00     0.022 A 
BRANCH  70  73
ATOM     73  S   UNL A   1      49.607  27.231  22.358  1.00  0.00     0.127 S 
ATOM     74  O   UNL A   1      49.316  28.612  21.972  1.00  0.00    -0.237 OA
ATOM     75  O   UNL A   1      51.017  26.854  22.260  1.00  0.00    -0.237 OA
ATOM     76  O   UNL A   1      48.672  26.236  21.853  1.00  0.00    -0.744 OA
ENDBRANCH  70  73
ENDBRANCH  52  66
BRANCH  53  77
ATOM     77  C   UNL A   1      39.109  29.489  30.163  1.00  0.00     0.023 A 
ATOM     78  C   UNL A   1      38.832  29.099  31.487  1.00  0.00     0.012 A 
ATOM     79  C   UNL A   1      38.136  30.195  29.431  1.00  0.00     0.148 A 
ATOM     80  C   UNL A   1      37.603  29.405  32.072  1.00  0.00     0.002 A 
ATOM     81  C   UNL A   1      36.932  30.536  30.035  1.00  0.00     0.091 A 
ATOM     82  F   UNL A   1      38.422  30.542  28.168  1.00  0.00    -0.205 F 
ATOM     83  C   UNL A   1      36.659  30.133  31.352  1.00  0.00     0.022 A 
BRANCH  81  84
ATOM     84  S   UNL A   1      35.703  31.568  29.229  1.00  0.00     0.127 S 
ATOM     85  O   UNL A   1      36.530  32.630  28.661  1.00  0.00    -0.237 OA
ATOM     86  O   UNL A   1      35.132  30.641  28.251  1.00  0.00    -0.237 OA
ATOM     87  O   UNL A   1      34.783  31.982  30.279  1.00  0.00    -0.744 OA
ENDBRANCH  81  84
ENDBRANCH  53  77
BRANCH  65  88
ATOM     88  C   UNL A   1      44.852  33.339  29.173  1.00  0.00     0.023 A 
ATOM     89  C   UNL A   1      45.414  33.598  30.438  1.00  0.00     0.012 A 
ATOM     90  C   UNL A   1      44.746  34.381  28.232  1.00  0.00     0.148 A 
ATOM     91  C   UNL A   1      45.856  34.877  30.766  1.00  0.00     0.002 A 
ATOM     92  C   UNL A   1      45.217  35.648  28.556  1.00  0.00     0.091 A 
ATOM     93  F   UNL A   1      44.194  34.111  27.040  1.00  0.00    -0.205 F 
ATOM     94  C   UNL A   1      45.769  35.899  29.823  1.00  0.00     0.022 A 
BRANCH  92  95
ATOM     95  S   UNL A   1      45.210  37.009  27.382  1.00  0.00     0.127 S 
ATOM     96  O   UNL A   1      46.013  36.463  26.288  1.00  0.00    -0.237 OA
ATOM     97  O   UNL A   1      43.786  37.154  27.082  1.00  0.00    -0.237 OA
ATOM     98  O   UNL A   1      45.799  38.145  28.082  1.00  0.00    -0.744 OA
ENDBRANCH  92  95
ENDBRANCH  65  88
ENDBRANCH  39  40
ENDBRANCH  31  34
ENDBRANCH  29  30
ENDBRANCH  28  29
ENDBRANCH   1  28
TORSDOF 18
ENDMDL
