MODEL 1
REMARK VINA RESULT:     -11.8      0.000      0.000
REMARK SMILES O=C(NCCCCCCNC(=O)C(Cl)(c1ccccc1)c1ccccc1)c1ccc(-c2c3nc(c(-c4cccc(S(=O)(=O)[O-])c4F)c4ccc([nH]4)c(-c4cccc(S(=O)(=O)[O-])c4F)c4nc(c(-c5cccc(S(=O)(=O)[O-])c5F)c5ccc2[nH]5)C=C4)C=C3)cc1
REMARK SMILES IDX 5 1 4 2 3 3 1 4 2 5 27 7 28 8 89 9 29 10 88 11 30 12 31 13
REMARK SMILES IDX 32 14 82 15 33 16 87 17 81 18 83 19 34 20 86 21 80 22 79 23
REMARK SMILES IDX 35 25 67 26 47 27 66 28 48 29 51 30 65 31 84 32 49 33 50 34
REMARK SMILES IDX 64 36 85 37 52 38 36 39 37 40 45 41 38 42 40 43 46 44 39 45
REMARK SMILES IDX 41 46 42 47 43 48 44 49 68 50 69 51 77 52 70 53 72 54 78 55
REMARK SMILES IDX 71 56 73 57 74 58 75 59 76 60 53 61 54 62 62 63 55 64 57 65
REMARK SMILES IDX 63 66 56 67 58 68 59 69 60 70 61 71 6 72 7 73 8 74 9 75
REMARK SMILES IDX 10 76 11 77 12 79 13 80 14 81 15 82 16 83 20 84 17 85 19 86
REMARK SMILES IDX 18 87 21 88 22 89 26 90 23 91 25 92 24 93
REMARK H PARENT 3 6 83 24 51 35 10 78
REMARK Flexibility Score: inf
ROOT
ATOM      1  C   UNL A   1      32.859  29.022  23.616  1.00  0.00     0.021 C 
ENDROOT
BRANCH   1   2
ATOM      2  C   UNL A   1      33.277  29.274  25.059  1.00  0.00     0.116 C 
BRANCH   2   3
ATOM      3  N   UNL A   1      32.614  30.435  25.628  1.00  0.00    -0.352 N 
ATOM      4  O   UNL A   1      32.151  31.972  27.210  1.00  0.00    -0.269 OA
ATOM      5  C   UNL A   1      32.927  31.126  26.773  1.00  0.00     0.251 C 
ATOM      6  H   UNL A   1      31.838  30.771  25.126  1.00  0.00     0.163 HD
BRANCH   5   7
ATOM      7  C   UNL A   1      34.190  30.826  27.482  1.00  0.00     0.039 A 
ATOM      8  C   UNL A   1      34.437  29.540  27.976  1.00  0.00     0.014 A 
ATOM      9  C   UNL A   1      35.134  31.839  27.654  1.00  0.00     0.014 A 
ATOM     10  C   UNL A   1      35.570  29.302  28.743  1.00  0.00     0.010 A 
ATOM     11  C   UNL A   1      36.311  31.577  28.361  1.00  0.00     0.010 A 
ATOM     12  C   UNL A   1      36.528  30.313  28.930  1.00  0.00    -0.014 A 
BRANCH  12  13
ATOM     13  C   UNL A   1      37.788  29.998  29.648  1.00  0.00     0.031 A 
ATOM     14  C   UNL A   1      38.067  30.544  31.021  1.00  0.00     0.074 A 
ATOM     15  C   UNL A   1      38.693  29.208  29.035  1.00  0.00     0.049 A 
ATOM     16  N   UNL A   1      39.111  30.347  31.784  1.00  0.00    -0.248 NA
ATOM     17  C   UNL A   1      37.050  31.428  31.612  1.00  0.00     0.031 C 
ATOM     18  C   UNL A   1      38.547  28.658  27.685  1.00  0.00     0.029 A 
ATOM     19  N   UNL A   1      39.906  28.732  29.458  1.00  0.00    -0.354 N 
ATOM     20  C   UNL A   1      38.897  31.106  32.929  1.00  0.00     0.074 A 
ATOM     21  C   UNL A   1      37.626  31.775  32.757  1.00  0.00     0.031 C 
ATOM     22  C   UNL A   1      39.615  27.899  27.401  1.00  0.00     0.029 A 
ATOM     23  C   UNL A   1      40.542  27.948  28.525  1.00  0.00     0.049 A 
ATOM     24  H   UNL A   1      40.286  28.932  30.344  1.00  0.00     0.167 HD
ATOM     25  C   UNL A   1      39.682  31.219  34.027  1.00  0.00     0.034 A 
ATOM     26  C   UNL A   1      41.745  27.343  28.561  1.00  0.00     0.034 A 
ATOM     27  C   UNL A   1      40.931  30.523  34.203  1.00  0.00     0.049 A 
ATOM     28  C   UNL A   1      42.582  27.472  29.800  1.00  0.00     0.074 A 
ATOM     29  C   UNL A   1      41.771  30.527  35.304  1.00  0.00     0.029 A 
ATOM     30  N   UNL A   1      41.523  29.703  33.255  1.00  0.00    -0.354 N 
ATOM     31  N   UNL A   1      42.304  28.094  30.921  1.00  0.00    -0.248 NA
ATOM     32  C   UNL A   1      43.886  26.797  29.791  1.00  0.00     0.031 C 
ATOM     33  C   UNL A   1      42.878  29.722  35.014  1.00  0.00     0.029 A 
ATOM     34  C   UNL A   1      42.719  29.202  33.740  1.00  0.00     0.049 A 
ATOM     35  H   UNL A   1      41.148  29.506  32.365  1.00  0.00     0.167 HD
ATOM     36  C   UNL A   1      43.388  27.866  31.760  1.00  0.00     0.074 A 
ATOM     37  C   UNL A   1      44.313  27.025  31.027  1.00  0.00     0.031 C 
ATOM     38  C   UNL A   1      43.606  28.327  33.015  1.00  0.00     0.034 A 
BRANCH  25  39
ATOM     39  C   UNL A   1      39.195  32.092  35.155  1.00  0.00     0.023 A 
ATOM     40  C   UNL A   1      39.287  33.494  35.033  1.00  0.00     0.012 A 
ATOM     41  C   UNL A   1      38.579  31.536  36.294  1.00  0.00     0.148 A 
ATOM     42  C   UNL A   1      38.795  34.328  36.037  1.00  0.00     0.002 A 
ATOM     43  C   UNL A   1      38.059  32.375  37.274  1.00  0.00     0.091 A 
ATOM     44  F   UNL A   1      38.520  30.202  36.403  1.00  0.00    -0.205 F 
ATOM     45  C   UNL A   1      38.173  33.770  37.151  1.00  0.00     0.022 A 
BRANCH  43  46
ATOM     46  S   UNL A   1      37.176  31.755  38.712  1.00  0.00     0.127 S 
ATOM     47  O   UNL A   1      38.165  31.949  39.771  1.00  0.00    -0.237 OA
ATOM     48  O   UNL A   1      36.025  32.656  38.780  1.00  0.00    -0.237 OA
ATOM     49  O   UNL A   1      36.844  30.370  38.409  1.00  0.00    -0.744 OA
ENDBRANCH  43  46
ENDBRANCH  25  39
BRANCH  26  50
ATOM     50  C   UNL A   1      42.191  26.519  27.404  1.00  0.00     0.023 A 
ATOM     51  C   UNL A   1      42.985  27.110  26.403  1.00  0.00     0.012 A 
ATOM     52  C   UNL A   1      41.886  25.147  27.321  1.00  0.00     0.148 A 
ATOM     53  C   UNL A   1      43.452  26.353  25.329  1.00  0.00     0.002 A 
ATOM     54  C   UNL A   1      42.403  24.386  26.278  1.00  0.00     0.091 A 
ATOM     55  F   UNL A   1      41.115  24.607  28.275  1.00  0.00    -0.205 F 
ATOM     56  C   UNL A   1      43.171  24.990  25.273  1.00  0.00     0.022 A 
BRANCH  54  57
ATOM     57  S   UNL A   1      42.212  22.601  26.214  1.00  0.00     0.127 S 
ATOM     58  O   UNL A   1      42.800  22.192  27.486  1.00  0.00    -0.237 OA
ATOM     59  O   UNL A   1      40.758  22.453  26.132  1.00  0.00    -0.237 OA
ATOM     60  O   UNL A   1      42.923  22.177  25.016  1.00  0.00    -0.744 OA
ENDBRANCH  54  57
ENDBRANCH  26  50
BRANCH  38  61
ATOM     61  C   UNL A   1      44.889  27.917  33.689  1.00  0.00     0.023 A 
ATOM     62  C   UNL A   1      46.023  28.747  33.587  1.00  0.00     0.012 A 
ATOM     63  C   UNL A   1      44.953  26.747  34.467  1.00  0.00     0.148 A 
ATOM     64  C   UNL A   1      47.212  28.401  34.227  1.00  0.00     0.002 A 
ATOM     65  C   UNL A   1      46.128  26.432  35.140  1.00  0.00     0.091 A 
ATOM     66  F   UNL A   1      43.869  25.960  34.533  1.00  0.00    -0.205 F 
ATOM     67  C   UNL A   1      47.261  27.253  35.012  1.00  0.00     0.022 A 
BRANCH  65  68
ATOM     68  S   UNL A   1      46.253  25.020  36.243  1.00  0.00     0.127 S 
ATOM     69  O   UNL A   1      46.085  23.902  35.317  1.00  0.00    -0.237 OA
ATOM     70  O   UNL A   1      47.604  25.166  36.786  1.00  0.00    -0.237 OA
ATOM     71  O   UNL A   1      45.190  25.186  37.225  1.00  0.00    -0.744 OA
ENDBRANCH  65  68
ENDBRANCH  38  61
ENDBRANCH  12  13
ENDBRANCH   5   7
ENDBRANCH   2   3
ENDBRANCH   1   2
BRANCH   1  72
ATOM     72  C   UNL A   1      33.156  27.610  23.104  1.00  0.00     0.002 C 
BRANCH  72  73
ATOM     73  C   UNL A   1      31.967  26.888  22.461  1.00  0.00     0.002 C 
BRANCH  73  74
ATOM     74  C   UNL A   1      32.336  25.780  21.467  1.00  0.00     0.021 C 
BRANCH  74  75
ATOM     75  C   UNL A   1      33.218  24.683  22.057  1.00  0.00     0.116 C 
BRANCH  75  76
ATOM     76  N   UNL A   1      32.633  23.374  21.825  1.00  0.00    -0.354 N 
ATOM     77  C   UNL A   1      32.514  22.284  22.647  1.00  0.00     0.250 C 
ATOM     78  H   UNL A   1      32.259  23.247  20.923  1.00  0.00     0.163 HD
ATOM     79  O   UNL A   1      31.958  21.302  22.136  1.00  0.00    -0.272 OA
BRANCH  77  80
ATOM     80  C   UNL A   1      32.994  22.305  24.154  1.00  0.00     0.173 C 
ATOM     81  Cl  UNL A   1      32.072  20.918  24.956  1.00  0.00    -0.098 Cl
BRANCH  80  82
ATOM     82  C   UNL A   1      34.522  22.046  24.254  1.00  0.00    -0.013 A 
ATOM     83  C   UNL A   1      35.466  22.762  23.493  1.00  0.00     0.006 A 
ATOM     84  C   UNL A   1      35.016  21.038  25.114  1.00  0.00     0.006 A 
ATOM     85  C   UNL A   1      36.837  22.527  23.634  1.00  0.00     0.000 A 
ATOM     86  C   UNL A   1      36.385  20.793  25.241  1.00  0.00     0.000 A 
ATOM     87  C   UNL A   1      37.296  21.547  24.509  1.00  0.00     0.000 A 
ENDBRANCH  80  82
BRANCH  80  88
ATOM     88  C   UNL A   1      32.544  23.629  24.835  1.00  0.00    -0.013 A 
ATOM     89  C   UNL A   1      33.481  24.483  25.461  1.00  0.00     0.006 A 
ATOM     90  C   UNL A   1      31.185  23.980  24.956  1.00  0.00     0.006 A 
ATOM     91  C   UNL A   1      33.084  25.641  26.134  1.00  0.00     0.000 A 
ATOM     92  C   UNL A   1      30.787  25.132  25.644  1.00  0.00     0.000 A 
ATOM     93  C   UNL A   1      31.736  25.965  26.227  1.00  0.00     0.000 A 
ENDBRANCH  80  88
ENDBRANCH  77  80
ENDBRANCH  75  76
ENDBRANCH  74  75
ENDBRANCH  73  74
ENDBRANCH  72  73
ENDBRANCH   1  72
TORSDOF 18
ENDMDL
MODEL 2
REMARK VINA RESULT:     -11.6      1.727      2.635
REMARK SMILES O=C(NCCCCCCNC(=O)C(Cl)(c1ccccc1)c1ccccc1)c1ccc(-c2c3nc(c(-c4cccc(S(=O)(=O)[O-])c4F)c4ccc([nH]4)c(-c4cccc(S(=O)(=O)[O-])c4F)c4nc(c(-c5cccc(S(=O)(=O)[O-])c5F)c5ccc2[nH]5)C=C4)C=C3)cc1
REMARK SMILES IDX 5 1 4 2 3 3 1 4 2 5 27 7 28 8 89 9 29 10 88 11 30 12 31 13
REMARK SMILES IDX 32 14 82 15 33 16 87 17 81 18 83 19 34 20 86 21 80 22 79 23
REMARK SMILES IDX 35 25 67 26 47 27 66 28 48 29 51 30 65 31 84 32 49 33 50 34
REMARK SMILES IDX 64 36 85 37 52 38 36 39 37 40 45 41 38 42 40 43 46 44 39 45
REMARK SMILES IDX 41 46 42 47 43 48 44 49 68 50 69 51 77 52 70 53 72 54 78 55
REMARK SMILES IDX 71 56 73 57 74 58 75 59 76 60 53 61 54 62 62 63 55 64 57 65
REMARK SMILES IDX 63 66 56 67 58 68 59 69 60 70 61 71 6 72 7 73 8 74 9 75
REMARK SMILES IDX 10 76 11 77 12 79 13 80 14 81 15 82 16 83 20 84 17 85 19 86
REMARK SMILES IDX 18 87 21 88 22 89 26 90 23 91 25 92 24 93
REMARK H PARENT 3 6 83 24 51 35 10 78
REMARK Flexibility Score: inf
ROOT
ATOM      1  C   UNL A   1      33.362  28.864  24.274  1.00  0.00     0.021 C 
ENDROOT
BRANCH   1   2
ATOM      2  C   UNL A   1      33.026  29.123  25.738  1.00  0.00     0.116 C 
BRANCH   2   3
ATOM      3  N   UNL A   1      32.660  30.508  25.980  1.00  0.00    -0.352 N 
ATOM      4  O   UNL A   1      32.630  32.464  27.100  1.00  0.00    -0.269 OA
ATOM      5  C   UNL A   1      33.181  31.385  26.900  1.00  0.00     0.251 C 
ATOM      6  H   UNL A   1      31.942  30.866  25.410  1.00  0.00     0.163 HD
BRANCH   5   7
ATOM      7  C   UNL A   1      34.393  31.008  27.659  1.00  0.00     0.039 A 
ATOM      8  C   UNL A   1      35.409  31.943  27.883  1.00  0.00     0.014 A 
ATOM      9  C   UNL A   1      34.514  29.706  28.150  1.00  0.00     0.014 A 
ATOM     10  C   UNL A   1      36.593  31.544  28.491  1.00  0.00     0.010 A 
ATOM     11  C   UNL A   1      35.674  29.328  28.832  1.00  0.00     0.010 A 
ATOM     12  C   UNL A   1      36.732  30.237  28.987  1.00  0.00    -0.014 A 
BRANCH  12  13
ATOM     13  C   UNL A   1      37.956  29.871  29.743  1.00  0.00     0.031 A 
ATOM     14  C   UNL A   1      38.213  30.405  31.124  1.00  0.00     0.074 A 
ATOM     15  C   UNL A   1      38.847  29.047  29.156  1.00  0.00     0.049 A 
ATOM     16  N   UNL A   1      39.225  30.166  31.919  1.00  0.00    -0.248 NA
ATOM     17  C   UNL A   1      37.215  31.328  31.686  1.00  0.00     0.031 C 
ATOM     18  C   UNL A   1      38.721  28.503  27.801  1.00  0.00     0.029 A 
ATOM     19  N   UNL A   1      40.027  28.523  29.616  1.00  0.00    -0.354 N 
ATOM     20  C   UNL A   1      39.006  30.932  33.059  1.00  0.00     0.074 A 
ATOM     21  C   UNL A   1      37.768  31.652  32.848  1.00  0.00     0.031 C 
ATOM     22  C   UNL A   1      39.767  27.703  27.549  1.00  0.00     0.029 A 
ATOM     23  C   UNL A   1      40.660  27.714  28.701  1.00  0.00     0.049 A 
ATOM     24  H   UNL A   1      40.387  28.706  30.513  1.00  0.00     0.167 HD
ATOM     25  C   UNL A   1      39.761  31.013  34.180  1.00  0.00     0.034 A 
ATOM     26  C   UNL A   1      41.836  27.063  28.773  1.00  0.00     0.034 A 
ATOM     27  C   UNL A   1      40.975  30.268  34.393  1.00  0.00     0.049 A 
ATOM     28  C   UNL A   1      42.639  27.158  30.037  1.00  0.00     0.074 A 
ATOM     29  C   UNL A   1      41.780  30.239  35.520  1.00  0.00     0.029 A 
ATOM     30  N   UNL A   1      41.563  29.426  33.462  1.00  0.00    -0.354 N 
ATOM     31  N   UNL A   1      42.352  27.789  31.150  1.00  0.00    -0.248 NA
ATOM     32  C   UNL A   1      43.915  26.431  30.068  1.00  0.00     0.031 C 
ATOM     33  C   UNL A   1      42.863  29.391  35.262  1.00  0.00     0.029 A 
ATOM     34  C   UNL A   1      42.723  28.878  33.982  1.00  0.00     0.049 A 
ATOM     35  H   UNL A   1      41.208  29.245  32.561  1.00  0.00     0.167 HD
ATOM     36  C   UNL A   1      43.399  27.518  32.022  1.00  0.00     0.074 A 
ATOM     37  C   UNL A   1      44.312  26.641  31.316  1.00  0.00     0.031 C 
ATOM     38  C   UNL A   1      43.596  27.969  33.284  1.00  0.00     0.034 A 
BRANCH  25  39
ATOM     39  C   UNL A   1      39.274  31.905  35.294  1.00  0.00     0.023 A 
ATOM     40  C   UNL A   1      38.348  31.401  36.230  1.00  0.00     0.012 A 
ATOM     41  C   UNL A   1      39.788  33.206  35.463  1.00  0.00     0.148 A 
ATOM     42  C   UNL A   1      37.922  32.184  37.301  1.00  0.00     0.002 A 
ATOM     43  C   UNL A   1      39.385  33.969  36.554  1.00  0.00     0.091 A 
ATOM     44  F   UNL A   1      40.652  33.677  34.552  1.00  0.00    -0.205 F 
ATOM     45  C   UNL A   1      38.447  33.463  37.469  1.00  0.00     0.022 A 
BRANCH  43  46
ATOM     46  S   UNL A   1      40.059  35.600  36.897  1.00  0.00     0.127 S 
ATOM     47  O   UNL A   1      39.440  35.909  38.185  1.00  0.00    -0.237 OA
ATOM     48  O   UNL A   1      41.497  35.334  36.960  1.00  0.00    -0.237 OA
ATOM     49  O   UNL A   1      39.648  36.444  35.784  1.00  0.00    -0.744 OA
ENDBRANCH  43  46
ENDBRANCH  25  39
BRANCH  26  50
ATOM     50  C   UNL A   1      42.285  26.223  27.628  1.00  0.00     0.023 A 
ATOM     51  C   UNL A   1      43.202  26.753  26.702  1.00  0.00     0.012 A 
ATOM     52  C   UNL A   1      41.858  24.888  27.487  1.00  0.00     0.148 A 
ATOM     53  C   UNL A   1      43.671  25.976  25.643  1.00  0.00     0.002 A 
ATOM     54  C   UNL A   1      42.374  24.102  26.464  1.00  0.00     0.091 A 
ATOM     55  F   UNL A   1      40.971  24.407  28.370  1.00  0.00    -0.205 F 
ATOM     56  C   UNL A   1      43.268  24.648  25.531  1.00  0.00     0.022 A 
BRANCH  54  57
ATOM     57  S   UNL A   1      42.019  22.345  26.339  1.00  0.00     0.127 S 
ATOM     58  O   UNL A   1      42.813  21.962  25.175  1.00  0.00    -0.237 OA
ATOM     59  O   UNL A   1      42.520  21.841  27.618  1.00  0.00    -0.237 OA
ATOM     60  O   UNL A   1      40.574  22.251  26.184  1.00  0.00    -0.744 OA
ENDBRANCH  54  57
ENDBRANCH  26  50
BRANCH  38  61
ATOM     61  C   UNL A   1      44.841  27.508  33.996  1.00  0.00     0.023 A 
ATOM     62  C   UNL A   1      46.010  28.291  33.930  1.00  0.00     0.012 A 
ATOM     63  C   UNL A   1      44.834  26.336  34.775  1.00  0.00     0.148 A 
ATOM     64  C   UNL A   1      47.164  27.899  34.606  1.00  0.00     0.002 A 
ATOM     65  C   UNL A   1      45.974  25.975  35.483  1.00  0.00     0.091 A 
ATOM     66  F   UNL A   1      43.718  25.594  34.807  1.00  0.00    -0.205 F 
ATOM     67  C   UNL A   1      47.143  26.749  35.391  1.00  0.00     0.022 A 
BRANCH  65  68
ATOM     68  S   UNL A   1      46.009  24.559  36.588  1.00  0.00     0.127 S 
ATOM     69  O   UNL A   1      47.369  24.626  37.118  1.00  0.00    -0.237 OA
ATOM     70  O   UNL A   1      44.960  24.889  37.553  1.00  0.00    -0.237 OA
ATOM     71  O   UNL A   1      45.715  23.398  35.757  1.00  0.00    -0.744 OA
ENDBRANCH  65  68
ENDBRANCH  38  61
ENDBRANCH  12  13
ENDBRANCH   5   7
ENDBRANCH   2   3
ENDBRANCH   1   2
BRANCH   1  72
ATOM     72  C   UNL A   1      33.258  27.398  23.847  1.00  0.00     0.002 C 
BRANCH  72  73
ATOM     73  C   UNL A   1      33.781  26.384  24.870  1.00  0.00     0.002 C 
BRANCH  73  74
ATOM     74  C   UNL A   1      32.708  25.503  25.522  1.00  0.00     0.021 C 
BRANCH  74  75
ATOM     75  C   UNL A   1      31.966  24.596  24.543  1.00  0.00     0.116 C 
BRANCH  75  76
ATOM     76  N   UNL A   1      31.544  23.370  25.197  1.00  0.00    -0.354 N 
ATOM     77  C   UNL A   1      31.945  22.072  25.018  1.00  0.00     0.250 C 
ATOM     78  H   UNL A   1      30.853  23.492  25.887  1.00  0.00     0.163 HD
ATOM     79  O   UNL A   1      31.377  21.245  25.745  1.00  0.00    -0.272 OA
BRANCH  77  80
ATOM     80  C   UNL A   1      33.091  21.673  24.004  1.00  0.00     0.173 C 
ATOM     81  Cl  UNL A   1      32.534  22.354  22.379  1.00  0.00    -0.098 Cl
BRANCH  80  82
ATOM     82  C   UNL A   1      34.443  22.322  24.409  1.00  0.00    -0.013 A 
ATOM     83  C   UNL A   1      35.409  22.717  23.464  1.00  0.00     0.006 A 
ATOM     84  C   UNL A   1      34.757  22.514  25.774  1.00  0.00     0.006 A 
ATOM     85  C   UNL A   1      36.601  23.331  23.862  1.00  0.00     0.000 A 
ATOM     86  C   UNL A   1      35.956  23.112  26.170  1.00  0.00     0.000 A 
ATOM     87  C   UNL A   1      36.872  23.531  25.212  1.00  0.00     0.000 A 
ENDBRANCH  80  82
BRANCH  80  88
ATOM     88  C   UNL A   1      33.163  20.125  23.870  1.00  0.00    -0.013 A 
ATOM     89  C   UNL A   1      34.093  19.369  24.620  1.00  0.00     0.006 A 
ATOM     90  C   UNL A   1      32.392  19.423  22.922  1.00  0.00     0.006 A 
ATOM     91  C   UNL A   1      34.214  17.986  24.460  1.00  0.00     0.000 A 
ATOM     92  C   UNL A   1      32.526  18.040  22.751  1.00  0.00     0.000 A 
ATOM     93  C   UNL A   1      33.432  17.322  23.524  1.00  0.00     0.000 A 
ENDBRANCH  80  88
ENDBRANCH  77  80
ENDBRANCH  75  76
ENDBRANCH  74  75
ENDBRANCH  73  74
ENDBRANCH  72  73
ENDBRANCH   1  72
TORSDOF 18
ENDMDL
MODEL 3
REMARK VINA RESULT:     -11.6      2.447      8.084
REMARK SMILES O=C(NCCCCCCNC(=O)C(Cl)(c1ccccc1)c1ccccc1)c1ccc(-c2c3nc(c(-c4cccc(S(=O)(=O)[O-])c4F)c4ccc([nH]4)c(-c4cccc(S(=O)(=O)[O-])c4F)c4nc(c(-c5cccc(S(=O)(=O)[O-])c5F)c5ccc2[nH]5)C=C4)C=C3)cc1
REMARK SMILES IDX 5 1 4 2 3 3 1 4 2 5 27 7 28 8 89 9 29 10 88 11 30 12 31 13
REMARK SMILES IDX 32 14 82 15 33 16 87 17 81 18 83 19 34 20 86 21 80 22 79 23
REMARK SMILES IDX 35 25 67 26 47 27 66 28 48 29 51 30 65 31 84 32 49 33 50 34
REMARK SMILES IDX 64 36 85 37 52 38 36 39 37 40 45 41 38 42 40 43 46 44 39 45
REMARK SMILES IDX 41 46 42 47 43 48 44 49 68 50 69 51 77 52 70 53 72 54 78 55
REMARK SMILES IDX 71 56 73 57 74 58 75 59 76 60 53 61 54 62 62 63 55 64 57 65
REMARK SMILES IDX 63 66 56 67 58 68 59 69 60 70 61 71 6 72 7 73 8 74 9 75
REMARK SMILES IDX 10 76 11 77 12 79 13 80 14 81 15 82 16 83 20 84 17 85 19 86
REMARK SMILES IDX 18 87 21 88 22 89 26 90 23 91 25 92 24 93
REMARK H PARENT 3 6 83 24 51 35 10 78
REMARK Flexibility Score: inf
ROOT
ATOM      1  C   UNL A   1      34.028  28.502  24.699  1.00  0.00     0.021 C 
ENDROOT
BRANCH   1   2
ATOM      2  C   UNL A   1      34.298  28.584  26.196  1.00  0.00     0.116 C 
BRANCH   2   3
ATOM      3  N   UNL A   1      33.955  29.884  26.745  1.00  0.00    -0.352 N 
ATOM      4  O   UNL A   1      34.101  31.618  28.178  1.00  0.00    -0.269 OA
ATOM      5  C   UNL A   1      34.627  30.622  27.689  1.00  0.00     0.251 C 
ATOM      6  H   UNL A   1      33.130  30.292  26.395  1.00  0.00     0.163 HD
BRANCH   5   7
ATOM      7  C   UNL A   1      35.974  30.192  28.124  1.00  0.00     0.039 A 
ATOM      8  C   UNL A   1      37.095  30.471  27.337  1.00  0.00     0.014 A 
ATOM      9  C   UNL A   1      36.115  29.504  29.331  1.00  0.00     0.014 A 
ATOM     10  C   UNL A   1      38.336  29.958  27.696  1.00  0.00     0.010 A 
ATOM     11  C   UNL A   1      37.377  29.056  29.730  1.00  0.00     0.010 A 
ATOM     12  C   UNL A   1      38.493  29.259  28.904  1.00  0.00    -0.014 A 
BRANCH  12  13
ATOM     13  C   UNL A   1      39.850  28.830  29.326  1.00  0.00     0.031 A 
ATOM     14  C   UNL A   1      40.546  27.671  28.668  1.00  0.00     0.074 A 
ATOM     15  C   UNL A   1      40.452  29.505  30.326  1.00  0.00     0.049 A 
ATOM     16  N   UNL A   1      41.737  27.186  28.910  1.00  0.00    -0.248 NA
ATOM     17  C   UNL A   1      39.814  26.960  27.609  1.00  0.00     0.031 C 
ATOM     18  C   UNL A   1      39.853  30.619  31.066  1.00  0.00     0.029 A 
ATOM     19  N   UNL A   1      41.691  29.358  30.893  1.00  0.00    -0.354 N 
ATOM     20  C   UNL A   1      41.886  26.095  28.062  1.00  0.00     0.074 A 
ATOM     21  C   UNL A   1      40.659  25.983  27.304  1.00  0.00     0.031 C 
ATOM     22  C   UNL A   1      40.734  31.071  31.970  1.00  0.00     0.029 A 
ATOM     23  C   UNL A   1      41.937  30.251  31.910  1.00  0.00     0.049 A 
ATOM     24  H   UNL A   1      42.342  28.679  30.602  1.00  0.00     0.167 HD
ATOM     25  C   UNL A   1      42.955  25.275  27.920  1.00  0.00     0.034 A 
ATOM     26  C   UNL A   1      43.007  30.389  32.715  1.00  0.00     0.034 A 
ATOM     27  C   UNL A   1      44.184  25.413  28.658  1.00  0.00     0.049 A 
ATOM     28  C   UNL A   1      44.182  29.476  32.519  1.00  0.00     0.074 A 
ATOM     29  C   UNL A   1      45.345  24.667  28.543  1.00  0.00     0.029 A 
ATOM     30  N   UNL A   1      44.413  26.356  29.648  1.00  0.00    -0.354 N 
ATOM     31  N   UNL A   1      44.351  28.530  31.626  1.00  0.00    -0.248 NA
ATOM     32  C   UNL A   1      45.325  29.665  33.423  1.00  0.00     0.031 C 
ATOM     33  C   UNL A   1      46.269  25.149  29.477  1.00  0.00     0.029 A 
ATOM     34  C   UNL A   1      45.691  26.207  30.160  1.00  0.00     0.049 A 
ATOM     35  H   UNL A   1      43.761  27.033  29.945  1.00  0.00     0.167 HD
ATOM     36  C   UNL A   1      45.627  28.026  31.845  1.00  0.00     0.074 A 
ATOM     37  C   UNL A   1      46.197  28.792  32.936  1.00  0.00     0.031 C 
ATOM     38  C   UNL A   1      46.261  27.009  31.213  1.00  0.00     0.034 A 
BRANCH  25  39
ATOM     39  C   UNL A   1      42.867  24.175  26.893  1.00  0.00     0.023 A 
ATOM     40  C   UNL A   1      43.507  24.339  25.648  1.00  0.00     0.012 A 
ATOM     41  C   UNL A   1      42.225  22.955  27.184  1.00  0.00     0.148 A 
ATOM     42  C   UNL A   1      43.488  23.317  24.699  1.00  0.00     0.002 A 
ATOM     43  C   UNL A   1      42.241  21.927  26.248  1.00  0.00     0.091 A 
ATOM     44  F   UNL A   1      41.604  22.824  28.365  1.00  0.00    -0.205 F 
ATOM     45  C   UNL A   1      42.865  22.109  25.002  1.00  0.00     0.022 A 
BRANCH  43  46
ATOM     46  S   UNL A   1      41.529  20.309  26.572  1.00  0.00     0.127 S 
ATOM     47  O   UNL A   1      40.097  20.608  26.551  1.00  0.00    -0.237 OA
ATOM     48  O   UNL A   1      42.005  19.527  25.429  1.00  0.00    -0.237 OA
ATOM     49  O   UNL A   1      42.064  19.888  27.858  1.00  0.00    -0.744 OA
ENDBRANCH  43  46
ENDBRANCH  25  39
BRANCH  26  50
ATOM     50  C   UNL A   1      43.026  31.472  33.737  1.00  0.00     0.023 A 
ATOM     51  C   UNL A   1      43.558  32.730  33.398  1.00  0.00     0.012 A 
ATOM     52  C   UNL A   1      42.467  31.281  35.016  1.00  0.00     0.148 A 
ATOM     53  C   UNL A   1      43.552  33.775  34.323  1.00  0.00     0.002 A 
ATOM     54  C   UNL A   1      42.412  32.344  35.911  1.00  0.00     0.091 A 
ATOM     55  F   UNL A   1      41.982  30.071  35.324  1.00  0.00    -0.205 F 
ATOM     56  C   UNL A   1      42.968  33.586  35.573  1.00  0.00     0.022 A 
BRANCH  54  57
ATOM     57  S   UNL A   1      41.547  32.224  37.481  1.00  0.00     0.127 S 
ATOM     58  O   UNL A   1      42.357  31.239  38.193  1.00  0.00    -0.237 OA
ATOM     59  O   UNL A   1      41.652  33.592  37.992  1.00  0.00    -0.237 OA
ATOM     60  O   UNL A   1      40.191  31.814  37.147  1.00  0.00    -0.744 OA
ENDBRANCH  54  57
ENDBRANCH  26  50
BRANCH  38  61
ATOM     61  C   UNL A   1      47.655  26.673  31.671  1.00  0.00     0.023 A 
ATOM     62  C   UNL A   1      48.756  27.323  31.080  1.00  0.00     0.012 A 
ATOM     63  C   UNL A   1      47.870  25.762  32.722  1.00  0.00     0.148 A 
ATOM     64  C   UNL A   1      50.054  27.049  31.509  1.00  0.00     0.002 A 
ATOM     65  C   UNL A   1      49.163  25.528  33.176  1.00  0.00     0.091 A 
ATOM     66  F   UNL A   1      46.810  25.138  33.257  1.00  0.00    -0.205 F 
ATOM     67  C   UNL A   1      50.256  26.163  32.563  1.00  0.00     0.022 A 
BRANCH  65  68
ATOM     68  S   UNL A   1      49.508  24.470  34.586  1.00  0.00     0.127 S 
ATOM     69  O   UNL A   1      48.724  25.110  35.640  1.00  0.00    -0.237 OA
ATOM     70  O   UNL A   1      48.990  23.176  34.139  1.00  0.00    -0.237 OA
ATOM     71  O   UNL A   1      50.953  24.507  34.767  1.00  0.00    -0.744 OA
ENDBRANCH  65  68
ENDBRANCH  38  61
ENDBRANCH  12  13
ENDBRANCH   5   7
ENDBRANCH   2   3
ENDBRANCH   1   2
BRANCH   1  72
ATOM     72  C   UNL A   1      33.608  27.116  24.203  1.00  0.00     0.002 C 
BRANCH  72  73
ATOM     73  C   UNL A   1      33.927  25.960  25.156  1.00  0.00     0.002 C 
BRANCH  73  74
ATOM     74  C   UNL A   1      32.705  25.260  25.764  1.00  0.00     0.021 C 
BRANCH  74  75
ATOM     75  C   UNL A   1      31.918  24.406  24.772  1.00  0.00     0.116 C 
BRANCH  75  76
ATOM     76  N   UNL A   1      31.530  23.143  25.376  1.00  0.00    -0.354 N 
ATOM     77  C   UNL A   1      31.939  21.861  25.118  1.00  0.00     0.250 C 
ATOM     78  H   UNL A   1      30.860  23.222  26.092  1.00  0.00     0.163 HD
ATOM     79  O   UNL A   1      31.404  20.991  25.819  1.00  0.00    -0.272 OA
BRANCH  77  80
ATOM     80  C   UNL A   1      33.056  21.528  24.050  1.00  0.00     0.173 C 
ATOM     81  Cl  UNL A   1      32.406  22.220  22.465  1.00  0.00    -0.098 Cl
BRANCH  80  82
ATOM     82  C   UNL A   1      34.398  22.222  24.414  1.00  0.00    -0.013 A 
ATOM     83  C   UNL A   1      35.274  22.739  23.441  1.00  0.00     0.006 A 
ATOM     84  C   UNL A   1      34.797  22.330  25.766  1.00  0.00     0.006 A 
ATOM     85  C   UNL A   1      36.457  23.389  23.805  1.00  0.00     0.000 A 
ATOM     86  C   UNL A   1      35.988  22.964  26.127  1.00  0.00     0.000 A 
ATOM     87  C   UNL A   1      36.811  23.504  25.146  1.00  0.00     0.000 A 
ENDBRANCH  80  82
BRANCH  80  88
ATOM     88  C   UNL A   1      33.182  19.987  23.879  1.00  0.00    -0.013 A 
ATOM     89  C   UNL A   1      34.190  19.258  24.550  1.00  0.00     0.006 A 
ATOM     90  C   UNL A   1      32.379  19.271  22.970  1.00  0.00     0.006 A 
ATOM     91  C   UNL A   1      34.357  17.884  24.354  1.00  0.00     0.000 A 
ATOM     92  C   UNL A   1      32.557  17.898  22.762  1.00  0.00     0.000 A 
ATOM     93  C   UNL A   1      33.541  17.205  23.458  1.00  0.00     0.000 A 
ENDBRANCH  80  88
ENDBRANCH  77  80
ENDBRANCH  75  76
ENDBRANCH  74  75
ENDBRANCH  73  74
ENDBRANCH  72  73
ENDBRANCH   1  72
TORSDOF 18
ENDMDL
