MODEL 1
REMARK VINA RESULT:      -8.7      0.000      0.000
REMARK SMILES COc1cc(/C=C2/SC(=S)N(c3ccc(C)cc3C)C2=O)ccc1O[C@@H](C)C(=O)NCCCCCCNC(=O)c1ccc(-c2c3nc(c(-c4cccc(S(=O)(=O)[O-])c4F)c4ccc([nH]4)c(-c4cccc(S(=O)(=O)[O-])c4F)c4nc(c(-c5cccc(S(=O)(=O)[O-])c5F)c5ccc2[nH]5)C=C4)C=C3)cc1
REMARK SMILES IDX 33 1 32 2 31 3 30 4 28 5 29 6 26 8 27 9 25 10 24 11 3 12
REMARK SMILES IDX 4 13 5 14 23 15 22 16 2 17 1 18 6 19 7 20 8 21 20 22 9 23
REMARK SMILES IDX 11 24 21 25 10 26 12 27 13 28 18 29 14 30 17 31 19 32 15 33
REMARK SMILES IDX 16 34 34 35 35 36 36 37 37 38 38 39 39 41 40 42 41 43 102 44
REMARK SMILES IDX 42 45 101 46 43 47 44 48 45 49 95 50 46 51 100 52 94 53
REMARK SMILES IDX 96 54 47 55 99 56 93 57 92 58 48 60 80 61 60 62 79 63 61 64
REMARK SMILES IDX 64 65 78 66 97 67 62 68 63 69 77 71 98 72 65 73 49 74 50 75
REMARK SMILES IDX 58 76 51 77 53 78 59 79 52 80 54 81 55 82 56 83 57 84 81 85
REMARK SMILES IDX 82 86 90 87 83 88 85 89 91 90 84 91 86 92 87 93 88 94 89 95
REMARK SMILES IDX 66 96 67 97 75 98 68 99 70 100 76 101 69 102 71 103 72 104
REMARK SMILES IDX 73 105 74 106
REMARK H PARENT 30 7 37 40 96 59 64 70
REMARK Flexibility Score: inf
ROOT
ATOM      1  C   UNL A   1      43.815  23.299  30.716  1.00  0.00     0.002 C 
ENDROOT
BRANCH   1   2
ATOM      2  C   UNL A   1      44.301  23.120  29.271  1.00  0.00     0.021 C 
BRANCH   2   3
ATOM      3  C   UNL A   1      45.342  24.128  28.785  1.00  0.00     0.116 C 
BRANCH   3   4
ATOM      4  N   UNL A   1      45.572  24.102  27.360  1.00  0.00    -0.353 N 
ATOM      5  C   UNL A   1      45.161  24.876  26.329  1.00  0.00     0.260 C 
ATOM      6  O   UNL A   1      45.863  24.738  25.307  1.00  0.00    -0.271 OA
ATOM      7  H   UNL A   1      46.155  23.361  27.077  1.00  0.00     0.163 HD
BRANCH   5   8
ATOM      8  C   UNL A   1      43.945  25.909  26.249  1.00  0.00     0.259 C 
ATOM      9  C   UNL A   1      43.082  25.508  25.031  1.00  0.00     0.064 C 
BRANCH   8  10
ATOM     10  O   UNL A   1      43.616  27.268  26.417  1.00  0.00    -0.477 OA
BRANCH  10  11
ATOM     11  C   UNL A   1      42.399  27.604  26.890  1.00  0.00     0.162 A 
ATOM     12  C   UNL A   1      41.996  27.244  28.181  1.00  0.00     0.161 A 
ATOM     13  C   UNL A   1      40.724  27.611  28.642  1.00  0.00     0.058 A 
ATOM     14  C   UNL A   1      39.890  28.401  27.834  1.00  0.00    -0.020 A 
ATOM     15  C   UNL A   1      41.644  28.508  26.157  1.00  0.00     0.051 A 
ATOM     16  C   UNL A   1      40.420  28.941  26.655  1.00  0.00     0.012 A 
BRANCH  12  17
ATOM     17  O   UNL A   1      42.889  26.649  29.033  1.00  0.00    -0.493 OA
ATOM     18  C   UNL A   1      43.805  27.556  29.634  1.00  0.00     0.278 C 
ENDBRANCH  12  17
BRANCH  14  19
ATOM     19  C   UNL A   1      38.505  28.709  28.227  1.00  0.00     0.029 C 
ATOM     20  C   UNL A   1      38.111  29.689  29.063  1.00  0.00     0.081 C 
ATOM     21  S   UNL A   1      36.457  29.909  29.506  1.00  0.00    -0.054 SA
ATOM     22  C   UNL A   1      38.936  30.736  29.755  1.00  0.00     0.270 C 
ATOM     23  C   UNL A   1      36.779  31.400  30.385  1.00  0.00     0.152 C 
ATOM     24  N   UNL A   1      38.140  31.530  30.572  1.00  0.00    -0.261 N 
ATOM     25  O   UNL A   1      40.140  30.876  29.586  1.00  0.00    -0.268 OA
ATOM     26  S   UNL A   1      35.561  32.482  30.762  1.00  0.00    -0.051 S 
BRANCH  24  27
ATOM     27  C   UNL A   1      38.755  32.422  31.505  1.00  0.00     0.054 A 
ATOM     28  C   UNL A   1      38.788  32.077  32.869  1.00  0.00     0.027 A 
ATOM     29  C   UNL A   1      39.206  33.702  31.120  1.00  0.00    -0.027 A 
ATOM     30  C   UNL A   1      39.269  32.966  33.834  1.00  0.00     0.005 A 
ATOM     31  C   UNL A   1      39.715  34.575  32.104  1.00  0.00     0.009 A 
ATOM     32  C   UNL A   1      39.112  34.255  29.722  1.00  0.00     0.046 C 
ATOM     33  C   UNL A   1      39.734  34.225  33.458  1.00  0.00    -0.051 A 
ATOM     34  C   UNL A   1      40.203  35.198  34.498  1.00  0.00     0.044 C 
ENDBRANCH  24  27
ENDBRANCH  14  19
ENDBRANCH  10  11
ENDBRANCH   8  10
ENDBRANCH   5   8
ENDBRANCH   3   4
ENDBRANCH   2   3
ENDBRANCH   1   2
BRANCH   1  35
ATOM     35  C   UNL A   1      44.251  24.579  31.444  1.00  0.00     0.002 C 
BRANCH  35  36
ATOM     36  C   UNL A   1      44.551  24.460  32.943  1.00  0.00     0.021 C 
BRANCH  36  37
ATOM     37  C   UNL A   1      44.245  25.694  33.796  1.00  0.00     0.116 C 
BRANCH  37  38
ATOM     38  N   UNL A   1      42.939  25.641  34.435  1.00  0.00    -0.352 N 
ATOM     39  C   UNL A   1      42.086  26.639  34.852  1.00  0.00     0.251 C 
ATOM     40  H   UNL A   1      42.605  24.728  34.599  1.00  0.00     0.163 HD
ATOM     41  O   UNL A   1      41.088  26.331  35.502  1.00  0.00    -0.269 OA
BRANCH  39  42
ATOM     42  C   UNL A   1      42.344  28.068  34.548  1.00  0.00     0.039 A 
ATOM     43  C   UNL A   1      41.285  28.979  34.553  1.00  0.00     0.014 A 
ATOM     44  C   UNL A   1      43.616  28.515  34.199  1.00  0.00     0.014 A 
ATOM     45  C   UNL A   1      41.523  30.339  34.300  1.00  0.00     0.010 A 
ATOM     46  C   UNL A   1      43.871  29.876  34.013  1.00  0.00     0.010 A 
ATOM     47  C   UNL A   1      42.828  30.809  34.074  1.00  0.00    -0.014 A 
BRANCH  47  48
ATOM     48  C   UNL A   1      43.128  32.266  33.971  1.00  0.00     0.031 A 
ATOM     49  C   UNL A   1      43.267  33.129  35.200  1.00  0.00     0.074 A 
ATOM     50  C   UNL A   1      43.175  32.840  32.750  1.00  0.00     0.049 A 
ATOM     51  N   UNL A   1      43.469  34.420  35.280  1.00  0.00    -0.248 NA
ATOM     52  C   UNL A   1      43.142  32.463  36.506  1.00  0.00     0.031 C 
ATOM     53  C   UNL A   1      42.967  32.141  31.480  1.00  0.00     0.029 A 
ATOM     54  N   UNL A   1      43.381  34.146  32.375  1.00  0.00    -0.354 N 
ATOM     55  C   UNL A   1      43.483  34.725  36.637  1.00  0.00     0.074 A 
ATOM     56  C   UNL A   1      43.228  33.488  37.344  1.00  0.00     0.031 C 
ATOM     57  C   UNL A   1      43.056  33.021  30.470  1.00  0.00     0.029 A 
ATOM     58  C   UNL A   1      43.300  34.352  31.017  1.00  0.00     0.049 A 
ATOM     59  H   UNL A   1      43.570  34.868  33.019  1.00  0.00     0.167 HD
ATOM     60  C   UNL A   1      43.721  35.915  37.241  1.00  0.00     0.034 A 
ATOM     61  C   UNL A   1      43.402  35.482  30.289  1.00  0.00     0.034 A 
ATOM     62  C   UNL A   1      44.012  37.139  36.542  1.00  0.00     0.049 A 
ATOM     63  C   UNL A   1      43.686  36.785  30.986  1.00  0.00     0.074 A 
ATOM     64  C   UNL A   1      44.341  38.375  37.074  1.00  0.00     0.029 A 
ATOM     65  N   UNL A   1      44.007  37.289  35.165  1.00  0.00    -0.354 N 
ATOM     66  N   UNL A   1      43.862  37.014  32.264  1.00  0.00    -0.248 NA
ATOM     67  C   UNL A   1      43.819  37.979  30.138  1.00  0.00     0.031 C 
ATOM     68  C   UNL A   1      44.525  39.274  36.017  1.00  0.00     0.029 A 
ATOM     69  C   UNL A   1      44.321  38.594  34.828  1.00  0.00     0.049 A 
ATOM     70  H   UNL A   1      43.809  36.570  34.521  1.00  0.00     0.167 HD
ATOM     71  C   UNL A   1      44.159  38.368  32.369  1.00  0.00     0.074 A 
ATOM     72  C   UNL A   1      44.163  38.904  31.024  1.00  0.00     0.031 C 
ATOM     73  C   UNL A   1      44.385  39.105  33.484  1.00  0.00     0.034 A 
BRANCH  60  74
ATOM     74  C   UNL A   1      43.768  35.943  38.748  1.00  0.00     0.023 A 
ATOM     75  C   UNL A   1      44.998  35.707  39.396  1.00  0.00     0.012 A 
ATOM     76  C   UNL A   1      42.639  36.292  39.516  1.00  0.00     0.148 A 
ATOM     77  C   UNL A   1      45.101  35.793  40.783  1.00  0.00     0.002 A 
ATOM     78  C   UNL A   1      42.758  36.412  40.897  1.00  0.00     0.091 A 
ATOM     79  F   UNL A   1      41.475  36.499  38.884  1.00  0.00    -0.205 F 
ATOM     80  C   UNL A   1      43.984  36.156  41.532  1.00  0.00     0.022 A 
BRANCH  78  81
ATOM     81  S   UNL A   1      41.399  36.943  41.949  1.00  0.00     0.127 S 
ATOM     82  O   UNL A   1      42.092  37.219  43.206  1.00  0.00    -0.237 OA
ATOM     83  O   UNL A   1      40.913  38.132  41.248  1.00  0.00    -0.237 OA
ATOM     84  O   UNL A   1      40.460  35.832  41.983  1.00  0.00    -0.744 OA
ENDBRANCH  78  81
ENDBRANCH  60  74
BRANCH  61  85
ATOM     85  C   UNL A   1      43.299  35.424  28.802  1.00  0.00     0.023 A 
ATOM     86  C   UNL A   1      42.108  35.839  28.176  1.00  0.00     0.012 A 
ATOM     87  C   UNL A   1      44.372  34.976  28.007  1.00  0.00     0.148 A 
ATOM     88  C   UNL A   1      41.974  35.777  26.789  1.00  0.00     0.002 A 
ATOM     89  C   UNL A   1      44.252  34.970  26.623  1.00  0.00     0.091 A 
ATOM     90  F   UNL A   1      45.492  34.565  28.619  1.00  0.00    -0.205 F 
ATOM     91  C   UNL A   1      43.048  35.352  26.012  1.00  0.00     0.022 A 
BRANCH  89  92
ATOM     92  S   UNL A   1      45.640  34.571  25.554  1.00  0.00     0.127 S 
ATOM     93  O   UNL A   1      46.511  35.726  25.749  1.00  0.00    -0.237 OA
ATOM     94  O   UNL A   1      46.132  33.322  26.135  1.00  0.00    -0.237 OA
ATOM     95  O   UNL A   1      45.063  34.418  24.224  1.00  0.00    -0.744 OA
ENDBRANCH  89  92
ENDBRANCH  61  85
BRANCH  73  96
ATOM     96  C   UNL A   1      44.683  40.571  33.306  1.00  0.00     0.023 A 
ATOM     97  C   UNL A   1      46.017  40.993  33.140  1.00  0.00     0.012 A 
ATOM     98  C   UNL A   1      43.643  41.518  33.225  1.00  0.00     0.148 A 
ATOM     99  C   UNL A   1      46.314  42.337  32.920  1.00  0.00     0.002 A 
ATOM    100  C   UNL A   1      43.942  42.849  32.964  1.00  0.00     0.091 A 
ATOM    101  F   UNL A   1      42.382  41.098  33.404  1.00  0.00    -0.205 F 
ATOM    102  C   UNL A   1      45.277  43.263  32.821  1.00  0.00     0.022 A 
BRANCH 100 103
ATOM    103  S   UNL A   1      42.673  44.101  32.733  1.00  0.00     0.127 S 
ATOM    104  O   UNL A   1      41.930  43.564  31.594  1.00  0.00    -0.237 OA
ATOM    105  O   UNL A   1      41.955  44.052  34.007  1.00  0.00    -0.237 OA
ATOM    106  O   UNL A   1      43.380  45.349  32.483  1.00  0.00    -0.744 OA
ENDBRANCH 100 103
ENDBRANCH  73  96
ENDBRANCH  47  48
ENDBRANCH  39  42
ENDBRANCH  37  38
ENDBRANCH  36  37
ENDBRANCH  35  36
ENDBRANCH   1  35
TORSDOF 21
ENDMDL
MODEL 2
REMARK VINA RESULT:      -8.4      6.891     11.579
REMARK SMILES COc1cc(/C=C2/SC(=S)N(c3ccc(C)cc3C)C2=O)ccc1O[C@@H](C)C(=O)NCCCCCCNC(=O)c1ccc(-c2c3nc(c(-c4cccc(S(=O)(=O)[O-])c4F)c4ccc([nH]4)c(-c4cccc(S(=O)(=O)[O-])c4F)c4nc(c(-c5cccc(S(=O)(=O)[O-])c5F)c5ccc2[nH]5)C=C4)C=C3)cc1
REMARK SMILES IDX 33 1 32 2 31 3 30 4 28 5 29 6 26 8 27 9 25 10 24 11 3 12
REMARK SMILES IDX 4 13 5 14 23 15 22 16 2 17 1 18 6 19 7 20 8 21 20 22 9 23
REMARK SMILES IDX 11 24 21 25 10 26 12 27 13 28 18 29 14 30 17 31 19 32 15 33
REMARK SMILES IDX 16 34 34 35 35 36 36 37 37 38 38 39 39 41 40 42 41 43 102 44
REMARK SMILES IDX 42 45 101 46 43 47 44 48 45 49 95 50 46 51 100 52 94 53
REMARK SMILES IDX 96 54 47 55 99 56 93 57 92 58 48 60 80 61 60 62 79 63 61 64
REMARK SMILES IDX 64 65 78 66 97 67 62 68 63 69 77 71 98 72 65 73 49 74 50 75
REMARK SMILES IDX 58 76 51 77 53 78 59 79 52 80 54 81 55 82 56 83 57 84 81 85
REMARK SMILES IDX 82 86 90 87 83 88 85 89 91 90 84 91 86 92 87 93 88 94 89 95
REMARK SMILES IDX 66 96 67 97 75 98 68 99 70 100 76 101 69 102 71 103 72 104
REMARK SMILES IDX 73 105 74 106
REMARK H PARENT 30 7 37 40 96 59 64 70
REMARK Flexibility Score: inf
ROOT
ATOM      1  C   UNL A   1      41.789  27.711  26.940  1.00  0.00     0.002 C 
ENDROOT
BRANCH   1   2
ATOM      2  C   UNL A   1      41.773  28.523  28.243  1.00  0.00     0.021 C 
BRANCH   2   3
ATOM      3  C   UNL A   1      40.550  29.412  28.463  1.00  0.00     0.116 C 
BRANCH   3   4
ATOM      4  N   UNL A   1      40.000  29.346  29.797  1.00  0.00    -0.353 N 
ATOM      5  C   UNL A   1      38.790  29.635  30.329  1.00  0.00     0.260 C 
ATOM      6  O   UNL A   1      38.611  29.106  31.444  1.00  0.00    -0.271 OA
ATOM      7  H   UNL A   1      40.646  29.018  30.464  1.00  0.00     0.163 HD
BRANCH   5   8
ATOM      8  C   UNL A   1      37.603  30.528  29.740  1.00  0.00     0.259 C 
ATOM      9  C   UNL A   1      38.222  31.865  29.276  1.00  0.00     0.064 C 
BRANCH   8  10
ATOM     10  O   UNL A   1      36.254  30.875  29.948  1.00  0.00    -0.477 OA
BRANCH  10  11
ATOM     11  C   UNL A   1      35.367  30.726  28.944  1.00  0.00     0.162 A 
ATOM     12  C   UNL A   1      34.392  31.696  28.683  1.00  0.00     0.161 A 
ATOM     13  C   UNL A   1      33.486  31.508  27.630  1.00  0.00     0.058 A 
ATOM     14  C   UNL A   1      33.608  30.385  26.796  1.00  0.00    -0.020 A 
ATOM     15  C   UNL A   1      35.584  29.702  28.033  1.00  0.00     0.051 A 
ATOM     16  C   UNL A   1      34.737  29.568  26.938  1.00  0.00     0.012 A 
BRANCH  12  17
ATOM     17  O   UNL A   1      34.407  32.880  29.373  1.00  0.00    -0.493 OA
ATOM     18  C   UNL A   1      35.039  33.945  28.675  1.00  0.00     0.278 C 
ENDBRANCH  12  17
BRANCH  14  19
ATOM     19  C   UNL A   1      32.610  30.087  25.756  1.00  0.00     0.029 C 
ATOM     20  C   UNL A   1      32.172  28.865  25.396  1.00  0.00     0.081 C 
ATOM     21  S   UNL A   1      31.046  28.635  24.108  1.00  0.00    -0.054 SA
ATOM     22  C   UNL A   1      32.523  27.523  25.971  1.00  0.00     0.270 C 
ATOM     23  C   UNL A   1      30.879  26.910  24.418  1.00  0.00     0.152 C 
ATOM     24  N   UNL A   1      31.883  26.505  25.274  1.00  0.00    -0.261 N 
ATOM     25  O   UNL A   1      33.252  27.367  26.943  1.00  0.00    -0.268 OA
ATOM     26  S   UNL A   1      29.587  26.028  23.827  1.00  0.00    -0.051 S 
BRANCH  24  27
ATOM     27  C   UNL A   1      32.269  25.147  25.496  1.00  0.00     0.054 A 
ATOM     28  C   UNL A   1      31.697  24.434  26.567  1.00  0.00     0.027 A 
ATOM     29  C   UNL A   1      33.310  24.541  24.761  1.00  0.00    -0.027 A 
ATOM     30  C   UNL A   1      32.128  23.146  26.897  1.00  0.00     0.005 A 
ATOM     31  C   UNL A   1      33.712  23.231  25.090  1.00  0.00     0.009 A 
ATOM     32  C   UNL A   1      34.100  25.229  23.677  1.00  0.00     0.046 C 
ATOM     33  C   UNL A   1      33.143  22.535  26.162  1.00  0.00    -0.051 A 
ATOM     34  C   UNL A   1      33.640  21.175  26.548  1.00  0.00     0.044 C 
ENDBRANCH  24  27
ENDBRANCH  14  19
ENDBRANCH  10  11
ENDBRANCH   8  10
ENDBRANCH   5   8
ENDBRANCH   3   4
ENDBRANCH   2   3
ENDBRANCH   1   2
BRANCH   1  35
ATOM     35  C   UNL A   1      40.486  26.999  26.547  1.00  0.00     0.002 C 
BRANCH  35  36
ATOM     36  C   UNL A   1      40.333  25.536  26.981  1.00  0.00     0.021 C 
BRANCH  36  37
ATOM     37  C   UNL A   1      40.863  25.182  28.372  1.00  0.00     0.116 C 
BRANCH  37  38
ATOM     38  N   UNL A   1      41.540  23.895  28.418  1.00  0.00    -0.352 N 
ATOM     39  C   UNL A   1      42.853  23.546  28.189  1.00  0.00     0.251 C 
ATOM     40  H   UNL A   1      40.956  23.138  28.656  1.00  0.00     0.163 HD
ATOM     41  O   UNL A   1      43.151  22.353  28.153  1.00  0.00    -0.269 OA
BRANCH  39  42
ATOM     42  C   UNL A   1      43.909  24.566  27.975  1.00  0.00     0.039 A 
ATOM     43  C   UNL A   1      44.418  24.776  26.691  1.00  0.00     0.014 A 
ATOM     44  C   UNL A   1      44.450  25.283  29.040  1.00  0.00     0.014 A 
ATOM     45  C   UNL A   1      45.393  25.761  26.471  1.00  0.00     0.010 A 
ATOM     46  C   UNL A   1      45.370  26.310  28.818  1.00  0.00     0.010 A 
ATOM     47  C   UNL A   1      45.845  26.572  27.527  1.00  0.00    -0.014 A 
BRANCH  47  48
ATOM     48  C   UNL A   1      46.751  27.732  27.289  1.00  0.00     0.031 A 
ATOM     49  C   UNL A   1      48.249  27.595  27.396  1.00  0.00     0.074 A 
ATOM     50  C   UNL A   1      46.211  28.950  27.073  1.00  0.00     0.049 A 
ATOM     51  N   UNL A   1      49.170  28.517  27.274  1.00  0.00    -0.248 NA
ATOM     52  C   UNL A   1      48.781  26.256  27.696  1.00  0.00     0.031 C 
ATOM     53  C   UNL A   1      44.777  29.244  27.036  1.00  0.00     0.029 A 
ATOM     54  N   UNL A   1      46.802  30.176  26.876  1.00  0.00    -0.354 N 
ATOM     55  C   UNL A   1      50.386  27.879  27.497  1.00  0.00     0.074 A 
ATOM     56  C   UNL A   1      50.082  26.497  27.800  1.00  0.00     0.031 C 
ATOM     57  C   UNL A   1      44.599  30.558  26.830  1.00  0.00     0.029 A 
ATOM     58  C   UNL A   1      45.902  31.209  26.746  1.00  0.00     0.049 A 
ATOM     59  H   UNL A   1      47.778  30.302  26.832  1.00  0.00     0.167 HD
ATOM     60  C   UNL A   1      51.641  28.386  27.421  1.00  0.00     0.034 A 
ATOM     61  C   UNL A   1      46.099  32.532  26.585  1.00  0.00     0.034 A 
ATOM     62  C   UNL A   1      51.949  29.751  27.083  1.00  0.00     0.049 A 
ATOM     63  C   UNL A   1      47.503  33.063  26.484  1.00  0.00     0.074 A 
ATOM     64  C   UNL A   1      53.194  30.334  26.908  1.00  0.00     0.029 A 
ATOM     65  N   UNL A   1      51.011  30.749  26.872  1.00  0.00    -0.354 N 
ATOM     66  N   UNL A   1      48.636  32.407  26.530  1.00  0.00    -0.248 NA
ATOM     67  C   UNL A   1      47.655  34.512  26.276  1.00  0.00     0.031 C 
ATOM     68  C   UNL A   1      53.007  31.686  26.601  1.00  0.00     0.029 A 
ATOM     69  C   UNL A   1      51.647  31.942  26.574  1.00  0.00     0.049 A 
ATOM     70  H   UNL A   1      50.036  30.625  26.926  1.00  0.00     0.167 HD
ATOM     71  C   UNL A   1      49.632  33.356  26.323  1.00  0.00     0.074 A 
ATOM     72  C   UNL A   1      48.968  34.628  26.128  1.00  0.00     0.031 C 
ATOM     73  C   UNL A   1      50.977  33.190  26.319  1.00  0.00     0.034 A 
BRANCH  60  74
ATOM     74  C   UNL A   1      52.797  27.438  27.621  1.00  0.00     0.023 A 
ATOM     75  C   UNL A   1      53.388  27.344  28.898  1.00  0.00     0.012 A 
ATOM     76  C   UNL A   1      53.234  26.579  26.594  1.00  0.00     0.148 A 
ATOM     77  C   UNL A   1      54.411  26.431  29.145  1.00  0.00     0.002 A 
ATOM     78  C   UNL A   1      54.231  25.643  26.857  1.00  0.00     0.091 A 
ATOM     79  F   UNL A   1      52.670  26.690  25.383  1.00  0.00    -0.205 F 
ATOM     80  C   UNL A   1      54.825  25.574  28.128  1.00  0.00     0.022 A 
BRANCH  78  81
ATOM     81  S   UNL A   1      54.787  24.444  25.639  1.00  0.00     0.127 S 
ATOM     82  O   UNL A   1      55.600  23.548  26.459  1.00  0.00    -0.237 OA
ATOM     83  O   UNL A   1      53.525  23.868  25.174  1.00  0.00    -0.237 OA
ATOM     84  O   UNL A   1      55.515  25.202  24.632  1.00  0.00    -0.744 OA
ENDBRANCH  78  81
ENDBRANCH  60  74
BRANCH  61  85
ATOM     85  C   UNL A   1      44.929  33.448  26.442  1.00  0.00     0.023 A 
ATOM     86  C   UNL A   1      44.357  33.643  25.169  1.00  0.00     0.012 A 
ATOM     87  C   UNL A   1      44.375  34.113  27.552  1.00  0.00     0.148 A 
ATOM     88  C   UNL A   1      43.277  34.509  25.000  1.00  0.00     0.002 A 
ATOM     89  C   UNL A   1      43.264  34.930  27.386  1.00  0.00     0.091 A 
ATOM     90  F   UNL A   1      44.944  33.933  28.753  1.00  0.00    -0.205 F 
ATOM     91  C   UNL A   1      42.724  35.145  26.109  1.00  0.00     0.022 A 
BRANCH  89  92
ATOM     92  S   UNL A   1      42.413  35.668  28.786  1.00  0.00     0.127 S 
ATOM     93  O   UNL A   1      43.323  36.747  29.156  1.00  0.00    -0.237 OA
ATOM     94  O   UNL A   1      41.150  36.102  28.189  1.00  0.00    -0.237 OA
ATOM     95  O   UNL A   1      42.269  34.587  29.755  1.00  0.00    -0.744 OA
ENDBRANCH  89  92
ENDBRANCH  61  85
BRANCH  73  96
ATOM     96  C   UNL A   1      51.832  34.405  26.071  1.00  0.00     0.023 A 
ATOM     97  C   UNL A   1      52.205  34.734  24.753  1.00  0.00     0.012 A 
ATOM     98  C   UNL A   1      52.199  35.261  27.128  1.00  0.00     0.148 A 
ATOM     99  C   UNL A   1      52.951  35.883  24.492  1.00  0.00     0.002 A 
ATOM    100  C   UNL A   1      52.906  36.426  26.857  1.00  0.00     0.091 A 
ATOM    101  F   UNL A   1      51.850  34.920  28.377  1.00  0.00    -0.205 F 
ATOM    102  C   UNL A   1      53.292  36.734  25.541  1.00  0.00     0.022 A 
BRANCH 100 103
ATOM    103  S   UNL A   1      53.317  37.629  28.128  1.00  0.00     0.127 S 
ATOM    104  O   UNL A   1      53.948  38.688  27.342  1.00  0.00    -0.237 OA
ATOM    105  O   UNL A   1      52.001  37.970  28.668  1.00  0.00    -0.237 OA
ATOM    106  O   UNL A   1      54.196  36.940  29.063  1.00  0.00    -0.744 OA
ENDBRANCH 100 103
ENDBRANCH  73  96
ENDBRANCH  47  48
ENDBRANCH  39  42
ENDBRANCH  37  38
ENDBRANCH  36  37
ENDBRANCH  35  36
ENDBRANCH   1  35
TORSDOF 21
ENDMDL
MODEL 3
REMARK VINA RESULT:      -8.4      4.074      8.894
REMARK SMILES COc1cc(/C=C2/SC(=S)N(c3ccc(C)cc3C)C2=O)ccc1O[C@@H](C)C(=O)NCCCCCCNC(=O)c1ccc(-c2c3nc(c(-c4cccc(S(=O)(=O)[O-])c4F)c4ccc([nH]4)c(-c4cccc(S(=O)(=O)[O-])c4F)c4nc(c(-c5cccc(S(=O)(=O)[O-])c5F)c5ccc2[nH]5)C=C4)C=C3)cc1
REMARK SMILES IDX 33 1 32 2 31 3 30 4 28 5 29 6 26 8 27 9 25 10 24 11 3 12
REMARK SMILES IDX 4 13 5 14 23 15 22 16 2 17 1 18 6 19 7 20 8 21 20 22 9 23
REMARK SMILES IDX 11 24 21 25 10 26 12 27 13 28 18 29 14 30 17 31 19 32 15 33
REMARK SMILES IDX 16 34 34 35 35 36 36 37 37 38 38 39 39 41 40 42 41 43 102 44
REMARK SMILES IDX 42 45 101 46 43 47 44 48 45 49 95 50 46 51 100 52 94 53
REMARK SMILES IDX 96 54 47 55 99 56 93 57 92 58 48 60 80 61 60 62 79 63 61 64
REMARK SMILES IDX 64 65 78 66 97 67 62 68 63 69 77 71 98 72 65 73 49 74 50 75
REMARK SMILES IDX 58 76 51 77 53 78 59 79 52 80 54 81 55 82 56 83 57 84 81 85
REMARK SMILES IDX 82 86 90 87 83 88 85 89 91 90 84 91 86 92 87 93 88 94 89 95
REMARK SMILES IDX 66 96 67 97 75 98 68 99 70 100 76 101 69 102 71 103 72 104
REMARK SMILES IDX 73 105 74 106
REMARK H PARENT 30 7 37 40 96 59 64 70
REMARK Flexibility Score: inf
ROOT
ATOM      1  C   UNL A   1      46.282  26.465  26.708  1.00  0.00     0.002 C 
ENDROOT
BRANCH   1   2
ATOM      2  C   UNL A   1      46.400  27.564  25.643  1.00  0.00     0.021 C 
BRANCH   2   3
ATOM      3  C   UNL A   1      45.546  28.812  25.870  1.00  0.00     0.116 C 
BRANCH   3   4
ATOM      4  N   UNL A   1      46.270  30.056  25.749  1.00  0.00    -0.353 N 
ATOM      5  C   UNL A   1      46.063  31.311  26.211  1.00  0.00     0.260 C 
ATOM      6  O   UNL A   1      47.094  32.012  26.189  1.00  0.00    -0.271 OA
ATOM      7  H   UNL A   1      47.092  29.972  25.215  1.00  0.00     0.163 HD
BRANCH   5   8
ATOM      8  C   UNL A   1      44.725  31.988  26.762  1.00  0.00     0.259 C 
ATOM      9  C   UNL A   1      44.187  32.914  25.649  1.00  0.00     0.064 C 
BRANCH   8  10
ATOM     10  O   UNL A   1      44.144  32.540  27.921  1.00  0.00    -0.477 OA
BRANCH  10  11
ATOM     11  C   UNL A   1      44.556  33.746  28.360  1.00  0.00     0.162 A 
ATOM     12  C   UNL A   1      43.657  34.662  28.920  1.00  0.00     0.161 A 
ATOM     13  C   UNL A   1      44.119  35.907  29.368  1.00  0.00     0.058 A 
ATOM     14  C   UNL A   1      45.492  36.201  29.320  1.00  0.00    -0.020 A 
ATOM     15  C   UNL A   1      45.921  33.972  28.455  1.00  0.00     0.051 A 
ATOM     16  C   UNL A   1      46.383  35.174  28.981  1.00  0.00     0.012 A 
BRANCH  12  17
ATOM     17  O   UNL A   1      42.358  34.291  29.146  1.00  0.00    -0.493 OA
ATOM     18  C   UNL A   1      41.411  35.323  28.897  1.00  0.00     0.278 C 
ENDBRANCH  12  17
BRANCH  14  19
ATOM     19  C   UNL A   1      46.006  37.536  29.667  1.00  0.00     0.029 C 
ATOM     20  C   UNL A   1      45.624  38.706  29.117  1.00  0.00     0.081 C 
ATOM     21  S   UNL A   1      46.353  40.208  29.558  1.00  0.00    -0.054 SA
ATOM     22  C   UNL A   1      44.570  38.969  28.081  1.00  0.00     0.270 C 
ATOM     23  C   UNL A   1      45.222  41.160  28.600  1.00  0.00     0.152 C 
ATOM     24  N   UNL A   1      44.528  40.320  27.754  1.00  0.00    -0.261 N 
ATOM     25  O   UNL A   1      43.836  38.105  27.621  1.00  0.00    -0.268 OA
ATOM     26  S   UNL A   1      45.009  42.798  28.858  1.00  0.00    -0.051 S 
BRANCH  24  27
ATOM     27  C   UNL A   1      43.773  40.747  26.617  1.00  0.00     0.054 A 
ATOM     28  C   UNL A   1      44.444  41.311  25.516  1.00  0.00     0.027 A 
ATOM     29  C   UNL A   1      42.362  40.749  26.622  1.00  0.00    -0.027 A 
ATOM     30  C   UNL A   1      43.743  41.851  24.435  1.00  0.00     0.005 A 
ATOM     31  C   UNL A   1      41.672  41.274  25.510  1.00  0.00     0.009 A 
ATOM     32  C   UNL A   1      41.512  40.300  27.783  1.00  0.00     0.046 C 
ATOM     33  C   UNL A   1      42.349  41.840  24.426  1.00  0.00    -0.051 A 
ATOM     34  C   UNL A   1      41.598  42.466  23.289  1.00  0.00     0.044 C 
ENDBRANCH  24  27
ENDBRANCH  14  19
ENDBRANCH  10  11
ENDBRANCH   8  10
ENDBRANCH   5   8
ENDBRANCH   3   4
ENDBRANCH   2   3
ENDBRANCH   1   2
BRANCH   1  35
ATOM     35  C   UNL A   1      46.812  25.073  26.334  1.00  0.00     0.002 C 
BRANCH  35  36
ATOM     36  C   UNL A   1      45.776  24.020  25.925  1.00  0.00     0.021 C 
BRANCH  36  37
ATOM     37  C   UNL A   1      44.683  24.482  24.959  1.00  0.00     0.116 C 
BRANCH  37  38
ATOM     38  N   UNL A   1      43.411  23.803  25.163  1.00  0.00    -0.352 N 
ATOM     39  C   UNL A   1      42.358  24.073  26.008  1.00  0.00     0.251 C 
ATOM     40  H   UNL A   1      43.281  23.009  24.595  1.00  0.00     0.163 HD
ATOM     41  O   UNL A   1      41.443  23.256  26.093  1.00  0.00    -0.269 OA
BRANCH  39  42
ATOM     42  C   UNL A   1      42.304  25.313  26.822  1.00  0.00     0.039 A 
ATOM     43  C   UNL A   1      42.342  25.227  28.216  1.00  0.00     0.014 A 
ATOM     44  C   UNL A   1      42.158  26.563  26.228  1.00  0.00     0.014 A 
ATOM     45  C   UNL A   1      42.326  26.394  28.995  1.00  0.00     0.010 A 
ATOM     46  C   UNL A   1      42.209  27.731  26.993  1.00  0.00     0.010 A 
ATOM     47  C   UNL A   1      42.307  27.662  28.389  1.00  0.00    -0.014 A 
BRANCH  47  48
ATOM     48  C   UNL A   1      42.459  28.912  29.186  1.00  0.00     0.031 A 
ATOM     49  C   UNL A   1      43.817  29.417  29.607  1.00  0.00     0.074 A 
ATOM     50  C   UNL A   1      41.352  29.549  29.623  1.00  0.00     0.049 A 
ATOM     51  N   UNL A   1      44.116  30.454  30.347  1.00  0.00    -0.248 NA
ATOM     52  C   UNL A   1      44.988  28.648  29.155  1.00  0.00     0.031 C 
ATOM     53  C   UNL A   1      39.975  29.120  29.368  1.00  0.00     0.029 A 
ATOM     54  N   UNL A   1      41.207  30.674  30.400  1.00  0.00    -0.354 N 
ATOM     55  C   UNL A   1      45.502  30.457  30.465  1.00  0.00     0.074 A 
ATOM     56  C   UNL A   1      45.983  29.293  29.750  1.00  0.00     0.031 C 
ATOM     57  C   UNL A   1      39.128  29.967  29.974  1.00  0.00     0.029 A 
ATOM     58  C   UNL A   1      39.896  30.984  30.684  1.00  0.00     0.049 A 
ATOM     59  H   UNL A   1      41.968  31.207  30.724  1.00  0.00     0.167 HD
ATOM     60  C   UNL A   1      46.304  31.361  31.078  1.00  0.00     0.034 A 
ATOM     61  C   UNL A   1      39.368  31.970  31.436  1.00  0.00     0.034 A 
ATOM     62  C   UNL A   1      45.832  32.539  31.758  1.00  0.00     0.049 A 
ATOM     63  C   UNL A   1      40.282  32.971  32.089  1.00  0.00     0.074 A 
ATOM     64  C   UNL A   1      46.576  33.551  32.342  1.00  0.00     0.029 A 
ATOM     65  N   UNL A   1      44.499  32.866  31.949  1.00  0.00    -0.354 N 
ATOM     66  N   UNL A   1      41.589  33.045  32.042  1.00  0.00    -0.248 NA
ATOM     67  C   UNL A   1      39.647  34.043  32.870  1.00  0.00     0.031 C 
ATOM     68  C   UNL A   1      45.692  34.484  32.895  1.00  0.00     0.029 A 
ATOM     69  C   UNL A   1      44.398  34.058  32.646  1.00  0.00     0.049 A 
ATOM     70  H   UNL A   1      43.736  32.328  31.635  1.00  0.00     0.167 HD
ATOM     71  C   UNL A   1      41.930  34.188  32.757  1.00  0.00     0.074 A 
ATOM     72  C   UNL A   1      40.691  34.788  33.207  1.00  0.00     0.031 C 
ATOM     73  C   UNL A   1      43.161  34.682  33.035  1.00  0.00     0.034 A 
BRANCH  60  74
ATOM     74  C   UNL A   1      47.796  31.167  30.971  1.00  0.00     0.023 A 
ATOM     75  C   UNL A   1      48.498  31.834  29.946  1.00  0.00     0.012 A 
ATOM     76  C   UNL A   1      48.513  30.417  31.924  1.00  0.00     0.148 A 
ATOM     77  C   UNL A   1      49.885  31.739  29.854  1.00  0.00     0.002 A 
ATOM     78  C   UNL A   1      49.902  30.357  31.848  1.00  0.00     0.091 A 
ATOM     79  F   UNL A   1      47.829  29.779  32.884  1.00  0.00    -0.205 F 
ATOM     80  C   UNL A   1      50.588  31.010  30.810  1.00  0.00     0.022 A 
BRANCH  78  81
ATOM     81  S   UNL A   1      50.908  29.505  33.069  1.00  0.00     0.127 S 
ATOM     82  O   UNL A   1      50.328  29.992  34.320  1.00  0.00    -0.237 OA
ATOM     83  O   UNL A   1      50.627  28.099  32.775  1.00  0.00    -0.237 OA
ATOM     84  O   UNL A   1      52.281  29.915  32.816  1.00  0.00    -0.744 OA
ENDBRANCH  78  81
ENDBRANCH  60  74
BRANCH  61  85
ATOM     85  C   UNL A   1      37.887  32.101  31.561  1.00  0.00     0.023 A 
ATOM     86  C   UNL A   1      37.254  31.673  32.745  1.00  0.00     0.012 A 
ATOM     87  C   UNL A   1      37.107  32.656  30.528  1.00  0.00     0.148 A 
ATOM     88  C   UNL A   1      35.869  31.763  32.883  1.00  0.00     0.002 A 
ATOM     89  C   UNL A   1      35.734  32.794  30.696  1.00  0.00     0.091 A 
ATOM     90  F   UNL A   1      37.722  33.040  29.400  1.00  0.00    -0.205 F 
ATOM     91  C   UNL A   1      35.110  32.332  31.864  1.00  0.00     0.022 A 
BRANCH  89  92
ATOM     92  S   UNL A   1      34.715  33.646  29.487  1.00  0.00     0.127 S 
ATOM     93  O   UNL A   1      33.701  34.267  30.333  1.00  0.00    -0.237 OA
ATOM     94  O   UNL A   1      35.665  34.577  28.878  1.00  0.00    -0.237 OA
ATOM     95  O   UNL A   1      34.247  32.602  28.582  1.00  0.00    -0.744 OA
ENDBRANCH  89  92
ENDBRANCH  61  85
BRANCH  73  96
ATOM     96  C   UNL A   1      43.241  35.950  33.844  1.00  0.00     0.023 A 
ATOM     97  C   UNL A   1      43.257  35.876  35.251  1.00  0.00     0.012 A 
ATOM     98  C   UNL A   1      43.378  37.204  33.215  1.00  0.00     0.148 A 
ATOM     99  C   UNL A   1      43.384  37.032  36.020  1.00  0.00     0.002 A 
ATOM    100  C   UNL A   1      43.547  38.347  33.987  1.00  0.00     0.091 A 
ATOM    101  F   UNL A   1      43.342  37.253  31.876  1.00  0.00    -0.205 F 
ATOM    102  C   UNL A   1      43.541  38.264  35.389  1.00  0.00     0.022 A 
BRANCH 100 103
ATOM    103  S   UNL A   1      43.842  39.967  33.268  1.00  0.00     0.127 S 
ATOM    104  O   UNL A   1      43.926  40.810  34.459  1.00  0.00    -0.237 OA
ATOM    105  O   UNL A   1      45.112  39.769  32.568  1.00  0.00    -0.237 OA
ATOM    106  O   UNL A   1      42.705  40.232  32.396  1.00  0.00    -0.744 OA
ENDBRANCH 100 103
ENDBRANCH  73  96
ENDBRANCH  47  48
ENDBRANCH  39  42
ENDBRANCH  37  38
ENDBRANCH  36  37
ENDBRANCH  35  36
ENDBRANCH   1  35
TORSDOF 21
ENDMDL
