MODEL 1
REMARK VINA RESULT:     -10.8      0.000      0.000
REMARK SMILES C#CC[C@@]1(C(=O)NCCCCCCNC(=O)c2ccc(-c3c4nc(c(-c5cccc(S(=O)(=O)[O-])c5F)c5ccc([nH]5)c(-c5cccc(S(=O)(=O)[O-])c5F)c5nc(c(-c6cccc(S(=O)(=O)[O-])c6F)c6ccc3[nH]6)C=C5)C=C4)cc2)CCCN1C(=O)OC(C)(C)C
REMARK SMILES IDX 10 1 9 2 8 3 7 4 5 5 6 6 4 8 80 9 83 10 81 11 82 12 3 13
REMARK SMILES IDX 2 14 1 15 84 16 85 17 86 18 87 19 88 20 89 21 90 22 11 23
REMARK SMILES IDX 12 24 13 25 14 26 15 27 16 29 17 30 18 31 79 32 19 33 78 34
REMARK SMILES IDX 20 35 21 36 22 37 72 38 23 39 77 40 71 41 73 42 24 43 76 44
REMARK SMILES IDX 70 45 69 46 25 48 57 49 37 50 56 51 38 52 41 53 55 54 74 55
REMARK SMILES IDX 39 56 40 57 54 59 75 60 42 61 26 62 27 63 35 64 28 65 30 66
REMARK SMILES IDX 36 67 29 68 31 69 32 70 33 71 34 72 58 73 59 74 67 75 60 76
REMARK SMILES IDX 62 77 68 78 61 79 63 80 64 81 65 82 66 83 43 84 44 85 52 86
REMARK SMILES IDX 45 87 47 88 53 89 46 90 48 91 49 92 50 93 51 94
REMARK H PARENT 7 7 14 28 73 47 41 58
REMARK Flexibility Score: inf
ROOT
ATOM      1  C   UNL A   1      33.374  27.590  25.606  1.00  0.00     0.002 C 
ENDROOT
BRANCH   1   2
ATOM      2  C   UNL A   1      33.942  26.171  25.742  1.00  0.00     0.021 C 
BRANCH   2   3
ATOM      3  C   UNL A   1      33.185  24.943  26.313  1.00  0.00     0.116 C 
BRANCH   3   4
ATOM      4  N   UNL A   1      32.067  24.263  25.628  1.00  0.00    -0.354 N 
ATOM      5  C   UNL A   1      31.890  23.073  24.924  1.00  0.00     0.247 C 
ATOM      6  O   UNL A   1      30.730  22.647  24.847  1.00  0.00    -0.272 OA
ATOM      7  H   UNL A   1      31.233  24.783  25.682  1.00  0.00     0.163 HD
BRANCH   5   8
ATOM      8  C   UNL A   1      33.092  22.213  24.378  1.00  0.00     0.136 C 
ATOM      9  C   UNL A   1      33.994  22.028  25.628  1.00  0.00     0.042 C 
ATOM     10  N   UNL A   1      33.860  23.066  23.488  1.00  0.00    -0.292 N 
ATOM     11  C   UNL A   1      35.410  22.335  25.160  1.00  0.00     0.025 C 
ATOM     12  C   UNL A   1      35.273  23.068  23.821  1.00  0.00     0.124 C 
BRANCH   8  13
ATOM     13  C   UNL A   1      32.778  20.834  23.561  1.00  0.00     0.128 C 
BRANCH  13  14
ATOM     14  C   UNL A   1      32.785  19.687  24.559  1.00  0.00    -0.104 C 
ATOM     15  C   UNL A   1      32.792  18.705  25.414  1.00  0.00     0.004 C 
ENDBRANCH  13  14
ENDBRANCH   8  13
BRANCH  10  16
ATOM     16  C   UNL A   1      33.249  23.649  22.380  1.00  0.00     0.411 C 
ATOM     17  O   UNL A   1      33.243  23.166  21.269  1.00  0.00    -0.224 OA
BRANCH  16  18
ATOM     18  O   UNL A   1      32.713  24.859  22.727  1.00  0.00    -0.444 OA
BRANCH  18  19
ATOM     19  C   UNL A   1      32.439  26.039  21.914  1.00  0.00     0.106 C 
ATOM     20  C   UNL A   1      32.476  25.681  20.416  1.00  0.00     0.056 C 
ATOM     21  C   UNL A   1      31.160  26.773  22.297  1.00  0.00     0.056 C 
ATOM     22  C   UNL A   1      33.651  26.959  22.123  1.00  0.00     0.056 C 
ENDBRANCH  18  19
ENDBRANCH  16  18
ENDBRANCH  10  16
ENDBRANCH   5   8
ENDBRANCH   3   4
ENDBRANCH   2   3
ENDBRANCH   1   2
BRANCH   1  23
ATOM     23  C   UNL A   1      31.952  27.872  26.111  1.00  0.00     0.002 C 
BRANCH  23  24
ATOM     24  C   UNL A   1      31.798  29.239  26.789  1.00  0.00     0.021 C 
BRANCH  24  25
ATOM     25  C   UNL A   1      32.849  30.276  26.391  1.00  0.00     0.116 C 
BRANCH  25  26
ATOM     26  N   UNL A   1      32.534  31.648  26.784  1.00  0.00    -0.352 N 
ATOM     27  C   UNL A   1      33.368  32.486  27.503  1.00  0.00     0.251 C 
ATOM     28  H   UNL A   1      31.657  32.004  26.517  1.00  0.00     0.163 HD
ATOM     29  O   UNL A   1      33.036  33.615  27.836  1.00  0.00    -0.269 OA
BRANCH  27  30
ATOM     30  C   UNL A   1      34.687  31.936  27.879  1.00  0.00     0.039 A 
ATOM     31  C   UNL A   1      35.776  32.800  28.011  1.00  0.00     0.014 A 
ATOM     32  C   UNL A   1      34.757  30.612  28.317  1.00  0.00     0.014 A 
ATOM     33  C   UNL A   1      36.933  32.344  28.644  1.00  0.00     0.010 A 
ATOM     34  C   UNL A   1      35.881  30.187  29.015  1.00  0.00     0.010 A 
ATOM     35  C   UNL A   1      36.984  31.043  29.174  1.00  0.00    -0.014 A 
BRANCH  35  36
ATOM     36  C   UNL A   1      38.209  30.535  29.842  1.00  0.00     0.031 A 
ATOM     37  C   UNL A   1      38.518  30.993  31.241  1.00  0.00     0.074 A 
ATOM     38  C   UNL A   1      39.065  29.726  29.186  1.00  0.00     0.049 A 
ATOM     39  N   UNL A   1      39.532  30.687  32.006  1.00  0.00    -0.248 NA
ATOM     40  C   UNL A   1      37.580  31.954  31.848  1.00  0.00     0.031 C 
ATOM     41  C   UNL A   1      38.925  29.289  27.794  1.00  0.00     0.029 A 
ATOM     42  N   UNL A   1      40.235  29.137  29.598  1.00  0.00    -0.354 N 
ATOM     43  C   UNL A   1      39.372  31.443  33.162  1.00  0.00     0.074 A 
ATOM     44  C   UNL A   1      38.200  32.265  32.974  1.00  0.00     0.031 C 
ATOM     45  C   UNL A   1      39.960  28.490  27.476  1.00  0.00     0.029 A 
ATOM     46  C   UNL A   1      40.840  28.365  28.634  1.00  0.00     0.049 A 
ATOM     47  H   UNL A   1      40.606  29.257  30.502  1.00  0.00     0.167 HD
ATOM     48  C   UNL A   1      40.103  31.420  34.299  1.00  0.00     0.034 A 
ATOM     49  C   UNL A   1      41.968  27.626  28.690  1.00  0.00     0.034 A 
ATOM     50  C   UNL A   1      41.225  30.549  34.505  1.00  0.00     0.049 A 
ATOM     51  C   UNL A   1      42.720  27.552  29.994  1.00  0.00     0.074 A 
ATOM     52  C   UNL A   1      41.982  30.373  35.648  1.00  0.00     0.029 A 
ATOM     53  N   UNL A   1      41.743  29.698  33.541  1.00  0.00    -0.354 N 
ATOM     54  N   UNL A   1      42.455  28.144  31.135  1.00  0.00    -0.248 NA
ATOM     55  C   UNL A   1      43.898  26.673  30.038  1.00  0.00     0.031 C 
ATOM     56  C   UNL A   1      42.965  29.417  35.371  1.00  0.00     0.029 A 
ATOM     57  C   UNL A   1      42.807  28.987  34.062  1.00  0.00     0.049 A 
ATOM     58  H   UNL A   1      41.402  29.611  32.621  1.00  0.00     0.167 HD
ATOM     59  C   UNL A   1      43.404  27.679  32.038  1.00  0.00     0.074 A 
ATOM     60  C   UNL A   1      44.240  26.741  31.318  1.00  0.00     0.031 C 
ATOM     61  C   UNL A   1      43.581  28.008  33.342  1.00  0.00     0.034 A 
BRANCH  48  62
ATOM     62  C   UNL A   1      39.656  32.313  35.427  1.00  0.00     0.023 A 
ATOM     63  C   UNL A   1      38.801  31.794  36.422  1.00  0.00     0.012 A 
ATOM     64  C   UNL A   1      40.089  33.649  35.516  1.00  0.00     0.148 A 
ATOM     65  C   UNL A   1      38.345  32.604  37.460  1.00  0.00     0.002 A 
ATOM     66  C   UNL A   1      39.668  34.437  36.582  1.00  0.00     0.091 A 
ATOM     67  F   UNL A   1      40.884  34.131  34.549  1.00  0.00    -0.205 F 
ATOM     68  C   UNL A   1      38.785  33.921  37.545  1.00  0.00     0.022 A 
BRANCH  66  69
ATOM     69  S   UNL A   1      40.239  36.122  36.826  1.00  0.00     0.127 S 
ATOM     70  O   UNL A   1      41.678  35.927  36.988  1.00  0.00    -0.237 OA
ATOM     71  O   UNL A   1      39.848  36.763  35.569  1.00  0.00    -0.237 OA
ATOM     72  O   UNL A   1      39.537  36.617  38.002  1.00  0.00    -0.744 OA
ENDBRANCH  66  69
ENDBRANCH  48  62
BRANCH  49  73
ATOM     73  C   UNL A   1      42.396  26.814  27.513  1.00  0.00     0.023 A 
ATOM     74  C   UNL A   1      43.168  27.421  26.500  1.00  0.00     0.012 A 
ATOM     75  C   UNL A   1      42.067  25.449  27.394  1.00  0.00     0.148 A 
ATOM     76  C   UNL A   1      43.571  26.698  25.377  1.00  0.00     0.002 A 
ATOM     77  C   UNL A   1      42.516  24.720  26.296  1.00  0.00     0.091 A 
ATOM     78  F   UNL A   1      41.322  24.889  28.356  1.00  0.00    -0.205 F 
ATOM     79  C   UNL A   1      43.254  25.346  25.279  1.00  0.00     0.022 A 
BRANCH  77  80
ATOM     80  S   UNL A   1      42.262  22.947  26.148  1.00  0.00     0.127 S 
ATOM     81  O   UNL A   1      42.846  22.667  24.840  1.00  0.00    -0.237 OA
ATOM     82  O   UNL A   1      43.026  22.433  27.286  1.00  0.00    -0.237 OA
ATOM     83  O   UNL A   1      40.823  22.750  26.259  1.00  0.00    -0.744 OA
ENDBRANCH  77  80
ENDBRANCH  49  73
BRANCH  61  84
ATOM     84  C   UNL A   1      44.692  27.328  34.094  1.00  0.00     0.023 A 
ATOM     85  C   UNL A   1      45.978  27.900  34.109  1.00  0.00     0.012 A 
ATOM     86  C   UNL A   1      44.433  26.180  34.869  1.00  0.00     0.148 A 
ATOM     87  C   UNL A   1      46.999  27.325  34.864  1.00  0.00     0.002 A 
ATOM     88  C   UNL A   1      45.441  25.640  35.657  1.00  0.00     0.091 A 
ATOM     89  F   UNL A   1      43.206  25.641  34.825  1.00  0.00    -0.205 F 
ATOM     90  C   UNL A   1      46.728  26.206  35.648  1.00  0.00     0.022 A 
BRANCH  88  91
ATOM     91  S   UNL A   1      45.152  24.264  36.774  1.00  0.00     0.127 S 
ATOM     92  O   UNL A   1      46.468  24.099  37.390  1.00  0.00    -0.237 OA
ATOM     93  O   UNL A   1      44.123  24.797  37.668  1.00  0.00    -0.237 OA
ATOM     94  O   UNL A   1      44.707  23.158  35.937  1.00  0.00    -0.744 OA
ENDBRANCH  88  91
ENDBRANCH  61  84
ENDBRANCH  35  36
ENDBRANCH  27  30
ENDBRANCH  25  26
ENDBRANCH  24  25
ENDBRANCH  23  24
ENDBRANCH   1  23
TORSDOF 21
ENDMDL
MODEL 2
REMARK VINA RESULT:      -9.8      5.509      8.986
REMARK SMILES C#CC[C@@]1(C(=O)NCCCCCCNC(=O)c2ccc(-c3c4nc(c(-c5cccc(S(=O)(=O)[O-])c5F)c5ccc([nH]5)c(-c5cccc(S(=O)(=O)[O-])c5F)c5nc(c(-c6cccc(S(=O)(=O)[O-])c6F)c6ccc3[nH]6)C=C5)C=C4)cc2)CCCN1C(=O)OC(C)(C)C
REMARK SMILES IDX 10 1 9 2 8 3 7 4 5 5 6 6 4 8 80 9 83 10 81 11 82 12 3 13
REMARK SMILES IDX 2 14 1 15 84 16 85 17 86 18 87 19 88 20 89 21 90 22 11 23
REMARK SMILES IDX 12 24 13 25 14 26 15 27 16 29 17 30 18 31 79 32 19 33 78 34
REMARK SMILES IDX 20 35 21 36 22 37 72 38 23 39 77 40 71 41 73 42 24 43 76 44
REMARK SMILES IDX 70 45 69 46 25 48 57 49 37 50 56 51 38 52 41 53 55 54 74 55
REMARK SMILES IDX 39 56 40 57 54 59 75 60 42 61 26 62 27 63 35 64 28 65 30 66
REMARK SMILES IDX 36 67 29 68 31 69 32 70 33 71 34 72 58 73 59 74 67 75 60 76
REMARK SMILES IDX 62 77 68 78 61 79 63 80 64 81 65 82 66 83 43 84 44 85 52 86
REMARK SMILES IDX 45 87 47 88 53 89 46 90 48 91 49 92 50 93 51 94
REMARK H PARENT 7 7 14 28 73 47 41 58
REMARK Flexibility Score: inf
ROOT
ATOM      1  C   UNL A   1      37.772  21.507  24.479  1.00  0.00     0.002 C 
ENDROOT
BRANCH   1   2
ATOM      2  C   UNL A   1      37.197  22.595  25.395  1.00  0.00     0.021 C 
BRANCH   2   3
ATOM      3  C   UNL A   1      36.076  23.599  25.016  1.00  0.00     0.116 C 
BRANCH   3   4
ATOM      4  N   UNL A   1      35.202  23.462  23.832  1.00  0.00    -0.354 N 
ATOM      5  C   UNL A   1      33.830  23.408  23.593  1.00  0.00     0.247 C 
ATOM      6  O   UNL A   1      33.460  23.696  22.447  1.00  0.00    -0.272 OA
ATOM      7  H   UNL A   1      35.722  23.387  23.000  1.00  0.00     0.163 HD
BRANCH   5   8
ATOM      8  C   UNL A   1      32.771  23.153  24.731  1.00  0.00     0.136 C 
ATOM      9  C   UNL A   1      33.293  24.022  25.906  1.00  0.00     0.042 C 
ATOM     10  N   UNL A   1      32.942  21.782  25.176  1.00  0.00    -0.292 N 
ATOM     11  C   UNL A   1      33.232  23.127  27.136  1.00  0.00     0.025 C 
ATOM     12  C   UNL A   1      33.082  21.691  26.619  1.00  0.00     0.124 C 
BRANCH   8  13
ATOM     13  C   UNL A   1      31.183  23.350  24.399  1.00  0.00     0.128 C 
BRANCH  13  14
ATOM     14  C   UNL A   1      30.864  24.833  24.503  1.00  0.00    -0.104 C 
ATOM     15  C   UNL A   1      30.591  26.103  24.592  1.00  0.00     0.004 C 
ENDBRANCH  13  14
ENDBRANCH   8  13
BRANCH  10  16
ATOM     16  C   UNL A   1      32.816  20.732  24.269  1.00  0.00     0.411 C 
ATOM     17  O   UNL A   1      32.225  20.807  23.213  1.00  0.00    -0.224 OA
BRANCH  16  18
ATOM     18  O   UNL A   1      33.407  19.607  24.775  1.00  0.00    -0.444 OA
BRANCH  18  19
ATOM     19  C   UNL A   1      33.363  18.225  24.308  1.00  0.00     0.106 C 
ATOM     20  C   UNL A   1      32.548  18.123  23.003  1.00  0.00     0.056 C 
ATOM     21  C   UNL A   1      34.732  17.569  24.181  1.00  0.00     0.056 C 
ATOM     22  C   UNL A   1      32.520  17.477  25.351  1.00  0.00     0.056 C 
ENDBRANCH  18  19
ENDBRANCH  16  18
ENDBRANCH  10  16
ENDBRANCH   5   8
ENDBRANCH   3   4
ENDBRANCH   2   3
ENDBRANCH   1   2
BRANCH   1  23
ATOM     23  C   UNL A   1      37.281  20.063  24.641  1.00  0.00     0.002 C 
BRANCH  23  24
ATOM     24  C   UNL A   1      38.284  19.146  25.352  1.00  0.00     0.021 C 
BRANCH  24  25
ATOM     25  C   UNL A   1      39.580  19.828  25.789  1.00  0.00     0.116 C 
BRANCH  25  26
ATOM     26  N   UNL A   1      40.721  18.929  25.950  1.00  0.00    -0.352 N 
ATOM     27  C   UNL A   1      42.005  19.318  26.287  1.00  0.00     0.251 C 
ATOM     28  H   UNL A   1      40.563  17.969  25.806  1.00  0.00     0.163 HD
ATOM     29  O   UNL A   1      42.932  18.523  26.371  1.00  0.00    -0.269 OA
BRANCH  27  30
ATOM     30  C   UNL A   1      42.217  20.762  26.516  1.00  0.00     0.039 A 
ATOM     31  C   UNL A   1      42.428  21.225  27.816  1.00  0.00     0.014 A 
ATOM     32  C   UNL A   1      42.431  21.588  25.410  1.00  0.00     0.014 A 
ATOM     33  C   UNL A   1      42.916  22.519  28.006  1.00  0.00     0.010 A 
ATOM     34  C   UNL A   1      42.990  22.846  25.602  1.00  0.00     0.010 A 
ATOM     35  C   UNL A   1      43.226  23.328  26.900  1.00  0.00    -0.014 A 
BRANCH  35  36
ATOM     36  C   UNL A   1      43.736  24.710  27.081  1.00  0.00     0.031 A 
ATOM     37  C   UNL A   1      42.807  25.765  27.617  1.00  0.00     0.074 A 
ATOM     38  C   UNL A   1      44.993  25.033  26.714  1.00  0.00     0.049 A 
ATOM     39  N   UNL A   1      43.036  27.032  27.843  1.00  0.00    -0.248 NA
ATOM     40  C   UNL A   1      41.422  25.348  27.901  1.00  0.00     0.031 C 
ATOM     41  C   UNL A   1      45.958  24.122  26.094  1.00  0.00     0.029 A 
ATOM     42  N   UNL A   1      45.671  26.224  26.795  1.00  0.00    -0.354 N 
ATOM     43  C   UNL A   1      41.821  27.564  28.258  1.00  0.00     0.074 A 
ATOM     44  C   UNL A   1      40.845  26.502  28.194  1.00  0.00     0.031 C 
ATOM     45  C   UNL A   1      47.106  24.785  25.866  1.00  0.00     0.029 A 
ATOM     46  C   UNL A   1      46.959  26.166  26.314  1.00  0.00     0.049 A 
ATOM     47  H   UNL A   1      45.272  27.045  27.164  1.00  0.00     0.167 HD
ATOM     48  C   UNL A   1      41.549  28.813  28.701  1.00  0.00     0.034 A 
ATOM     49  C   UNL A   1      47.914  27.118  26.260  1.00  0.00     0.034 A 
ATOM     50  C   UNL A   1      42.538  29.844  28.828  1.00  0.00     0.049 A 
ATOM     51  C   UNL A   1      47.611  28.478  26.836  1.00  0.00     0.074 A 
ATOM     52  C   UNL A   1      42.398  31.115  29.352  1.00  0.00     0.029 A 
ATOM     53  N   UNL A   1      43.861  29.713  28.433  1.00  0.00    -0.354 N 
ATOM     54  N   UNL A   1      46.501  28.915  27.384  1.00  0.00    -0.248 NA
ATOM     55  C   UNL A   1      48.703  29.463  26.833  1.00  0.00     0.031 C 
ATOM     56  C   UNL A   1      43.637  31.758  29.266  1.00  0.00     0.029 A 
ATOM     57  C   UNL A   1      44.552  30.879  28.706  1.00  0.00     0.049 A 
ATOM     58  H   UNL A   1      44.250  28.909  28.020  1.00  0.00     0.167 HD
ATOM     59  C   UNL A   1      46.773  30.205  27.825  1.00  0.00     0.074 A 
ATOM     60  C   UNL A   1      48.158  30.474  27.498  1.00  0.00     0.031 C 
ATOM     61  C   UNL A   1      45.949  31.096  28.431  1.00  0.00     0.034 A 
BRANCH  48  62
ATOM     62  C   UNL A   1      40.139  29.096  29.150  1.00  0.00     0.023 A 
ATOM     63  C   UNL A   1      39.164  29.442  28.190  1.00  0.00     0.012 A 
ATOM     64  C   UNL A   1      39.772  29.005  30.505  1.00  0.00     0.148 A 
ATOM     65  C   UNL A   1      37.859  29.741  28.577  1.00  0.00     0.002 A 
ATOM     66  C   UNL A   1      38.456  29.257  30.878  1.00  0.00     0.091 A 
ATOM     67  F   UNL A   1      40.716  28.696  31.406  1.00  0.00    -0.205 F 
ATOM     68  C   UNL A   1      37.504  29.640  29.919  1.00  0.00     0.022 A 
BRANCH  66  69
ATOM     69  S   UNL A   1      37.877  29.079  32.568  1.00  0.00     0.127 S 
ATOM     70  O   UNL A   1      38.015  27.639  32.779  1.00  0.00    -0.237 OA
ATOM     71  O   UNL A   1      38.837  29.898  33.310  1.00  0.00    -0.237 OA
ATOM     72  O   UNL A   1      36.512  29.587  32.580  1.00  0.00    -0.744 OA
ENDBRANCH  66  69
ENDBRANCH  48  62
BRANCH  49  73
ATOM     73  C   UNL A   1      49.275  26.793  25.740  1.00  0.00     0.023 A 
ATOM     74  C   UNL A   1      50.178  26.091  26.565  1.00  0.00     0.012 A 
ATOM     75  C   UNL A   1      49.677  27.152  24.438  1.00  0.00     0.148 A 
ATOM     76  C   UNL A   1      51.465  25.787  26.119  1.00  0.00     0.002 A 
ATOM     77  C   UNL A   1      50.943  26.800  23.982  1.00  0.00     0.091 A 
ATOM     78  F   UNL A   1      48.813  27.831  23.671  1.00  0.00    -0.205 F 
ATOM     79  C   UNL A   1      51.845  26.132  24.825  1.00  0.00     0.022 A 
BRANCH  77  80
ATOM     80  S   UNL A   1      51.472  27.093  22.289  1.00  0.00     0.127 S 
ATOM     81  O   UNL A   1      51.669  28.540  22.282  1.00  0.00    -0.237 OA
ATOM     82  O   UNL A   1      52.703  26.304  22.213  1.00  0.00    -0.237 OA
ATOM     83  O   UNL A   1      50.390  26.594  21.451  1.00  0.00    -0.744 OA
ENDBRANCH  77  80
ENDBRANCH  49  73
BRANCH  61  84
ATOM     84  C   UNL A   1      46.522  32.431  28.821  1.00  0.00     0.023 A 
ATOM     85  C   UNL A   1      47.111  32.595  30.089  1.00  0.00     0.012 A 
ATOM     86  C   UNL A   1      46.569  33.488  27.891  1.00  0.00     0.148 A 
ATOM     87  C   UNL A   1      47.716  33.802  30.436  1.00  0.00     0.002 A 
ATOM     88  C   UNL A   1      47.216  34.671  28.225  1.00  0.00     0.091 A 
ATOM     89  F   UNL A   1      45.985  33.316  26.696  1.00  0.00    -0.205 F 
ATOM     90  C   UNL A   1      47.781  34.833  29.501  1.00  0.00     0.022 A 
BRANCH  88  91
ATOM     91  S   UNL A   1      47.436  36.010  27.048  1.00  0.00     0.127 S 
ATOM     92  O   UNL A   1      47.212  37.185  27.889  1.00  0.00    -0.237 OA
ATOM     93  O   UNL A   1      48.822  35.823  26.618  1.00  0.00    -0.237 OA
ATOM     94  O   UNL A   1      46.446  35.788  26.002  1.00  0.00    -0.744 OA
ENDBRANCH  88  91
ENDBRANCH  61  84
ENDBRANCH  35  36
ENDBRANCH  27  30
ENDBRANCH  25  26
ENDBRANCH  24  25
ENDBRANCH  23  24
ENDBRANCH   1  23
TORSDOF 21
ENDMDL
MODEL 3
REMARK VINA RESULT:      -9.8      5.322     10.135
REMARK SMILES C#CC[C@@]1(C(=O)NCCCCCCNC(=O)c2ccc(-c3c4nc(c(-c5cccc(S(=O)(=O)[O-])c5F)c5ccc([nH]5)c(-c5cccc(S(=O)(=O)[O-])c5F)c5nc(c(-c6cccc(S(=O)(=O)[O-])c6F)c6ccc3[nH]6)C=C5)C=C4)cc2)CCCN1C(=O)OC(C)(C)C
REMARK SMILES IDX 10 1 9 2 8 3 7 4 5 5 6 6 4 8 80 9 83 10 81 11 82 12 3 13
REMARK SMILES IDX 2 14 1 15 84 16 85 17 86 18 87 19 88 20 89 21 90 22 11 23
REMARK SMILES IDX 12 24 13 25 14 26 15 27 16 29 17 30 18 31 79 32 19 33 78 34
REMARK SMILES IDX 20 35 21 36 22 37 72 38 23 39 77 40 71 41 73 42 24 43 76 44
REMARK SMILES IDX 70 45 69 46 25 48 57 49 37 50 56 51 38 52 41 53 55 54 74 55
REMARK SMILES IDX 39 56 40 57 54 59 75 60 42 61 26 62 27 63 35 64 28 65 30 66
REMARK SMILES IDX 36 67 29 68 31 69 32 70 33 71 34 72 58 73 59 74 67 75 60 76
REMARK SMILES IDX 62 77 68 78 61 79 63 80 64 81 65 82 66 83 43 84 44 85 52 86
REMARK SMILES IDX 45 87 47 88 53 89 46 90 48 91 49 92 50 93 51 94
REMARK H PARENT 7 7 14 28 73 47 41 58
REMARK Flexibility Score: inf
ROOT
ATOM      1  C   UNL A   1      38.182  32.141  36.820  1.00  0.00     0.002 C 
ENDROOT
BRANCH   1   2
ATOM      2  C   UNL A   1      38.163  30.831  36.020  1.00  0.00     0.021 C 
BRANCH   2   3
ATOM      3  C   UNL A   1      38.405  30.698  34.493  1.00  0.00     0.116 C 
BRANCH   3   4
ATOM      4  N   UNL A   1      37.384  30.247  33.525  1.00  0.00    -0.354 N 
ATOM      5  C   UNL A   1      36.980  30.613  32.243  1.00  0.00     0.247 C 
ATOM      6  O   UNL A   1      36.369  29.755  31.593  1.00  0.00    -0.272 OA
ATOM      7  H   UNL A   1      36.852  29.497  33.876  1.00  0.00     0.163 HD
BRANCH   5   8
ATOM      8  C   UNL A   1      37.394  31.977  31.570  1.00  0.00     0.136 C 
ATOM      9  C   UNL A   1      36.069  32.481  30.940  1.00  0.00     0.042 C 
ATOM     10  N   UNL A   1      38.245  31.654  30.438  1.00  0.00    -0.292 N 
ATOM     11  C   UNL A   1      36.426  32.917  29.526  1.00  0.00     0.025 C 
ATOM     12  C   UNL A   1      37.796  32.301  29.218  1.00  0.00     0.124 C 
BRANCH   8  13
ATOM     13  C   UNL A   1      38.189  33.094  32.459  1.00  0.00     0.128 C 
BRANCH  13  14
ATOM     14  C   UNL A   1      37.177  33.773  33.367  1.00  0.00    -0.104 C 
ATOM     15  C   UNL A   1      36.310  34.356  34.146  1.00  0.00     0.004 C 
ENDBRANCH  13  14
ENDBRANCH   8  13
BRANCH  10  16
ATOM     16  C   UNL A   1      39.419  30.930  30.632  1.00  0.00     0.411 C 
ATOM     17  O   UNL A   1      40.009  30.850  31.687  1.00  0.00    -0.224 OA
BRANCH  16  18
ATOM     18  O   UNL A   1      39.824  30.377  29.448  1.00  0.00    -0.444 OA
BRANCH  18  19
ATOM     19  C   UNL A   1      39.594  29.044  28.899  1.00  0.00     0.106 C 
ATOM     20  C   UNL A   1      40.493  28.009  29.604  1.00  0.00     0.056 C 
ATOM     21  C   UNL A   1      38.131  28.621  28.889  1.00  0.00     0.056 C 
ATOM     22  C   UNL A   1      40.130  29.105  27.461  1.00  0.00     0.056 C 
ENDBRANCH  18  19
ENDBRANCH  16  18
ENDBRANCH  10  16
ENDBRANCH   5   8
ENDBRANCH   3   4
ENDBRANCH   2   3
ENDBRANCH   1   2
BRANCH   1  23
ATOM     23  C   UNL A   1      39.079  32.241  38.060  1.00  0.00     0.002 C 
BRANCH  23  24
ATOM     24  C   UNL A   1      38.697  33.385  39.008  1.00  0.00     0.021 C 
BRANCH  24  25
ATOM     25  C   UNL A   1      39.879  34.173  39.573  1.00  0.00     0.116 C 
BRANCH  25  26
ATOM     26  N   UNL A   1      39.719  35.625  39.539  1.00  0.00    -0.352 N 
ATOM     27  C   UNL A   1      40.070  36.445  38.482  1.00  0.00     0.251 C 
ATOM     28  H   UNL A   1      39.329  36.055  40.334  1.00  0.00     0.163 HD
ATOM     29  O   UNL A   1      39.946  37.661  38.524  1.00  0.00    -0.269 OA
BRANCH  27  30
ATOM     30  C   UNL A   1      40.636  35.777  37.292  1.00  0.00     0.039 A 
ATOM     31  C   UNL A   1      41.937  35.273  37.343  1.00  0.00     0.014 A 
ATOM     32  C   UNL A   1      39.780  35.463  36.234  1.00  0.00     0.014 A 
ATOM     33  C   UNL A   1      42.366  34.394  36.347  1.00  0.00     0.010 A 
ATOM     34  C   UNL A   1      40.185  34.528  35.289  1.00  0.00     0.010 A 
ATOM     35  C   UNL A   1      41.484  33.995  35.328  1.00  0.00    -0.014 A 
BRANCH  35  36
ATOM     36  C   UNL A   1      41.924  33.070  34.253  1.00  0.00     0.031 A 
ATOM     37  C   UNL A   1      42.161  33.618  32.873  1.00  0.00     0.074 A 
ATOM     38  C   UNL A   1      42.049  31.748  34.492  1.00  0.00     0.049 A 
ATOM     39  N   UNL A   1      42.535  32.993  31.788  1.00  0.00    -0.248 NA
ATOM     40  C   UNL A   1      41.906  35.056  32.677  1.00  0.00     0.031 C 
ATOM     41  C   UNL A   1      41.755  31.082  35.764  1.00  0.00     0.029 A 
ATOM     42  N   UNL A   1      42.443  30.723  33.668  1.00  0.00    -0.354 N 
ATOM     43  C   UNL A   1      42.524  33.951  30.781  1.00  0.00     0.074 A 
ATOM     44  C   UNL A   1      42.049  35.182  31.367  1.00  0.00     0.031 C 
ATOM     45  C   UNL A   1      41.994  29.764  35.637  1.00  0.00     0.029 A 
ATOM     46  C   UNL A   1      42.448  29.489  34.277  1.00  0.00     0.049 A 
ATOM     47  H   UNL A   1      42.697  30.859  32.727  1.00  0.00     0.167 HD
ATOM     48  C   UNL A   1      42.921  33.833  29.493  1.00  0.00     0.034 A 
ATOM     49  C   UNL A   1      42.800  28.280  33.793  1.00  0.00     0.034 A 
ATOM     50  C   UNL A   1      43.459  32.625  28.935  1.00  0.00     0.049 A 
ATOM     51  C   UNL A   1      43.317  28.189  32.379  1.00  0.00     0.074 A 
ATOM     52  C   UNL A   1      43.979  32.415  27.672  1.00  0.00     0.029 A 
ATOM     53  N   UNL A   1      43.552  31.421  29.616  1.00  0.00    -0.354 N 
ATOM     54  N   UNL A   1      43.461  29.143  31.490  1.00  0.00    -0.248 NA
ATOM     55  C   UNL A   1      43.765  26.867  31.916  1.00  0.00     0.031 C 
ATOM     56  C   UNL A   1      44.381  31.078  27.587  1.00  0.00     0.029 A 
ATOM     57  C   UNL A   1      44.127  30.463  28.804  1.00  0.00     0.049 A 
ATOM     58  H   UNL A   1      43.254  31.271  30.542  1.00  0.00     0.167 HD
ATOM     59  C   UNL A   1      44.052  28.548  30.382  1.00  0.00     0.074 A 
ATOM     60  C   UNL A   1      44.257  27.153  30.717  1.00  0.00     0.031 C 
ATOM     61  C   UNL A   1      44.382  29.098  29.186  1.00  0.00     0.034 A 
BRANCH  48  62
ATOM     62  C   UNL A   1      42.856  35.068  28.633  1.00  0.00     0.023 A 
ATOM     63  C   UNL A   1      41.624  35.449  28.063  1.00  0.00     0.012 A 
ATOM     64  C   UNL A   1      43.999  35.857  28.402  1.00  0.00     0.148 A 
ATOM     65  C   UNL A   1      41.538  36.569  27.237  1.00  0.00     0.002 A 
ATOM     66  C   UNL A   1      43.895  37.000  27.616  1.00  0.00     0.091 A 
ATOM     67  F   UNL A   1      45.166  35.466  28.933  1.00  0.00    -0.205 F 
ATOM     68  C   UNL A   1      42.671  37.348  27.021  1.00  0.00     0.022 A 
BRANCH  66  69
ATOM     69  S   UNL A   1      45.276  38.113  27.339  1.00  0.00     0.127 S 
ATOM     70  O   UNL A   1      45.642  38.477  28.707  1.00  0.00    -0.237 OA
ATOM     71  O   UNL A   1      46.239  37.245  26.660  1.00  0.00    -0.237 OA
ATOM     72  O   UNL A   1      44.757  39.200  26.519  1.00  0.00    -0.744 OA
ENDBRANCH  66  69
ENDBRANCH  48  62
BRANCH  49  73
ATOM     73  C   UNL A   1      42.778  27.078  34.678  1.00  0.00     0.023 A 
ATOM     74  C   UNL A   1      41.605  26.297  34.752  1.00  0.00     0.012 A 
ATOM     75  C   UNL A   1      43.905  26.688  35.429  1.00  0.00     0.148 A 
ATOM     76  C   UNL A   1      41.542  25.178  35.582  1.00  0.00     0.002 A 
ATOM     77  C   UNL A   1      43.852  25.541  36.215  1.00  0.00     0.091 A 
ATOM     78  F   UNL A   1      45.007  27.447  35.359  1.00  0.00    -0.205 F 
ATOM     79  C   UNL A   1      42.668  24.794  36.307  1.00  0.00     0.022 A 
BRANCH  77  80
ATOM     80  S   UNL A   1      45.291  24.902  37.083  1.00  0.00     0.127 S 
ATOM     81  O   UNL A   1      46.234  24.694  35.988  1.00  0.00    -0.237 OA
ATOM     82  O   UNL A   1      45.623  26.010  37.980  1.00  0.00    -0.237 OA
ATOM     83  O   UNL A   1      44.831  23.700  37.766  1.00  0.00    -0.744 OA
ENDBRANCH  77  80
ENDBRANCH  49  73
BRANCH  61  84
ATOM     84  C   UNL A   1      45.035  28.211  28.162  1.00  0.00     0.023 A 
ATOM     85  C   UNL A   1      46.439  28.131  28.100  1.00  0.00     0.012 A 
ATOM     86  C   UNL A   1      44.255  27.382  27.331  1.00  0.00     0.148 A 
ATOM     87  C   UNL A   1      47.059  27.256  27.209  1.00  0.00     0.002 A 
ATOM     88  C   UNL A   1      44.878  26.478  26.481  1.00  0.00     0.091 A 
ATOM     89  F   UNL A   1      42.920  27.489  27.393  1.00  0.00    -0.205 F 
ATOM     90  C   UNL A   1      46.281  26.421  26.411  1.00  0.00     0.022 A 
BRANCH  88  91
ATOM     91  S   UNL A   1      43.954  25.294  25.495  1.00  0.00     0.127 S 
ATOM     92  O   UNL A   1      43.060  26.171  24.739  1.00  0.00    -0.237 OA
ATOM     93  O   UNL A   1      45.006  24.661  24.699  1.00  0.00    -0.237 OA
ATOM     94  O   UNL A   1      43.303  24.405  26.448  1.00  0.00    -0.744 OA
ENDBRANCH  88  91
ENDBRANCH  61  84
ENDBRANCH  35  36
ENDBRANCH  27  30
ENDBRANCH  25  26
ENDBRANCH  24  25
ENDBRANCH  23  24
ENDBRANCH   1  23
TORSDOF 21
ENDMDL
