MODEL 1
REMARK VINA RESULT:     -12.0      0.000      0.000
REMARK SMILES O=C(Cc1ccc(S(=O)(=O)N2CCNC(=O)C2)cc1)NCCCCCCNC(=O)c1ccc(-c2c3nc(c(-c4cccc(S(=O)(=O)[O-])c4F)c4ccc([nH]4)c(-c4cccc(S(=O)(=O)[O-])c4F)c4nc(c(-c5cccc(S(=O)(=O)[O-])c5F)c5ccc2[nH]5)C=C4)C=C3)cc1
REMARK SMILES IDX 23 1 22 2 21 3 20 4 1 5 2 6 3 8 4 9 5 10 19 11 6 12 18 13
REMARK SMILES IDX 7 14 8 15 9 16 10 17 11 18 12 19 17 20 13 21 15 22 14 23
REMARK SMILES IDX 16 24 24 26 25 27 26 28 27 29 28 30 29 32 30 33 31 34 92 35
REMARK SMILES IDX 32 36 91 37 33 38 34 39 35 40 85 41 36 42 90 43 84 44 86 45
REMARK SMILES IDX 37 46 89 47 83 48 82 49 38 51 70 52 50 53 69 54 51 55 54 56
REMARK SMILES IDX 68 57 87 58 52 59 53 60 67 62 88 63 55 64 39 65 40 66 48 67
REMARK SMILES IDX 41 68 43 69 49 70 42 71 44 72 45 73 46 74 47 75 71 76 72 77
REMARK SMILES IDX 80 78 73 79 75 80 81 81 74 82 76 83 77 84 78 85 79 86 56 87
REMARK SMILES IDX 57 88 65 89 58 90 60 91 66 92 59 93 61 94 62 95 63 96 64 97
REMARK H PARENT 20 7 14 25 27 31 86 50 54 61
REMARK Flexibility Score: inf
ROOT
ATOM      1  C   UNL A   1      34.174  22.922  26.883  1.00  0.00     0.002 C 
ENDROOT
BRANCH   1   2
ATOM      2  C   UNL A   1      34.007  21.570  27.588  1.00  0.00     0.021 C 
BRANCH   2   3
ATOM      3  C   UNL A   1      33.241  20.515  26.792  1.00  0.00     0.116 C 
BRANCH   3   4
ATOM      4  N   UNL A   1      33.017  20.927  25.421  1.00  0.00    -0.356 N 
ATOM      5  O   UNL A   1      32.146  18.936  24.666  1.00  0.00    -0.275 OA
ATOM      6  C   UNL A   1      32.430  20.115  24.475  1.00  0.00     0.224 C 
ATOM      7  H   UNL A   1      33.299  21.831  25.151  1.00  0.00     0.163 HD
BRANCH   6   8
ATOM      8  C   UNL A   1      32.179  20.793  23.136  1.00  0.00     0.135 C 
BRANCH   8   9
ATOM      9  C   UNL A   1      32.350  22.300  23.120  1.00  0.00    -0.039 A 
ATOM     10  C   UNL A   1      33.622  22.843  22.886  1.00  0.00     0.005 A 
ATOM     11  C   UNL A   1      31.270  23.176  23.300  1.00  0.00     0.005 A 
ATOM     12  C   UNL A   1      33.812  24.228  22.862  1.00  0.00     0.022 A 
ATOM     13  C   UNL A   1      31.463  24.557  23.327  1.00  0.00     0.022 A 
ATOM     14  C   UNL A   1      32.730  25.085  23.094  1.00  0.00     0.082 A 
BRANCH  14  15
ATOM     15  S   UNL A   1      33.023  26.840  23.061  1.00  0.00     0.243 S 
ATOM     16  O   UNL A   1      33.899  27.132  24.175  1.00  0.00    -0.207 OA
ATOM     17  O   UNL A   1      33.406  27.166  21.702  1.00  0.00    -0.207 OA
BRANCH  15  18
ATOM     18  N   UNL A   1      31.546  27.576  23.336  1.00  0.00    -0.187 NA
ATOM     19  C   UNL A   1      31.203  28.139  24.653  1.00  0.00     0.124 C 
ATOM     20  C   UNL A   1      30.721  28.043  22.203  1.00  0.00     0.202 C 
ATOM     21  C   UNL A   1      31.142  29.663  24.590  1.00  0.00     0.132 C 
ATOM     22  C   UNL A   1      30.182  29.464  22.303  1.00  0.00     0.235 C 
ATOM     23  N   UNL A   1      30.356  30.149  23.476  1.00  0.00    -0.354 N 
ATOM     24  O   UNL A   1      29.585  30.002  21.374  1.00  0.00    -0.274 OA
ATOM     25  H   UNL A   1      29.919  31.027  23.566  1.00  0.00     0.163 HD
ENDBRANCH  15  18
ENDBRANCH  14  15
ENDBRANCH   8   9
ENDBRANCH   6   8
ENDBRANCH   3   4
ENDBRANCH   2   3
ENDBRANCH   1   2
BRANCH   1  26
ATOM     26  C   UNL A   1      35.502  23.132  26.148  1.00  0.00     0.002 C 
BRANCH  26  27
ATOM     27  C   UNL A   1      36.223  21.858  25.702  1.00  0.00     0.021 C 
BRANCH  27  28
ATOM     28  C   UNL A   1      37.643  22.051  25.176  1.00  0.00     0.116 C 
BRANCH  28  29
ATOM     29  N   UNL A   1      38.583  21.076  25.705  1.00  0.00    -0.352 N 
ATOM     30  C   UNL A   1      39.749  21.274  26.406  1.00  0.00     0.251 C 
ATOM     31  H   UNL A   1      38.351  20.135  25.535  1.00  0.00     0.163 HD
ATOM     32  O   UNL A   1      40.469  20.313  26.665  1.00  0.00    -0.269 OA
BRANCH  30  33
ATOM     33  C   UNL A   1      40.155  22.636  26.827  1.00  0.00     0.039 A 
ATOM     34  C   UNL A   1      41.054  22.767  27.890  1.00  0.00     0.014 A 
ATOM     35  C   UNL A   1      39.645  23.777  26.203  1.00  0.00     0.014 A 
ATOM     36  C   UNL A   1      41.487  24.036  28.285  1.00  0.00     0.010 A 
ATOM     37  C   UNL A   1      40.124  25.038  26.557  1.00  0.00     0.010 A 
ATOM     38  C   UNL A   1      41.048  25.182  27.603  1.00  0.00    -0.014 A 
BRANCH  38  39
ATOM     39  C   UNL A   1      41.569  26.529  27.955  1.00  0.00     0.031 A 
ATOM     40  C   UNL A   1      42.987  26.915  27.637  1.00  0.00     0.074 A 
ATOM     41  C   UNL A   1      40.782  27.384  28.639  1.00  0.00     0.049 A 
ATOM     42  N   UNL A   1      43.605  28.045  27.867  1.00  0.00    -0.248 NA
ATOM     43  C   UNL A   1      43.831  25.892  26.998  1.00  0.00     0.031 C 
ATOM     44  C   UNL A   1      39.418  27.100  29.089  1.00  0.00     0.029 A 
ATOM     45  N   UNL A   1      41.022  28.657  29.090  1.00  0.00    -0.354 N 
ATOM     46  C   UNL A   1      44.914  27.859  27.440  1.00  0.00     0.074 A 
ATOM     47  C   UNL A   1      45.010  26.498  26.961  1.00  0.00     0.031 C 
ATOM     48  C   UNL A   1      38.937  28.173  29.737  1.00  0.00     0.029 A 
ATOM     49  C   UNL A   1      39.960  29.214  29.765  1.00  0.00     0.049 A 
ATOM     50  H   UNL A   1      41.874  29.128  28.945  1.00  0.00     0.167 HD
ATOM     51  C   UNL A   1      45.936  28.749  27.419  1.00  0.00     0.034 A 
ATOM     52  C   UNL A   1      39.820  30.428  30.330  1.00  0.00     0.034 A 
ATOM     53  C   UNL A   1      45.824  30.120  27.839  1.00  0.00     0.049 A 
ATOM     54  C   UNL A   1      40.949  31.418  30.236  1.00  0.00     0.074 A 
ATOM     55  C   UNL A   1      46.765  31.131  27.741  1.00  0.00     0.029 A 
ATOM     56  N   UNL A   1      44.706  30.674  28.443  1.00  0.00    -0.354 N 
ATOM     57  N   UNL A   1      42.115  31.286  29.652  1.00  0.00    -0.248 NA
ATOM     58  C   UNL A   1      40.727  32.738  30.843  1.00  0.00     0.031 C 
ATOM     59  C   UNL A   1      46.219  32.293  28.299  1.00  0.00     0.029 A 
ATOM     60  C   UNL A   1      44.936  32.009  28.735  1.00  0.00     0.049 A 
ATOM     61  H   UNL A   1      43.870  30.190  28.634  1.00  0.00     0.167 HD
ATOM     62  C   UNL A   1      42.753  32.513  29.792  1.00  0.00     0.074 A 
ATOM     63  C   UNL A   1      41.832  33.383  30.497  1.00  0.00     0.031 C 
ATOM     64  C   UNL A   1      43.994  32.881  29.391  1.00  0.00     0.034 A 
BRANCH  51  65
ATOM     65  C   UNL A   1      47.254  28.281  26.860  1.00  0.00     0.023 A 
ATOM     66  C   UNL A   1      48.324  28.015  27.740  1.00  0.00     0.012 A 
ATOM     67  C   UNL A   1      47.424  28.056  25.481  1.00  0.00     0.148 A 
ATOM     68  C   UNL A   1      49.551  27.570  27.253  1.00  0.00     0.002 A 
ATOM     69  C   UNL A   1      48.640  27.574  25.006  1.00  0.00     0.091 A 
ATOM     70  F   UNL A   1      46.406  28.337  24.653  1.00  0.00    -0.205 F 
ATOM     71  C   UNL A   1      49.707  27.339  25.888  1.00  0.00     0.022 A 
BRANCH  69  72
ATOM     72  S   UNL A   1      48.903  27.180  23.273  1.00  0.00     0.127 S 
ATOM     73  O   UNL A   1      48.178  25.918  23.142  1.00  0.00    -0.237 OA
ATOM     74  O   UNL A   1      48.277  28.316  22.594  1.00  0.00    -0.237 OA
ATOM     75  O   UNL A   1      50.348  27.102  23.102  1.00  0.00    -0.744 OA
ENDBRANCH  69  72
ENDBRANCH  51  65
BRANCH  52  76
ATOM     76  C   UNL A   1      38.517  30.814  30.942  1.00  0.00     0.023 A 
ATOM     77  C   UNL A   1      38.313  30.575  32.315  1.00  0.00     0.012 A 
ATOM     78  C   UNL A   1      37.506  31.446  30.196  1.00  0.00     0.148 A 
ATOM     79  C   UNL A   1      37.114  30.937  32.930  1.00  0.00     0.002 A 
ATOM     80  C   UNL A   1      36.333  31.849  30.825  1.00  0.00     0.091 A 
ATOM     81  F   UNL A   1      37.714  31.652  28.888  1.00  0.00    -0.205 F 
ATOM     82  C   UNL A   1      36.130  31.584  32.188  1.00  0.00     0.022 A 
BRANCH  80  83
ATOM     83  S   UNL A   1      35.064  32.799  29.979  1.00  0.00     0.127 S 
ATOM     84  O   UNL A   1      34.568  31.832  29.002  1.00  0.00    -0.237 OA
ATOM     85  O   UNL A   1      34.136  33.106  31.068  1.00  0.00    -0.237 OA
ATOM     86  O   UNL A   1      35.747  33.962  29.429  1.00  0.00    -0.744 OA
ENDBRANCH  80  83
ENDBRANCH  52  76
BRANCH  64  87
ATOM     87  C   UNL A   1      44.432  34.291  29.688  1.00  0.00     0.023 A 
ATOM     88  C   UNL A   1      45.071  34.575  30.911  1.00  0.00     0.012 A 
ATOM     89  C   UNL A   1      44.264  35.320  28.741  1.00  0.00     0.148 A 
ATOM     90  C   UNL A   1      45.507  35.869  31.201  1.00  0.00     0.002 A 
ATOM     91  C   UNL A   1      44.741  36.597  29.019  1.00  0.00     0.091 A 
ATOM     92  F   UNL A   1      43.633  35.039  27.592  1.00  0.00    -0.205 F 
ATOM     93  C   UNL A   1      45.352  36.875  30.251  1.00  0.00     0.022 A 
BRANCH  91  94
ATOM     94  S   UNL A   1      44.659  37.923  27.809  1.00  0.00     0.127 S 
ATOM     95  O   UNL A   1      45.283  39.028  28.532  1.00  0.00    -0.237 OA
ATOM     96  O   UNL A   1      45.456  37.393  26.701  1.00  0.00    -0.237 OA
ATOM     97  O   UNL A   1      43.244  38.085  27.501  1.00  0.00    -0.744 OA
ENDBRANCH  91  94
ENDBRANCH  64  87
ENDBRANCH  38  39
ENDBRANCH  30  33
ENDBRANCH  28  29
ENDBRANCH  27  28
ENDBRANCH  26  27
ENDBRANCH   1  26
TORSDOF 19
ENDMDL
MODEL 2
REMARK VINA RESULT:     -11.7      5.570     11.008
REMARK SMILES O=C(Cc1ccc(S(=O)(=O)N2CCNC(=O)C2)cc1)NCCCCCCNC(=O)c1ccc(-c2c3nc(c(-c4cccc(S(=O)(=O)[O-])c4F)c4ccc([nH]4)c(-c4cccc(S(=O)(=O)[O-])c4F)c4nc(c(-c5cccc(S(=O)(=O)[O-])c5F)c5ccc2[nH]5)C=C4)C=C3)cc1
REMARK SMILES IDX 23 1 22 2 21 3 20 4 1 5 2 6 3 8 4 9 5 10 19 11 6 12 18 13
REMARK SMILES IDX 7 14 8 15 9 16 10 17 11 18 12 19 17 20 13 21 15 22 14 23
REMARK SMILES IDX 16 24 24 26 25 27 26 28 27 29 28 30 29 32 30 33 31 34 92 35
REMARK SMILES IDX 32 36 91 37 33 38 34 39 35 40 85 41 36 42 90 43 84 44 86 45
REMARK SMILES IDX 37 46 89 47 83 48 82 49 38 51 70 52 50 53 69 54 51 55 54 56
REMARK SMILES IDX 68 57 87 58 52 59 53 60 67 62 88 63 55 64 39 65 40 66 48 67
REMARK SMILES IDX 41 68 43 69 49 70 42 71 44 72 45 73 46 74 47 75 71 76 72 77
REMARK SMILES IDX 80 78 73 79 75 80 81 81 74 82 76 83 77 84 78 85 79 86 56 87
REMARK SMILES IDX 57 88 65 89 58 90 60 91 66 92 59 93 61 94 62 95 63 96 64 97
REMARK H PARENT 20 7 14 25 27 31 86 50 54 61
REMARK Flexibility Score: inf
ROOT
ATOM      1  C   UNL A   1      31.214  26.438  25.745  1.00  0.00     0.002 C 
ENDROOT
BRANCH   1   2
ATOM      2  C   UNL A   1      31.922  25.308  26.503  1.00  0.00     0.021 C 
BRANCH   2   3
ATOM      3  C   UNL A   1      32.406  24.150  25.634  1.00  0.00     0.116 C 
BRANCH   3   4
ATOM      4  N   UNL A   1      33.758  24.359  25.156  1.00  0.00    -0.356 N 
ATOM      5  O   UNL A   1      34.820  23.065  26.733  1.00  0.00    -0.275 OA
ATOM      6  C   UNL A   1      34.860  23.748  25.714  1.00  0.00     0.224 C 
ATOM      7  H   UNL A   1      33.896  24.968  24.394  1.00  0.00     0.163 HD
BRANCH   6   8
ATOM      8  C   UNL A   1      36.164  24.012  24.976  1.00  0.00     0.135 C 
BRANCH   8   9
ATOM      9  C   UNL A   1      37.386  23.303  25.528  1.00  0.00    -0.039 A 
ATOM     10  C   UNL A   1      38.254  23.997  26.384  1.00  0.00     0.005 A 
ATOM     11  C   UNL A   1      37.665  21.960  25.237  1.00  0.00     0.005 A 
ATOM     12  C   UNL A   1      39.387  23.371  26.911  1.00  0.00     0.022 A 
ATOM     13  C   UNL A   1      38.820  21.346  25.720  1.00  0.00     0.022 A 
ATOM     14  C   UNL A   1      39.674  22.045  26.569  1.00  0.00     0.082 A 
BRANCH  14  15
ATOM     15  S   UNL A   1      41.132  21.293  27.259  1.00  0.00     0.243 S 
ATOM     16  O   UNL A   1      41.758  22.296  28.091  1.00  0.00    -0.207 OA
ATOM     17  O   UNL A   1      40.715  20.019  27.807  1.00  0.00    -0.207 OA
BRANCH  15  18
ATOM     18  N   UNL A   1      42.150  20.955  25.974  1.00  0.00    -0.187 NA
ATOM     19  C   UNL A   1      43.063  21.975  25.431  1.00  0.00     0.124 C 
ATOM     20  C   UNL A   1      42.460  19.557  25.614  1.00  0.00     0.202 C 
ATOM     21  C   UNL A   1      44.515  21.621  25.743  1.00  0.00     0.132 C 
ATOM     22  C   UNL A   1      43.932  19.224  25.411  1.00  0.00     0.235 C 
ATOM     23  N   UNL A   1      44.841  20.248  25.418  1.00  0.00    -0.354 N 
ATOM     24  O   UNL A   1      44.323  18.074  25.226  1.00  0.00    -0.274 OA
ATOM     25  H   UNL A   1      45.775  20.038  25.189  1.00  0.00     0.163 HD
ENDBRANCH  15  18
ENDBRANCH  14  15
ENDBRANCH   8   9
ENDBRANCH   6   8
ENDBRANCH   3   4
ENDBRANCH   2   3
ENDBRANCH   1   2
BRANCH   1  26
ATOM     26  C   UNL A   1      32.063  27.679  25.452  1.00  0.00     0.002 C 
BRANCH  26  27
ATOM     27  C   UNL A   1      33.276  27.885  26.363  1.00  0.00     0.021 C 
BRANCH  27  28
ATOM     28  C   UNL A   1      34.219  29.017  25.964  1.00  0.00     0.116 C 
BRANCH  28  29
ATOM     29  N   UNL A   1      33.744  30.327  26.382  1.00  0.00    -0.352 N 
ATOM     30  C   UNL A   1      34.205  31.147  27.384  1.00  0.00     0.251 C 
ATOM     31  H   UNL A   1      32.978  30.677  25.872  1.00  0.00     0.163 HD
ATOM     32  O   UNL A   1      33.588  32.173  27.658  1.00  0.00    -0.269 OA
BRANCH  30  33
ATOM     33  C   UNL A   1      35.422  30.790  28.151  1.00  0.00     0.039 A 
ATOM     34  C   UNL A   1      36.526  31.646  28.090  1.00  0.00     0.014 A 
ATOM     35  C   UNL A   1      35.493  29.617  28.908  1.00  0.00     0.014 A 
ATOM     36  C   UNL A   1      37.674  31.359  28.834  1.00  0.00     0.010 A 
ATOM     37  C   UNL A   1      36.615  29.363  29.697  1.00  0.00     0.010 A 
ATOM     38  C   UNL A   1      37.718  30.229  29.666  1.00  0.00    -0.014 A 
BRANCH  38  39
ATOM     39  C   UNL A   1      38.899  29.960  30.529  1.00  0.00     0.031 A 
ATOM     40  C   UNL A   1      38.998  30.554  31.908  1.00  0.00     0.074 A 
ATOM     41  C   UNL A   1      39.927  29.239  30.037  1.00  0.00     0.049 A 
ATOM     42  N   UNL A   1      39.950  30.421  32.795  1.00  0.00    -0.248 NA
ATOM     43  C   UNL A   1      37.897  31.431  32.338  1.00  0.00     0.031 C 
ATOM     44  C   UNL A   1      39.996  28.682  28.685  1.00  0.00     0.029 A 
ATOM     45  N   UNL A   1      41.116  28.867  30.611  1.00  0.00    -0.354 N 
ATOM     46  C   UNL A   1      39.585  31.223  33.869  1.00  0.00     0.074 A 
ATOM     47  C   UNL A   1      38.338  31.862  33.513  1.00  0.00     0.031 C 
ATOM     48  C   UNL A   1      41.159  28.026  28.539  1.00  0.00     0.029 A 
ATOM     49  C   UNL A   1      41.925  28.129  29.778  1.00  0.00     0.049 A 
ATOM     50  H   UNL A   1      41.367  29.106  31.533  1.00  0.00     0.167 HD
ATOM     51  C   UNL A   1      40.215  31.391  35.058  1.00  0.00     0.034 A 
ATOM     52  C   UNL A   1      43.138  27.585  29.991  1.00  0.00     0.034 A 
ATOM     53  C   UNL A   1      41.424  30.708  35.436  1.00  0.00     0.049 A 
ATOM     54  C   UNL A   1      43.784  27.733  31.341  1.00  0.00     0.074 A 
ATOM     55  C   UNL A   1      42.070  30.717  36.661  1.00  0.00     0.029 A 
ATOM     56  N   UNL A   1      42.174  29.902  34.595  1.00  0.00    -0.354 N 
ATOM     57  N   UNL A   1      43.329  28.337  32.412  1.00  0.00    -0.248 NA
ATOM     58  C   UNL A   1      45.094  27.091  31.525  1.00  0.00     0.031 C 
ATOM     59  C   UNL A   1      43.219  29.924  36.554  1.00  0.00     0.029 A 
ATOM     60  C   UNL A   1      43.283  29.416  35.267  1.00  0.00     0.049 A 
ATOM     61  H   UNL A   1      41.950  29.703  33.657  1.00  0.00     0.167 HD
ATOM     62  C   UNL A   1      44.278  28.120  33.404  1.00  0.00     0.074 A 
ATOM     63  C   UNL A   1      45.323  27.310  32.812  1.00  0.00     0.031 C 
ATOM     64  C   UNL A   1      44.292  28.568  34.684  1.00  0.00     0.034 A 
BRANCH  51  65
ATOM     65  C   UNL A   1      39.567  32.304  36.066  1.00  0.00     0.023 A 
ATOM     66  C   UNL A   1      38.512  31.815  36.863  1.00  0.00     0.012 A 
ATOM     67  C   UNL A   1      40.026  33.620  36.261  1.00  0.00     0.148 A 
ATOM     68  C   UNL A   1      37.901  32.632  37.813  1.00  0.00     0.002 A 
ATOM     69  C   UNL A   1      39.436  34.418  37.237  1.00  0.00     0.091 A 
ATOM     70  F   UNL A   1      41.013  34.080  35.477  1.00  0.00    -0.205 F 
ATOM     71  C   UNL A   1      38.369  33.929  38.007  1.00  0.00     0.022 A 
BRANCH  69  72
ATOM     72  S   UNL A   1      40.025  36.075  37.603  1.00  0.00     0.127 S 
ATOM     73  O   UNL A   1      39.165  36.455  38.723  1.00  0.00    -0.237 OA
ATOM     74  O   UNL A   1      41.424  35.840  37.962  1.00  0.00    -0.237 OA
ATOM     75  O   UNL A   1      39.841  36.838  36.376  1.00  0.00    -0.744 OA
ENDBRANCH  69  72
ENDBRANCH  51  65
BRANCH  52  76
ATOM     76  C   UNL A   1      43.772  26.754  28.930  1.00  0.00     0.023 A 
ATOM     77  C   UNL A   1      43.567  25.360  28.942  1.00  0.00     0.012 A 
ATOM     78  C   UNL A   1      44.534  27.327  27.895  1.00  0.00     0.148 A 
ATOM     79  C   UNL A   1      44.129  24.548  27.957  1.00  0.00     0.002 A 
ATOM     80  C   UNL A   1      45.051  26.519  26.888  1.00  0.00     0.091 A 
ATOM     81  F   UNL A   1      44.730  28.653  27.908  1.00  0.00    -0.205 F 
ATOM     82  C   UNL A   1      44.861  25.129  26.924  1.00  0.00     0.022 A 
BRANCH  80  83
ATOM     83  S   UNL A   1      45.899  27.191  25.454  1.00  0.00     0.127 S 
ATOM     84  O   UNL A   1      44.948  28.198  24.989  1.00  0.00    -0.237 OA
ATOM     85  O   UNL A   1      47.124  27.729  26.048  1.00  0.00    -0.237 OA
ATOM     86  O   UNL A   1      46.114  26.061  24.561  1.00  0.00    -0.744 OA
ENDBRANCH  80  83
ENDBRANCH  52  76
BRANCH  64  87
ATOM     87  C   UNL A   1      45.467  28.181  35.542  1.00  0.00     0.023 A 
ATOM     88  C   UNL A   1      46.597  29.020  35.590  1.00  0.00     0.012 A 
ATOM     89  C   UNL A   1      45.434  27.022  36.344  1.00  0.00     0.148 A 
ATOM     90  C   UNL A   1      47.690  28.696  36.396  1.00  0.00     0.002 A 
ATOM     91  C   UNL A   1      46.507  26.729  37.177  1.00  0.00     0.091 A 
ATOM     92  F   UNL A   1      44.360  26.221  36.269  1.00  0.00    -0.205 F 
ATOM     93  C   UNL A   1      47.639  27.558  37.197  1.00  0.00     0.022 A 
BRANCH  91  94
ATOM     94  S   UNL A   1      46.477  25.330  38.305  1.00  0.00     0.127 S 
ATOM     95  O   UNL A   1      46.438  24.200  37.380  1.00  0.00    -0.237 OA
ATOM     96  O   UNL A   1      47.740  25.479  39.031  1.00  0.00    -0.237 OA
ATOM     97  O   UNL A   1      45.290  25.517  39.128  1.00  0.00    -0.744 OA
ENDBRANCH  91  94
ENDBRANCH  64  87
ENDBRANCH  38  39
ENDBRANCH  30  33
ENDBRANCH  28  29
ENDBRANCH  27  28
ENDBRANCH  26  27
ENDBRANCH   1  26
TORSDOF 19
ENDMDL
MODEL 3
REMARK VINA RESULT:     -11.4      2.879      4.016
REMARK SMILES O=C(Cc1ccc(S(=O)(=O)N2CCNC(=O)C2)cc1)NCCCCCCNC(=O)c1ccc(-c2c3nc(c(-c4cccc(S(=O)(=O)[O-])c4F)c4ccc([nH]4)c(-c4cccc(S(=O)(=O)[O-])c4F)c4nc(c(-c5cccc(S(=O)(=O)[O-])c5F)c5ccc2[nH]5)C=C4)C=C3)cc1
REMARK SMILES IDX 23 1 22 2 21 3 20 4 1 5 2 6 3 8 4 9 5 10 19 11 6 12 18 13
REMARK SMILES IDX 7 14 8 15 9 16 10 17 11 18 12 19 17 20 13 21 15 22 14 23
REMARK SMILES IDX 16 24 24 26 25 27 26 28 27 29 28 30 29 32 30 33 31 34 92 35
REMARK SMILES IDX 32 36 91 37 33 38 34 39 35 40 85 41 36 42 90 43 84 44 86 45
REMARK SMILES IDX 37 46 89 47 83 48 82 49 38 51 70 52 50 53 69 54 51 55 54 56
REMARK SMILES IDX 68 57 87 58 52 59 53 60 67 62 88 63 55 64 39 65 40 66 48 67
REMARK SMILES IDX 41 68 43 69 49 70 42 71 44 72 45 73 46 74 47 75 71 76 72 77
REMARK SMILES IDX 80 78 73 79 75 80 81 81 74 82 76 83 77 84 78 85 79 86 56 87
REMARK SMILES IDX 57 88 65 89 58 90 60 91 66 92 59 93 61 94 62 95 63 96 64 97
REMARK H PARENT 20 7 14 25 27 31 86 50 54 61
REMARK Flexibility Score: inf
ROOT
ATOM      1  C   UNL A   1      41.302  22.118  27.428  1.00  0.00     0.002 C 
ENDROOT
BRANCH   1   2
ATOM      2  C   UNL A   1      40.019  22.758  26.883  1.00  0.00     0.021 C 
BRANCH   2   3
ATOM      3  C   UNL A   1      39.150  21.839  26.027  1.00  0.00     0.116 C 
BRANCH   3   4
ATOM      4  N   UNL A   1      37.740  22.149  26.159  1.00  0.00    -0.356 N 
ATOM      5  O   UNL A   1      36.945  20.390  24.907  1.00  0.00    -0.275 OA
ATOM      6  C   UNL A   1      36.741  21.360  25.631  1.00  0.00     0.224 C 
ATOM      7  H   UNL A   1      37.483  22.964  26.649  1.00  0.00     0.163 HD
BRANCH   6   8
ATOM      8  C   UNL A   1      35.332  21.805  25.996  1.00  0.00     0.135 C 
BRANCH   8   9
ATOM      9  C   UNL A   1      34.815  23.022  25.252  1.00  0.00    -0.039 A 
ATOM     10  C   UNL A   1      34.770  23.002  23.851  1.00  0.00     0.005 A 
ATOM     11  C   UNL A   1      34.345  24.162  25.921  1.00  0.00     0.005 A 
ATOM     12  C   UNL A   1      34.297  24.106  23.137  1.00  0.00     0.022 A 
ATOM     13  C   UNL A   1      33.918  25.284  25.212  1.00  0.00     0.022 A 
ATOM     14  C   UNL A   1      33.879  25.253  23.821  1.00  0.00     0.082 A 
BRANCH  14  15
ATOM     15  S   UNL A   1      33.291  26.636  22.868  1.00  0.00     0.243 S 
ATOM     16  O   UNL A   1      33.490  27.813  23.684  1.00  0.00    -0.207 OA
ATOM     17  O   UNL A   1      33.901  26.520  21.559  1.00  0.00    -0.207 OA
BRANCH  15  18
ATOM     18  N   UNL A   1      31.647  26.405  22.655  1.00  0.00    -0.187 NA
ATOM     19  C   UNL A   1      30.973  25.194  23.152  1.00  0.00     0.124 C 
ATOM     20  C   UNL A   1      30.766  27.549  22.341  1.00  0.00     0.202 C 
ATOM     21  C   UNL A   1      30.047  25.530  24.318  1.00  0.00     0.132 C 
ATOM     22  C   UNL A   1      29.502  27.675  23.181  1.00  0.00     0.235 C 
ATOM     23  N   UNL A   1      29.186  26.661  24.045  1.00  0.00    -0.354 N 
ATOM     24  O   UNL A   1      28.754  28.647  23.094  1.00  0.00    -0.274 OA
ATOM     25  H   UNL A   1      28.319  26.705  24.510  1.00  0.00     0.163 HD
ENDBRANCH  15  18
ENDBRANCH  14  15
ENDBRANCH   8   9
ENDBRANCH   6   8
ENDBRANCH   3   4
ENDBRANCH   2   3
ENDBRANCH   1   2
BRANCH   1  26
ATOM     26  C   UNL A   1      41.167  20.677  27.931  1.00  0.00     0.002 C 
BRANCH  26  27
ATOM     27  C   UNL A   1      42.055  19.644  27.234  1.00  0.00     0.021 C 
BRANCH  27  28
ATOM     28  C   UNL A   1      41.950  19.600  25.712  1.00  0.00     0.116 C 
BRANCH  28  29
ATOM     29  N   UNL A   1      43.206  19.254  25.065  1.00  0.00    -0.352 N 
ATOM     30  C   UNL A   1      44.303  20.041  24.804  1.00  0.00     0.251 C 
ATOM     31  H   UNL A   1      43.281  18.319  24.769  1.00  0.00     0.163 HD
ATOM     32  O   UNL A   1      45.228  19.586  24.137  1.00  0.00    -0.269 OA
BRANCH  30  33
ATOM     33  C   UNL A   1      44.366  21.437  25.299  1.00  0.00     0.039 A 
ATOM     34  C   UNL A   1      44.932  21.676  26.555  1.00  0.00     0.014 A 
ATOM     35  C   UNL A   1      43.856  22.501  24.551  1.00  0.00     0.014 A 
ATOM     36  C   UNL A   1      45.042  22.986  27.032  1.00  0.00     0.010 A 
ATOM     37  C   UNL A   1      44.022  23.811  25.000  1.00  0.00     0.010 A 
ATOM     38  C   UNL A   1      44.614  24.068  26.246  1.00  0.00    -0.014 A 
BRANCH  38  39
ATOM     39  C   UNL A   1      44.806  25.469  26.704  1.00  0.00     0.031 A 
ATOM     40  C   UNL A   1      46.157  26.127  26.628  1.00  0.00     0.074 A 
ATOM     41  C   UNL A   1      43.773  26.129  27.266  1.00  0.00     0.049 A 
ATOM     42  N   UNL A   1      46.503  27.339  26.977  1.00  0.00    -0.248 NA
ATOM     43  C   UNL A   1      47.270  25.310  26.116  1.00  0.00     0.031 C 
ATOM     44  C   UNL A   1      42.435  25.574  27.482  1.00  0.00     0.029 A 
ATOM     45  N   UNL A   1      43.692  27.401  27.774  1.00  0.00    -0.354 N 
ATOM     46  C   UNL A   1      47.874  27.421  26.765  1.00  0.00     0.074 A 
ATOM     47  C   UNL A   1      48.303  26.126  26.282  1.00  0.00     0.031 C 
ATOM     48  C   UNL A   1      41.663  26.506  28.064  1.00  0.00     0.029 A 
ATOM     49  C   UNL A   1      42.451  27.716  28.277  1.00  0.00     0.049 A 
ATOM     50  H   UNL A   1      44.451  28.028  27.779  1.00  0.00     0.167 HD
ATOM     51  C   UNL A   1      48.698  28.484  26.927  1.00  0.00     0.034 A 
ATOM     52  C   UNL A   1      41.996  28.854  28.834  1.00  0.00     0.034 A 
ATOM     53  C   UNL A   1      48.262  29.789  27.348  1.00  0.00     0.049 A 
ATOM     54  C   UNL A   1      42.915  30.040  28.943  1.00  0.00     0.074 A 
ATOM     55  C   UNL A   1      48.997  30.960  27.424  1.00  0.00     0.029 A 
ATOM     56  N   UNL A   1      46.978  30.095  27.772  1.00  0.00    -0.354 N 
ATOM     57  N   UNL A   1      44.162  30.155  28.555  1.00  0.00    -0.248 NA
ATOM     58  C   UNL A   1      42.353  31.265  29.531  1.00  0.00     0.031 C 
ATOM     59  C   UNL A   1      48.158  31.972  27.907  1.00  0.00     0.029 A 
ATOM     60  C   UNL A   1      46.900  31.433  28.123  1.00  0.00     0.049 A 
ATOM     61  H   UNL A   1      46.231  29.456  27.817  1.00  0.00     0.167 HD
ATOM     62  C   UNL A   1      44.523  31.471  28.820  1.00  0.00     0.074 A 
ATOM     63  C   UNL A   1      43.355  32.120  29.381  1.00  0.00     0.031 C 
ATOM     64  C   UNL A   1      45.719  32.082  28.633  1.00  0.00     0.034 A 
BRANCH  51  65
ATOM     65  C   UNL A   1      50.153  28.297  26.582  1.00  0.00     0.023 A 
ATOM     66  C   UNL A   1      50.596  28.587  25.275  1.00  0.00     0.012 A 
ATOM     67  C   UNL A   1      51.086  27.884  27.551  1.00  0.00     0.148 A 
ATOM     68  C   UNL A   1      51.937  28.435  24.929  1.00  0.00     0.002 A 
ATOM     69  C   UNL A   1      52.431  27.772  27.208  1.00  0.00     0.091 A 
ATOM     70  F   UNL A   1      50.647  27.587  28.782  1.00  0.00    -0.205 F 
ATOM     71  C   UNL A   1      52.856  28.037  25.896  1.00  0.00     0.022 A 
BRANCH  69  72
ATOM     72  S   UNL A   1      53.692  27.335  28.410  1.00  0.00     0.127 S 
ATOM     73  O   UNL A   1      52.969  26.403  29.273  1.00  0.00    -0.237 OA
ATOM     74  O   UNL A   1      54.723  26.717  27.575  1.00  0.00    -0.237 OA
ATOM     75  O   UNL A   1      54.095  28.590  29.030  1.00  0.00    -0.744 OA
ENDBRANCH  69  72
ENDBRANCH  51  65
BRANCH  52  76
ATOM     76  C   UNL A   1      40.564  28.961  29.233  1.00  0.00     0.023 A 
ATOM     77  C   UNL A   1      39.591  29.150  28.232  1.00  0.00     0.012 A 
ATOM     78  C   UNL A   1      40.156  28.837  30.574  1.00  0.00     0.148 A 
ATOM     79  C   UNL A   1      38.238  29.238  28.561  1.00  0.00     0.002 A 
ATOM     80  C   UNL A   1      38.802  28.877  30.890  1.00  0.00     0.091 A 
ATOM     81  F   UNL A   1      41.097  28.672  31.513  1.00  0.00    -0.205 F 
ATOM     82  C   UNL A   1      37.843  29.090  29.887  1.00  0.00     0.022 A 
BRANCH  80  83
ATOM     83  S   UNL A   1      38.193  28.571  32.553  1.00  0.00     0.127 S 
ATOM     84  O   UNL A   1      39.156  29.310  33.364  1.00  0.00    -0.237 OA
ATOM     85  O   UNL A   1      36.853  29.157  32.499  1.00  0.00    -0.237 OA
ATOM     86  O   UNL A   1      38.206  27.123  32.713  1.00  0.00    -0.744 OA
ENDBRANCH  80  83
ENDBRANCH  52  76
BRANCH  64  87
ATOM     87  C   UNL A   1      45.827  33.532  29.024  1.00  0.00     0.023 A 
ATOM     88  C   UNL A   1      46.284  33.871  30.313  1.00  0.00     0.012 A 
ATOM     89  C   UNL A   1      45.534  34.558  28.104  1.00  0.00     0.148 A 
ATOM     90  C   UNL A   1      46.415  35.207  30.692  1.00  0.00     0.002 A 
ATOM     91  C   UNL A   1      45.709  35.887  28.475  1.00  0.00     0.091 A 
ATOM     92  F   UNL A   1      45.077  34.220  26.889  1.00  0.00    -0.205 F 
ATOM     93  C   UNL A   1      46.139  36.214  29.769  1.00  0.00     0.022 A 
BRANCH  91  94
ATOM     94  S   UNL A   1      45.461  37.236  27.312  1.00  0.00     0.127 S 
ATOM     95  O   UNL A   1      45.832  38.397  28.117  1.00  0.00    -0.237 OA
ATOM     96  O   UNL A   1      46.404  36.910  26.241  1.00  0.00    -0.237 OA
ATOM     97  O   UNL A   1      44.061  37.158  26.918  1.00  0.00    -0.744 OA
ENDBRANCH  91  94
ENDBRANCH  64  87
ENDBRANCH  38  39
ENDBRANCH  30  33
ENDBRANCH  28  29
ENDBRANCH  27  28
ENDBRANCH  26  27
ENDBRANCH   1  26
TORSDOF 19
ENDMDL
