MODEL 1
REMARK VINA RESULT:     -11.4      0.000      0.000
REMARK SMILES CCc1n[nH]c2cc(CCC(=O)NCCCCCCNC(=O)c3ccc(-c4c5nc(c(-c6cccc(S(=O)(=O)[O-])c6F)c6ccc([nH]6)c(-c6cccc(S(=O)(=O)[O-])c6F)c6nc(c(-c7cccc(S(=O)(=O)[O-])c7F)c7ccc4[nH]7)C=C6)C=C5)cc3)ccc12
REMARK SMILES IDX 16 1 15 2 14 3 13 4 11 5 12 6 10 8 9 9 8 10 3 11 4 12 88 13
REMARK SMILES IDX 5 14 6 15 87 16 7 18 86 19 2 20 1 21 17 22 18 23 19 24 20 25
REMARK SMILES IDX 21 26 22 28 23 29 24 30 85 31 25 32 84 33 26 34 27 35 28 36
REMARK SMILES IDX 78 37 29 38 83 39 77 40 79 41 30 42 82 43 76 44 75 45 31 47
REMARK SMILES IDX 63 48 43 49 62 50 44 51 47 52 61 53 80 54 45 55 46 56 60 58
REMARK SMILES IDX 81 59 48 60 32 61 33 62 41 63 34 64 36 65 42 66 35 67 37 68
REMARK SMILES IDX 38 69 39 70 40 71 64 72 65 73 73 74 66 75 68 76 74 77 67 78
REMARK SMILES IDX 69 79 70 80 71 81 72 82 49 83 50 84 58 85 51 86 53 87 59 88
REMARK SMILES IDX 52 89 54 90 55 91 56 92 57 93
REMARK H PARENT 13 7 5 17 20 27 79 46 47 57
REMARK Flexibility Score: inf
ROOT
ATOM      1  C   UNL A   1      33.653  26.979  25.853  1.00  0.00     0.002 C 
ENDROOT
BRANCH   1   2
ATOM      2  C   UNL A   1      34.039  25.569  25.404  1.00  0.00     0.021 C 
BRANCH   2   3
ATOM      3  C   UNL A   1      33.260  24.406  26.022  1.00  0.00     0.116 C 
BRANCH   3   4
ATOM      4  N   UNL A   1      33.449  23.195  25.237  1.00  0.00    -0.356 N 
ATOM      5  C   UNL A   1      32.882  22.818  24.055  1.00  0.00     0.220 C 
ATOM      6  O   UNL A   1      33.016  21.644  23.695  1.00  0.00    -0.275 OA
ATOM      7  H   UNL A   1      34.085  22.547  25.617  1.00  0.00     0.163 HD
BRANCH   5   8
ATOM      8  C   UNL A   1      32.145  23.811  23.176  1.00  0.00     0.105 C 
BRANCH   8   9
ATOM      9  C   UNL A   1      30.713  24.093  23.643  1.00  0.00     0.045 C 
BRANCH   9  10
ATOM     10  C   UNL A   1      30.341  25.552  23.523  1.00  0.00    -0.045 A 
ATOM     11  C   UNL A   1      29.349  29.466  22.430  1.00  0.00     0.070 A 
ATOM     12  N   UNL A   1      30.479  29.844  21.809  1.00  0.00    -0.180 NA
ATOM     13  C   UNL A   1      29.463  28.158  22.972  1.00  0.00     0.023 A 
ATOM     14  N   UNL A   1      31.313  28.808  22.002  1.00  0.00    -0.278 N 
ATOM     15  C   UNL A   1      30.754  27.748  22.663  1.00  0.00     0.066 A 
ATOM     16  C   UNL A   1      28.616  27.278  23.663  1.00  0.00     0.012 A 
ATOM     17  H   UNL A   1      32.248  28.810  21.694  1.00  0.00     0.190 HD
ATOM     18  C   UNL A   1      31.241  26.468  22.955  1.00  0.00     0.032 A 
ATOM     19  C   UNL A   1      29.063  25.977  23.920  1.00  0.00     0.004 A 
BRANCH  11  20
ATOM     20  C   UNL A   1      28.155  30.365  22.485  1.00  0.00     0.055 C 
ATOM     21  C   UNL A   1      28.026  31.275  21.279  1.00  0.00     0.011 C 
ENDBRANCH  11  20
ENDBRANCH   9  10
ENDBRANCH   8   9
ENDBRANCH   5   8
ENDBRANCH   3   4
ENDBRANCH   2   3
ENDBRANCH   1   2
BRANCH   1  22
ATOM     22  C   UNL A   1      32.212  27.150  26.352  1.00  0.00     0.002 C 
BRANCH  22  23
ATOM     23  C   UNL A   1      31.575  28.539  26.175  1.00  0.00     0.021 C 
BRANCH  23  24
ATOM     24  C   UNL A   1      32.464  29.629  25.565  1.00  0.00     0.116 C 
BRANCH  24  25
ATOM     25  N   UNL A   1      32.210  30.955  26.107  1.00  0.00    -0.352 N 
ATOM     26  C   UNL A   1      32.920  31.693  27.028  1.00  0.00     0.251 C 
ATOM     27  H   UNL A   1      31.400  31.395  25.759  1.00  0.00     0.163 HD
ATOM     28  O   UNL A   1      32.472  32.778  27.397  1.00  0.00    -0.269 OA
BRANCH  26  29
ATOM     29  C   UNL A   1      34.189  31.198  27.622  1.00  0.00     0.039 A 
ATOM     30  C   UNL A   1      35.216  32.116  27.861  1.00  0.00     0.014 A 
ATOM     31  C   UNL A   1      34.410  29.850  27.901  1.00  0.00     0.014 A 
ATOM     32  C   UNL A   1      36.422  31.700  28.448  1.00  0.00     0.010 A 
ATOM     33  C   UNL A   1      35.598  29.447  28.540  1.00  0.00     0.010 A 
ATOM     34  C   UNL A   1      36.618  30.366  28.847  1.00  0.00    -0.014 A 
BRANCH  34  35
ATOM     35  C   UNL A   1      37.849  29.961  29.612  1.00  0.00     0.031 A 
ATOM     36  C   UNL A   1      38.121  30.467  31.011  1.00  0.00     0.074 A 
ATOM     37  C   UNL A   1      38.777  29.160  29.038  1.00  0.00     0.049 A 
ATOM     38  N   UNL A   1      39.130  30.196  31.807  1.00  0.00    -0.248 NA
ATOM     39  C   UNL A   1      37.156  31.417  31.585  1.00  0.00     0.031 C 
ATOM     40  C   UNL A   1      38.728  28.652  27.666  1.00  0.00     0.029 A 
ATOM     41  N   UNL A   1      39.954  28.639  29.534  1.00  0.00    -0.354 N 
ATOM     42  C   UNL A   1      38.940  30.965  32.951  1.00  0.00     0.074 A 
ATOM     43  C   UNL A   1      37.741  31.744  32.729  1.00  0.00     0.031 C 
ATOM     44  C   UNL A   1      39.798  27.870  27.442  1.00  0.00     0.029 A 
ATOM     45  C   UNL A   1      40.638  27.848  28.636  1.00  0.00     0.049 A 
ATOM     46  H   UNL A   1      40.277  28.817  30.446  1.00  0.00     0.167 HD
ATOM     47  C   UNL A   1      39.664  31.003  34.099  1.00  0.00     0.034 A 
ATOM     48  C   UNL A   1      41.805  27.178  28.745  1.00  0.00     0.034 A 
ATOM     49  C   UNL A   1      40.832  30.203  34.362  1.00  0.00     0.049 A 
ATOM     50  C   UNL A   1      42.576  27.209  30.040  1.00  0.00     0.074 A 
ATOM     51  C   UNL A   1      41.563  30.114  35.536  1.00  0.00     0.029 A 
ATOM     52  N   UNL A   1      41.450  29.368  33.448  1.00  0.00    -0.354 N 
ATOM     53  N   UNL A   1      42.277  27.809  31.165  1.00  0.00    -0.248 NA
ATOM     54  C   UNL A   1      43.831  26.440  30.090  1.00  0.00     0.031 C 
ATOM     55  C   UNL A   1      42.643  29.252  35.320  1.00  0.00     0.029 A 
ATOM     56  C   UNL A   1      42.562  28.772  34.025  1.00  0.00     0.049 A 
ATOM     57  H   UNL A   1      41.146  29.219  32.523  1.00  0.00     0.167 HD
ATOM     58  C   UNL A   1      43.280  27.459  32.064  1.00  0.00     0.074 A 
ATOM     59  C   UNL A   1      44.187  26.578  31.360  1.00  0.00     0.031 C 
ATOM     60  C   UNL A   1      43.439  27.848  33.352  1.00  0.00     0.034 A 
BRANCH  47  61
ATOM     61  C   UNL A   1      39.179  31.914  35.202  1.00  0.00     0.023 A 
ATOM     62  C   UNL A   1      38.228  31.437  36.129  1.00  0.00     0.012 A 
ATOM     63  C   UNL A   1      39.708  33.211  35.362  1.00  0.00     0.148 A 
ATOM     64  C   UNL A   1      37.776  32.251  37.166  1.00  0.00     0.002 A 
ATOM     65  C   UNL A   1      39.289  33.997  36.429  1.00  0.00     0.091 A 
ATOM     66  F   UNL A   1      40.606  33.651  34.469  1.00  0.00    -0.205 F 
ATOM     67  C   UNL A   1      38.312  33.526  37.321  1.00  0.00     0.022 A 
BRANCH  65  68
ATOM     68  S   UNL A   1      39.983  35.620  36.771  1.00  0.00     0.127 S 
ATOM     69  O   UNL A   1      39.305  35.973  38.019  1.00  0.00    -0.237 OA
ATOM     70  O   UNL A   1      41.408  35.318  36.918  1.00  0.00    -0.237 OA
ATOM     71  O   UNL A   1      39.652  36.449  35.624  1.00  0.00    -0.744 OA
ENDBRANCH  65  68
ENDBRANCH  47  61
BRANCH  48  72
ATOM     72  C   UNL A   1      42.309  26.357  27.603  1.00  0.00     0.023 A 
ATOM     73  C   UNL A   1      43.150  26.950  26.639  1.00  0.00     0.012 A 
ATOM     74  C   UNL A   1      41.955  25.001  27.462  1.00  0.00     0.148 A 
ATOM     75  C   UNL A   1      43.593  26.221  25.535  1.00  0.00     0.002 A 
ATOM     76  C   UNL A   1      42.449  24.265  26.392  1.00  0.00     0.091 A 
ATOM     77  F   UNL A   1      41.145  24.459  28.382  1.00  0.00    -0.205 F 
ATOM     78  C   UNL A   1      43.251  24.877  25.416  1.00  0.00     0.022 A 
BRANCH  76  79
ATOM     79  S   UNL A   1      42.165  22.499  26.223  1.00  0.00     0.127 S 
ATOM     80  O   UNL A   1      42.720  21.986  27.473  1.00  0.00    -0.237 OA
ATOM     81  O   UNL A   1      40.706  22.438  26.125  1.00  0.00    -0.237 OA
ATOM     82  O   UNL A   1      42.867  22.100  25.011  1.00  0.00    -0.744 OA
ENDBRANCH  76  79
ENDBRANCH  48  72
BRANCH  60  83
ATOM     83  C   UNL A   1      44.610  27.294  34.127  1.00  0.00     0.023 A 
ATOM     84  C   UNL A   1      45.828  28.000  34.171  1.00  0.00     0.012 A 
ATOM     85  C   UNL A   1      44.475  26.110  34.882  1.00  0.00     0.148 A 
ATOM     86  C   UNL A   1      46.902  27.522  34.924  1.00  0.00     0.002 A 
ATOM     87  C   UNL A   1      45.531  25.666  35.670  1.00  0.00     0.091 A 
ATOM     88  F   UNL A   1      43.315  25.440  34.816  1.00  0.00    -0.205 F 
ATOM     89  C   UNL A   1      46.749  26.364  35.683  1.00  0.00     0.022 A 
BRANCH  87  90
ATOM     90  S   UNL A   1      45.397  24.240  36.756  1.00  0.00     0.127 S 
ATOM     91  O   UNL A   1      44.358  24.673  37.690  1.00  0.00    -0.237 OA
ATOM     92  O   UNL A   1      44.983  23.185  35.831  1.00  0.00    -0.237 OA
ATOM     93  O   UNL A   1      46.718  24.052  37.339  1.00  0.00    -0.744 OA
ENDBRANCH  87  90
ENDBRANCH  60  83
ENDBRANCH  34  35
ENDBRANCH  26  29
ENDBRANCH  24  25
ENDBRANCH  23  24
ENDBRANCH  22  23
ENDBRANCH   1  22
TORSDOF 19
ENDMDL
MODEL 2
REMARK VINA RESULT:     -11.4      1.503      7.670
REMARK SMILES CCc1n[nH]c2cc(CCC(=O)NCCCCCCNC(=O)c3ccc(-c4c5nc(c(-c6cccc(S(=O)(=O)[O-])c6F)c6ccc([nH]6)c(-c6cccc(S(=O)(=O)[O-])c6F)c6nc(c(-c7cccc(S(=O)(=O)[O-])c7F)c7ccc4[nH]7)C=C6)C=C5)cc3)ccc12
REMARK SMILES IDX 16 1 15 2 14 3 13 4 11 5 12 6 10 8 9 9 8 10 3 11 4 12 88 13
REMARK SMILES IDX 5 14 6 15 87 16 7 18 86 19 2 20 1 21 17 22 18 23 19 24 20 25
REMARK SMILES IDX 21 26 22 28 23 29 24 30 85 31 25 32 84 33 26 34 27 35 28 36
REMARK SMILES IDX 78 37 29 38 83 39 77 40 79 41 30 42 82 43 76 44 75 45 31 47
REMARK SMILES IDX 63 48 43 49 62 50 44 51 47 52 61 53 80 54 45 55 46 56 60 58
REMARK SMILES IDX 81 59 48 60 32 61 33 62 41 63 34 64 36 65 42 66 35 67 37 68
REMARK SMILES IDX 38 69 39 70 40 71 64 72 65 73 73 74 66 75 68 76 74 77 67 78
REMARK SMILES IDX 69 79 70 80 71 81 72 82 49 83 50 84 58 85 51 86 53 87 59 88
REMARK SMILES IDX 52 89 54 90 55 91 56 92 57 93
REMARK H PARENT 13 7 5 17 20 27 79 46 47 57
REMARK Flexibility Score: inf
ROOT
ATOM      1  C   UNL A   1      33.567  26.968  25.630  1.00  0.00     0.002 C 
ENDROOT
BRANCH   1   2
ATOM      2  C   UNL A   1      34.219  25.586  25.692  1.00  0.00     0.021 C 
BRANCH   2   3
ATOM      3  C   UNL A   1      33.314  24.407  26.055  1.00  0.00     0.116 C 
BRANCH   3   4
ATOM      4  N   UNL A   1      33.564  23.282  25.165  1.00  0.00    -0.356 N 
ATOM      5  C   UNL A   1      33.033  22.997  23.942  1.00  0.00     0.220 C 
ATOM      6  O   UNL A   1      33.218  21.868  23.477  1.00  0.00    -0.275 OA
ATOM      7  H   UNL A   1      34.218  22.625  25.496  1.00  0.00     0.163 HD
BRANCH   5   8
ATOM      8  C   UNL A   1      32.274  24.041  23.143  1.00  0.00     0.105 C 
BRANCH   8   9
ATOM      9  C   UNL A   1      30.803  24.172  23.555  1.00  0.00     0.045 C 
BRANCH   9  10
ATOM     10  C   UNL A   1      30.302  25.595  23.467  1.00  0.00    -0.045 A 
ATOM     11  C   UNL A   1      28.907  29.408  22.463  1.00  0.00     0.070 A 
ATOM     12  N   UNL A   1      29.952  29.878  21.763  1.00  0.00    -0.180 NA
ATOM     13  C   UNL A   1      29.170  28.116  22.992  1.00  0.00     0.023 A 
ATOM     14  N   UNL A   1      30.883  28.916  21.891  1.00  0.00    -0.278 N 
ATOM     15  C   UNL A   1      30.464  27.815  22.588  1.00  0.00     0.066 A 
ATOM     16  C   UNL A   1      28.453  27.169  23.740  1.00  0.00     0.012 A 
ATOM     17  H   UNL A   1      31.789  28.996  21.515  1.00  0.00     0.190 HD
ATOM     18  C   UNL A   1      31.078  26.581  22.839  1.00  0.00     0.032 A 
ATOM     19  C   UNL A   1      29.026  25.911  23.958  1.00  0.00     0.004 A 
BRANCH  11  20
ATOM     20  C   UNL A   1      27.649  30.203  22.609  1.00  0.00     0.055 C 
ATOM     21  C   UNL A   1      27.827  31.475  23.414  1.00  0.00     0.011 C 
ENDBRANCH  11  20
ENDBRANCH   9  10
ENDBRANCH   8   9
ENDBRANCH   5   8
ENDBRANCH   3   4
ENDBRANCH   2   3
ENDBRANCH   1   2
BRANCH   1  22
ATOM     22  C   UNL A   1      32.173  27.077  26.261  1.00  0.00     0.002 C 
BRANCH  22  23
ATOM     23  C   UNL A   1      31.432  28.414  26.084  1.00  0.00     0.021 C 
BRANCH  23  24
ATOM     24  C   UNL A   1      32.219  29.550  25.421  1.00  0.00     0.116 C 
BRANCH  24  25
ATOM     25  N   UNL A   1      31.880  30.868  25.938  1.00  0.00    -0.352 N 
ATOM     26  C   UNL A   1      32.534  31.661  26.854  1.00  0.00     0.251 C 
ATOM     27  H   UNL A   1      31.050  31.253  25.574  1.00  0.00     0.163 HD
ATOM     28  O   UNL A   1      32.018  32.723  27.200  1.00  0.00    -0.269 OA
BRANCH  26  29
ATOM     29  C   UNL A   1      33.823  31.252  27.471  1.00  0.00     0.039 A 
ATOM     30  C   UNL A   1      34.705  32.250  27.896  1.00  0.00     0.014 A 
ATOM     31  C   UNL A   1      34.205  29.917  27.592  1.00  0.00     0.014 A 
ATOM     32  C   UNL A   1      35.921  31.912  28.510  1.00  0.00     0.010 A 
ATOM     33  C   UNL A   1      35.399  29.582  28.259  1.00  0.00     0.010 A 
ATOM     34  C   UNL A   1      36.270  30.570  28.751  1.00  0.00    -0.014 A 
BRANCH  34  35
ATOM     35  C   UNL A   1      37.501  30.222  29.544  1.00  0.00     0.031 A 
ATOM     36  C   UNL A   1      38.575  29.313  28.990  1.00  0.00     0.074 A 
ATOM     37  C   UNL A   1      37.654  30.684  30.806  1.00  0.00     0.049 A 
ATOM     38  N   UNL A   1      39.703  28.931  29.544  1.00  0.00    -0.248 NA
ATOM     39  C   UNL A   1      38.349  28.735  27.656  1.00  0.00     0.031 C 
ATOM     40  C   UNL A   1      36.679  31.497  31.536  1.00  0.00     0.029 A 
ATOM     41  N   UNL A   1      38.685  30.529  31.709  1.00  0.00    -0.354 N 
ATOM     42  C   UNL A   1      40.297  28.048  28.649  1.00  0.00     0.074 A 
ATOM     43  C   UNL A   1      39.386  27.918  27.532  1.00  0.00     0.031 C 
ATOM     44  C   UNL A   1      37.169  31.796  32.751  1.00  0.00     0.029 A 
ATOM     45  C   UNL A   1      38.476  31.166  32.913  1.00  0.00     0.049 A 
ATOM     46  H   UNL A   1      39.497  30.009  31.511  1.00  0.00     0.167 HD
ATOM     47  C   UNL A   1      41.501  27.424  28.718  1.00  0.00     0.034 A 
ATOM     48  C   UNL A   1      39.237  31.242  34.026  1.00  0.00     0.034 A 
ATOM     49  C   UNL A   1      42.445  27.575  29.794  1.00  0.00     0.049 A 
ATOM     50  C   UNL A   1      40.585  30.569  34.068  1.00  0.00     0.074 A 
ATOM     51  C   UNL A   1      43.726  27.053  29.891  1.00  0.00     0.029 A 
ATOM     52  N   UNL A   1      42.218  28.281  30.962  1.00  0.00    -0.354 N 
ATOM     53  N   UNL A   1      41.195  29.882  33.134  1.00  0.00    -0.248 NA
ATOM     54  C   UNL A   1      41.365  30.710  35.308  1.00  0.00     0.031 C 
ATOM     55  C   UNL A   1      44.259  27.416  31.131  1.00  0.00     0.029 A 
ATOM     56  C   UNL A   1      43.327  28.198  31.792  1.00  0.00     0.049 A 
ATOM     57  H   UNL A   1      41.391  28.772  31.174  1.00  0.00     0.167 HD
ATOM     58  C   UNL A   1      42.440  29.546  33.657  1.00  0.00     0.074 A 
ATOM     59  C   UNL A   1      42.508  30.121  34.984  1.00  0.00     0.031 C 
ATOM     60  C   UNL A   1      43.429  28.814  33.089  1.00  0.00     0.034 A 
BRANCH  47  61
ATOM     61  C   UNL A   1      41.903  26.549  27.554  1.00  0.00     0.023 A 
ATOM     62  C   UNL A   1      42.602  27.114  26.468  1.00  0.00     0.012 A 
ATOM     63  C   UNL A   1      41.649  25.162  27.564  1.00  0.00     0.148 A 
ATOM     64  C   UNL A   1      43.000  26.326  25.389  1.00  0.00     0.002 A 
ATOM     65  C   UNL A   1      42.094  24.374  26.508  1.00  0.00     0.091 A 
ATOM     66  F   UNL A   1      40.978  24.641  28.601  1.00  0.00    -0.205 F 
ATOM     67  C   UNL A   1      42.753  24.956  25.414  1.00  0.00     0.022 A 
BRANCH  65  68
ATOM     68  S   UNL A   1      41.907  22.587  26.485  1.00  0.00     0.127 S 
ATOM     69  O   UNL A   1      42.651  22.229  25.277  1.00  0.00    -0.237 OA
ATOM     70  O   UNL A   1      42.556  22.194  27.737  1.00  0.00    -0.237 OA
ATOM     71  O   UNL A   1      40.476  22.332  26.435  1.00  0.00    -0.744 OA
ENDBRANCH  65  68
ENDBRANCH  47  61
BRANCH  48  72
ATOM     72  C   UNL A   1      38.772  32.041  35.200  1.00  0.00     0.023 A 
ATOM     73  C   UNL A   1      38.842  33.449  35.154  1.00  0.00     0.012 A 
ATOM     74  C   UNL A   1      38.271  31.417  36.359  1.00  0.00     0.148 A 
ATOM     75  C   UNL A   1      38.462  34.217  36.255  1.00  0.00     0.002 A 
ATOM     76  C   UNL A   1      37.840  32.191  37.430  1.00  0.00     0.091 A 
ATOM     77  F   UNL A   1      38.224  30.078  36.389  1.00  0.00    -0.205 F 
ATOM     78  C   UNL A   1      37.953  33.590  37.389  1.00  0.00     0.022 A 
BRANCH  76  79
ATOM     79  S   UNL A   1      37.055  31.480  38.880  1.00  0.00     0.127 S 
ATOM     80  O   UNL A   1      38.077  31.684  39.904  1.00  0.00    -0.237 OA
ATOM     81  O   UNL A   1      35.865  32.320  39.019  1.00  0.00    -0.237 OA
ATOM     82  O   UNL A   1      36.775  30.092  38.538  1.00  0.00    -0.744 OA
ENDBRANCH  76  79
ENDBRANCH  48  72
BRANCH  60  83
ATOM     83  C   UNL A   1      44.709  28.619  33.866  1.00  0.00     0.023 A 
ATOM     84  C   UNL A   1      45.758  29.552  33.748  1.00  0.00     0.012 A 
ATOM     85  C   UNL A   1      44.839  27.550  34.777  1.00  0.00     0.148 A 
ATOM     86  C   UNL A   1      46.926  29.408  34.499  1.00  0.00     0.002 A 
ATOM     87  C   UNL A   1      45.984  27.441  35.559  1.00  0.00     0.091 A 
ATOM     88  F   UNL A   1      43.839  26.661  34.865  1.00  0.00    -0.205 F 
ATOM     89  C   UNL A   1      47.033  28.361  35.412  1.00  0.00     0.022 A 
BRANCH  87  90
ATOM     90  S   UNL A   1      46.173  26.184  36.830  1.00  0.00     0.127 S 
ATOM     91  O   UNL A   1      46.396  24.981  36.029  1.00  0.00    -0.237 OA
ATOM     92  O   UNL A   1      47.350  26.657  37.559  1.00  0.00    -0.237 OA
ATOM     93  O   UNL A   1      44.937  26.200  37.599  1.00  0.00    -0.744 OA
ENDBRANCH  87  90
ENDBRANCH  60  83
ENDBRANCH  34  35
ENDBRANCH  26  29
ENDBRANCH  24  25
ENDBRANCH  23  24
ENDBRANCH  22  23
ENDBRANCH   1  22
TORSDOF 19
ENDMDL
MODEL 3
REMARK VINA RESULT:     -10.8      4.730      9.744
REMARK SMILES CCc1n[nH]c2cc(CCC(=O)NCCCCCCNC(=O)c3ccc(-c4c5nc(c(-c6cccc(S(=O)(=O)[O-])c6F)c6ccc([nH]6)c(-c6cccc(S(=O)(=O)[O-])c6F)c6nc(c(-c7cccc(S(=O)(=O)[O-])c7F)c7ccc4[nH]7)C=C6)C=C5)cc3)ccc12
REMARK SMILES IDX 16 1 15 2 14 3 13 4 11 5 12 6 10 8 9 9 8 10 3 11 4 12 88 13
REMARK SMILES IDX 5 14 6 15 87 16 7 18 86 19 2 20 1 21 17 22 18 23 19 24 20 25
REMARK SMILES IDX 21 26 22 28 23 29 24 30 85 31 25 32 84 33 26 34 27 35 28 36
REMARK SMILES IDX 78 37 29 38 83 39 77 40 79 41 30 42 82 43 76 44 75 45 31 47
REMARK SMILES IDX 63 48 43 49 62 50 44 51 47 52 61 53 80 54 45 55 46 56 60 58
REMARK SMILES IDX 81 59 48 60 32 61 33 62 41 63 34 64 36 65 42 66 35 67 37 68
REMARK SMILES IDX 38 69 39 70 40 71 64 72 65 73 73 74 66 75 68 76 74 77 67 78
REMARK SMILES IDX 69 79 70 80 71 81 72 82 49 83 50 84 58 85 51 86 53 87 59 88
REMARK SMILES IDX 52 89 54 90 55 91 56 92 57 93
REMARK H PARENT 13 7 5 17 20 27 79 46 47 57
REMARK Flexibility Score: inf
ROOT
ATOM      1  C   UNL A   1      33.149  21.932  23.828  1.00  0.00     0.002 C 
ENDROOT
BRANCH   1   2
ATOM      2  C   UNL A   1      31.831  22.290  24.515  1.00  0.00     0.021 C 
BRANCH   2   3
ATOM      3  C   UNL A   1      31.869  22.490  26.032  1.00  0.00     0.116 C 
BRANCH   3   4
ATOM      4  N   UNL A   1      31.209  23.736  26.396  1.00  0.00    -0.356 N 
ATOM      5  C   UNL A   1      31.690  25.012  26.411  1.00  0.00     0.220 C 
ATOM      6  O   UNL A   1      31.020  25.879  26.980  1.00  0.00    -0.275 OA
ATOM      7  H   UNL A   1      30.269  23.644  26.674  1.00  0.00     0.163 HD
BRANCH   5   8
ATOM      8  C   UNL A   1      32.988  25.379  25.714  1.00  0.00     0.105 C 
BRANCH   8   9
ATOM      9  C   UNL A   1      33.427  26.826  25.969  1.00  0.00     0.045 C 
BRANCH   9  10
ATOM     10  C   UNL A   1      32.614  27.826  25.180  1.00  0.00    -0.045 A 
ATOM     11  C   UNL A   1      29.814  30.049  23.009  1.00  0.00     0.070 A 
ATOM     12  N   UNL A   1      29.689  29.286  21.911  1.00  0.00    -0.180 NA
ATOM     13  C   UNL A   1      30.793  29.530  23.898  1.00  0.00     0.023 A 
ATOM     14  N   UNL A   1      30.615  28.326  22.080  1.00  0.00    -0.278 N 
ATOM     15  C   UNL A   1      31.288  28.395  23.269  1.00  0.00     0.066 A 
ATOM     16  C   UNL A   1      31.291  29.881  25.162  1.00  0.00     0.012 A 
ATOM     17  H   UNL A   1      30.794  27.632  21.406  1.00  0.00     0.190 HD
ATOM     18  C   UNL A   1      32.226  27.539  23.861  1.00  0.00     0.032 A 
ATOM     19  C   UNL A   1      32.190  29.014  25.794  1.00  0.00     0.004 A 
BRANCH  11  20
ATOM     20  C   UNL A   1      28.975  31.272  23.205  1.00  0.00     0.055 C 
ATOM     21  C   UNL A   1      27.529  30.967  23.543  1.00  0.00     0.011 C 
ENDBRANCH  11  20
ENDBRANCH   9  10
ENDBRANCH   8   9
ENDBRANCH   5   8
ENDBRANCH   3   4
ENDBRANCH   2   3
ENDBRANCH   1   2
BRANCH   1  22
ATOM     22  C   UNL A   1      34.084  21.007  24.618  1.00  0.00     0.002 C 
BRANCH  22  23
ATOM     23  C   UNL A   1      35.277  21.667  25.330  1.00  0.00     0.021 C 
BRANCH  23  24
ATOM     24  C   UNL A   1      36.611  21.671  24.574  1.00  0.00     0.116 C 
BRANCH  24  25
ATOM     25  N   UNL A   1      37.521  20.618  25.000  1.00  0.00    -0.352 N 
ATOM     26  C   UNL A   1      38.701  20.693  25.708  1.00  0.00     0.251 C 
ATOM     27  H   UNL A   1      37.250  19.708  24.741  1.00  0.00     0.163 HD
ATOM     28  O   UNL A   1      39.350  19.665  25.895  1.00  0.00    -0.269 OA
BRANCH  26  29
ATOM     29  C   UNL A   1      39.235  21.984  26.213  1.00  0.00     0.039 A 
ATOM     30  C   UNL A   1      40.423  21.971  26.950  1.00  0.00     0.014 A 
ATOM     31  C   UNL A   1      38.569  23.195  26.026  1.00  0.00     0.014 A 
ATOM     32  C   UNL A   1      40.981  23.169  27.423  1.00  0.00     0.010 A 
ATOM     33  C   UNL A   1      39.161  24.399  26.453  1.00  0.00     0.010 A 
ATOM     34  C   UNL A   1      40.388  24.413  27.140  1.00  0.00    -0.014 A 
BRANCH  34  35
ATOM     35  C   UNL A   1      41.072  25.699  27.520  1.00  0.00     0.031 A 
ATOM     36  C   UNL A   1      42.507  25.984  27.132  1.00  0.00     0.074 A 
ATOM     37  C   UNL A   1      40.424  26.623  28.266  1.00  0.00     0.049 A 
ATOM     38  N   UNL A   1      43.231  27.053  27.371  1.00  0.00    -0.248 NA
ATOM     39  C   UNL A   1      43.232  24.930  26.408  1.00  0.00     0.031 C 
ATOM     40  C   UNL A   1      39.071  26.480  28.807  1.00  0.00     0.029 A 
ATOM     41  N   UNL A   1      40.820  27.867  28.712  1.00  0.00    -0.354 N 
ATOM     42  C   UNL A   1      44.498  26.785  26.862  1.00  0.00     0.074 A 
ATOM     43  C   UNL A   1      44.455  25.437  26.338  1.00  0.00     0.031 C 
ATOM     44  C   UNL A   1      38.739  27.596  29.477  1.00  0.00     0.029 A 
ATOM     45  C   UNL A   1      39.864  28.526  29.454  1.00  0.00     0.049 A 
ATOM     46  H   UNL A   1      41.706  28.249  28.518  1.00  0.00     0.167 HD
ATOM     47  C   UNL A   1      45.592  27.587  26.797  1.00  0.00     0.034 A 
ATOM     48  C   UNL A   1      39.877  29.736  30.053  1.00  0.00     0.034 A 
ATOM     49  C   UNL A   1      45.645  28.947  27.267  1.00  0.00     0.049 A 
ATOM     50  C   UNL A   1      41.091  30.622  29.940  1.00  0.00     0.074 A 
ATOM     51  C   UNL A   1      46.686  29.855  27.149  1.00  0.00     0.029 A 
ATOM     52  N   UNL A   1      44.633  29.594  27.953  1.00  0.00    -0.354 N 
ATOM     53  N   UNL A   1      42.214  30.408  29.301  1.00  0.00    -0.248 NA
ATOM     54  C   UNL A   1      41.026  31.935  30.604  1.00  0.00     0.031 C 
ATOM     55  C   UNL A   1      46.314  31.039  27.794  1.00  0.00     0.029 A 
ATOM     56  C   UNL A   1      45.027  30.883  28.279  1.00  0.00     0.049 A 
ATOM     57  H   UNL A   1      43.759  29.198  28.177  1.00  0.00     0.167 HD
ATOM     58  C   UNL A   1      42.968  31.568  29.451  1.00  0.00     0.074 A 
ATOM     59  C   UNL A   1      42.168  32.492  30.226  1.00  0.00     0.031 C 
ATOM     60  C   UNL A   1      44.218  31.832  28.998  1.00  0.00     0.034 A 
BRANCH  47  61
ATOM     61  C   UNL A   1      46.829  27.029  26.134  1.00  0.00     0.023 A 
ATOM     62  C   UNL A   1      46.986  27.152  24.738  1.00  0.00     0.012 A 
ATOM     63  C   UNL A   1      47.862  26.445  26.895  1.00  0.00     0.148 A 
ATOM     64  C   UNL A   1      48.125  26.661  24.103  1.00  0.00     0.002 A 
ATOM     65  C   UNL A   1      49.018  26.003  26.260  1.00  0.00     0.091 A 
ATOM     66  F   UNL A   1      47.695  26.329  28.220  1.00  0.00    -0.205 F 
ATOM     67  C   UNL A   1      49.144  26.095  24.865  1.00  0.00     0.022 A 
BRANCH  65  68
ATOM     68  S   UNL A   1      50.427  25.341  27.159  1.00  0.00     0.127 S 
ATOM     69  O   UNL A   1      49.821  24.212  27.866  1.00  0.00    -0.237 OA
ATOM     70  O   UNL A   1      51.333  24.962  26.074  1.00  0.00    -0.237 OA
ATOM     71  O   UNL A   1      50.908  26.421  28.005  1.00  0.00    -0.744 OA
ENDBRANCH  65  68
ENDBRANCH  47  61
BRANCH  48  72
ATOM     72  C   UNL A   1      38.668  30.226  30.782  1.00  0.00     0.023 A 
ATOM     73  C   UNL A   1      38.540  29.973  32.163  1.00  0.00     0.012 A 
ATOM     74  C   UNL A   1      37.646  30.930  30.116  1.00  0.00     0.148 A 
ATOM     75  C   UNL A   1      37.398  30.375  32.858  1.00  0.00     0.002 A 
ATOM     76  C   UNL A   1      36.539  31.378  30.827  1.00  0.00     0.091 A 
ATOM     77  F   UNL A   1      37.780  31.150  28.801  1.00  0.00    -0.205 F 
ATOM     78  C   UNL A   1      36.403  31.084  32.193  1.00  0.00     0.022 A 
BRANCH  76  79
ATOM     79  S   UNL A   1      35.267  32.407  30.084  1.00  0.00     0.127 S 
ATOM     80  O   UNL A   1      34.342  32.591  31.200  1.00  0.00    -0.237 OA
ATOM     81  O   UNL A   1      36.027  33.600  29.710  1.00  0.00    -0.237 OA
ATOM     82  O   UNL A   1      34.751  31.644  28.956  1.00  0.00    -0.744 OA
ENDBRANCH  76  79
ENDBRANCH  48  72
BRANCH  60  83
ATOM     83  C   UNL A   1      44.804  33.195  29.275  1.00  0.00     0.023 A 
ATOM     84  C   UNL A   1      45.522  33.430  30.465  1.00  0.00     0.012 A 
ATOM     85  C   UNL A   1      44.713  34.224  28.314  1.00  0.00     0.148 A 
ATOM     86  C   UNL A   1      46.110  34.672  30.708  1.00  0.00     0.002 A 
ATOM     87  C   UNL A   1      45.344  35.442  28.539  1.00  0.00     0.091 A 
ATOM     88  F   UNL A   1      44.012  33.991  27.194  1.00  0.00    -0.205 F 
ATOM     89  C   UNL A   1      46.032  35.672  29.741  1.00  0.00     0.022 A 
BRANCH  87  90
ATOM     90  S   UNL A   1      45.382  36.756  27.314  1.00  0.00     0.127 S 
ATOM     91  O   UNL A   1      46.033  36.092  26.185  1.00  0.00    -0.237 OA
ATOM     92  O   UNL A   1      43.961  37.037  27.117  1.00  0.00    -0.237 OA
ATOM     93  O   UNL A   1      46.139  37.845  27.915  1.00  0.00    -0.744 OA
ENDBRANCH  87  90
ENDBRANCH  60  83
ENDBRANCH  34  35
ENDBRANCH  26  29
ENDBRANCH  24  25
ENDBRANCH  23  24
ENDBRANCH  22  23
ENDBRANCH   1  22
TORSDOF 19
ENDMDL
