MODEL 1
REMARK VINA RESULT:      -9.8      0.000      0.000
REMARK SMILES CC(C)=CCC[C@H](C)CC(=O)NCCCCCCNC(=O)c1ccc(-c2c3nc(c(-c4cccc(S(=O)(=O)[O-])c4F)c4ccc([nH]4)c(-c4cccc(S(=O)(=O)[O-])c4F)c4nc(c(-c5cccc(S(=O)(=O)[O-])c5F)c5ccc2[nH]5)C=C4)C=C3)cc1
REMARK SMILES IDX 15 1 14 2 13 3 12 4 10 5 11 6 9 8 7 9 8 10 6 11 5 12 4 13
REMARK SMILES IDX 1 14 2 15 3 16 16 17 17 18 18 19 19 20 20 21 21 23 22 24
REMARK SMILES IDX 23 25 84 26 24 27 83 28 25 29 26 30 27 31 77 32 28 33 82 34
REMARK SMILES IDX 76 35 78 36 29 37 81 38 75 39 74 40 30 42 62 43 42 44 61 45
REMARK SMILES IDX 43 46 46 47 60 48 79 49 44 50 45 51 59 53 80 54 47 55 31 56
REMARK SMILES IDX 32 57 40 58 33 59 35 60 41 61 34 62 36 63 37 64 38 65 39 66
REMARK SMILES IDX 63 67 64 68 72 69 65 70 67 71 73 72 66 73 68 74 69 75 70 76
REMARK SMILES IDX 71 77 48 78 49 79 57 80 50 81 52 82 58 83 51 84 53 85 54 86
REMARK SMILES IDX 55 87 56 88
REMARK H PARENT 12 7 19 22 78 41 46 52
REMARK Flexibility Score: inf
ROOT
ATOM      1  C   UNL A   1      33.450  21.875  24.123  1.00  0.00     0.002 C 
ENDROOT
BRANCH   1   2
ATOM      2  C   UNL A   1      32.508  22.158  22.952  1.00  0.00     0.021 C 
BRANCH   2   3
ATOM      3  C   UNL A   1      31.884  23.553  22.969  1.00  0.00     0.116 C 
BRANCH   3   4
ATOM      4  N   UNL A   1      32.549  24.435  22.027  1.00  0.00    -0.356 N 
ATOM      5  C   UNL A   1      33.177  25.625  22.241  1.00  0.00     0.220 C 
ATOM      6  O   UNL A   1      33.596  26.257  21.270  1.00  0.00    -0.275 OA
ATOM      7  H   UNL A   1      32.547  24.126  21.092  1.00  0.00     0.163 HD
BRANCH   5   8
ATOM      8  C   UNL A   1      33.350  26.151  23.655  1.00  0.00     0.103 C 
BRANCH   8   9
ATOM      9  C   UNL A   1      32.300  27.203  24.043  1.00  0.00    -0.005 C 
ATOM     10  C   UNL A   1      31.137  27.289  23.052  1.00  0.00     0.008 C 
BRANCH   9  11
ATOM     11  C   UNL A   1      31.790  27.011  25.489  1.00  0.00     0.008 C 
BRANCH  11  12
ATOM     12  C   UNL A   1      31.099  25.677  25.812  1.00  0.00     0.027 C 
BRANCH  12  13
ATOM     13  C   UNL A   1      31.947  24.727  26.612  1.00  0.00    -0.028 C 
ATOM     14  C   UNL A   1      30.332  22.808  26.548  1.00  0.00     0.039 C 
ATOM     15  C   UNL A   1      31.637  23.452  26.925  1.00  0.00    -0.080 C 
ATOM     16  C   UNL A   1      32.629  22.597  27.665  1.00  0.00     0.039 C 
ENDBRANCH  12  13
ENDBRANCH  11  12
ENDBRANCH   9  11
ENDBRANCH   8   9
ENDBRANCH   5   8
ENDBRANCH   3   4
ENDBRANCH   2   3
ENDBRANCH   1   2
BRANCH   1  17
ATOM     17  C   UNL A   1      34.747  22.691  24.125  1.00  0.00     0.002 C 
BRANCH  17  18
ATOM     18  C   UNL A   1      35.261  23.109  25.506  1.00  0.00     0.021 C 
BRANCH  18  19
ATOM     19  C   UNL A   1      36.686  23.659  25.534  1.00  0.00     0.116 C 
BRANCH  19  20
ATOM     20  N   UNL A   1      37.659  22.638  25.881  1.00  0.00    -0.352 N 
ATOM     21  C   UNL A   1      38.918  22.773  26.407  1.00  0.00     0.251 C 
ATOM     22  H   UNL A   1      37.371  21.712  25.714  1.00  0.00     0.163 HD
ATOM     23  O   UNL A   1      39.663  21.798  26.449  1.00  0.00    -0.269 OA
BRANCH  21  24
ATOM     24  C   UNL A   1      39.383  24.082  26.916  1.00  0.00     0.039 A 
ATOM     25  C   UNL A   1      39.995  24.966  26.024  1.00  0.00     0.014 A 
ATOM     26  C   UNL A   1      39.259  24.425  28.266  1.00  0.00     0.014 A 
ATOM     27  C   UNL A   1      40.453  26.205  26.478  1.00  0.00     0.010 A 
ATOM     28  C   UNL A   1      39.655  25.689  28.703  1.00  0.00     0.010 A 
ATOM     29  C   UNL A   1      40.273  26.585  27.819  1.00  0.00    -0.014 A 
BRANCH  29  30
ATOM     30  C   UNL A   1      40.729  27.916  28.295  1.00  0.00     0.031 A 
ATOM     31  C   UNL A   1      42.191  28.273  28.292  1.00  0.00     0.074 A 
ATOM     32  C   UNL A   1      39.824  28.793  28.776  1.00  0.00     0.049 A 
ATOM     33  N   UNL A   1      42.764  29.398  28.635  1.00  0.00    -0.248 NA
ATOM     34  C   UNL A   1      43.136  27.226  27.872  1.00  0.00     0.031 C 
ATOM     35  C   UNL A   1      38.390  28.533  28.919  1.00  0.00     0.029 A 
ATOM     36  N   UNL A   1      39.978  30.072  29.246  1.00  0.00    -0.354 N 
ATOM     37  C   UNL A   1      44.132  29.188  28.500  1.00  0.00     0.074 A 
ATOM     38  C   UNL A   1      44.306  27.814  28.081  1.00  0.00     0.031 C 
ATOM     39  C   UNL A   1      37.795  29.623  29.428  1.00  0.00     0.029 A 
ATOM     40  C   UNL A   1      38.803  30.653  29.660  1.00  0.00     0.049 A 
ATOM     41  H   UNL A   1      40.848  30.532  29.284  1.00  0.00     0.167 HD
ATOM     42  C   UNL A   1      45.149  30.065  28.675  1.00  0.00     0.034 A 
ATOM     43  C   UNL A   1      38.561  31.882  30.157  1.00  0.00     0.034 A 
ATOM     44  C   UNL A   1      44.970  31.443  29.047  1.00  0.00     0.049 A 
ATOM     45  C   UNL A   1      39.698  32.860  30.272  1.00  0.00     0.074 A 
ATOM     46  C   UNL A   1      45.926  32.436  29.165  1.00  0.00     0.029 A 
ATOM     47  N   UNL A   1      43.752  32.025  29.365  1.00  0.00    -0.354 N 
ATOM     48  N   UNL A   1      40.964  32.693  29.971  1.00  0.00    -0.248 NA
ATOM     49  C   UNL A   1      39.367  34.210  30.749  1.00  0.00     0.031 C 
ATOM     50  C   UNL A   1      45.288  33.614  29.568  1.00  0.00     0.029 A 
ATOM     51  C   UNL A   1      43.932  33.360  29.681  1.00  0.00     0.049 A 
ATOM     52  H   UNL A   1      42.886  31.555  29.366  1.00  0.00     0.167 HD
ATOM     53  C   UNL A   1      41.572  33.924  30.189  1.00  0.00     0.074 A 
ATOM     54  C   UNL A   1      40.530  34.833  30.621  1.00  0.00     0.031 C 
ATOM     55  C   UNL A   1      42.878  34.267  30.060  1.00  0.00     0.034 A 
BRANCH  42  56
ATOM     56  C   UNL A   1      46.549  29.577  28.399  1.00  0.00     0.023 A 
ATOM     57  C   UNL A   1      47.108  29.768  27.118  1.00  0.00     0.012 A 
ATOM     58  C   UNL A   1      47.330  28.987  29.412  1.00  0.00     0.148 A 
ATOM     59  C   UNL A   1      48.408  29.348  26.840  1.00  0.00     0.002 A 
ATOM     60  C   UNL A   1      48.641  28.610  29.138  1.00  0.00     0.091 A 
ATOM     61  F   UNL A   1      46.776  28.792  30.617  1.00  0.00    -0.205 F 
ATOM     62  C   UNL A   1      49.176  28.779  27.850  1.00  0.00     0.022 A 
BRANCH  60  63
ATOM     63  S   UNL A   1      49.738  27.938  30.392  1.00  0.00     0.127 S 
ATOM     64  O   UNL A   1      49.660  28.963  31.431  1.00  0.00    -0.237 OA
ATOM     65  O   UNL A   1      49.083  26.675  30.731  1.00  0.00    -0.237 OA
ATOM     66  O   UNL A   1      51.037  27.794  29.750  1.00  0.00    -0.744 OA
ENDBRANCH  60  63
ENDBRANCH  42  56
BRANCH  43  67
ATOM     67  C   UNL A   1      37.166  32.285  30.494  1.00  0.00     0.023 A 
ATOM     68  C   UNL A   1      36.696  32.113  31.810  1.00  0.00     0.012 A 
ATOM     69  C   UNL A   1      36.318  32.869  29.533  1.00  0.00     0.148 A 
ATOM     70  C   UNL A   1      35.397  32.484  32.157  1.00  0.00     0.002 A 
ATOM     71  C   UNL A   1      35.044  33.288  29.899  1.00  0.00     0.091 A 
ATOM     72  F   UNL A   1      36.779  33.012  28.283  1.00  0.00    -0.205 F 
ATOM     73  C   UNL A   1      34.575  33.081  31.205  1.00  0.00     0.022 A 
BRANCH  71  74
ATOM     74  S   UNL A   1      33.971  34.187  28.773  1.00  0.00     0.127 S 
ATOM     75  O   UNL A   1      34.846  35.267  28.324  1.00  0.00    -0.237 OA
ATOM     76  O   UNL A   1      33.672  33.173  27.762  1.00  0.00    -0.237 OA
ATOM     77  O   UNL A   1      32.820  34.591  29.570  1.00  0.00    -0.744 OA
ENDBRANCH  71  74
ENDBRANCH  43  67
BRANCH  55  78
ATOM     78  C   UNL A   1      43.254  35.694  30.363  1.00  0.00     0.023 A 
ATOM     79  C   UNL A   1      43.738  36.034  31.643  1.00  0.00     0.012 A 
ATOM     80  C   UNL A   1      43.182  36.687  29.366  1.00  0.00     0.148 A 
ATOM     81  C   UNL A   1      44.104  37.346  31.937  1.00  0.00     0.002 A 
ATOM     82  C   UNL A   1      43.595  37.983  29.653  1.00  0.00     0.091 A 
ATOM     83  F   UNL A   1      42.700  36.352  28.160  1.00  0.00    -0.205 F 
ATOM     84  C   UNL A   1      44.043  38.317  30.941  1.00  0.00     0.022 A 
BRANCH  82  85
ATOM     85  S   UNL A   1      43.636  39.270  28.400  1.00  0.00     0.127 S 
ATOM     86  O   UNL A   1      44.304  38.588  27.293  1.00  0.00    -0.237 OA
ATOM     87  O   UNL A   1      42.214  39.540  28.180  1.00  0.00    -0.237 OA
ATOM     88  O   UNL A   1      44.371  40.378  28.996  1.00  0.00    -0.744 OA
ENDBRANCH  82  85
ENDBRANCH  55  78
ENDBRANCH  29  30
ENDBRANCH  21  24
ENDBRANCH  19  20
ENDBRANCH  18  19
ENDBRANCH  17  18
ENDBRANCH   1  17
TORSDOF 20
ENDMDL
MODEL 2
REMARK VINA RESULT:      -9.7      4.839      9.681
REMARK SMILES CC(C)=CCC[C@H](C)CC(=O)NCCCCCCNC(=O)c1ccc(-c2c3nc(c(-c4cccc(S(=O)(=O)[O-])c4F)c4ccc([nH]4)c(-c4cccc(S(=O)(=O)[O-])c4F)c4nc(c(-c5cccc(S(=O)(=O)[O-])c5F)c5ccc2[nH]5)C=C4)C=C3)cc1
REMARK SMILES IDX 15 1 14 2 13 3 12 4 10 5 11 6 9 8 7 9 8 10 6 11 5 12 4 13
REMARK SMILES IDX 1 14 2 15 3 16 16 17 17 18 18 19 19 20 20 21 21 23 22 24
REMARK SMILES IDX 23 25 84 26 24 27 83 28 25 29 26 30 27 31 77 32 28 33 82 34
REMARK SMILES IDX 76 35 78 36 29 37 81 38 75 39 74 40 30 42 62 43 42 44 61 45
REMARK SMILES IDX 43 46 46 47 60 48 79 49 44 50 45 51 59 53 80 54 47 55 31 56
REMARK SMILES IDX 32 57 40 58 33 59 35 60 41 61 34 62 36 63 37 64 38 65 39 66
REMARK SMILES IDX 63 67 64 68 72 69 65 70 67 71 73 72 66 73 68 74 69 75 70 76
REMARK SMILES IDX 71 77 48 78 49 79 57 80 50 81 52 82 58 83 51 84 53 85 54 86
REMARK SMILES IDX 55 87 56 88
REMARK H PARENT 12 7 19 22 78 41 46 52
REMARK Flexibility Score: inf
ROOT
ATOM      1  C   UNL A   1      31.894  28.962  23.415  1.00  0.00     0.002 C 
ENDROOT
BRANCH   1   2
ATOM      2  C   UNL A   1      33.402  28.897  23.661  1.00  0.00     0.021 C 
BRANCH   2   3
ATOM      3  C   UNL A   1      34.204  28.307  22.501  1.00  0.00     0.116 C 
BRANCH   3   4
ATOM      4  N   UNL A   1      33.355  27.516  21.628  1.00  0.00    -0.356 N 
ATOM      5  C   UNL A   1      33.076  26.182  21.659  1.00  0.00     0.220 C 
ATOM      6  O   UNL A   1      32.395  25.699  20.753  1.00  0.00    -0.275 OA
ATOM      7  H   UNL A   1      32.914  28.019  20.906  1.00  0.00     0.163 HD
BRANCH   5   8
ATOM      8  C   UNL A   1      33.601  25.321  22.793  1.00  0.00     0.103 C 
BRANCH   8   9
ATOM      9  C   UNL A   1      32.497  24.543  23.524  1.00  0.00    -0.005 C 
ATOM     10  C   UNL A   1      31.148  25.265  23.523  1.00  0.00     0.008 C 
BRANCH   9  11
ATOM     11  C   UNL A   1      32.358  23.096  22.998  1.00  0.00     0.008 C 
BRANCH  11  12
ATOM     12  C   UNL A   1      32.174  21.989  24.048  1.00  0.00     0.027 C 
BRANCH  12  13
ATOM     13  C   UNL A   1      33.160  22.052  25.181  1.00  0.00    -0.028 C 
ATOM     14  C   UNL A   1      31.591  23.085  26.845  1.00  0.00     0.039 C 
ATOM     15  C   UNL A   1      32.915  22.508  26.426  1.00  0.00    -0.080 C 
ATOM     16  C   UNL A   1      33.986  22.431  27.480  1.00  0.00     0.039 C 
ENDBRANCH  12  13
ENDBRANCH  11  12
ENDBRANCH   9  11
ENDBRANCH   8   9
ENDBRANCH   5   8
ENDBRANCH   3   4
ENDBRANCH   2   3
ENDBRANCH   1   2
BRANCH   1  17
ATOM     17  C   UNL A   1      31.045  29.246  24.658  1.00  0.00     0.002 C 
BRANCH  17  18
ATOM     18  C   UNL A   1      31.410  28.433  25.905  1.00  0.00     0.021 C 
BRANCH  18  19
ATOM     19  C   UNL A   1      31.793  29.257  27.133  1.00  0.00     0.116 C 
BRANCH  19  20
ATOM     20  N   UNL A   1      31.848  30.679  26.840  1.00  0.00    -0.352 N 
ATOM     21  C   UNL A   1      32.766  31.619  27.238  1.00  0.00     0.251 C 
ATOM     22  H   UNL A   1      31.120  31.019  26.274  1.00  0.00     0.163 HD
ATOM     23  O   UNL A   1      32.533  32.809  27.049  1.00  0.00    -0.269 OA
BRANCH  21  24
ATOM     24  C   UNL A   1      34.026  31.206  27.896  1.00  0.00     0.039 A 
ATOM     25  C   UNL A   1      34.685  32.129  28.712  1.00  0.00     0.014 A 
ATOM     26  C   UNL A   1      34.580  29.941  27.681  1.00  0.00     0.014 A 
ATOM     27  C   UNL A   1      35.881  31.771  29.339  1.00  0.00     0.010 A 
ATOM     28  C   UNL A   1      35.738  29.563  28.360  1.00  0.00     0.010 A 
ATOM     29  C   UNL A   1      36.411  30.479  29.182  1.00  0.00    -0.014 A 
BRANCH  29  30
ATOM     30  C   UNL A   1      37.665  30.087  29.875  1.00  0.00     0.031 A 
ATOM     31  C   UNL A   1      37.969  30.597  31.258  1.00  0.00     0.074 A 
ATOM     32  C   UNL A   1      38.557  29.303  29.236  1.00  0.00     0.049 A 
ATOM     33  N   UNL A   1      38.994  30.330  32.026  1.00  0.00    -0.248 NA
ATOM     34  C   UNL A   1      37.014  31.549  31.847  1.00  0.00     0.031 C 
ATOM     35  C   UNL A   1      38.423  28.819  27.861  1.00  0.00     0.029 A 
ATOM     36  N   UNL A   1      39.757  28.787  29.654  1.00  0.00    -0.354 N 
ATOM     37  C   UNL A   1      38.822  31.096  33.173  1.00  0.00     0.074 A 
ATOM     38  C   UNL A   1      37.615  31.870  32.984  1.00  0.00     0.031 C 
ATOM     39  C   UNL A   1      39.491  28.067  27.553  1.00  0.00     0.029 A 
ATOM     40  C   UNL A   1      40.391  28.024  28.702  1.00  0.00     0.049 A 
ATOM     41  H   UNL A   1      40.130  28.948  30.551  1.00  0.00     0.167 HD
ATOM     42  C   UNL A   1      39.580  31.129  34.295  1.00  0.00     0.034 A 
ATOM     43  C   UNL A   1      41.559  27.354  28.751  1.00  0.00     0.034 A 
ATOM     44  C   UNL A   1      40.755  30.324  34.499  1.00  0.00     0.049 A 
ATOM     45  C   UNL A   1      42.344  27.349  30.035  1.00  0.00     0.074 A 
ATOM     46  C   UNL A   1      41.542  30.219  35.632  1.00  0.00     0.029 A 
ATOM     47  N   UNL A   1      41.315  29.487  33.546  1.00  0.00    -0.354 N 
ATOM     48  N   UNL A   1      42.071  27.945  31.171  1.00  0.00    -0.248 NA
ATOM     49  C   UNL A   1      43.571  26.542  30.059  1.00  0.00     0.031 C 
ATOM     50  C   UNL A   1      42.586  29.328  35.359  1.00  0.00     0.029 A 
ATOM     51  C   UNL A   1      42.437  28.864  34.062  1.00  0.00     0.049 A 
ATOM     52  H   UNL A   1      40.965  29.356  32.635  1.00  0.00     0.167 HD
ATOM     53  C   UNL A   1      43.072  27.557  32.054  1.00  0.00     0.074 A 
ATOM     54  C   UNL A   1      43.942  26.654  31.328  1.00  0.00     0.031 C 
ATOM     55  C   UNL A   1      43.265  27.928  33.345  1.00  0.00     0.034 A 
BRANCH  42  56
ATOM     56  C   UNL A   1      39.122  32.021  35.422  1.00  0.00     0.023 A 
ATOM     57  C   UNL A   1      38.174  31.535  36.347  1.00  0.00     0.012 A 
ATOM     58  C   UNL A   1      39.666  33.308  35.604  1.00  0.00     0.148 A 
ATOM     59  C   UNL A   1      37.749  32.327  37.412  1.00  0.00     0.002 A 
ATOM     60  C   UNL A   1      39.269  34.075  36.693  1.00  0.00     0.091 A 
ATOM     61  F   UNL A   1      40.550  33.763  34.703  1.00  0.00    -0.205 F 
ATOM     62  C   UNL A   1      38.302  33.591  37.591  1.00  0.00     0.022 A 
BRANCH  60  63
ATOM     63  S   UNL A   1      39.979  35.685  37.056  1.00  0.00     0.127 S 
ATOM     64  O   UNL A   1      41.396  35.358  37.195  1.00  0.00    -0.237 OA
ATOM     65  O   UNL A   1      39.644  36.448  35.853  1.00  0.00    -0.237 OA
ATOM     66  O   UNL A   1      39.320  36.149  38.269  1.00  0.00    -0.744 OA
ENDBRANCH  60  63
ENDBRANCH  42  56
BRANCH  43  67
ATOM     67  C   UNL A   1      42.007  26.556  27.576  1.00  0.00     0.023 A 
ATOM     68  C   UNL A   1      42.754  27.182  26.560  1.00  0.00     0.012 A 
ATOM     69  C   UNL A   1      41.733  25.177  27.476  1.00  0.00     0.148 A 
ATOM     70  C   UNL A   1      43.191  26.459  25.449  1.00  0.00     0.002 A 
ATOM     71  C   UNL A   1      42.219  24.452  26.395  1.00  0.00     0.091 A 
ATOM     72  F   UNL A   1      41.010  24.602  28.447  1.00  0.00    -0.205 F 
ATOM     73  C   UNL A   1      42.933  25.094  25.371  1.00  0.00     0.022 A 
BRANCH  71  74
ATOM     74  S   UNL A   1      42.049  22.667  26.284  1.00  0.00     0.127 S 
ATOM     75  O   UNL A   1      42.750  22.225  27.487  1.00  0.00    -0.237 OA
ATOM     76  O   UNL A   1      40.597  22.497  26.318  1.00  0.00    -0.237 OA
ATOM     77  O   UNL A   1      42.664  22.294  25.017  1.00  0.00    -0.744 OA
ENDBRANCH  71  74
ENDBRANCH  43  67
BRANCH  55  78
ATOM     78  C   UNL A   1      44.448  27.337  34.068  1.00  0.00     0.023 A 
ATOM     79  C   UNL A   1      45.712  27.951  33.960  1.00  0.00     0.012 A 
ATOM     80  C   UNL A   1      44.296  26.208  34.897  1.00  0.00     0.148 A 
ATOM     81  C   UNL A   1      46.815  27.427  34.632  1.00  0.00     0.002 A 
ATOM     82  C   UNL A   1      45.390  25.720  35.603  1.00  0.00     0.091 A 
ATOM     83  F   UNL A   1      43.092  25.623  34.973  1.00  0.00    -0.205 F 
ATOM     84  C   UNL A   1      46.652  26.320  35.462  1.00  0.00     0.022 A 
BRANCH  82  85
ATOM     85  S   UNL A   1      45.245  24.357  36.764  1.00  0.00     0.127 S 
ATOM     86  O   UNL A   1      44.788  23.272  35.897  1.00  0.00    -0.237 OA
ATOM     87  O   UNL A   1      46.618  24.211  37.251  1.00  0.00    -0.237 OA
ATOM     88  O   UNL A   1      44.295  24.800  37.776  1.00  0.00    -0.744 OA
ENDBRANCH  82  85
ENDBRANCH  55  78
ENDBRANCH  29  30
ENDBRANCH  21  24
ENDBRANCH  19  20
ENDBRANCH  18  19
ENDBRANCH  17  18
ENDBRANCH   1  17
TORSDOF 20
ENDMDL
MODEL 3
REMARK VINA RESULT:      -9.6      3.405      8.724
REMARK SMILES CC(C)=CCC[C@H](C)CC(=O)NCCCCCCNC(=O)c1ccc(-c2c3nc(c(-c4cccc(S(=O)(=O)[O-])c4F)c4ccc([nH]4)c(-c4cccc(S(=O)(=O)[O-])c4F)c4nc(c(-c5cccc(S(=O)(=O)[O-])c5F)c5ccc2[nH]5)C=C4)C=C3)cc1
REMARK SMILES IDX 15 1 14 2 13 3 12 4 10 5 11 6 9 8 7 9 8 10 6 11 5 12 4 13
REMARK SMILES IDX 1 14 2 15 3 16 16 17 17 18 18 19 19 20 20 21 21 23 22 24
REMARK SMILES IDX 23 25 84 26 24 27 83 28 25 29 26 30 27 31 77 32 28 33 82 34
REMARK SMILES IDX 76 35 78 36 29 37 81 38 75 39 74 40 30 42 62 43 42 44 61 45
REMARK SMILES IDX 43 46 46 47 60 48 79 49 44 50 45 51 59 53 80 54 47 55 31 56
REMARK SMILES IDX 32 57 40 58 33 59 35 60 41 61 34 62 36 63 37 64 38 65 39 66
REMARK SMILES IDX 63 67 64 68 72 69 65 70 67 71 73 72 66 73 68 74 69 75 70 76
REMARK SMILES IDX 71 77 48 78 49 79 57 80 50 81 52 82 58 83 51 84 53 85 54 86
REMARK SMILES IDX 55 87 56 88
REMARK H PARENT 12 7 19 22 78 41 46 52
REMARK Flexibility Score: inf
ROOT
ATOM      1  C   UNL A   1      35.979  21.056  24.652  1.00  0.00     0.002 C 
ENDROOT
BRANCH   1   2
ATOM      2  C   UNL A   1      36.944  22.207  24.365  1.00  0.00     0.021 C 
BRANCH   2   3
ATOM      3  C   UNL A   1      36.352  23.597  24.599  1.00  0.00     0.116 C 
BRANCH   3   4
ATOM      4  N   UNL A   1      35.510  24.001  23.488  1.00  0.00    -0.356 N 
ATOM      5  C   UNL A   1      34.195  24.358  23.476  1.00  0.00     0.220 C 
ATOM      6  O   UNL A   1      33.651  24.576  22.393  1.00  0.00    -0.275 OA
ATOM      7  H   UNL A   1      35.957  24.021  22.610  1.00  0.00     0.163 HD
BRANCH   5   8
ATOM      8  C   UNL A   1      33.428  24.480  24.780  1.00  0.00     0.103 C 
BRANCH   8   9
ATOM      9  C   UNL A   1      33.004  23.124  25.363  1.00  0.00    -0.005 C 
ATOM     10  C   UNL A   1      31.937  23.242  26.454  1.00  0.00     0.008 C 
BRANCH   9  11
ATOM     11  C   UNL A   1      32.571  22.126  24.264  1.00  0.00     0.008 C 
BRANCH  11  12
ATOM     12  C   UNL A   1      32.159  20.720  24.725  1.00  0.00     0.027 C 
BRANCH  12  13
ATOM     13  C   UNL A   1      32.727  19.610  23.883  1.00  0.00    -0.028 C 
ATOM     14  C   UNL A   1      32.834  17.907  25.723  1.00  0.00     0.039 C 
ATOM     15  C   UNL A   1      33.007  18.358  24.299  1.00  0.00    -0.080 C 
ATOM     16  C   UNL A   1      33.497  17.331  23.315  1.00  0.00     0.039 C 
ENDBRANCH  12  13
ENDBRANCH  11  12
ENDBRANCH   9  11
ENDBRANCH   8   9
ENDBRANCH   5   8
ENDBRANCH   3   4
ENDBRANCH   2   3
ENDBRANCH   1   2
BRANCH   1  17
ATOM     17  C   UNL A   1      36.647  19.722  25.002  1.00  0.00     0.002 C 
BRANCH  17  18
ATOM     18  C   UNL A   1      38.165  19.672  24.803  1.00  0.00     0.021 C 
BRANCH  18  19
ATOM     19  C   UNL A   1      38.997  19.916  26.060  1.00  0.00     0.116 C 
BRANCH  19  20
ATOM     20  N   UNL A   1      40.168  19.057  26.115  1.00  0.00    -0.352 N 
ATOM     21  C   UNL A   1      41.497  19.393  26.170  1.00  0.00     0.251 C 
ATOM     22  H   UNL A   1      39.980  18.092  26.112  1.00  0.00     0.163 HD
ATOM     23  O   UNL A   1      42.348  18.522  26.012  1.00  0.00    -0.269 OA
BRANCH  21  24
ATOM     24  C   UNL A   1      41.908  20.794  26.409  1.00  0.00     0.039 A 
ATOM     25  C   UNL A   1      42.044  21.647  25.311  1.00  0.00     0.014 A 
ATOM     26  C   UNL A   1      42.201  21.258  27.695  1.00  0.00     0.014 A 
ATOM     27  C   UNL A   1      42.440  22.973  25.506  1.00  0.00     0.010 A 
ATOM     28  C   UNL A   1      42.530  22.598  27.895  1.00  0.00     0.010 A 
ATOM     29  C   UNL A   1      42.672  23.466  26.802  1.00  0.00    -0.014 A 
BRANCH  29  30
ATOM     30  C   UNL A   1      43.060  24.884  27.013  1.00  0.00     0.031 A 
ATOM     31  C   UNL A   1      42.121  25.844  27.692  1.00  0.00     0.074 A 
ATOM     32  C   UNL A   1      44.248  25.320  26.549  1.00  0.00     0.049 A 
ATOM     33  N   UNL A   1      42.307  27.104  27.992  1.00  0.00    -0.248 NA
ATOM     34  C   UNL A   1      40.790  25.333  28.060  1.00  0.00     0.031 C 
ATOM     35  C   UNL A   1      45.208  24.513  25.793  1.00  0.00     0.029 A 
ATOM     36  N   UNL A   1      44.845  26.553  26.633  1.00  0.00    -0.354 N 
ATOM     37  C   UNL A   1      41.115  27.543  28.557  1.00  0.00     0.074 A 
ATOM     38  C   UNL A   1      40.197  26.425  28.523  1.00  0.00     0.031 C 
ATOM     39  C   UNL A   1      46.278  25.267  25.495  1.00  0.00     0.029 A 
ATOM     40  C   UNL A   1      46.076  26.612  26.025  1.00  0.00     0.049 A 
ATOM     41  H   UNL A   1      44.430  27.323  27.086  1.00  0.00     0.167 HD
ATOM     42  C   UNL A   1      40.821  28.753  29.088  1.00  0.00     0.034 A 
ATOM     43  C   UNL A   1      46.952  27.631  25.918  1.00  0.00     0.034 A 
ATOM     44  C   UNL A   1      41.751  29.848  29.163  1.00  0.00     0.049 A 
ATOM     45  C   UNL A   1      46.630  28.943  26.580  1.00  0.00     0.074 A 
ATOM     46  C   UNL A   1      41.580  31.086  29.759  1.00  0.00     0.029 A 
ATOM     47  N   UNL A   1      43.027  29.841  28.622  1.00  0.00    -0.354 N 
ATOM     48  N   UNL A   1      45.564  29.282  27.264  1.00  0.00    -0.248 NA
ATOM     49  C   UNL A   1      47.651  29.996  26.497  1.00  0.00     0.031 C 
ATOM     50  C   UNL A   1      42.749  31.830  29.566  1.00  0.00     0.029 A 
ATOM     51  C   UNL A   1      43.655  31.050  28.867  1.00  0.00     0.049 A 
ATOM     52  H   UNL A   1      43.428  29.085  28.135  1.00  0.00     0.167 HD
ATOM     53  C   UNL A   1      45.801  30.573  27.722  1.00  0.00     0.074 A 
ATOM     54  C   UNL A   1      47.123  30.944  27.260  1.00  0.00     0.031 C 
ATOM     55  C   UNL A   1      44.991  31.386  28.445  1.00  0.00     0.034 A 
BRANCH  42  56
ATOM     56  C   UNL A   1      39.452  28.937  29.694  1.00  0.00     0.023 A 
ATOM     57  C   UNL A   1      39.208  28.476  31.004  1.00  0.00     0.012 A 
ATOM     58  C   UNL A   1      38.430  29.614  28.999  1.00  0.00     0.148 A 
ATOM     59  C   UNL A   1      37.960  28.652  31.599  1.00  0.00     0.002 A 
ATOM     60  C   UNL A   1      37.201  29.824  29.616  1.00  0.00     0.091 A 
ATOM     61  F   UNL A   1      38.672  30.027  27.746  1.00  0.00    -0.205 F 
ATOM     62  C   UNL A   1      36.962  29.333  30.911  1.00  0.00     0.022 A 
BRANCH  60  63
ATOM     63  S   UNL A   1      35.875  30.757  28.843  1.00  0.00     0.127 S 
ATOM     64  O   UNL A   1      36.623  31.688  28.000  1.00  0.00    -0.237 OA
ATOM     65  O   UNL A   1      35.152  29.718  28.110  1.00  0.00    -0.237 OA
ATOM     66  O   UNL A   1      35.124  31.363  29.933  1.00  0.00    -0.744 OA
ENDBRANCH  60  63
ENDBRANCH  42  56
BRANCH  43  67
ATOM     67  C   UNL A   1      48.258  27.418  25.234  1.00  0.00     0.023 A 
ATOM     68  C   UNL A   1      49.370  26.992  25.985  1.00  0.00     0.012 A 
ATOM     69  C   UNL A   1      48.398  27.597  23.843  1.00  0.00     0.148 A 
ATOM     70  C   UNL A   1      50.606  26.780  25.372  1.00  0.00     0.002 A 
ATOM     71  C   UNL A   1      49.617  27.330  23.231  1.00  0.00     0.091 A 
ATOM     72  F   UNL A   1      47.331  28.014  23.147  1.00  0.00    -0.205 F 
ATOM     73  C   UNL A   1      50.727  26.939  23.995  1.00  0.00     0.022 A 
BRANCH  71  74
ATOM     74  S   UNL A   1      49.822  27.377  21.446  1.00  0.00     0.127 S 
ATOM     75  O   UNL A   1      48.701  26.558  20.994  1.00  0.00    -0.237 OA
ATOM     76  O   UNL A   1      49.696  28.807  21.163  1.00  0.00    -0.237 OA
ATOM     77  O   UNL A   1      51.150  26.834  21.192  1.00  0.00    -0.744 OA
ENDBRANCH  71  74
ENDBRANCH  43  67
BRANCH  55  78
ATOM     78  C   UNL A   1      45.520  32.750  28.807  1.00  0.00     0.023 A 
ATOM     79  C   UNL A   1      46.241  32.925  30.006  1.00  0.00     0.012 A 
ATOM     80  C   UNL A   1      45.352  33.844  27.936  1.00  0.00     0.148 A 
ATOM     81  C   UNL A   1      46.750  34.176  30.350  1.00  0.00     0.002 A 
ATOM     82  C   UNL A   1      45.905  35.077  28.263  1.00  0.00     0.091 A 
ATOM     83  F   UNL A   1      44.646  33.666  26.809  1.00  0.00    -0.205 F 
ATOM     84  C   UNL A   1      46.592  35.248  29.475  1.00  0.00     0.022 A 
BRANCH  82  85
ATOM     85  S   UNL A   1      45.827  36.483  27.147  1.00  0.00     0.127 S 
ATOM     86  O   UNL A   1      46.489  35.956  25.955  1.00  0.00    -0.237 OA
ATOM     87  O   UNL A   1      44.384  36.689  27.002  1.00  0.00    -0.237 OA
ATOM     88  O   UNL A   1      46.521  37.567  27.829  1.00  0.00    -0.744 OA
ENDBRANCH  82  85
ENDBRANCH  55  78
ENDBRANCH  29  30
ENDBRANCH  21  24
ENDBRANCH  19  20
ENDBRANCH  18  19
ENDBRANCH  17  18
ENDBRANCH   1  17
TORSDOF 20
ENDMDL
