MODEL 1
REMARK VINA RESULT:     -11.6      0.000      0.000
REMARK SMILES C[C@@H]1OCC[C@@H]1C(=O)Nc1ccc(C(=O)NCCCCCCNC(=O)c2ccc(-c3c4nc(c(-c5cccc(S(=O)(=O)[O-])c5F)c5ccc([nH]5)c(-c5cccc(S(=O)(=O)[O-])c5F)c5nc(c(-c6cccc(S(=O)(=O)[O-])c6F)c6ccc3[nH]6)C=C5)C=C4)cc2)cc1F
REMARK SMILES IDX 20 1 19 2 18 3 17 4 16 5 14 6 15 7 13 9 10 10 11 11 90 12
REMARK SMILES IDX 12 13 89 14 91 15 9 16 7 17 8 18 6 20 1 21 2 22 3 23 4 24
REMARK SMILES IDX 5 25 21 26 22 27 23 28 24 29 25 31 26 32 27 33 88 34 28 35
REMARK SMILES IDX 87 36 29 37 30 38 31 39 81 40 32 41 86 42 80 43 82 44 33 45
REMARK SMILES IDX 85 46 79 47 78 48 34 50 66 51 46 52 65 53 47 54 50 55 64 56
REMARK SMILES IDX 83 57 48 58 49 59 63 61 84 62 51 63 35 64 36 65 44 66 37 67
REMARK SMILES IDX 39 68 45 69 38 70 40 71 41 72 42 73 43 74 67 75 68 76 76 77
REMARK SMILES IDX 69 78 71 79 77 80 70 81 72 82 73 83 74 84 75 85 52 86 53 87
REMARK SMILES IDX 61 88 54 89 56 90 62 91 55 92 57 93 58 94 59 95 60 96
REMARK H PARENT 16 8 9 19 23 30 82 49 50 60
REMARK Flexibility Score: inf
ROOT
ATOM      1  C   UNL A   1      35.219  23.483  24.653  1.00  0.00     0.002 C 
ENDROOT
BRANCH   1   2
ATOM      2  C   UNL A   1      34.748  23.619  26.106  1.00  0.00     0.002 C 
BRANCH   2   3
ATOM      3  C   UNL A   1      35.088  22.412  26.984  1.00  0.00     0.021 C 
BRANCH   3   4
ATOM      4  C   UNL A   1      33.833  21.745  27.567  1.00  0.00     0.116 C 
BRANCH   4   5
ATOM      5  N   UNL A   1      33.438  20.589  26.756  1.00  0.00    -0.352 N 
ATOM      6  C   UNL A   1      32.580  20.414  25.687  1.00  0.00     0.251 C 
ATOM      7  O   UNL A   1      32.467  19.290  25.202  1.00  0.00    -0.269 OA
ATOM      8  H   UNL A   1      33.882  19.754  27.034  1.00  0.00     0.163 HD
BRANCH   6   9
ATOM      9  C   UNL A   1      31.858  21.544  25.047  1.00  0.00     0.042 A 
ATOM     10  C   UNL A   1      30.913  24.026  24.044  1.00  0.00     0.077 A 
ATOM     11  C   UNL A   1      31.573  23.121  23.200  1.00  0.00     0.030 A 
ATOM     12  C   UNL A   1      30.787  23.628  25.364  1.00  0.00     0.147 A 
ATOM     13  C   UNL A   1      32.109  21.919  23.719  1.00  0.00     0.016 A 
ATOM     14  C   UNL A   1      31.019  22.341  25.779  1.00  0.00     0.055 A 
ATOM     15  F   UNL A   1      30.642  24.474  26.378  1.00  0.00    -0.205 F 
BRANCH  10  16
ATOM     16  N   UNL A   1      30.386  25.215  23.490  1.00  0.00    -0.323 N 
ATOM     17  C   UNL A   1      30.843  26.509  23.389  1.00  0.00     0.230 C 
ATOM     18  O   UNL A   1      30.041  27.346  22.961  1.00  0.00    -0.274 OA
ATOM     19  H   UNL A   1      29.496  25.090  23.088  1.00  0.00     0.170 HD
BRANCH  17  20
ATOM     20  C   UNL A   1      32.269  26.898  23.722  1.00  0.00     0.110 C 
ATOM     21  C   UNL A   1      31.567  27.628  26.114  1.00  0.00     0.039 C 
ATOM     22  C   UNL A   1      32.636  27.035  25.210  1.00  0.00     0.127 C 
ATOM     23  O   UNL A   1      33.795  27.894  25.262  1.00  0.00    -0.378 OA
ATOM     24  C   UNL A   1      34.093  28.312  23.923  1.00  0.00     0.161 C 
ATOM     25  C   UNL A   1      32.770  28.227  23.187  1.00  0.00     0.044 C 
ENDBRANCH  17  20
ENDBRANCH  10  16
ENDBRANCH   6   9
ENDBRANCH   4   5
ENDBRANCH   3   4
ENDBRANCH   2   3
ENDBRANCH   1   2
BRANCH   1  26
ATOM     26  C   UNL A   1      35.691  22.082  24.255  1.00  0.00     0.021 C 
BRANCH  26  27
ATOM     27  C   UNL A   1      37.205  21.940  24.137  1.00  0.00     0.116 C 
BRANCH  27  28
ATOM     28  N   UNL A   1      37.709  20.880  24.999  1.00  0.00    -0.352 N 
ATOM     29  C   UNL A   1      38.751  20.905  25.893  1.00  0.00     0.251 C 
ATOM     30  H   UNL A   1      37.233  20.020  24.931  1.00  0.00     0.163 HD
ATOM     31  O   UNL A   1      39.198  19.857  26.341  1.00  0.00    -0.269 OA
BRANCH  29  32
ATOM     32  C   UNL A   1      39.327  22.202  26.307  1.00  0.00     0.039 A 
ATOM     33  C   UNL A   1      40.507  22.213  27.055  1.00  0.00     0.014 A 
ATOM     34  C   UNL A   1      38.692  23.402  25.975  1.00  0.00     0.014 A 
ATOM     35  C   UNL A   1      41.075  23.433  27.427  1.00  0.00     0.010 A 
ATOM     36  C   UNL A   1      39.298  24.615  26.283  1.00  0.00     0.010 A 
ATOM     37  C   UNL A   1      40.491  24.644  27.021  1.00  0.00    -0.014 A 
BRANCH  37  38
ATOM     38  C   UNL A   1      41.120  25.950  27.347  1.00  0.00     0.031 A 
ATOM     39  C   UNL A   1      42.545  26.226  26.950  1.00  0.00     0.074 A 
ATOM     40  C   UNL A   1      40.433  26.855  28.072  1.00  0.00     0.049 A 
ATOM     41  N   UNL A   1      43.277  27.279  27.201  1.00  0.00    -0.248 NA
ATOM     42  C   UNL A   1      43.250  25.176  26.191  1.00  0.00     0.031 C 
ATOM     43  C   UNL A   1      39.072  26.669  28.583  1.00  0.00     0.029 A 
ATOM     44  N   UNL A   1      40.791  28.098  28.532  1.00  0.00    -0.354 N 
ATOM     45  C   UNL A   1      44.532  27.007  26.670  1.00  0.00     0.074 A 
ATOM     46  C   UNL A   1      44.474  25.680  26.101  1.00  0.00     0.031 C 
ATOM     47  C   UNL A   1      38.713  27.756  29.284  1.00  0.00     0.029 A 
ATOM     48  C   UNL A   1      39.825  28.700  29.305  1.00  0.00     0.049 A 
ATOM     49  H   UNL A   1      41.658  28.518  28.328  1.00  0.00     0.167 HD
ATOM     50  C   UNL A   1      45.625  27.803  26.639  1.00  0.00     0.034 A 
ATOM     51  C   UNL A   1      39.837  29.874  29.971  1.00  0.00     0.034 A 
ATOM     52  C   UNL A   1      45.660  29.144  27.156  1.00  0.00     0.049 A 
ATOM     53  C   UNL A   1      41.052  30.757  29.875  1.00  0.00     0.074 A 
ATOM     54  C   UNL A   1      46.691  30.062  27.076  1.00  0.00     0.029 A 
ATOM     55  N   UNL A   1      44.631  29.756  27.852  1.00  0.00    -0.354 N 
ATOM     56  N   UNL A   1      42.172  30.547  29.227  1.00  0.00    -0.248 NA
ATOM     57  C   UNL A   1      40.996  32.053  30.567  1.00  0.00     0.031 C 
ATOM     58  C   UNL A   1      46.300  31.218  27.754  1.00  0.00     0.029 A 
ATOM     59  C   UNL A   1      45.009  31.034  28.221  1.00  0.00     0.049 A 
ATOM     60  H   UNL A   1      43.761  29.342  28.056  1.00  0.00     0.167 HD
ATOM     61  C   UNL A   1      42.938  31.693  29.406  1.00  0.00     0.074 A 
ATOM     62  C   UNL A   1      42.146  32.605  30.204  1.00  0.00     0.031 C 
ATOM     63  C   UNL A   1      44.191  31.956  28.964  1.00  0.00     0.034 A 
BRANCH  50  64
ATOM     64  C   UNL A   1      46.873  27.291  25.973  1.00  0.00     0.023 A 
ATOM     65  C   UNL A   1      47.144  27.650  24.639  1.00  0.00     0.012 A 
ATOM     66  C   UNL A   1      47.845  26.591  26.716  1.00  0.00     0.148 A 
ATOM     67  C   UNL A   1      48.364  27.317  24.049  1.00  0.00     0.002 A 
ATOM     68  C   UNL A   1      49.076  26.304  26.137  1.00  0.00     0.091 A 
ATOM     69  F   UNL A   1      47.558  26.247  27.979  1.00  0.00    -0.205 F 
ATOM     70  C   UNL A   1      49.333  26.660  24.803  1.00  0.00     0.022 A 
BRANCH  68  71
ATOM     71  S   UNL A   1      50.427  25.548  27.047  1.00  0.00     0.127 S 
ATOM     72  O   UNL A   1      51.414  25.336  25.989  1.00  0.00    -0.237 OA
ATOM     73  O   UNL A   1      50.776  26.598  28.004  1.00  0.00    -0.237 OA
ATOM     74  O   UNL A   1      49.888  24.331  27.638  1.00  0.00    -0.744 OA
ENDBRANCH  68  71
ENDBRANCH  50  64
BRANCH  51  75
ATOM     75  C   UNL A   1      38.637  30.299  30.747  1.00  0.00     0.023 A 
ATOM     76  C   UNL A   1      38.541  29.973  32.114  1.00  0.00     0.012 A 
ATOM     77  C   UNL A   1      37.610  31.055  30.149  1.00  0.00     0.148 A 
ATOM     78  C   UNL A   1      37.430  30.363  32.863  1.00  0.00     0.002 A 
ATOM     79  C   UNL A   1      36.536  31.494  30.915  1.00  0.00     0.091 A 
ATOM     80  F   UNL A   1      37.711  31.344  28.844  1.00  0.00    -0.205 F 
ATOM     81  C   UNL A   1      36.434  31.133  32.267  1.00  0.00     0.022 A 
BRANCH  79  82
ATOM     82  S   UNL A   1      35.289  32.613  30.268  1.00  0.00     0.127 S 
ATOM     83  O   UNL A   1      36.101  33.743  29.824  1.00  0.00    -0.237 OA
ATOM     84  O   UNL A   1      34.698  31.818  29.191  1.00  0.00    -0.237 OA
ATOM     85  O   UNL A   1      34.385  32.878  31.378  1.00  0.00    -0.744 OA
ENDBRANCH  79  82
ENDBRANCH  51  75
BRANCH  63  86
ATOM     86  C   UNL A   1      44.796  33.297  29.290  1.00  0.00     0.023 A 
ATOM     87  C   UNL A   1      45.571  33.450  30.455  1.00  0.00     0.012 A 
ATOM     88  C   UNL A   1      44.704  34.364  28.373  1.00  0.00     0.148 A 
ATOM     89  C   UNL A   1      46.230  34.652  30.713  1.00  0.00     0.002 A 
ATOM     90  C   UNL A   1      45.407  35.539  28.609  1.00  0.00     0.091 A 
ATOM     91  F   UNL A   1      43.949  34.200  27.275  1.00  0.00    -0.205 F 
ATOM     92  C   UNL A   1      46.161  35.688  29.784  1.00  0.00     0.022 A 
BRANCH  90  93
ATOM     93  S   UNL A   1      45.468  36.884  27.422  1.00  0.00     0.127 S 
ATOM     94  O   UNL A   1      45.945  36.200  26.220  1.00  0.00    -0.237 OA
ATOM     95  O   UNL A   1      44.069  37.311  27.366  1.00  0.00    -0.237 OA
ATOM     96  O   UNL A   1      46.382  37.874  27.977  1.00  0.00    -0.744 OA
ENDBRANCH  90  93
ENDBRANCH  63  86
ENDBRANCH  37  38
ENDBRANCH  29  32
ENDBRANCH  27  28
ENDBRANCH  26  27
ENDBRANCH   1  26
TORSDOF 18
ENDMDL
MODEL 2
REMARK VINA RESULT:     -11.5      2.018      2.727
REMARK SMILES C[C@@H]1OCC[C@@H]1C(=O)Nc1ccc(C(=O)NCCCCCCNC(=O)c2ccc(-c3c4nc(c(-c5cccc(S(=O)(=O)[O-])c5F)c5ccc([nH]5)c(-c5cccc(S(=O)(=O)[O-])c5F)c5nc(c(-c6cccc(S(=O)(=O)[O-])c6F)c6ccc3[nH]6)C=C5)C=C4)cc2)cc1F
REMARK SMILES IDX 20 1 19 2 18 3 17 4 16 5 14 6 15 7 13 9 10 10 11 11 90 12
REMARK SMILES IDX 12 13 89 14 91 15 9 16 7 17 8 18 6 20 1 21 2 22 3 23 4 24
REMARK SMILES IDX 5 25 21 26 22 27 23 28 24 29 25 31 26 32 27 33 88 34 28 35
REMARK SMILES IDX 87 36 29 37 30 38 31 39 81 40 32 41 86 42 80 43 82 44 33 45
REMARK SMILES IDX 85 46 79 47 78 48 34 50 66 51 46 52 65 53 47 54 50 55 64 56
REMARK SMILES IDX 83 57 48 58 49 59 63 61 84 62 51 63 35 64 36 65 44 66 37 67
REMARK SMILES IDX 39 68 45 69 38 70 40 71 41 72 42 73 43 74 67 75 68 76 76 77
REMARK SMILES IDX 69 78 71 79 77 80 70 81 72 82 73 83 74 84 75 85 52 86 53 87
REMARK SMILES IDX 61 88 54 89 56 90 62 91 55 92 57 93 58 94 59 95 60 96
REMARK H PARENT 16 8 9 19 23 30 82 49 50 60
REMARK Flexibility Score: inf
ROOT
ATOM      1  C   UNL A   1      35.080  24.304  25.356  1.00  0.00     0.002 C 
ENDROOT
BRANCH   1   2
ATOM      2  C   UNL A   1      34.081  23.938  26.460  1.00  0.00     0.002 C 
BRANCH   2   3
ATOM      3  C   UNL A   1      34.532  22.772  27.343  1.00  0.00     0.021 C 
BRANCH   3   4
ATOM      4  C   UNL A   1      33.369  21.837  27.710  1.00  0.00     0.116 C 
BRANCH   4   5
ATOM      5  N   UNL A   1      33.405  20.621  26.891  1.00  0.00    -0.352 N 
ATOM      6  C   UNL A   1      32.994  20.316  25.608  1.00  0.00     0.251 C 
ATOM      7  O   UNL A   1      33.176  19.174  25.189  1.00  0.00    -0.269 OA
ATOM      8  H   UNL A   1      33.810  19.854  27.358  1.00  0.00     0.163 HD
BRANCH   6   9
ATOM      9  C   UNL A   1      32.422  21.332  24.686  1.00  0.00     0.042 A 
ATOM     10  C   UNL A   1      31.636  23.652  23.252  1.00  0.00     0.077 A 
ATOM     11  C   UNL A   1      32.619  22.794  22.737  1.00  0.00     0.030 A 
ATOM     12  C   UNL A   1      31.119  23.294  24.485  1.00  0.00     0.147 A 
ATOM     13  C   UNL A   1      33.063  21.682  23.489  1.00  0.00     0.016 A 
ATOM     14  C   UNL A   1      31.318  22.058  25.046  1.00  0.00     0.055 A 
ATOM     15  F   UNL A   1      30.568  24.157  25.332  1.00  0.00    -0.205 F 
BRANCH  10  16
ATOM     16  N   UNL A   1      31.215  24.752  22.471  1.00  0.00    -0.323 N 
ATOM     17  C   UNL A   1      31.515  26.095  22.468  1.00  0.00     0.230 C 
ATOM     18  O   UNL A   1      30.835  26.811  21.723  1.00  0.00    -0.274 OA
ATOM     19  H   UNL A   1      30.563  24.503  21.777  1.00  0.00     0.170 HD
BRANCH  17  20
ATOM     20  C   UNL A   1      32.653  26.678  23.280  1.00  0.00     0.110 C 
ATOM     21  C   UNL A   1      31.002  27.473  25.122  1.00  0.00     0.039 C 
ATOM     22  C   UNL A   1      32.388  26.958  24.770  1.00  0.00     0.127 C 
ATOM     23  O   UNL A   1      33.353  27.954  25.171  1.00  0.00    -0.378 OA
ATOM     24  C   UNL A   1      34.118  28.317  24.013  1.00  0.00     0.161 C 
ATOM     25  C   UNL A   1      33.206  28.021  22.838  1.00  0.00     0.044 C 
ENDBRANCH  17  20
ENDBRANCH  10  16
ENDBRANCH   6   9
ENDBRANCH   4   5
ENDBRANCH   3   4
ENDBRANCH   2   3
ENDBRANCH   1   2
BRANCH   1  26
ATOM     26  C   UNL A   1      35.915  23.134  24.826  1.00  0.00     0.021 C 
BRANCH  26  27
ATOM     27  C   UNL A   1      37.414  23.406  24.774  1.00  0.00     0.116 C 
BRANCH  27  28
ATOM     28  N   UNL A   1      38.157  22.451  25.583  1.00  0.00    -0.352 N 
ATOM     29  C   UNL A   1      39.218  22.664  26.428  1.00  0.00     0.251 C 
ATOM     30  H   UNL A   1      37.854  21.516  25.514  1.00  0.00     0.163 HD
ATOM     31  O   UNL A   1      39.883  21.717  26.827  1.00  0.00    -0.269 OA
BRANCH  29  32
ATOM     32  C   UNL A   1      39.552  24.041  26.849  1.00  0.00     0.039 A 
ATOM     33  C   UNL A   1      39.251  24.445  28.151  1.00  0.00     0.014 A 
ATOM     34  C   UNL A   1      40.142  24.937  25.952  1.00  0.00     0.014 A 
ATOM     35  C   UNL A   1      39.587  25.735  28.568  1.00  0.00     0.010 A 
ATOM     36  C   UNL A   1      40.543  26.194  26.391  1.00  0.00     0.010 A 
ATOM     37  C   UNL A   1      40.261  26.610  27.701  1.00  0.00    -0.014 A 
BRANCH  37  38
ATOM     38  C   UNL A   1      40.690  27.960  28.149  1.00  0.00     0.031 A 
ATOM     39  C   UNL A   1      42.152  28.315  28.198  1.00  0.00     0.074 A 
ATOM     40  C   UNL A   1      39.767  28.837  28.591  1.00  0.00     0.049 A 
ATOM     41  N   UNL A   1      42.715  29.416  28.617  1.00  0.00    -0.248 NA
ATOM     42  C   UNL A   1      43.111  27.293  27.736  1.00  0.00     0.031 C 
ATOM     43  C   UNL A   1      38.327  28.580  28.666  1.00  0.00     0.029 A 
ATOM     44  N   UNL A   1      39.902  30.111  29.087  1.00  0.00    -0.354 N 
ATOM     45  C   UNL A   1      44.085  29.210  28.509  1.00  0.00     0.074 A 
ATOM     46  C   UNL A   1      44.274  27.869  28.004  1.00  0.00     0.031 C 
ATOM     47  C   UNL A   1      37.713  29.659  29.178  1.00  0.00     0.029 A 
ATOM     48  C   UNL A   1      38.714  30.671  29.500  1.00  0.00     0.049 A 
ATOM     49  H   UNL A   1      40.766  30.580  29.141  1.00  0.00     0.167 HD
ATOM     50  C   UNL A   1      45.092  30.072  28.782  1.00  0.00     0.034 A 
ATOM     51  C   UNL A   1      38.460  31.858  30.088  1.00  0.00     0.034 A 
ATOM     52  C   UNL A   1      44.896  31.424  29.228  1.00  0.00     0.049 A 
ATOM     53  C   UNL A   1      39.597  32.812  30.332  1.00  0.00     0.074 A 
ATOM     54  C   UNL A   1      45.853  32.402  29.430  1.00  0.00     0.029 A 
ATOM     55  N   UNL A   1      43.672  31.987  29.549  1.00  0.00    -0.354 N 
ATOM     56  N   UNL A   1      40.872  32.656  30.068  1.00  0.00    -0.248 NA
ATOM     57  C   UNL A   1      39.263  34.118  30.919  1.00  0.00     0.031 C 
ATOM     58  C   UNL A   1      45.213  33.547  29.906  1.00  0.00     0.029 A 
ATOM     59  C   UNL A   1      43.851  33.295  29.962  1.00  0.00     0.049 A 
ATOM     60  H   UNL A   1      42.805  31.525  29.493  1.00  0.00     0.167 HD
ATOM     61  C   UNL A   1      41.485  33.852  30.427  1.00  0.00     0.074 A 
ATOM     62  C   UNL A   1      40.439  34.731  30.905  1.00  0.00     0.031 C 
ATOM     63  C   UNL A   1      42.798  34.182  30.379  1.00  0.00     0.034 A 
BRANCH  50  64
ATOM     64  C   UNL A   1      46.509  29.622  28.552  1.00  0.00     0.023 A 
ATOM     65  C   UNL A   1      47.144  29.924  27.332  1.00  0.00     0.012 A 
ATOM     66  C   UNL A   1      47.256  29.045  29.599  1.00  0.00     0.148 A 
ATOM     67  C   UNL A   1      48.500  29.655  27.153  1.00  0.00     0.002 A 
ATOM     68  C   UNL A   1      48.617  28.824  29.430  1.00  0.00     0.091 A 
ATOM     69  F   UNL A   1      46.626  28.753  30.746  1.00  0.00    -0.205 F 
ATOM     70  C   UNL A   1      49.238  29.122  28.206  1.00  0.00     0.022 A 
BRANCH  68  71
ATOM     71  S   UNL A   1      49.678  28.231  30.753  1.00  0.00     0.127 S 
ATOM     72  O   UNL A   1      49.273  29.090  31.865  1.00  0.00    -0.237 OA
ATOM     73  O   UNL A   1      49.260  26.835  30.877  1.00  0.00    -0.237 OA
ATOM     74  O   UNL A   1      51.046  28.424  30.294  1.00  0.00    -0.744 OA
ENDBRANCH  68  71
ENDBRANCH  50  64
BRANCH  51  75
ATOM     75  C   UNL A   1      37.058  32.226  30.440  1.00  0.00     0.023 A 
ATOM     76  C   UNL A   1      36.581  31.982  31.743  1.00  0.00     0.012 A 
ATOM     77  C   UNL A   1      36.209  32.849  29.505  1.00  0.00     0.148 A 
ATOM     78  C   UNL A   1      35.274  32.321  32.098  1.00  0.00     0.002 A 
ATOM     79  C   UNL A   1      34.930  33.243  29.883  1.00  0.00     0.091 A 
ATOM     80  F   UNL A   1      36.675  33.062  28.266  1.00  0.00    -0.205 F 
ATOM     81  C   UNL A   1      34.454  32.961  31.172  1.00  0.00     0.022 A 
BRANCH  79  82
ATOM     82  S   UNL A   1      33.863  34.205  28.805  1.00  0.00     0.127 S 
ATOM     83  O   UNL A   1      32.837  34.668  29.736  1.00  0.00    -0.237 OA
ATOM     84  O   UNL A   1      34.775  35.244  28.326  1.00  0.00    -0.237 OA
ATOM     85  O   UNL A   1      33.414  33.283  27.772  1.00  0.00    -0.744 OA
ENDBRANCH  79  82
ENDBRANCH  51  75
BRANCH  63  86
ATOM     86  C   UNL A   1      43.202  35.565  30.819  1.00  0.00     0.023 A 
ATOM     87  C   UNL A   1      43.484  35.813  32.176  1.00  0.00     0.012 A 
ATOM     88  C   UNL A   1      43.430  36.580  29.866  1.00  0.00     0.148 A 
ATOM     89  C   UNL A   1      43.968  37.057  32.582  1.00  0.00     0.002 A 
ATOM     90  C   UNL A   1      43.963  37.797  30.270  1.00  0.00     0.091 A 
ATOM     91  F   UNL A   1      43.143  36.324  28.581  1.00  0.00    -0.205 F 
ATOM     92  C   UNL A   1      44.222  38.041  31.628  1.00  0.00     0.022 A 
BRANCH  90  93
ATOM     93  S   UNL A   1      44.426  39.083  29.105  1.00  0.00     0.127 S 
ATOM     94  O   UNL A   1      43.157  39.341  28.427  1.00  0.00    -0.237 OA
ATOM     95  O   UNL A   1      44.874  40.157  29.992  1.00  0.00    -0.237 OA
ATOM     96  O   UNL A   1      45.473  38.512  28.267  1.00  0.00    -0.744 OA
ENDBRANCH  90  93
ENDBRANCH  63  86
ENDBRANCH  37  38
ENDBRANCH  29  32
ENDBRANCH  27  28
ENDBRANCH  26  27
ENDBRANCH   1  26
TORSDOF 18
ENDMDL
MODEL 3
REMARK VINA RESULT:     -11.5      4.667      9.457
REMARK SMILES C[C@@H]1OCC[C@@H]1C(=O)Nc1ccc(C(=O)NCCCCCCNC(=O)c2ccc(-c3c4nc(c(-c5cccc(S(=O)(=O)[O-])c5F)c5ccc([nH]5)c(-c5cccc(S(=O)(=O)[O-])c5F)c5nc(c(-c6cccc(S(=O)(=O)[O-])c6F)c6ccc3[nH]6)C=C5)C=C4)cc2)cc1F
REMARK SMILES IDX 20 1 19 2 18 3 17 4 16 5 14 6 15 7 13 9 10 10 11 11 90 12
REMARK SMILES IDX 12 13 89 14 91 15 9 16 7 17 8 18 6 20 1 21 2 22 3 23 4 24
REMARK SMILES IDX 5 25 21 26 22 27 23 28 24 29 25 31 26 32 27 33 88 34 28 35
REMARK SMILES IDX 87 36 29 37 30 38 31 39 81 40 32 41 86 42 80 43 82 44 33 45
REMARK SMILES IDX 85 46 79 47 78 48 34 50 66 51 46 52 65 53 47 54 50 55 64 56
REMARK SMILES IDX 83 57 48 58 49 59 63 61 84 62 51 63 35 64 36 65 44 66 37 67
REMARK SMILES IDX 39 68 45 69 38 70 40 71 41 72 42 73 43 74 67 75 68 76 76 77
REMARK SMILES IDX 69 78 71 79 77 80 70 81 72 82 73 83 74 84 75 85 52 86 53 87
REMARK SMILES IDX 61 88 54 89 56 90 62 91 55 92 57 93 58 94 59 95 60 96
REMARK H PARENT 16 8 9 19 23 30 82 49 50 60
REMARK Flexibility Score: inf
ROOT
ATOM      1  C   UNL A   1      33.464  28.278  24.725  1.00  0.00     0.002 C 
ENDROOT
BRANCH   1   2
ATOM      2  C   UNL A   1      32.607  27.208  24.037  1.00  0.00     0.002 C 
BRANCH   2   3
ATOM      3  C   UNL A   1      31.397  26.760  24.859  1.00  0.00     0.021 C 
BRANCH   3   4
ATOM      4  C   UNL A   1      31.053  25.280  24.628  1.00  0.00     0.116 C 
BRANCH   4   5
ATOM      5  N   UNL A   1      30.307  24.738  25.768  1.00  0.00    -0.352 N 
ATOM      6  C   UNL A   1      30.412  23.586  26.523  1.00  0.00     0.251 C 
ATOM      7  O   UNL A   1      29.620  23.417  27.449  1.00  0.00    -0.269 OA
ATOM      8  H   UNL A   1      29.570  25.323  26.058  1.00  0.00     0.163 HD
BRANCH   6   9
ATOM      9  C   UNL A   1      31.496  22.590  26.319  1.00  0.00     0.042 A 
ATOM     10  C   UNL A   1      33.771  21.079  25.545  1.00  0.00     0.077 A 
ATOM     11  C   UNL A   1      33.761  21.782  26.759  1.00  0.00     0.030 A 
ATOM     12  C   UNL A   1      32.627  21.200  24.776  1.00  0.00     0.147 A 
ATOM     13  C   UNL A   1      32.657  22.594  27.106  1.00  0.00     0.016 A 
ATOM     14  C   UNL A   1      31.453  21.719  25.263  1.00  0.00     0.055 A 
ATOM     15  F   UNL A   1      32.602  21.032  23.458  1.00  0.00    -0.205 F 
BRANCH  10  16
ATOM     16  N   UNL A   1      34.890  20.273  25.233  1.00  0.00    -0.323 N 
ATOM     17  C   UNL A   1      36.246  20.499  25.176  1.00  0.00     0.230 C 
ATOM     18  O   UNL A   1      36.939  19.584  24.714  1.00  0.00    -0.274 OA
ATOM     19  H   UNL A   1      34.645  19.347  25.006  1.00  0.00     0.170 HD
BRANCH  17  20
ATOM     20  C   UNL A   1      36.884  21.768  25.701  1.00  0.00     0.110 C 
ATOM     21  C   UNL A   1      36.581  22.936  23.401  1.00  0.00     0.039 C 
ATOM     22  C   UNL A   1      36.630  23.065  24.915  1.00  0.00     0.127 C 
ATOM     23  O   UNL A   1      37.710  23.961  25.254  1.00  0.00    -0.378 OA
ATOM     24  C   UNL A   1      38.603  23.261  26.131  1.00  0.00     0.161 C 
ATOM     25  C   UNL A   1      38.398  21.795  25.802  1.00  0.00     0.044 C 
ENDBRANCH  17  20
ENDBRANCH  10  16
ENDBRANCH   6   9
ENDBRANCH   4   5
ENDBRANCH   3   4
ENDBRANCH   2   3
ENDBRANCH   1   2
BRANCH   1  26
ATOM     26  C   UNL A   1      34.012  27.881  26.099  1.00  0.00     0.021 C 
BRANCH  26  27
ATOM     27  C   UNL A   1      33.373  28.623  27.268  1.00  0.00     0.116 C 
BRANCH  27  28
ATOM     28  N   UNL A   1      33.545  30.063  27.142  1.00  0.00    -0.352 N 
ATOM     29  C   UNL A   1      34.551  30.866  27.619  1.00  0.00     0.251 C 
ATOM     30  H   UNL A   1      32.836  30.529  26.641  1.00  0.00     0.163 HD
ATOM     31  O   UNL A   1      34.405  32.081  27.644  1.00  0.00    -0.269 OA
BRANCH  29  32
ATOM     32  C   UNL A   1      35.807  30.254  28.102  1.00  0.00     0.039 A 
ATOM     33  C   UNL A   1      36.916  30.219  27.254  1.00  0.00     0.014 A 
ATOM     34  C   UNL A   1      35.881  29.697  29.383  1.00  0.00     0.014 A 
ATOM     35  C   UNL A   1      38.115  29.669  27.711  1.00  0.00     0.010 A 
ATOM     36  C   UNL A   1      37.096  29.218  29.860  1.00  0.00     0.010 A 
ATOM     37  C   UNL A   1      38.224  29.189  29.026  1.00  0.00    -0.014 A 
BRANCH  37  38
ATOM     38  C   UNL A   1      39.511  28.666  29.551  1.00  0.00     0.031 A 
ATOM     39  C   UNL A   1      40.233  29.393  30.654  1.00  0.00     0.074 A 
ATOM     40  C   UNL A   1      40.069  27.580  28.979  1.00  0.00     0.049 A 
ATOM     41  N   UNL A   1      41.391  29.121  31.194  1.00  0.00    -0.248 NA
ATOM     42  C   UNL A   1      39.583  30.596  31.208  1.00  0.00     0.031 C 
ATOM     43  C   UNL A   1      39.503  26.836  27.852  1.00  0.00     0.029 A 
ATOM     44  N   UNL A   1      41.249  26.930  29.245  1.00  0.00    -0.354 N 
ATOM     45  C   UNL A   1      41.627  30.132  32.119  1.00  0.00     0.074 A 
ATOM     46  C   UNL A   1      40.504  31.039  32.053  1.00  0.00     0.031 C 
ATOM     47  C   UNL A   1      40.335  25.835  27.523  1.00  0.00     0.029 A 
ATOM     48  C   UNL A   1      41.508  25.884  28.390  1.00  0.00     0.049 A 
ATOM     49  H   UNL A   1      41.853  27.188  29.979  1.00  0.00     0.167 HD
ATOM     50  C   UNL A   1      42.675  30.275  32.962  1.00  0.00     0.034 A 
ATOM     51  C   UNL A   1      42.577  25.066  28.300  1.00  0.00     0.034 A 
ATOM     52  C   UNL A   1      43.761  29.339  33.064  1.00  0.00     0.049 A 
ATOM     53  C   UNL A   1      43.703  25.222  29.286  1.00  0.00     0.074 A 
ATOM     54  C   UNL A   1      44.813  29.347  33.963  1.00  0.00     0.029 A 
ATOM     55  N   UNL A   1      43.943  28.239  32.242  1.00  0.00    -0.354 N 
ATOM     56  N   UNL A   1      43.827  26.089  30.262  1.00  0.00    -0.248 NA
ATOM     57  C   UNL A   1      44.818  24.268  29.188  1.00  0.00     0.031 C 
ATOM     58  C   UNL A   1      45.651  28.272  33.663  1.00  0.00     0.029 A 
ATOM     59  C   UNL A   1      45.099  27.570  32.603  1.00  0.00     0.049 A 
ATOM     60  H   UNL A   1      43.341  27.974  31.510  1.00  0.00     0.167 HD
ATOM     61  C   UNL A   1      45.014  25.767  30.910  1.00  0.00     0.074 A 
ATOM     62  C   UNL A   1      45.561  24.610  30.232  1.00  0.00     0.031 C 
ATOM     63  C   UNL A   1      45.604  26.385  31.961  1.00  0.00     0.034 A 
BRANCH  50  64
ATOM     64  C   UNL A   1      42.690  31.450  33.902  1.00  0.00     0.023 A 
ATOM     65  C   UNL A   1      43.136  32.703  33.439  1.00  0.00     0.012 A 
ATOM     66  C   UNL A   1      42.118  31.347  35.186  1.00  0.00     0.148 A 
ATOM     67  C   UNL A   1      43.017  33.838  34.240  1.00  0.00     0.002 A 
ATOM     68  C   UNL A   1      41.959  32.491  35.960  1.00  0.00     0.091 A 
ATOM     69  F   UNL A   1      41.716  30.142  35.611  1.00  0.00    -0.205 F 
ATOM     70  C   UNL A   1      42.414  33.734  35.491  1.00  0.00     0.022 A 
BRANCH  68  71
ATOM     71  S   UNL A   1      41.112  32.484  37.543  1.00  0.00     0.127 S 
ATOM     72  O   UNL A   1      41.961  31.589  38.329  1.00  0.00    -0.237 OA
ATOM     73  O   UNL A   1      41.185  33.891  37.934  1.00  0.00    -0.237 OA
ATOM     74  O   UNL A   1      39.769  31.986  37.283  1.00  0.00    -0.744 OA
ENDBRANCH  68  71
ENDBRANCH  50  64
BRANCH  51  75
ATOM     75  C   UNL A   1      42.606  23.994  27.263  1.00  0.00     0.023 A 
ATOM     76  C   UNL A   1      43.219  24.244  26.020  1.00  0.00     0.012 A 
ATOM     77  C   UNL A   1      42.064  22.719  27.515  1.00  0.00     0.148 A 
ATOM     78  C   UNL A   1      43.262  23.256  25.035  1.00  0.00     0.002 A 
ATOM     79  C   UNL A   1      42.166  21.719  26.555  1.00  0.00     0.091 A 
ATOM     80  F   UNL A   1      41.472  22.502  28.699  1.00  0.00    -0.205 F 
ATOM     81  C   UNL A   1      42.747  21.991  25.307  1.00  0.00     0.022 A 
BRANCH  79  82
ATOM     82  S   UNL A   1      41.666  20.024  26.875  1.00  0.00     0.127 S 
ATOM     83  O   UNL A   1      41.257  19.576  25.546  1.00  0.00    -0.237 OA
ATOM     84  O   UNL A   1      42.908  19.430  27.371  1.00  0.00    -0.237 OA
ATOM     85  O   UNL A   1      40.606  20.108  27.870  1.00  0.00    -0.744 OA
ENDBRANCH  79  82
ENDBRANCH  51  75
BRANCH  63  86
ATOM     86  C   UNL A   1      46.897  25.820  32.488  1.00  0.00     0.023 A 
ATOM     87  C   UNL A   1      48.124  26.337  32.030  1.00  0.00     0.012 A 
ATOM     88  C   UNL A   1      46.890  24.872  33.531  1.00  0.00     0.148 A 
ATOM     89  C   UNL A   1      49.326  25.904  32.589  1.00  0.00     0.002 A 
ATOM     90  C   UNL A   1      48.087  24.486  34.120  1.00  0.00     0.091 A 
ATOM     91  F   UNL A   1      45.709  24.384  33.942  1.00  0.00    -0.205 F 
ATOM     92  C   UNL A   1      49.306  24.992  33.643  1.00  0.00     0.022 A 
BRANCH  90  93
ATOM     93  S   UNL A   1      48.155  23.404  35.552  1.00  0.00     0.127 S 
ATOM     94  O   UNL A   1      49.555  22.984  35.542  1.00  0.00    -0.237 OA
ATOM     95  O   UNL A   1      47.797  24.310  36.642  1.00  0.00    -0.237 OA
ATOM     96  O   UNL A   1      47.187  22.342  35.303  1.00  0.00    -0.744 OA
ENDBRANCH  90  93
ENDBRANCH  63  86
ENDBRANCH  37  38
ENDBRANCH  29  32
ENDBRANCH  27  28
ENDBRANCH  26  27
ENDBRANCH   1  26
TORSDOF 18
ENDMDL
