MODEL 1
REMARK VINA RESULT:     -12.2      0.000      0.000
REMARK SMILES COc1cccc(Cn2c(=O)c(=O)n(CC(=O)NCCCCCCNC(=O)c3ccc(-c4c5nc(c(-c6cccc(S(=O)(=O)[O-])c6F)c6ccc([nH]6)c(-c6cccc(S(=O)(=O)[O-])c6F)c6nc(c(-c7cccc(S(=O)(=O)[O-])c7F)c7ccc4[nH]7)C=C6)C=C5)cc3)c3ccccc32)c1
REMARK SMILES IDX 21 1 20 2 19 3 18 4 16 5 17 6 15 8 14 9 9 10 10 11 96 12
REMARK SMILES IDX 11 13 12 14 91 15 95 16 13 17 92 18 94 19 93 20 8 21 7 22
REMARK SMILES IDX 3 23 4 24 97 25 5 26 6 27 2 28 1 29 22 30 23 31 24 32 25 33
REMARK SMILES IDX 26 34 27 36 28 37 29 38 90 39 30 40 89 41 31 42 32 43 33 44
REMARK SMILES IDX 83 45 34 46 88 47 82 48 84 49 35 50 87 51 81 52 80 53 36 55
REMARK SMILES IDX 68 56 48 57 67 58 49 59 52 60 66 61 85 62 50 63 51 64 65 66
REMARK SMILES IDX 86 67 53 68 37 69 38 70 46 71 39 72 41 73 47 74 40 75 42 76
REMARK SMILES IDX 43 77 44 78 45 79 69 80 70 81 78 82 71 83 73 84 79 85 72 86
REMARK SMILES IDX 74 87 75 88 76 89 77 90 54 91 55 92 63 93 56 94 58 95 64 96
REMARK SMILES IDX 57 97 59 98 60 99 61 100 62 101
REMARK H PARENT 18 7 25 35 84 54 52 65
REMARK Flexibility Score: inf
ROOT
ATOM      1  C   UNL A   1      34.621  20.117  25.097  1.00  0.00     0.002 C 
ENDROOT
BRANCH   1   2
ATOM      2  C   UNL A   1      33.519  20.737  24.224  1.00  0.00     0.021 C 
BRANCH   2   3
ATOM      3  C   UNL A   1      32.151  20.748  24.904  1.00  0.00     0.116 C 
BRANCH   3   4
ATOM      4  N   UNL A   1      32.203  21.508  26.136  1.00  0.00    -0.355 N 
ATOM      5  C   UNL A   1      31.704  22.731  26.445  1.00  0.00     0.240 C 
ATOM      6  O   UNL A   1      31.939  23.143  27.590  1.00  0.00    -0.273 OA
ATOM      7  H   UNL A   1      32.678  21.061  26.873  1.00  0.00     0.163 HD
BRANCH   5   8
ATOM      8  C   UNL A   1      30.701  23.498  25.574  1.00  0.00     0.226 C 
BRANCH   8   9
ATOM      9  N   UNL A   1      30.922  24.788  24.937  1.00  0.00    -0.293 N 
ATOM     10  N   UNL A   1      31.590  27.370  24.026  1.00  0.00    -0.298 N 
ATOM     11  C   UNL A   1      31.537  27.117  25.384  1.00  0.00     0.317 A 
ATOM     12  C   UNL A   1      31.924  26.254  23.214  1.00  0.00     0.068 A 
ATOM     13  O   UNL A   1      32.100  27.768  26.260  1.00  0.00    -0.263 OA
ATOM     14  C   UNL A   1      30.697  25.900  25.741  1.00  0.00     0.317 A 
ATOM     15  C   UNL A   1      31.630  24.944  23.698  1.00  0.00     0.069 A 
ATOM     16  C   UNL A   1      32.685  26.416  22.050  1.00  0.00     0.028 A 
ATOM     17  O   UNL A   1      29.969  25.928  26.731  1.00  0.00    -0.263 OA
ATOM     18  C   UNL A   1      32.068  23.838  22.962  1.00  0.00     0.028 A 
ATOM     19  C   UNL A   1      33.178  25.296  21.377  1.00  0.00     0.002 A 
ATOM     20  C   UNL A   1      32.860  24.015  21.824  1.00  0.00     0.002 A 
BRANCH  10  21
ATOM     21  C   UNL A   1      31.460  28.757  23.573  1.00  0.00     0.162 C 
BRANCH  21  22
ATOM     22  C   UNL A   1      30.106  28.907  22.873  1.00  0.00    -0.024 A 
ATOM     23  C   UNL A   1      28.689  30.440  21.629  1.00  0.00     0.119 A 
ATOM     24  C   UNL A   1      27.553  29.818  22.129  1.00  0.00     0.046 A 
ATOM     25  C   UNL A   1      29.947  29.926  21.917  1.00  0.00     0.052 A 
ATOM     26  C   UNL A   1      27.690  28.688  22.941  1.00  0.00     0.004 A 
ATOM     27  C   UNL A   1      28.960  28.256  23.345  1.00  0.00     0.006 A 
BRANCH  23  28
ATOM     28  O   UNL A   1      28.647  31.708  21.119  1.00  0.00    -0.497 OA
ATOM     29  C   UNL A   1      28.528  32.719  22.105  1.00  0.00     0.278 C 
ENDBRANCH  23  28
ENDBRANCH  21  22
ENDBRANCH  10  21
ENDBRANCH   8   9
ENDBRANCH   5   8
ENDBRANCH   3   4
ENDBRANCH   2   3
ENDBRANCH   1   2
BRANCH   1  30
ATOM     30  C   UNL A   1      35.988  20.803  24.971  1.00  0.00     0.002 C 
BRANCH  30  31
ATOM     31  C   UNL A   1      35.933  22.309  24.681  1.00  0.00     0.021 C 
BRANCH  31  32
ATOM     32  C   UNL A   1      36.999  23.139  25.399  1.00  0.00     0.116 C 
BRANCH  32  33
ATOM     33  N   UNL A   1      38.019  22.289  25.992  1.00  0.00    -0.352 N 
ATOM     34  C   UNL A   1      39.235  22.624  26.529  1.00  0.00     0.251 C 
ATOM     35  H   UNL A   1      37.805  21.329  26.011  1.00  0.00     0.163 HD
ATOM     36  O   UNL A   1      40.087  21.753  26.683  1.00  0.00    -0.269 OA
BRANCH  34  37
ATOM     37  C   UNL A   1      39.517  24.014  26.951  1.00  0.00     0.039 A 
ATOM     38  C   UNL A   1      40.068  24.903  26.022  1.00  0.00     0.014 A 
ATOM     39  C   UNL A   1      39.340  24.413  28.279  1.00  0.00     0.014 A 
ATOM     40  C   UNL A   1      40.434  26.190  26.423  1.00  0.00     0.010 A 
ATOM     41  C   UNL A   1      39.651  25.715  28.664  1.00  0.00     0.010 A 
ATOM     42  C   UNL A   1      40.231  26.605  27.749  1.00  0.00    -0.014 A 
BRANCH  42  43
ATOM     43  C   UNL A   1      40.668  27.947  28.204  1.00  0.00     0.031 A 
ATOM     44  C   UNL A   1      42.133  28.300  28.210  1.00  0.00     0.074 A 
ATOM     45  C   UNL A   1      39.760  28.823  28.673  1.00  0.00     0.049 A 
ATOM     46  N   UNL A   1      42.712  29.411  28.585  1.00  0.00    -0.248 NA
ATOM     47  C   UNL A   1      43.076  27.259  27.763  1.00  0.00     0.031 C 
ATOM     48  C   UNL A   1      38.324  28.564  28.802  1.00  0.00     0.029 A 
ATOM     49  N   UNL A   1      39.912  30.098  29.154  1.00  0.00    -0.354 N 
ATOM     50  C   UNL A   1      44.078  29.192  28.458  1.00  0.00     0.074 A 
ATOM     51  C   UNL A   1      44.248  27.832  27.996  1.00  0.00     0.031 C 
ATOM     52  C   UNL A   1      37.729  29.647  29.329  1.00  0.00     0.029 A 
ATOM     53  C   UNL A   1      38.737  30.671  29.581  1.00  0.00     0.049 A 
ATOM     54  H   UNL A   1      40.781  30.560  29.189  1.00  0.00     0.167 HD
ATOM     55  C   UNL A   1      45.099  30.055  28.671  1.00  0.00     0.034 A 
ATOM     56  C   UNL A   1      38.502  31.889  30.109  1.00  0.00     0.034 A 
ATOM     57  C   UNL A   1      44.922  31.430  29.052  1.00  0.00     0.049 A 
ATOM     58  C   UNL A   1      39.645  32.858  30.246  1.00  0.00     0.074 A 
ATOM     59  C   UNL A   1      45.882  32.418  29.180  1.00  0.00     0.029 A 
ATOM     60  N   UNL A   1      43.704  32.011  29.363  1.00  0.00    -0.354 N 
ATOM     61  N   UNL A   1      40.909  32.693  29.939  1.00  0.00    -0.248 NA
ATOM     62  C   UNL A   1      39.323  34.199  30.756  1.00  0.00     0.031 C 
ATOM     63  C   UNL A   1      45.243  33.599  29.571  1.00  0.00     0.029 A 
ATOM     64  C   UNL A   1      43.885  33.345  29.684  1.00  0.00     0.049 A 
ATOM     65  H   UNL A   1      42.837  31.545  29.355  1.00  0.00     0.167 HD
ATOM     66  C   UNL A   1      41.526  33.912  30.191  1.00  0.00     0.074 A 
ATOM     67  C   UNL A   1      40.492  34.817  30.649  1.00  0.00     0.031 C 
ATOM     68  C   UNL A   1      42.834  34.247  30.077  1.00  0.00     0.034 A 
BRANCH  55  69
ATOM     69  C   UNL A   1      46.500  29.567  28.417  1.00  0.00     0.023 A 
ATOM     70  C   UNL A   1      47.025  29.630  27.110  1.00  0.00     0.012 A 
ATOM     71  C   UNL A   1      47.319  29.117  29.471  1.00  0.00     0.148 A 
ATOM     72  C   UNL A   1      48.335  29.232  26.851  1.00  0.00     0.002 A 
ATOM     73  C   UNL A   1      48.636  28.756  29.211  1.00  0.00     0.091 A 
ATOM     74  F   UNL A   1      46.794  29.044  30.702  1.00  0.00    -0.205 F 
ATOM     75  C   UNL A   1      49.144  28.805  27.902  1.00  0.00     0.022 A 
BRANCH  73  76
ATOM     76  S   UNL A   1      49.779  28.255  30.504  1.00  0.00     0.127 S 
ATOM     77  O   UNL A   1      51.030  28.123  29.757  1.00  0.00    -0.237 OA
ATOM     78  O   UNL A   1      49.733  29.398  31.417  1.00  0.00    -0.237 OA
ATOM     79  O   UNL A   1      49.246  27.016  31.053  1.00  0.00    -0.744 OA
ENDBRANCH  73  76
ENDBRANCH  55  69
BRANCH  56  80
ATOM     80  C   UNL A   1      37.111  32.291  30.457  1.00  0.00     0.023 A 
ATOM     81  C   UNL A   1      36.650  32.104  31.774  1.00  0.00     0.012 A 
ATOM     82  C   UNL A   1      36.255  32.881  29.508  1.00  0.00     0.148 A 
ATOM     83  C   UNL A   1      35.351  32.467  32.132  1.00  0.00     0.002 A 
ATOM     84  C   UNL A   1      34.979  33.289  29.885  1.00  0.00     0.091 A 
ATOM     85  F   UNL A   1      36.701  33.036  28.253  1.00  0.00    -0.205 F 
ATOM     86  C   UNL A   1      34.520  33.070  31.192  1.00  0.00     0.022 A 
BRANCH  84  87
ATOM     87  S   UNL A   1      33.910  34.192  28.759  1.00  0.00     0.127 S 
ATOM     88  O   UNL A   1      34.789  35.263  28.301  1.00  0.00    -0.237 OA
ATOM     89  O   UNL A   1      33.592  33.182  27.748  1.00  0.00    -0.237 OA
ATOM     90  O   UNL A   1      32.768  34.596  29.569  1.00  0.00    -0.744 OA
ENDBRANCH  84  87
ENDBRANCH  56  80
BRANCH  68  91
ATOM     91  C   UNL A   1      43.227  35.654  30.439  1.00  0.00     0.023 A 
ATOM     92  C   UNL A   1      43.684  35.929  31.742  1.00  0.00     0.012 A 
ATOM     93  C   UNL A   1      43.219  36.681  29.474  1.00  0.00     0.148 A 
ATOM     94  C   UNL A   1      44.103  37.213  32.089  1.00  0.00     0.002 A 
ATOM     95  C   UNL A   1      43.678  37.947  29.817  1.00  0.00     0.091 A 
ATOM     96  F   UNL A   1      42.759  36.405  28.245  1.00  0.00    -0.205 F 
ATOM     97  C   UNL A   1      44.112  38.217  31.125  1.00  0.00     0.022 A 
BRANCH  95  98
ATOM     98  S   UNL A   1      43.805  39.270  28.607  1.00  0.00     0.127 S 
ATOM     99  O   UNL A   1      44.544  40.288  29.351  1.00  0.00    -0.237 OA
ATOM    100  O   UNL A   1      44.560  38.638  27.524  1.00  0.00    -0.237 OA
ATOM    101  O   UNL A   1      42.432  39.613  28.257  1.00  0.00    -0.744 OA
ENDBRANCH  95  98
ENDBRANCH  68  91
ENDBRANCH  42  43
ENDBRANCH  34  37
ENDBRANCH  32  33
ENDBRANCH  31  32
ENDBRANCH  30  31
ENDBRANCH   1  30
TORSDOF 20
ENDMDL
MODEL 2
REMARK VINA RESULT:     -11.9      3.238      7.958
REMARK SMILES COc1cccc(Cn2c(=O)c(=O)n(CC(=O)NCCCCCCNC(=O)c3ccc(-c4c5nc(c(-c6cccc(S(=O)(=O)[O-])c6F)c6ccc([nH]6)c(-c6cccc(S(=O)(=O)[O-])c6F)c6nc(c(-c7cccc(S(=O)(=O)[O-])c7F)c7ccc4[nH]7)C=C6)C=C5)cc3)c3ccccc32)c1
REMARK SMILES IDX 21 1 20 2 19 3 18 4 16 5 17 6 15 8 14 9 9 10 10 11 96 12
REMARK SMILES IDX 11 13 12 14 91 15 95 16 13 17 92 18 94 19 93 20 8 21 7 22
REMARK SMILES IDX 3 23 4 24 97 25 5 26 6 27 2 28 1 29 22 30 23 31 24 32 25 33
REMARK SMILES IDX 26 34 27 36 28 37 29 38 90 39 30 40 89 41 31 42 32 43 33 44
REMARK SMILES IDX 83 45 34 46 88 47 82 48 84 49 35 50 87 51 81 52 80 53 36 55
REMARK SMILES IDX 68 56 48 57 67 58 49 59 52 60 66 61 85 62 50 63 51 64 65 66
REMARK SMILES IDX 86 67 53 68 37 69 38 70 46 71 39 72 41 73 47 74 40 75 42 76
REMARK SMILES IDX 43 77 44 78 45 79 69 80 70 81 78 82 71 83 73 84 79 85 72 86
REMARK SMILES IDX 74 87 75 88 76 89 77 90 54 91 55 92 63 93 56 94 58 95 64 96
REMARK SMILES IDX 57 97 59 98 60 99 61 100 62 101
REMARK H PARENT 18 7 25 35 84 54 52 65
REMARK Flexibility Score: inf
ROOT
ATOM      1  C   UNL A   1      35.234  20.880  25.331  1.00  0.00     0.002 C 
ENDROOT
BRANCH   1   2
ATOM      2  C   UNL A   1      34.034  21.089  24.394  1.00  0.00     0.021 C 
BRANCH   2   3
ATOM      3  C   UNL A   1      32.694  20.763  25.053  1.00  0.00     0.116 C 
BRANCH   3   4
ATOM      4  N   UNL A   1      32.531  21.524  26.274  1.00  0.00    -0.355 N 
ATOM      5  C   UNL A   1      31.888  22.695  26.510  1.00  0.00     0.240 C 
ATOM      6  O   UNL A   1      31.949  23.127  27.670  1.00  0.00    -0.273 OA
ATOM      7  H   UNL A   1      32.958  21.124  27.066  1.00  0.00     0.163 HD
BRANCH   5   8
ATOM      8  C   UNL A   1      30.924  23.363  25.521  1.00  0.00     0.226 C 
BRANCH   8   9
ATOM      9  N   UNL A   1      31.096  24.667  24.898  1.00  0.00    -0.293 N 
ATOM     10  N   UNL A   1      31.680  27.277  24.007  1.00  0.00    -0.298 N 
ATOM     11  C   UNL A   1      31.684  27.000  25.361  1.00  0.00     0.317 A 
ATOM     12  C   UNL A   1      32.004  26.180  23.164  1.00  0.00     0.068 A 
ATOM     13  O   UNL A   1      32.269  27.648  26.226  1.00  0.00    -0.263 OA
ATOM     14  C   UNL A   1      30.882  25.762  25.729  1.00  0.00     0.317 A 
ATOM     15  C   UNL A   1      31.754  24.858  23.636  1.00  0.00     0.069 A 
ATOM     16  C   UNL A   1      32.716  26.377  21.974  1.00  0.00     0.028 A 
ATOM     17  O   UNL A   1      30.192  25.759  26.746  1.00  0.00    -0.263 OA
ATOM     18  C   UNL A   1      32.183  23.773  22.865  1.00  0.00     0.028 A 
ATOM     19  C   UNL A   1      33.204  25.278  21.264  1.00  0.00     0.002 A 
ATOM     20  C   UNL A   1      32.927  23.984  21.701  1.00  0.00     0.002 A 
BRANCH  10  21
ATOM     21  C   UNL A   1      31.507  28.668  23.583  1.00  0.00     0.162 C 
BRANCH  21  22
ATOM     22  C   UNL A   1      30.140  28.795  22.904  1.00  0.00    -0.024 A 
ATOM     23  C   UNL A   1      28.673  30.308  21.693  1.00  0.00     0.119 A 
ATOM     24  C   UNL A   1      27.558  29.658  22.205  1.00  0.00     0.046 A 
ATOM     25  C   UNL A   1      29.946  29.818  21.958  1.00  0.00     0.052 A 
ATOM     26  C   UNL A   1      27.730  28.525  23.006  1.00  0.00     0.004 A 
ATOM     27  C   UNL A   1      29.015  28.117  23.388  1.00  0.00     0.006 A 
BRANCH  23  28
ATOM     28  O   UNL A   1      28.598  31.578  21.194  1.00  0.00    -0.497 OA
ATOM     29  C   UNL A   1      28.632  32.588  22.188  1.00  0.00     0.278 C 
ENDBRANCH  23  28
ENDBRANCH  21  22
ENDBRANCH  10  21
ENDBRANCH   8   9
ENDBRANCH   5   8
ENDBRANCH   3   4
ENDBRANCH   2   3
ENDBRANCH   1   2
BRANCH   1  30
ATOM     30  C   UNL A   1      36.593  21.204  24.698  1.00  0.00     0.002 C 
BRANCH  30  31
ATOM     31  C   UNL A   1      37.698  20.176  24.975  1.00  0.00     0.021 C 
BRANCH  31  32
ATOM     32  C   UNL A   1      38.915  20.728  25.719  1.00  0.00     0.116 C 
BRANCH  32  33
ATOM     33  N   UNL A   1      39.883  19.680  26.000  1.00  0.00    -0.352 N 
ATOM     34  C   UNL A   1      41.246  19.755  26.123  1.00  0.00     0.251 C 
ATOM     35  H   UNL A   1      39.502  18.781  26.121  1.00  0.00     0.163 HD
ATOM     36  O   UNL A   1      41.917  18.729  26.039  1.00  0.00    -0.269 OA
BRANCH  34  37
ATOM     37  C   UNL A   1      41.910  21.051  26.383  1.00  0.00     0.039 A 
ATOM     38  C   UNL A   1      42.101  21.460  27.707  1.00  0.00     0.014 A 
ATOM     39  C   UNL A   1      42.250  21.909  25.332  1.00  0.00     0.014 A 
ATOM     40  C   UNL A   1      42.636  22.722  27.976  1.00  0.00     0.010 A 
ATOM     41  C   UNL A   1      42.838  23.143  25.601  1.00  0.00     0.010 A 
ATOM     42  C   UNL A   1      43.006  23.574  26.924  1.00  0.00    -0.014 A 
BRANCH  42  43
ATOM     43  C   UNL A   1      43.521  24.939  27.193  1.00  0.00     0.031 A 
ATOM     44  C   UNL A   1      42.602  25.993  27.756  1.00  0.00     0.074 A 
ATOM     45  C   UNL A   1      44.791  25.251  26.872  1.00  0.00     0.049 A 
ATOM     46  N   UNL A   1      42.860  27.242  28.044  1.00  0.00    -0.248 NA
ATOM     47  C   UNL A   1      41.203  25.601  28.002  1.00  0.00     0.031 C 
ATOM     48  C   UNL A   1      45.749  24.343  26.239  1.00  0.00     0.029 A 
ATOM     49  N   UNL A   1      45.485  26.425  27.009  1.00  0.00    -0.354 N 
ATOM     50  C   UNL A   1      41.655  27.793  28.464  1.00  0.00     0.074 A 
ATOM     51  C   UNL A   1      40.657  26.751  28.370  1.00  0.00     0.031 C 
ATOM     52  C   UNL A   1      46.907  24.995  26.041  1.00  0.00     0.029 A 
ATOM     53  C   UNL A   1      46.772  26.365  26.525  1.00  0.00     0.049 A 
ATOM     54  H   UNL A   1      45.100  27.234  27.417  1.00  0.00     0.167 HD
ATOM     55  C   UNL A   1      41.408  29.043  28.922  1.00  0.00     0.034 A 
ATOM     56  C   UNL A   1      47.733  27.309  26.486  1.00  0.00     0.034 A 
ATOM     57  C   UNL A   1      42.418  30.051  29.090  1.00  0.00     0.049 A 
ATOM     58  C   UNL A   1      47.456  28.659  27.088  1.00  0.00     0.074 A 
ATOM     59  C   UNL A   1      42.295  31.309  29.654  1.00  0.00     0.029 A 
ATOM     60  N   UNL A   1      43.740  29.915  28.698  1.00  0.00    -0.354 N 
ATOM     61  N   UNL A   1      46.360  29.100  27.656  1.00  0.00    -0.248 NA
ATOM     62  C   UNL A   1      48.562  29.628  27.088  1.00  0.00     0.031 C 
ATOM     63  C   UNL A   1      43.545  31.935  29.601  1.00  0.00     0.029 A 
ATOM     64  C   UNL A   1      44.445  31.066  29.005  1.00  0.00     0.049 A 
ATOM     65  H   UNL A   1      44.122  29.118  28.266  1.00  0.00     0.167 HD
ATOM     66  C   UNL A   1      46.651  30.383  28.105  1.00  0.00     0.074 A 
ATOM     67  C   UNL A   1      48.036  30.638  27.769  1.00  0.00     0.031 C 
ATOM     68  C   UNL A   1      45.840  31.278  28.719  1.00  0.00     0.034 A 
BRANCH  55  69
ATOM     69  C   UNL A   1      40.004  29.371  29.355  1.00  0.00     0.023 A 
ATOM     70  C   UNL A   1      39.012  29.575  28.375  1.00  0.00     0.012 A 
ATOM     71  C   UNL A   1      39.649  29.405  30.717  1.00  0.00     0.148 A 
ATOM     72  C   UNL A   1      37.692  29.832  28.743  1.00  0.00     0.002 A 
ATOM     73  C   UNL A   1      38.324  29.625  31.076  1.00  0.00     0.091 A 
ATOM     74  F   UNL A   1      40.611  29.229  31.634  1.00  0.00    -0.205 F 
ATOM     75  C   UNL A   1      37.346  29.846  30.092  1.00  0.00     0.022 A 
BRANCH  73  76
ATOM     76  S   UNL A   1      37.763  29.598  32.783  1.00  0.00     0.127 S 
ATOM     77  O   UNL A   1      36.604  30.489  32.726  1.00  0.00    -0.237 OA
ATOM     78  O   UNL A   1      37.435  28.185  32.978  1.00  0.00    -0.237 OA
ATOM     79  O   UNL A   1      38.882  30.079  33.581  1.00  0.00    -0.744 OA
ENDBRANCH  73  76
ENDBRANCH  55  69
BRANCH  56  80
ATOM     80  C   UNL A   1      49.078  26.975  25.940  1.00  0.00     0.023 A 
ATOM     81  C   UNL A   1      49.996  26.279  26.749  1.00  0.00     0.012 A 
ATOM     82  C   UNL A   1      49.443  27.312  24.623  1.00  0.00     0.148 A 
ATOM     83  C   UNL A   1      51.265  25.953  26.268  1.00  0.00     0.002 A 
ATOM     84  C   UNL A   1      50.690  26.939  24.132  1.00  0.00     0.091 A 
ATOM     85  F   UNL A   1      48.566  27.991  23.870  1.00  0.00    -0.205 F 
ATOM     86  C   UNL A   1      51.608  26.273  24.958  1.00  0.00     0.022 A 
BRANCH  84  87
ATOM     87  S   UNL A   1      51.142  27.202  22.414  1.00  0.00     0.127 S 
ATOM     88  O   UNL A   1      51.226  28.658  22.342  1.00  0.00    -0.237 OA
ATOM     89  O   UNL A   1      52.426  26.506  22.315  1.00  0.00    -0.237 OA
ATOM     90  O   UNL A   1      50.072  26.579  21.645  1.00  0.00    -0.744 OA
ENDBRANCH  84  87
ENDBRANCH  56  80
BRANCH  68  91
ATOM     91  C   UNL A   1      46.427  32.615  29.082  1.00  0.00     0.023 A 
ATOM     92  C   UNL A   1      47.085  32.767  30.319  1.00  0.00     0.012 A 
ATOM     93  C   UNL A   1      46.399  33.691  28.174  1.00  0.00     0.148 A 
ATOM     94  C   UNL A   1      47.683  33.980  30.658  1.00  0.00     0.002 A 
ATOM     95  C   UNL A   1      47.035  34.883  28.502  1.00  0.00     0.091 A 
ATOM     96  F   UNL A   1      45.750  33.535  27.011  1.00  0.00    -0.205 F 
ATOM     97  C   UNL A   1      47.669  35.032  29.747  1.00  0.00     0.022 A 
BRANCH  95  98
ATOM     98  S   UNL A   1      47.138  36.254  27.345  1.00  0.00     0.127 S 
ATOM     99  O   UNL A   1      45.733  36.635  27.205  1.00  0.00    -0.237 OA
ATOM    100  O   UNL A   1      47.962  37.221  28.070  1.00  0.00    -0.237 OA
ATOM    101  O   UNL A   1      47.768  35.710  26.149  1.00  0.00    -0.744 OA
ENDBRANCH  95  98
ENDBRANCH  68  91
ENDBRANCH  42  43
ENDBRANCH  34  37
ENDBRANCH  32  33
ENDBRANCH  31  32
ENDBRANCH  30  31
ENDBRANCH   1  30
TORSDOF 20
ENDMDL
MODEL 3
REMARK VINA RESULT:     -11.5      5.628     10.320
REMARK SMILES COc1cccc(Cn2c(=O)c(=O)n(CC(=O)NCCCCCCNC(=O)c3ccc(-c4c5nc(c(-c6cccc(S(=O)(=O)[O-])c6F)c6ccc([nH]6)c(-c6cccc(S(=O)(=O)[O-])c6F)c6nc(c(-c7cccc(S(=O)(=O)[O-])c7F)c7ccc4[nH]7)C=C6)C=C5)cc3)c3ccccc32)c1
REMARK SMILES IDX 21 1 20 2 19 3 18 4 16 5 17 6 15 8 14 9 9 10 10 11 96 12
REMARK SMILES IDX 11 13 12 14 91 15 95 16 13 17 92 18 94 19 93 20 8 21 7 22
REMARK SMILES IDX 3 23 4 24 97 25 5 26 6 27 2 28 1 29 22 30 23 31 24 32 25 33
REMARK SMILES IDX 26 34 27 36 28 37 29 38 90 39 30 40 89 41 31 42 32 43 33 44
REMARK SMILES IDX 83 45 34 46 88 47 82 48 84 49 35 50 87 51 81 52 80 53 36 55
REMARK SMILES IDX 68 56 48 57 67 58 49 59 52 60 66 61 85 62 50 63 51 64 65 66
REMARK SMILES IDX 86 67 53 68 37 69 38 70 46 71 39 72 41 73 47 74 40 75 42 76
REMARK SMILES IDX 43 77 44 78 45 79 69 80 70 81 78 82 71 83 73 84 79 85 72 86
REMARK SMILES IDX 74 87 75 88 76 89 77 90 54 91 55 92 63 93 56 94 58 95 64 96
REMARK SMILES IDX 57 97 59 98 60 99 61 100 62 101
REMARK H PARENT 18 7 25 35 84 54 52 65
REMARK Flexibility Score: inf
ROOT
ATOM      1  C   UNL A   1      35.041  32.003  29.085  1.00  0.00     0.002 C 
ENDROOT
BRANCH   1   2
ATOM      2  C   UNL A   1      35.707  30.975  28.158  1.00  0.00     0.021 C 
BRANCH   2   3
ATOM      3  C   UNL A   1      34.738  29.905  27.655  1.00  0.00     0.116 C 
BRANCH   3   4
ATOM      4  N   UNL A   1      33.385  30.417  27.630  1.00  0.00    -0.355 N 
ATOM      5  C   UNL A   1      32.484  30.492  26.618  1.00  0.00     0.240 C 
ATOM      6  O   UNL A   1      31.397  31.021  26.892  1.00  0.00    -0.273 OA
ATOM      7  H   UNL A   1      33.063  30.769  28.491  1.00  0.00     0.163 HD
BRANCH   5   8
ATOM      8  C   UNL A   1      32.636  29.770  25.273  1.00  0.00     0.226 C 
BRANCH   8   9
ATOM      9  N   UNL A   1      31.860  28.626  24.817  1.00  0.00    -0.293 N 
ATOM     10  N   UNL A   1      30.297  26.331  24.333  1.00  0.00    -0.298 N 
ATOM     11  C   UNL A   1      31.068  26.404  25.477  1.00  0.00     0.317 A 
ATOM     12  C   UNL A   1      29.850  27.580  23.823  1.00  0.00     0.068 A 
ATOM     13  O   UNL A   1      30.889  25.758  26.507  1.00  0.00    -0.263 OA
ATOM     14  C   UNL A   1      32.210  27.402  25.376  1.00  0.00     0.317 A 
ATOM     15  C   UNL A   1      30.616  28.749  24.111  1.00  0.00     0.069 A 
ATOM     16  C   UNL A   1      28.598  27.696  23.207  1.00  0.00     0.028 A 
ATOM     17  O   UNL A   1      33.309  27.127  25.854  1.00  0.00    -0.263 OA
ATOM     18  C   UNL A   1      30.117  29.996  23.719  1.00  0.00     0.028 A 
ATOM     19  C   UNL A   1      28.088  28.959  22.899  1.00  0.00     0.002 A 
ATOM     20  C   UNL A   1      28.849  30.100  23.142  1.00  0.00     0.002 A 
BRANCH  10  21
ATOM     21  C   UNL A   1      29.886  25.009  23.854  1.00  0.00     0.162 C 
BRANCH  21  22
ATOM     22  C   UNL A   1      31.092  24.350  23.177  1.00  0.00    -0.024 A 
ATOM     23  C   UNL A   1      32.779  22.616  23.408  1.00  0.00     0.119 A 
ATOM     24  C   UNL A   1      33.671  23.364  22.653  1.00  0.00     0.046 A 
ATOM     25  C   UNL A   1      31.472  23.057  23.581  1.00  0.00     0.052 A 
ATOM     26  C   UNL A   1      33.251  24.573  22.092  1.00  0.00     0.004 A 
ATOM     27  C   UNL A   1      31.980  25.085  22.383  1.00  0.00     0.006 A 
BRANCH  23  28
ATOM     28  O   UNL A   1      33.202  21.619  24.243  1.00  0.00    -0.497 OA
ATOM     29  C   UNL A   1      32.610  20.359  23.978  1.00  0.00     0.278 C 
ENDBRANCH  23  28
ENDBRANCH  21  22
ENDBRANCH  10  21
ENDBRANCH   8   9
ENDBRANCH   5   8
ENDBRANCH   3   4
ENDBRANCH   2   3
ENDBRANCH   1   2
BRANCH   1  30
ATOM     30  C   UNL A   1      35.009  33.431  28.526  1.00  0.00     0.002 C 
BRANCH  30  31
ATOM     31  C   UNL A   1      33.676  34.169  28.706  1.00  0.00     0.021 C 
BRANCH  31  32
ATOM     32  C   UNL A   1      33.802  35.605  29.216  1.00  0.00     0.116 C 
BRANCH  32  33
ATOM     33  N   UNL A   1      32.918  35.844  30.345  1.00  0.00    -0.352 N 
ATOM     34  C   UNL A   1      32.927  35.290  31.598  1.00  0.00     0.251 C 
ATOM     35  H   UNL A   1      32.206  36.506  30.187  1.00  0.00     0.163 HD
ATOM     36  O   UNL A   1      31.922  35.370  32.301  1.00  0.00    -0.269 OA
BRANCH  34  37
ATOM     37  C   UNL A   1      34.140  34.622  32.121  1.00  0.00     0.039 A 
ATOM     38  C   UNL A   1      35.368  35.286  32.033  1.00  0.00     0.014 A 
ATOM     39  C   UNL A   1      34.089  33.309  32.599  1.00  0.00     0.014 A 
ATOM     40  C   UNL A   1      36.540  34.637  32.429  1.00  0.00     0.010 A 
ATOM     41  C   UNL A   1      35.250  32.684  33.048  1.00  0.00     0.010 A 
ATOM     42  C   UNL A   1      36.490  33.330  32.937  1.00  0.00    -0.014 A 
BRANCH  42  43
ATOM     43  C   UNL A   1      37.731  32.607  33.305  1.00  0.00     0.031 A 
ATOM     44  C   UNL A   1      38.502  33.011  34.536  1.00  0.00     0.074 A 
ATOM     45  C   UNL A   1      38.202  31.634  32.502  1.00  0.00     0.049 A 
ATOM     46  N   UNL A   1      39.612  32.513  35.014  1.00  0.00    -0.248 NA
ATOM     47  C   UNL A   1      37.970  34.141  35.319  1.00  0.00     0.031 C 
ATOM     48  C   UNL A   1      37.595  31.215  31.237  1.00  0.00     0.029 A 
ATOM     49  N   UNL A   1      39.315  30.840  32.617  1.00  0.00    -0.354 N 
ATOM     50  C   UNL A   1      39.932  33.287  36.122  1.00  0.00     0.074 A 
ATOM     51  C   UNL A   1      38.914  34.308  36.234  1.00  0.00     0.031 C 
ATOM     52  C   UNL A   1      38.344  30.242  30.693  1.00  0.00     0.029 A 
ATOM     53  C   UNL A   1      39.485  29.973  31.562  1.00  0.00     0.049 A 
ATOM     54  H   UNL A   1      39.932  30.886  33.382  1.00  0.00     0.167 HD
ATOM     55  C   UNL A   1      40.960  33.142  36.991  1.00  0.00     0.034 A 
ATOM     56  C   UNL A   1      40.449  29.060  31.331  1.00  0.00     0.034 A 
ATOM     57  C   UNL A   1      41.925  32.078  36.923  1.00  0.00     0.049 A 
ATOM     58  C   UNL A   1      41.526  28.859  32.362  1.00  0.00     0.074 A 
ATOM     59  C   UNL A   1      42.934  31.772  37.818  1.00  0.00     0.029 A 
ATOM     60  N   UNL A   1      41.996  31.143  35.903  1.00  0.00    -0.354 N 
ATOM     61  N   UNL A   1      41.702  29.479  33.504  1.00  0.00    -0.248 NA
ATOM     62  C   UNL A   1      42.511  27.799  32.098  1.00  0.00     0.031 C 
ATOM     63  C   UNL A   1      43.619  30.651  37.337  1.00  0.00     0.029 A 
ATOM     64  C   UNL A   1      43.033  30.259  36.143  1.00  0.00     0.049 A 
ATOM     65  H   UNL A   1      41.397  31.111  35.123  1.00  0.00     0.167 HD
ATOM     66  C   UNL A   1      42.796  28.870  34.105  1.00  0.00     0.074 A 
ATOM     67  C   UNL A   1      43.226  27.810  33.216  1.00  0.00     0.031 C 
ATOM     68  C   UNL A   1      43.406  29.172  35.277  1.00  0.00     0.034 A 
BRANCH  55  69
ATOM     69  C   UNL A   1      41.053  34.107  38.142  1.00  0.00     0.023 A 
ATOM     70  C   UNL A   1      41.858  35.257  38.013  1.00  0.00     0.012 A 
ATOM     71  C   UNL A   1      40.296  33.920  39.315  1.00  0.00     0.148 A 
ATOM     72  C   UNL A   1      41.928  36.195  39.042  1.00  0.00     0.002 A 
ATOM     73  C   UNL A   1      40.341  34.878  40.321  1.00  0.00     0.091 A 
ATOM     74  F   UNL A   1      39.553  32.809  39.427  1.00  0.00    -0.205 F 
ATOM     75  C   UNL A   1      41.161  36.011  40.190  1.00  0.00     0.022 A 
BRANCH  73  76
ATOM     76  S   UNL A   1      39.343  34.769  41.812  1.00  0.00     0.127 S 
ATOM     77  O   UNL A   1      39.907  33.584  42.458  1.00  0.00    -0.237 OA
ATOM     78  O   UNL A   1      39.652  36.032  42.483  1.00  0.00    -0.237 OA
ATOM     79  O   UNL A   1      37.964  34.639  41.363  1.00  0.00    -0.744 OA
ENDBRANCH  73  76
ENDBRANCH  55  69
BRANCH  56  80
ATOM     80  C   UNL A   1      40.382  28.203  30.115  1.00  0.00     0.023 A 
ATOM     81  C   UNL A   1      39.425  27.173  30.051  1.00  0.00     0.012 A 
ATOM     82  C   UNL A   1      41.234  28.416  29.015  1.00  0.00     0.148 A 
ATOM     83  C   UNL A   1      39.337  26.350  28.928  1.00  0.00     0.002 A 
ATOM     84  C   UNL A   1      41.108  27.626  27.877  1.00  0.00     0.091 A 
ATOM     85  F   UNL A   1      42.154  29.388  29.097  1.00  0.00    -0.205 F 
ATOM     86  C   UNL A   1      40.170  26.583  27.837  1.00  0.00     0.022 A 
BRANCH  84  87
ATOM     87  S   UNL A   1      42.057  27.960  26.390  1.00  0.00     0.127 S 
ATOM     88  O   UNL A   1      41.722  29.356  26.125  1.00  0.00    -0.237 OA
ATOM     89  O   UNL A   1      43.432  27.731  26.835  1.00  0.00    -0.237 OA
ATOM     90  O   UNL A   1      41.582  26.986  25.415  1.00  0.00    -0.744 OA
ENDBRANCH  84  87
ENDBRANCH  56  80
BRANCH  68  91
ATOM     91  C   UNL A   1      44.596  28.342  35.677  1.00  0.00     0.023 A 
ATOM     92  C   UNL A   1      45.891  28.789  35.348  1.00  0.00     0.012 A 
ATOM     93  C   UNL A   1      44.440  27.171  36.444  1.00  0.00     0.148 A 
ATOM     94  C   UNL A   1      47.012  28.066  35.752  1.00  0.00     0.002 A 
ATOM     95  C   UNL A   1      45.565  26.479  36.878  1.00  0.00     0.091 A 
ATOM     96  F   UNL A   1      43.199  26.749  36.728  1.00  0.00    -0.205 F 
ATOM     97  C   UNL A   1      46.851  26.920  36.526  1.00  0.00     0.022 A 
BRANCH  95  98
ATOM     98  S   UNL A   1      45.440  25.045  37.954  1.00  0.00     0.127 S 
ATOM     99  O   UNL A   1      44.707  25.590  39.096  1.00  0.00    -0.237 OA
ATOM    100  O   UNL A   1      44.679  24.100  37.137  1.00  0.00    -0.237 OA
ATOM    101  O   UNL A   1      46.813  24.635  38.220  1.00  0.00    -0.744 OA
ENDBRANCH  95  98
ENDBRANCH  68  91
ENDBRANCH  42  43
ENDBRANCH  34  37
ENDBRANCH  32  33
ENDBRANCH  31  32
ENDBRANCH  30  31
ENDBRANCH   1  30
TORSDOF 20
ENDMDL
