MODEL 1
REMARK VINA RESULT:     -12.1      0.000      0.000
REMARK SMILES CC(C)c1ccc2c(c1)c(SC(C)(C)C)c(CC(C)(C)C(=O)NCCCCCCNC(=O)c1ccc(-c3c4nc(c(-c5cccc(S(=O)(=O)[O-])c5F)c5ccc([nH]5)c(-c5cccc(S(=O)(=O)[O-])c5F)c5nc(c(-c6cccc(S(=O)(=O)[O-])c6F)c6ccc3[nH]6)C=C5)C=C4)cc1)n2Cc1ccc(Cl)cc1
REMARK SMILES IDX 26 1 25 2 24 3 23 4 21 5 22 6 18 8 19 9 20 10 17 11 16 12
REMARK SMILES IDX 4 13 5 14 9 15 6 16 8 17 7 18 10 19 96 20 2 21 1 22 3 23
REMARK SMILES IDX 11 24 12 25 13 26 14 27 15 28 97 29 98 30 99 31 104 32
REMARK SMILES IDX 100 33 103 34 101 35 102 36 27 37 28 38 29 39 30 40 31 41
REMARK SMILES IDX 32 43 33 44 34 45 95 46 35 47 94 48 36 49 37 50 38 51 88 52
REMARK SMILES IDX 39 53 93 54 87 55 89 56 40 57 92 58 86 59 85 60 41 62 73 63
REMARK SMILES IDX 53 64 72 65 54 66 57 67 71 68 90 69 55 70 56 71 70 73 91 74
REMARK SMILES IDX 58 75 42 76 43 77 51 78 44 79 46 80 52 81 45 82 47 83 48 84
REMARK SMILES IDX 49 85 50 86 74 87 75 88 83 89 76 90 78 91 84 92 77 93 79 94
REMARK SMILES IDX 80 95 81 96 82 97 59 98 60 99 68 100 61 101 63 102 69 103
REMARK SMILES IDX 62 104 64 105 65 106 66 107 67 108
REMARK H PARENT 23 7 30 42 89 61 57 72
REMARK Flexibility Score: inf
ROOT
ATOM      1  C   UNL A   1      32.457  29.041  26.610  1.00  0.00     0.002 C 
ENDROOT
BRANCH   1   2
ATOM      2  C   UNL A   1      31.979  27.862  27.445  1.00  0.00     0.021 C 
BRANCH   2   3
ATOM      3  C   UNL A   1      31.745  26.658  26.570  1.00  0.00     0.116 C 
BRANCH   3   4
ATOM      4  N   UNL A   1      30.362  26.213  26.631  1.00  0.00    -0.356 N 
ATOM      5  C   UNL A   1      29.870  24.937  26.531  1.00  0.00     0.226 C 
ATOM      6  O   UNL A   1      28.755  24.727  26.992  1.00  0.00    -0.275 OA
ATOM      7  H   UNL A   1      29.691  26.921  26.764  1.00  0.00     0.163 HD
BRANCH   5   8
ATOM      8  C   UNL A   1      30.834  23.835  26.083  1.00  0.00     0.049 C 
ATOM      9  C   UNL A   1      29.875  22.645  26.379  1.00  0.00     0.022 C 
ATOM     10  C   UNL A   1      32.180  24.046  26.847  1.00  0.00     0.022 C 
BRANCH   8  11
ATOM     11  C   UNL A   1      31.336  23.791  24.610  1.00  0.00     0.071 C 
BRANCH  11  12
ATOM     12  C   UNL A   1      32.723  23.374  24.399  1.00  0.00     0.034 A 
ATOM     13  C   UNL A   1      37.175  22.337  25.076  1.00  0.00    -0.045 A 
ATOM     14  C   UNL A   1      36.642  21.049  24.988  1.00  0.00     0.006 A 
ATOM     15  C   UNL A   1      36.331  23.436  24.822  1.00  0.00     0.015 A 
ATOM     16  C   UNL A   1      35.287  20.831  24.711  1.00  0.00     0.027 A 
ATOM     17  C   UNL A   1      34.950  23.257  24.545  1.00  0.00     0.014 A 
ATOM     18  C   UNL A   1      34.447  21.944  24.534  1.00  0.00     0.050 A 
ATOM     19  C   UNL A   1      33.854  24.168  24.300  1.00  0.00     0.037 A 
ATOM     20  N   UNL A   1      33.075  22.028  24.343  1.00  0.00    -0.339 N 
BRANCH  13  21
ATOM     21  C   UNL A   1      38.629  22.521  25.482  1.00  0.00     0.013 C 
ATOM     22  C   UNL A   1      38.798  23.635  26.516  1.00  0.00     0.012 C 
ATOM     23  C   UNL A   1      39.247  21.212  25.985  1.00  0.00     0.012 C 
ENDBRANCH  13  21
BRANCH  19  24
ATOM     24  S   UNL A   1      34.114  25.935  24.219  1.00  0.00    -0.118 SA
BRANCH  24  25
ATOM     25  C   UNL A   1      33.189  26.985  22.960  1.00  0.00     0.012 C 
ATOM     26  C   UNL A   1      33.131  26.253  21.615  1.00  0.00     0.023 C 
ATOM     27  C   UNL A   1      31.809  27.647  23.201  1.00  0.00     0.023 C 
ATOM     28  C   UNL A   1      34.097  28.241  22.840  1.00  0.00     0.023 C 
ENDBRANCH  24  25
ENDBRANCH  19  24
BRANCH  20  29
ATOM     29  C   UNL A   1      32.210  20.883  23.932  1.00  0.00     0.158 C 
BRANCH  29  30
ATOM     30  C   UNL A   1      32.613  19.468  24.332  1.00  0.00    -0.028 A 
ATOM     31  C   UNL A   1      33.002  18.514  23.369  1.00  0.00     0.007 A 
ATOM     32  C   UNL A   1      32.587  19.052  25.674  1.00  0.00     0.007 A 
ATOM     33  C   UNL A   1      33.128  17.157  23.694  1.00  0.00     0.021 A 
ATOM     34  C   UNL A   1      32.782  17.701  26.014  1.00  0.00     0.021 A 
ATOM     35  C   UNL A   1      32.989  16.753  25.015  1.00  0.00     0.041 A 
ATOM     36  Cl  UNL A   1      33.039  15.077  25.402  1.00  0.00    -0.084 Cl
ENDBRANCH  29  30
ENDBRANCH  20  29
ENDBRANCH  11  12
ENDBRANCH   8  11
ENDBRANCH   5   8
ENDBRANCH   3   4
ENDBRANCH   2   3
ENDBRANCH   1   2
BRANCH   1  37
ATOM     37  C   UNL A   1      33.975  29.046  26.368  1.00  0.00     0.002 C 
BRANCH  37  38
ATOM     38  C   UNL A   1      34.821  29.231  27.637  1.00  0.00     0.021 C 
BRANCH  38  39
ATOM     39  C   UNL A   1      35.369  30.648  27.790  1.00  0.00     0.116 C 
BRANCH  39  40
ATOM     40  N   UNL A   1      35.291  31.133  29.149  1.00  0.00    -0.352 N 
ATOM     41  C   UNL A   1      36.089  31.030  30.250  1.00  0.00     0.251 C 
ATOM     42  H   UNL A   1      34.476  31.658  29.319  1.00  0.00     0.163 HD
ATOM     43  O   UNL A   1      35.654  31.554  31.278  1.00  0.00    -0.269 OA
BRANCH  41  44
ATOM     44  C   UNL A   1      37.373  30.289  30.292  1.00  0.00     0.039 A 
ATOM     45  C   UNL A   1      37.508  28.907  30.436  1.00  0.00     0.014 A 
ATOM     46  C   UNL A   1      38.533  31.077  30.204  1.00  0.00     0.014 A 
ATOM     47  C   UNL A   1      38.759  28.337  30.610  1.00  0.00     0.010 A 
ATOM     48  C   UNL A   1      39.791  30.508  30.336  1.00  0.00     0.010 A 
ATOM     49  C   UNL A   1      39.894  29.146  30.595  1.00  0.00    -0.014 A 
BRANCH  49  50
ATOM     50  C   UNL A   1      41.188  28.489  30.718  1.00  0.00     0.031 A 
ATOM     51  C   UNL A   1      41.741  28.497  32.105  1.00  0.00     0.074 A 
ATOM     52  C   UNL A   1      41.764  27.836  29.688  1.00  0.00     0.049 A 
ATOM     53  N   UNL A   1      42.846  29.025  32.526  1.00  0.00    -0.248 NA
ATOM     54  C   UNL A   1      40.875  27.980  33.181  1.00  0.00     0.031 C 
ATOM     55  C   UNL A   1      41.179  27.552  28.374  1.00  0.00     0.029 A 
ATOM     56  N   UNL A   1      42.942  27.155  29.651  1.00  0.00    -0.354 N 
ATOM     57  C   UNL A   1      42.917  28.697  33.880  1.00  0.00     0.074 A 
ATOM     58  C   UNL A   1      41.618  28.210  34.262  1.00  0.00     0.031 C 
ATOM     59  C   UNL A   1      41.869  26.547  27.790  1.00  0.00     0.029 A 
ATOM     60  C   UNL A   1      43.014  26.220  28.619  1.00  0.00     0.049 A 
ATOM     61  H   UNL A   1      43.675  27.308  30.291  1.00  0.00     0.167 HD
ATOM     62  C   UNL A   1      44.101  28.601  34.542  1.00  0.00     0.034 A 
ATOM     63  C   UNL A   1      43.899  25.196  28.524  1.00  0.00     0.034 A 
ATOM     64  C   UNL A   1      45.176  29.247  33.851  1.00  0.00     0.049 A 
ATOM     65  C   UNL A   1      45.041  25.540  29.402  1.00  0.00     0.074 A 
ATOM     66  C   UNL A   1      45.456  30.541  33.466  1.00  0.00     0.029 A 
ATOM     67  N   UNL A   1      45.998  28.437  33.110  1.00  0.00    -0.354 N 
ATOM     68  N   UNL A   1      45.846  26.542  29.192  1.00  0.00    -0.248 NA
ATOM     69  C   UNL A   1      45.054  24.988  30.746  1.00  0.00     0.031 C 
ATOM     70  C   UNL A   1      46.096  30.417  32.198  1.00  0.00     0.029 A 
ATOM     71  C   UNL A   1      46.218  29.055  31.908  1.00  0.00     0.049 A 
ATOM     72  H   UNL A   1      46.366  27.568  33.392  1.00  0.00     0.167 HD
ATOM     73  C   UNL A   1      46.124  27.026  30.462  1.00  0.00     0.074 A 
ATOM     74  C   UNL A   1      45.709  25.966  31.375  1.00  0.00     0.031 C 
ATOM     75  C   UNL A   1      46.396  28.347  30.661  1.00  0.00     0.034 A 
BRANCH  62  76
ATOM     76  C   UNL A   1      44.344  27.588  35.628  1.00  0.00     0.023 A 
ATOM     77  C   UNL A   1      44.679  28.036  36.920  1.00  0.00     0.012 A 
ATOM     78  C   UNL A   1      44.505  26.209  35.355  1.00  0.00     0.148 A 
ATOM     79  C   UNL A   1      45.136  27.146  37.900  1.00  0.00     0.002 A 
ATOM     80  C   UNL A   1      44.878  25.319  36.350  1.00  0.00     0.091 A 
ATOM     81  F   UNL A   1      44.422  25.774  34.091  1.00  0.00    -0.205 F 
ATOM     82  C   UNL A   1      45.215  25.784  37.623  1.00  0.00     0.022 A 
BRANCH  80  83
ATOM     83  S   UNL A   1      44.953  23.550  36.051  1.00  0.00     0.127 S 
ATOM     84  O   UNL A   1      45.304  23.044  37.372  1.00  0.00    -0.237 OA
ATOM     85  O   UNL A   1      43.589  23.263  35.614  1.00  0.00    -0.237 OA
ATOM     86  O   UNL A   1      45.961  23.380  35.007  1.00  0.00    -0.744 OA
ENDBRANCH  80  83
ENDBRANCH  62  76
BRANCH  63  87
ATOM     87  C   UNL A   1      43.722  23.812  28.007  1.00  0.00     0.023 A 
ATOM     88  C   UNL A   1      42.624  23.052  28.469  1.00  0.00     0.012 A 
ATOM     89  C   UNL A   1      44.403  23.351  26.858  1.00  0.00     0.148 A 
ATOM     90  C   UNL A   1      42.175  21.924  27.773  1.00  0.00     0.002 A 
ATOM     91  C   UNL A   1      43.962  22.218  26.178  1.00  0.00     0.091 A 
ATOM     92  F   UNL A   1      45.420  24.074  26.370  1.00  0.00    -0.205 F 
ATOM     93  C   UNL A   1      42.834  21.515  26.620  1.00  0.00     0.022 A 
BRANCH  91  94
ATOM     94  S   UNL A   1      44.764  21.633  24.678  1.00  0.00     0.127 S 
ATOM     95  O   UNL A   1      46.177  21.649  25.062  1.00  0.00    -0.237 OA
ATOM     96  O   UNL A   1      44.188  20.300  24.525  1.00  0.00    -0.237 OA
ATOM     97  O   UNL A   1      44.418  22.599  23.643  1.00  0.00    -0.744 OA
ENDBRANCH  91  94
ENDBRANCH  63  87
BRANCH  75  98
ATOM     98  C   UNL A   1      46.676  29.199  29.451  1.00  0.00     0.023 A 
ATOM     99  C   UNL A   1      47.926  29.207  28.798  1.00  0.00     0.012 A 
ATOM    100  C   UNL A   1      45.589  29.860  28.859  1.00  0.00     0.148 A 
ATOM    101  C   UNL A   1      48.085  29.867  27.575  1.00  0.00     0.002 A 
ATOM    102  C   UNL A   1      45.741  30.481  27.628  1.00  0.00     0.091 A 
ATOM    103  F   UNL A   1      44.410  29.831  29.499  1.00  0.00    -0.205 F 
ATOM    104  C   UNL A   1      46.988  30.491  26.983  1.00  0.00     0.022 A 
BRANCH 102 105
ATOM    105  S   UNL A   1      44.348  31.207  26.762  1.00  0.00     0.127 S 
ATOM    106  O   UNL A   1      43.837  32.158  27.748  1.00  0.00    -0.237 OA
ATOM    107  O   UNL A   1      44.991  31.819  25.597  1.00  0.00    -0.237 OA
ATOM    108  O   UNL A   1      43.450  30.105  26.438  1.00  0.00    -0.744 OA
ENDBRANCH 102 105
ENDBRANCH  75  98
ENDBRANCH  49  50
ENDBRANCH  41  44
ENDBRANCH  39  40
ENDBRANCH  38  39
ENDBRANCH  37  38
ENDBRANCH   1  37
TORSDOF 23
ENDMDL
MODEL 2
REMARK VINA RESULT:     -11.5      1.992      3.850
REMARK SMILES CC(C)c1ccc2c(c1)c(SC(C)(C)C)c(CC(C)(C)C(=O)NCCCCCCNC(=O)c1ccc(-c3c4nc(c(-c5cccc(S(=O)(=O)[O-])c5F)c5ccc([nH]5)c(-c5cccc(S(=O)(=O)[O-])c5F)c5nc(c(-c6cccc(S(=O)(=O)[O-])c6F)c6ccc3[nH]6)C=C5)C=C4)cc1)n2Cc1ccc(Cl)cc1
REMARK SMILES IDX 26 1 25 2 24 3 23 4 21 5 22 6 18 8 19 9 20 10 17 11 16 12
REMARK SMILES IDX 4 13 5 14 9 15 6 16 8 17 7 18 10 19 96 20 2 21 1 22 3 23
REMARK SMILES IDX 11 24 12 25 13 26 14 27 15 28 97 29 98 30 99 31 104 32
REMARK SMILES IDX 100 33 103 34 101 35 102 36 27 37 28 38 29 39 30 40 31 41
REMARK SMILES IDX 32 43 33 44 34 45 95 46 35 47 94 48 36 49 37 50 38 51 88 52
REMARK SMILES IDX 39 53 93 54 87 55 89 56 40 57 92 58 86 59 85 60 41 62 73 63
REMARK SMILES IDX 53 64 72 65 54 66 57 67 71 68 90 69 55 70 56 71 70 73 91 74
REMARK SMILES IDX 58 75 42 76 43 77 51 78 44 79 46 80 52 81 45 82 47 83 48 84
REMARK SMILES IDX 49 85 50 86 74 87 75 88 83 89 76 90 78 91 84 92 77 93 79 94
REMARK SMILES IDX 80 95 81 96 82 97 59 98 60 99 68 100 61 101 63 102 69 103
REMARK SMILES IDX 62 104 64 105 65 106 66 107 67 108
REMARK H PARENT 23 7 30 42 89 61 57 72
REMARK Flexibility Score: inf
ROOT
ATOM      1  C   UNL A   1      32.481  30.097  27.042  1.00  0.00     0.002 C 
ENDROOT
BRANCH   1   2
ATOM      2  C   UNL A   1      31.781  28.775  27.312  1.00  0.00     0.021 C 
BRANCH   2   3
ATOM      3  C   UNL A   1      31.622  27.992  26.034  1.00  0.00     0.116 C 
BRANCH   3   4
ATOM      4  N   UNL A   1      32.406  28.566  24.953  1.00  0.00    -0.356 N 
ATOM      5  C   UNL A   1      33.369  27.964  24.183  1.00  0.00     0.226 C 
ATOM      6  O   UNL A   1      33.622  28.476  23.100  1.00  0.00    -0.275 OA
ATOM      7  H   UNL A   1      32.221  29.510  24.747  1.00  0.00     0.163 HD
BRANCH   5   8
ATOM      8  C   UNL A   1      33.867  26.583  24.617  1.00  0.00     0.049 C 
ATOM      9  C   UNL A   1      34.672  27.077  25.854  1.00  0.00     0.022 C 
ATOM     10  C   UNL A   1      34.547  25.917  23.378  1.00  0.00     0.022 C 
BRANCH   8  11
ATOM     11  C   UNL A   1      32.848  25.479  25.022  1.00  0.00     0.071 C 
BRANCH  11  12
ATOM     12  C   UNL A   1      33.118  24.124  24.540  1.00  0.00     0.034 A 
ATOM     13  C   UNL A   1      33.292  19.520  24.168  1.00  0.00    -0.045 A 
ATOM     14  C   UNL A   1      32.307  19.799  23.217  1.00  0.00     0.006 A 
ATOM     15  C   UNL A   1      33.962  20.598  24.781  1.00  0.00     0.015 A 
ATOM     16  C   UNL A   1      31.935  21.112  22.906  1.00  0.00     0.027 A 
ATOM     17  C   UNL A   1      33.608  21.944  24.498  1.00  0.00     0.014 A 
ATOM     18  C   UNL A   1      32.564  22.170  23.584  1.00  0.00     0.050 A 
ATOM     19  C   UNL A   1      34.067  23.222  24.994  1.00  0.00     0.037 A 
ATOM     20  N   UNL A   1      32.337  23.539  23.546  1.00  0.00    -0.339 N 
BRANCH  13  21
ATOM     21  C   UNL A   1      33.586  18.077  24.545  1.00  0.00     0.013 C 
ATOM     22  C   UNL A   1      32.524  17.503  25.484  1.00  0.00     0.012 C 
ATOM     23  C   UNL A   1      33.754  17.191  23.305  1.00  0.00     0.012 C 
ENDBRANCH  13  21
BRANCH  19  24
ATOM     24  S   UNL A   1      35.412  23.337  26.166  1.00  0.00    -0.118 SA
BRANCH  24  25
ATOM     25  C   UNL A   1      37.190  23.052  25.620  1.00  0.00     0.012 C 
ATOM     26  C   UNL A   1      38.102  24.114  26.245  1.00  0.00     0.023 C 
ATOM     27  C   UNL A   1      37.931  21.693  25.684  1.00  0.00     0.023 C 
ATOM     28  C   UNL A   1      37.107  23.266  24.083  1.00  0.00     0.023 C 
ENDBRANCH  24  25
ENDBRANCH  19  24
BRANCH  20  29
ATOM     29  C   UNL A   1      31.564  24.235  22.475  1.00  0.00     0.158 C 
BRANCH  29  30
ATOM     30  C   UNL A   1      30.767  25.485  22.830  1.00  0.00    -0.028 A 
ATOM     31  C   UNL A   1      29.747  25.456  23.804  1.00  0.00     0.007 A 
ATOM     32  C   UNL A   1      30.999  26.710  22.181  1.00  0.00     0.007 A 
ATOM     33  C   UNL A   1      28.850  26.520  23.955  1.00  0.00     0.021 A 
ATOM     34  C   UNL A   1      30.142  27.806  22.381  1.00  0.00     0.021 A 
ATOM     35  C   UNL A   1      29.036  27.683  23.220  1.00  0.00     0.041 A 
ATOM     36  Cl  UNL A   1      27.878  28.952  23.324  1.00  0.00    -0.084 Cl
ENDBRANCH  29  30
ENDBRANCH  20  29
ENDBRANCH  11  12
ENDBRANCH   8  11
ENDBRANCH   5   8
ENDBRANCH   3   4
ENDBRANCH   2   3
ENDBRANCH   1   2
BRANCH   1  37
ATOM     37  C   UNL A   1      33.949  30.118  27.497  1.00  0.00     0.002 C 
BRANCH  37  38
ATOM     38  C   UNL A   1      34.560  31.523  27.612  1.00  0.00     0.021 C 
BRANCH  38  39
ATOM     39  C   UNL A   1      35.846  31.551  28.436  1.00  0.00     0.116 C 
BRANCH  39  40
ATOM     40  N   UNL A   1      35.603  31.784  29.841  1.00  0.00    -0.352 N 
ATOM     41  C   UNL A   1      36.295  31.528  30.988  1.00  0.00     0.251 C 
ATOM     42  H   UNL A   1      34.742  32.230  30.009  1.00  0.00     0.163 HD
ATOM     43  O   UNL A   1      35.727  31.840  32.037  1.00  0.00    -0.269 OA
BRANCH  41  44
ATOM     44  C   UNL A   1      37.616  30.856  31.042  1.00  0.00     0.039 A 
ATOM     45  C   UNL A   1      38.854  31.501  31.053  1.00  0.00     0.014 A 
ATOM     46  C   UNL A   1      37.584  29.451  31.054  1.00  0.00     0.014 A 
ATOM     47  C   UNL A   1      40.028  30.772  30.956  1.00  0.00     0.010 A 
ATOM     48  C   UNL A   1      38.757  28.714  30.998  1.00  0.00     0.010 A 
ATOM     49  C   UNL A   1      39.973  29.381  30.893  1.00  0.00    -0.014 A 
BRANCH  49  50
ATOM     50  C   UNL A   1      41.238  28.659  30.856  1.00  0.00     0.031 A 
ATOM     51  C   UNL A   1      41.874  28.485  32.195  1.00  0.00     0.074 A 
ATOM     52  C   UNL A   1      41.715  28.105  29.724  1.00  0.00     0.049 A 
ATOM     53  N   UNL A   1      43.028  28.913  32.598  1.00  0.00    -0.248 NA
ATOM     54  C   UNL A   1      41.052  27.886  33.262  1.00  0.00     0.031 C 
ATOM     55  C   UNL A   1      41.037  27.997  28.428  1.00  0.00     0.029 A 
ATOM     56  N   UNL A   1      42.853  27.382  29.532  1.00  0.00    -0.354 N 
ATOM     57  C   UNL A   1      43.166  28.429  33.899  1.00  0.00     0.074 A 
ATOM     58  C   UNL A   1      41.870  27.959  34.311  1.00  0.00     0.031 C 
ATOM     59  C   UNL A   1      41.639  27.038  27.691  1.00  0.00     0.029 A 
ATOM     60  C   UNL A   1      42.815  26.569  28.400  1.00  0.00     0.049 A 
ATOM     61  H   UNL A   1      43.631  27.429  30.135  1.00  0.00     0.167 HD
ATOM     62  C   UNL A   1      44.382  28.207  34.466  1.00  0.00     0.034 A 
ATOM     63  C   UNL A   1      43.640  25.525  28.133  1.00  0.00     0.034 A 
ATOM     64  C   UNL A   1      45.443  28.881  33.781  1.00  0.00     0.049 A 
ATOM     65  C   UNL A   1      44.849  25.717  28.965  1.00  0.00     0.074 A 
ATOM     66  C   UNL A   1      45.764  30.197  33.524  1.00  0.00     0.029 A 
ATOM     67  N   UNL A   1      46.177  28.127  32.901  1.00  0.00    -0.354 N 
ATOM     68  N   UNL A   1      45.689  26.701  28.815  1.00  0.00    -0.248 NA
ATOM     69  C   UNL A   1      44.917  25.015  30.236  1.00  0.00     0.031 C 
ATOM     70  C   UNL A   1      46.318  30.192  32.210  1.00  0.00     0.029 A 
ATOM     71  C   UNL A   1      46.353  28.868  31.764  1.00  0.00     0.049 A 
ATOM     72  H   UNL A   1      46.518  27.217  33.059  1.00  0.00     0.167 HD
ATOM     73  C   UNL A   1      46.069  27.025  30.109  1.00  0.00     0.074 A 
ATOM     74  C   UNL A   1      45.658  25.885  30.925  1.00  0.00     0.031 C 
ATOM     75  C   UNL A   1      46.419  28.301  30.436  1.00  0.00     0.034 A 
BRANCH  62  76
ATOM     76  C   UNL A   1      44.640  27.067  35.413  1.00  0.00     0.023 A 
ATOM     77  C   UNL A   1      45.168  27.343  36.689  1.00  0.00     0.012 A 
ATOM     78  C   UNL A   1      44.620  25.716  34.996  1.00  0.00     0.148 A 
ATOM     79  C   UNL A   1      45.638  26.315  37.517  1.00  0.00     0.002 A 
ATOM     80  C   UNL A   1      45.010  24.695  35.848  1.00  0.00     0.091 A 
ATOM     81  F   UNL A   1      44.346  25.426  33.717  1.00  0.00    -0.205 F 
ATOM     82  C   UNL A   1      45.540  24.989  37.106  1.00  0.00     0.022 A 
BRANCH  80  83
ATOM     83  S   UNL A   1      44.861  22.968  35.379  1.00  0.00     0.127 S 
ATOM     84  O   UNL A   1      43.450  22.882  35.021  1.00  0.00    -0.237 OA
ATOM     85  O   UNL A   1      45.796  22.880  34.260  1.00  0.00    -0.237 OA
ATOM     86  O   UNL A   1      45.273  22.213  36.560  1.00  0.00    -0.744 OA
ENDBRANCH  80  83
ENDBRANCH  62  76
BRANCH  63  87
ATOM     87  C   UNL A   1      43.362  24.219  27.477  1.00  0.00     0.023 A 
ATOM     88  C   UNL A   1      42.036  23.729  27.480  1.00  0.00     0.012 A 
ATOM     89  C   UNL A   1      44.284  23.615  26.594  1.00  0.00     0.148 A 
ATOM     90  C   UNL A   1      41.627  22.733  26.585  1.00  0.00     0.002 A 
ATOM     91  C   UNL A   1      43.875  22.613  25.717  1.00  0.00     0.091 A 
ATOM     92  F   UNL A   1      45.536  24.087  26.537  1.00  0.00    -0.205 F 
ATOM     93  C   UNL A   1      42.541  22.185  25.694  1.00  0.00     0.022 A 
BRANCH  91  94
ATOM     94  S   UNL A   1      45.003  21.861  24.535  1.00  0.00     0.127 S 
ATOM     95  O   UNL A   1      44.271  20.656  24.138  1.00  0.00    -0.237 OA
ATOM     96  O   UNL A   1      45.092  22.889  23.502  1.00  0.00    -0.237 OA
ATOM     97  O   UNL A   1      46.229  21.594  25.275  1.00  0.00    -0.744 OA
ENDBRANCH  91  94
ENDBRANCH  63  87
BRANCH  75  98
ATOM     98  C   UNL A   1      46.666  29.273  29.313  1.00  0.00     0.023 A 
ATOM     99  C   UNL A   1      47.915  29.390  28.668  1.00  0.00     0.012 A 
ATOM    100  C   UNL A   1      45.555  29.945  28.781  1.00  0.00     0.148 A 
ATOM    101  C   UNL A   1      48.049  30.167  27.514  1.00  0.00     0.002 A 
ATOM    102  C   UNL A   1      45.683  30.685  27.614  1.00  0.00     0.091 A 
ATOM    103  F   UNL A   1      44.378  29.810  29.411  1.00  0.00    -0.205 F 
ATOM    104  C   UNL A   1      46.929  30.803  26.978  1.00  0.00     0.022 A 
BRANCH 102 105
ATOM    105  S   UNL A   1      44.264  31.435  26.815  1.00  0.00     0.127 S 
ATOM    106  O   UNL A   1      43.801  32.376  27.834  1.00  0.00    -0.237 OA
ATOM    107  O   UNL A   1      44.866  32.058  25.634  1.00  0.00    -0.237 OA
ATOM    108  O   UNL A   1      43.343  30.346  26.512  1.00  0.00    -0.744 OA
ENDBRANCH 102 105
ENDBRANCH  75  98
ENDBRANCH  49  50
ENDBRANCH  41  44
ENDBRANCH  39  40
ENDBRANCH  38  39
ENDBRANCH  37  38
ENDBRANCH   1  37
TORSDOF 23
ENDMDL
MODEL 3
REMARK VINA RESULT:     -10.9      3.804      9.694
REMARK SMILES CC(C)c1ccc2c(c1)c(SC(C)(C)C)c(CC(C)(C)C(=O)NCCCCCCNC(=O)c1ccc(-c3c4nc(c(-c5cccc(S(=O)(=O)[O-])c5F)c5ccc([nH]5)c(-c5cccc(S(=O)(=O)[O-])c5F)c5nc(c(-c6cccc(S(=O)(=O)[O-])c6F)c6ccc3[nH]6)C=C5)C=C4)cc1)n2Cc1ccc(Cl)cc1
REMARK SMILES IDX 26 1 25 2 24 3 23 4 21 5 22 6 18 8 19 9 20 10 17 11 16 12
REMARK SMILES IDX 4 13 5 14 9 15 6 16 8 17 7 18 10 19 96 20 2 21 1 22 3 23
REMARK SMILES IDX 11 24 12 25 13 26 14 27 15 28 97 29 98 30 99 31 104 32
REMARK SMILES IDX 100 33 103 34 101 35 102 36 27 37 28 38 29 39 30 40 31 41
REMARK SMILES IDX 32 43 33 44 34 45 95 46 35 47 94 48 36 49 37 50 38 51 88 52
REMARK SMILES IDX 39 53 93 54 87 55 89 56 40 57 92 58 86 59 85 60 41 62 73 63
REMARK SMILES IDX 53 64 72 65 54 66 57 67 71 68 90 69 55 70 56 71 70 73 91 74
REMARK SMILES IDX 58 75 42 76 43 77 51 78 44 79 46 80 52 81 45 82 47 83 48 84
REMARK SMILES IDX 49 85 50 86 74 87 75 88 83 89 76 90 78 91 84 92 77 93 79 94
REMARK SMILES IDX 80 95 81 96 82 97 59 98 60 99 68 100 61 101 63 102 69 103
REMARK SMILES IDX 62 104 64 105 65 106 66 107 67 108
REMARK H PARENT 23 7 30 42 89 61 57 72
REMARK Flexibility Score: inf
ROOT
ATOM      1  C   UNL A   1      36.320  23.381  24.715  1.00  0.00     0.002 C 
ENDROOT
BRANCH   1   2
ATOM      2  C   UNL A   1      35.779  22.772  23.431  1.00  0.00     0.021 C 
BRANCH   2   3
ATOM      3  C   UNL A   1      34.311  23.076  23.281  1.00  0.00     0.116 C 
BRANCH   3   4
ATOM      4  N   UNL A   1      33.881  22.970  21.896  1.00  0.00    -0.356 N 
ATOM      5  C   UNL A   1      33.175  23.880  21.150  1.00  0.00     0.226 C 
ATOM      6  O   UNL A   1      33.254  23.787  19.931  1.00  0.00    -0.275 OA
ATOM      7  H   UNL A   1      34.131  22.138  21.434  1.00  0.00     0.163 HD
BRANCH   5   8
ATOM      8  C   UNL A   1      32.554  25.073  21.881  1.00  0.00     0.049 C 
ATOM      9  C   UNL A   1      31.774  25.631  20.655  1.00  0.00     0.022 C 
ATOM     10  C   UNL A   1      33.713  25.858  22.574  1.00  0.00     0.022 C 
BRANCH   8  11
ATOM     11  C   UNL A   1      31.598  24.836  23.086  1.00  0.00     0.071 C 
BRANCH  11  12
ATOM     12  C   UNL A   1      31.604  25.850  24.142  1.00  0.00     0.034 A 
ATOM     13  C   UNL A   1      32.816  29.377  26.871  1.00  0.00    -0.045 A 
ATOM     14  C   UNL A   1      31.826  29.998  26.105  1.00  0.00     0.006 A 
ATOM     15  C   UNL A   1      33.028  27.994  26.706  1.00  0.00     0.015 A 
ATOM     16  C   UNL A   1      31.088  29.294  25.147  1.00  0.00     0.027 A 
ATOM     17  C   UNL A   1      32.305  27.246  25.740  1.00  0.00     0.014 A 
ATOM     18  C   UNL A   1      31.368  27.931  24.947  1.00  0.00     0.050 A 
ATOM     19  C   UNL A   1      32.338  25.864  25.317  1.00  0.00     0.037 A 
ATOM     20  N   UNL A   1      30.868  27.025  24.022  1.00  0.00    -0.339 N 
BRANCH  13  21
ATOM     21  C   UNL A   1      33.661  30.208  27.824  1.00  0.00     0.013 C 
ATOM     22  C   UNL A   1      35.146  29.859  27.725  1.00  0.00     0.012 C 
ATOM     23  C   UNL A   1      33.438  31.710  27.614  1.00  0.00     0.012 C 
ENDBRANCH  13  21
BRANCH  19  24
ATOM     24  S   UNL A   1      33.404  24.672  26.117  1.00  0.00    -0.118 SA
BRANCH  24  25
ATOM     25  C   UNL A   1      32.743  22.988  26.636  1.00  0.00     0.012 C 
ATOM     26  C   UNL A   1      31.263  23.105  27.013  1.00  0.00     0.023 C 
ATOM     27  C   UNL A   1      32.926  21.677  25.831  1.00  0.00     0.023 C 
ATOM     28  C   UNL A   1      33.588  22.672  27.902  1.00  0.00     0.023 C 
ENDBRANCH  24  25
ENDBRANCH  19  24
BRANCH  20  29
ATOM     29  C   UNL A   1      29.623  27.235  23.225  1.00  0.00     0.158 C 
BRANCH  29  30
ATOM     30  C   UNL A   1      29.225  28.654  22.831  1.00  0.00    -0.028 A 
ATOM     31  C   UNL A   1      30.041  29.440  21.990  1.00  0.00     0.007 A 
ATOM     32  C   UNL A   1      28.044  29.243  23.314  1.00  0.00     0.007 A 
ATOM     33  C   UNL A   1      29.816  30.812  21.830  1.00  0.00     0.021 A 
ATOM     34  C   UNL A   1      27.778  30.607  23.096  1.00  0.00     0.021 A 
ATOM     35  C   UNL A   1      28.698  31.396  22.409  1.00  0.00     0.041 A 
ATOM     36  Cl  UNL A   1      28.474  33.099  22.302  1.00  0.00    -0.084 Cl
ENDBRANCH  29  30
ENDBRANCH  20  29
ENDBRANCH  11  12
ENDBRANCH   8  11
ENDBRANCH   5   8
ENDBRANCH   3   4
ENDBRANCH   2   3
ENDBRANCH   1   2
BRANCH   1  37
ATOM     37  C   UNL A   1      36.763  22.336  25.751  1.00  0.00     0.002 C 
BRANCH  37  38
ATOM     38  C   UNL A   1      38.272  22.052  25.765  1.00  0.00     0.021 C 
BRANCH  38  39
ATOM     39  C   UNL A   1      39.084  23.163  26.429  1.00  0.00     0.116 C 
BRANCH  39  40
ATOM     40  N   UNL A   1      40.507  23.004  26.239  1.00  0.00    -0.352 N 
ATOM     41  C   UNL A   1      41.605  23.752  26.547  1.00  0.00     0.251 C 
ATOM     42  H   UNL A   1      40.738  22.163  25.782  1.00  0.00     0.163 HD
ATOM     43  O   UNL A   1      42.687  23.296  26.171  1.00  0.00    -0.269 OA
BRANCH  41  44
ATOM     44  C   UNL A   1      41.560  25.070  27.227  1.00  0.00     0.039 A 
ATOM     45  C   UNL A   1      40.778  26.159  26.835  1.00  0.00     0.014 A 
ATOM     46  C   UNL A   1      42.409  25.210  28.338  1.00  0.00     0.014 A 
ATOM     47  C   UNL A   1      40.926  27.388  27.455  1.00  0.00     0.010 A 
ATOM     48  C   UNL A   1      42.531  26.428  28.989  1.00  0.00     0.010 A 
ATOM     49  C   UNL A   1      41.828  27.528  28.508  1.00  0.00    -0.014 A 
BRANCH  49  50
ATOM     50  C   UNL A   1      41.898  28.825  29.167  1.00  0.00     0.031 A 
ATOM     51  C   UNL A   1      43.029  29.680  28.700  1.00  0.00     0.074 A 
ATOM     52  C   UNL A   1      40.951  29.244  30.030  1.00  0.00     0.049 A 
ATOM     53  N   UNL A   1      44.018  30.151  29.391  1.00  0.00    -0.248 NA
ATOM     54  C   UNL A   1      43.149  29.911  27.249  1.00  0.00     0.031 C 
ATOM     55  C   UNL A   1      39.678  28.588  30.345  1.00  0.00     0.029 A 
ATOM     56  N   UNL A   1      40.857  30.427  30.698  1.00  0.00    -0.354 N 
ATOM     57  C   UNL A   1      44.751  30.932  28.498  1.00  0.00     0.074 A 
ATOM     58  C   UNL A   1      44.277  30.614  27.177  1.00  0.00     0.031 C 
ATOM     59  C   UNL A   1      38.841  29.489  30.907  1.00  0.00     0.029 A 
ATOM     60  C   UNL A   1      39.562  30.732  31.115  1.00  0.00     0.049 A 
ATOM     61  H   UNL A   1      41.631  31.011  30.872  1.00  0.00     0.167 HD
ATOM     62  C   UNL A   1      45.521  31.975  28.908  1.00  0.00     0.034 A 
ATOM     63  C   UNL A   1      39.110  31.950  31.505  1.00  0.00     0.034 A 
ATOM     64  C   UNL A   1      45.817  31.928  30.308  1.00  0.00     0.049 A 
ATOM     65  C   UNL A   1      40.302  32.743  31.882  1.00  0.00     0.074 A 
ATOM     66  C   UNL A   1      46.491  31.058  31.139  1.00  0.00     0.029 A 
ATOM     67  N   UNL A   1      45.044  32.716  31.122  1.00  0.00    -0.354 N 
ATOM     68  N   UNL A   1      41.074  32.465  32.894  1.00  0.00    -0.248 NA
ATOM     69  C   UNL A   1      40.864  33.640  30.886  1.00  0.00     0.031 C 
ATOM     70  C   UNL A   1      45.748  31.061  32.356  1.00  0.00     0.029 A 
ATOM     71  C   UNL A   1      44.697  31.971  32.216  1.00  0.00     0.049 A 
ATOM     72  H   UNL A   1      44.785  33.651  30.950  1.00  0.00     0.167 HD
ATOM     73  C   UNL A   1      42.349  32.777  32.446  1.00  0.00     0.074 A 
ATOM     74  C   UNL A   1      42.145  33.600  31.257  1.00  0.00     0.031 C 
ATOM     75  C   UNL A   1      43.438  32.103  32.912  1.00  0.00     0.034 A 
BRANCH  62  76
ATOM     76  C   UNL A   1      45.678  33.234  28.100  1.00  0.00     0.023 A 
ATOM     77  C   UNL A   1      46.943  33.556  27.572  1.00  0.00     0.012 A 
ATOM     78  C   UNL A   1      44.683  34.239  28.063  1.00  0.00     0.148 A 
ATOM     79  C   UNL A   1      47.197  34.816  27.014  1.00  0.00     0.002 A 
ATOM     80  C   UNL A   1      44.913  35.455  27.437  1.00  0.00     0.091 A 
ATOM     81  F   UNL A   1      43.548  34.067  28.752  1.00  0.00    -0.205 F 
ATOM     82  C   UNL A   1      46.177  35.758  26.927  1.00  0.00     0.022 A 
BRANCH  80  83
ATOM     83  S   UNL A   1      43.615  36.684  27.264  1.00  0.00     0.127 S 
ATOM     84  O   UNL A   1      44.357  37.820  26.731  1.00  0.00    -0.237 OA
ATOM     85  O   UNL A   1      42.710  36.031  26.321  1.00  0.00    -0.237 OA
ATOM     86  O   UNL A   1      43.061  36.849  28.606  1.00  0.00    -0.744 OA
ENDBRANCH  80  83
ENDBRANCH  62  76
BRANCH  63  87
ATOM     87  C   UNL A   1      37.793  32.606  31.286  1.00  0.00     0.023 A 
ATOM     88  C   UNL A   1      37.098  32.344  30.084  1.00  0.00     0.012 A 
ATOM     89  C   UNL A   1      37.076  33.212  32.342  1.00  0.00     0.148 A 
ATOM     90  C   UNL A   1      35.727  32.603  29.965  1.00  0.00     0.002 A 
ATOM     91  C   UNL A   1      35.714  33.482  32.212  1.00  0.00     0.091 A 
ATOM     92  F   UNL A   1      37.695  33.432  33.508  1.00  0.00    -0.205 F 
ATOM     93  C   UNL A   1      35.032  33.158  31.033  1.00  0.00     0.022 A 
BRANCH  91  94
ATOM     94  S   UNL A   1      34.752  34.196  33.553  1.00  0.00     0.127 S 
ATOM     95  O   UNL A   1      35.291  33.497  34.721  1.00  0.00    -0.237 OA
ATOM     96  O   UNL A   1      35.110  35.608  33.467  1.00  0.00    -0.237 OA
ATOM     97  O   UNL A   1      33.362  33.872  33.256  1.00  0.00    -0.744 OA
ENDBRANCH  91  94
ENDBRANCH  63  87
BRANCH  75  98
ATOM     98  C   UNL A   1      43.258  31.229  34.126  1.00  0.00     0.023 A 
ATOM     99  C   UNL A   1      43.342  31.728  35.442  1.00  0.00     0.012 A 
ATOM    100  C   UNL A   1      42.811  29.915  33.918  1.00  0.00     0.148 A 
ATOM    101  C   UNL A   1      42.987  30.925  36.531  1.00  0.00     0.002 A 
ATOM    102  C   UNL A   1      42.423  29.135  34.998  1.00  0.00     0.091 A 
ATOM    103  F   UNL A   1      42.734  29.470  32.655  1.00  0.00    -0.205 F 
ATOM    104  C   UNL A   1      42.513  29.633  36.307  1.00  0.00     0.022 A 
BRANCH 102 105
ATOM    105  S   UNL A   1      41.703  27.508  34.771  1.00  0.00     0.127 S 
ATOM    106  O   UNL A   1      41.127  27.242  36.088  1.00  0.00    -0.237 OA
ATOM    107  O   UNL A   1      40.723  27.747  33.710  1.00  0.00    -0.237 OA
ATOM    108  O   UNL A   1      42.799  26.627  34.384  1.00  0.00    -0.744 OA
ENDBRANCH 102 105
ENDBRANCH  75  98
ENDBRANCH  49  50
ENDBRANCH  41  44
ENDBRANCH  39  40
ENDBRANCH  38  39
ENDBRANCH  37  38
ENDBRANCH   1  37
TORSDOF 23
ENDMDL
