MODEL 1
REMARK VINA RESULT:     -12.8      0.000      0.000
REMARK SMILES Cc1ccccc1S(=O)(=O)Nc1ccc(N2CCOCC2)cc1C(=O)NCCCCCCNC(=O)c1ccc(-c2c3nc(c(-c4cccc(S(=O)(=O)[O-])c4F)c4ccc([nH]4)c(-c4cccc(S(=O)(=O)[O-])c4F)c4nc(c(-c5cccc(S(=O)(=O)[O-])c5F)c5ccc2[nH]5)C=C4)C=C3)cc1
REMARK SMILES IDX 29 1 28 2 27 3 26 4 24 5 25 6 23 8 12 9 13 10 14 11 22 12
REMARK SMILES IDX 15 13 11 14 8 16 9 17 10 18 7 19 1 20 2 21 3 22 4 23 6 24
REMARK SMILES IDX 5 25 16 26 17 27 21 28 18 29 20 30 19 31 30 32 31 33 32 34
REMARK SMILES IDX 33 35 34 36 35 38 36 39 37 40 98 41 38 42 97 43 39 44 40 45
REMARK SMILES IDX 41 46 91 47 42 48 96 49 90 50 92 51 43 52 95 53 89 54 88 55
REMARK SMILES IDX 44 57 76 58 56 59 75 60 57 61 60 62 74 63 93 64 58 65 59 66
REMARK SMILES IDX 73 68 94 69 61 70 45 71 46 72 54 73 47 74 49 75 55 76 48 77
REMARK SMILES IDX 50 78 51 79 52 80 53 81 77 82 78 83 86 84 79 85 81 86 87 87
REMARK SMILES IDX 80 88 82 89 83 90 84 91 85 92 62 93 63 94 71 95 64 96 66 97
REMARK SMILES IDX 72 98 65 99 67 100 68 101 69 102 70 103
REMARK H PARENT 26 7 11 15 33 37 92 56 60 67
REMARK Flexibility Score: inf
ROOT
ATOM      1  C   UNL A   1      32.405  29.875  26.286  1.00  0.00     0.002 C 
ENDROOT
BRANCH   1   2
ATOM      2  C   UNL A   1      31.801  28.879  27.276  1.00  0.00     0.021 C 
BRANCH   2   3
ATOM      3  C   UNL A   1      32.143  27.405  27.109  1.00  0.00     0.116 C 
BRANCH   3   4
ATOM      4  N   UNL A   1      31.066  26.546  26.656  1.00  0.00    -0.352 N 
ATOM      5  C   UNL A   1      30.481  26.464  25.411  1.00  0.00     0.253 C 
ATOM      6  O   UNL A   1      29.702  25.546  25.173  1.00  0.00    -0.269 OA
ATOM      7  H   UNL A   1      30.699  25.934  27.335  1.00  0.00     0.163 HD
BRANCH   5   8
ATOM      8  C   UNL A   1      30.769  27.493  24.377  1.00  0.00     0.066 A 
ATOM      9  C   UNL A   1      31.900  27.380  23.559  1.00  0.00     0.062 A 
ATOM     10  C   UNL A   1      32.117  28.338  22.568  1.00  0.00     0.030 A 
ATOM     11  C   UNL A   1      31.152  29.330  22.331  1.00  0.00     0.028 A 
ATOM     12  C   UNL A   1      29.888  28.573  24.200  1.00  0.00     0.042 A 
ATOM     13  C   UNL A   1      29.994  29.446  23.115  1.00  0.00     0.038 A 
BRANCH   9  14
ATOM     14  N   UNL A   1      32.821  26.303  23.725  1.00  0.00    -0.279 N 
ATOM     15  H   UNL A   1      33.578  26.406  24.345  1.00  0.00     0.180 HD
BRANCH  14  16
ATOM     16  S   UNL A   1      32.638  24.856  22.879  1.00  0.00     0.262 S 
ATOM     17  O   UNL A   1      33.721  24.850  21.912  1.00  0.00    -0.201 OA
ATOM     18  O   UNL A   1      31.279  24.793  22.387  1.00  0.00    -0.201 OA
BRANCH  16  19
ATOM     19  C   UNL A   1      32.920  23.506  24.025  1.00  0.00     0.090 A 
ATOM     20  C   UNL A   1      35.256  24.316  24.820  1.00  0.00     0.046 C 
ATOM     21  C   UNL A   1      34.044  23.433  24.874  1.00  0.00    -0.031 A 
ATOM     22  C   UNL A   1      34.086  22.415  25.847  1.00  0.00     0.005 A 
ATOM     23  C   UNL A   1      33.029  21.525  26.020  1.00  0.00     0.000 A 
ATOM     24  C   UNL A   1      31.865  22.585  24.195  1.00  0.00     0.022 A 
ATOM     25  C   UNL A   1      31.920  21.606  25.191  1.00  0.00     0.001 A 
ENDBRANCH  16  19
ENDBRANCH  14  16
ENDBRANCH   9  14
BRANCH  13  26
ATOM     26  N   UNL A   1      28.981  30.322  22.795  1.00  0.00    -0.367 N 
ATOM     27  C   UNL A   1      28.187  30.248  21.557  1.00  0.00     0.145 C 
ATOM     28  C   UNL A   1      28.708  31.517  23.622  1.00  0.00     0.145 C 
ATOM     29  C   UNL A   1      28.261  31.576  20.790  1.00  0.00     0.181 C 
ATOM     30  C   UNL A   1      28.696  32.793  22.754  1.00  0.00     0.181 C 
ATOM     31  O   UNL A   1      27.826  32.663  21.619  1.00  0.00    -0.378 OA
ENDBRANCH  13  26
ENDBRANCH   5   8
ENDBRANCH   3   4
ENDBRANCH   2   3
ENDBRANCH   1   2
BRANCH   1  32
ATOM     32  C   UNL A   1      32.043  31.354  26.457  1.00  0.00     0.002 C 
BRANCH  32  33
ATOM     33  C   UNL A   1      32.687  32.084  27.629  1.00  0.00     0.021 C 
BRANCH  33  34
ATOM     34  C   UNL A   1      34.067  31.578  28.024  1.00  0.00     0.116 C 
BRANCH  34  35
ATOM     35  N   UNL A   1      34.559  32.182  29.254  1.00  0.00    -0.352 N 
ATOM     36  C   UNL A   1      35.503  31.703  30.143  1.00  0.00     0.251 C 
ATOM     37  H   UNL A   1      34.163  33.052  29.486  1.00  0.00     0.163 HD
ATOM     38  O   UNL A   1      35.662  32.260  31.228  1.00  0.00    -0.269 OA
BRANCH  36  39
ATOM     39  C   UNL A   1      36.405  30.616  29.703  1.00  0.00     0.039 A 
ATOM     40  C   UNL A   1      36.644  29.580  30.613  1.00  0.00     0.014 A 
ATOM     41  C   UNL A   1      37.213  30.777  28.584  1.00  0.00     0.014 A 
ATOM     42  C   UNL A   1      37.846  28.882  30.557  1.00  0.00     0.010 A 
ATOM     43  C   UNL A   1      38.444  30.159  28.577  1.00  0.00     0.010 A 
ATOM     44  C   UNL A   1      38.782  29.267  29.605  1.00  0.00    -0.014 A 
BRANCH  44  45
ATOM     45  C   UNL A   1      40.162  28.821  29.582  1.00  0.00     0.031 A 
ATOM     46  C   UNL A   1      40.455  27.410  29.268  1.00  0.00     0.074 A 
ATOM     47  C   UNL A   1      41.146  29.747  29.620  1.00  0.00     0.049 A 
ATOM     48  N   UNL A   1      41.626  26.884  29.368  1.00  0.00    -0.248 NA
ATOM     49  C   UNL A   1      39.421  26.455  28.872  1.00  0.00     0.031 C 
ATOM     50  C   UNL A   1      42.507  29.596  29.118  1.00  0.00     0.029 A 
ATOM     51  N   UNL A   1      41.171  30.956  30.327  1.00  0.00    -0.354 N 
ATOM     52  C   UNL A   1      41.566  25.653  28.758  1.00  0.00     0.074 A 
ATOM     53  C   UNL A   1      40.161  25.373  28.610  1.00  0.00     0.031 C 
ATOM     54  C   UNL A   1      43.294  30.489  29.733  1.00  0.00     0.029 A 
ATOM     55  C   UNL A   1      42.496  31.118  30.770  1.00  0.00     0.049 A 
ATOM     56  H   UNL A   1      40.416  31.569  30.481  1.00  0.00     0.167 HD
ATOM     57  C   UNL A   1      42.722  25.097  28.310  1.00  0.00     0.034 A 
ATOM     58  C   UNL A   1      42.864  31.219  32.080  1.00  0.00     0.034 A 
ATOM     59  C   UNL A   1      43.887  25.797  28.865  1.00  0.00     0.049 A 
ATOM     60  C   UNL A   1      43.839  30.140  32.517  1.00  0.00     0.074 A 
ATOM     61  C   UNL A   1      44.793  26.701  28.342  1.00  0.00     0.029 A 
ATOM     62  N   UNL A   1      44.082  25.793  30.243  1.00  0.00    -0.354 N 
ATOM     63  N   UNL A   1      44.188  29.125  31.775  1.00  0.00    -0.248 NA
ATOM     64  C   UNL A   1      44.484  30.104  33.828  1.00  0.00     0.031 C 
ATOM     65  C   UNL A   1      45.452  27.333  29.435  1.00  0.00     0.029 A 
ATOM     66  C   UNL A   1      44.984  26.777  30.615  1.00  0.00     0.049 A 
ATOM     67  H   UNL A   1      43.640  25.175  30.868  1.00  0.00     0.167 HD
ATOM     68  C   UNL A   1      44.956  28.252  32.502  1.00  0.00     0.074 A 
ATOM     69  C   UNL A   1      45.178  28.954  33.755  1.00  0.00     0.031 C 
ATOM     70  C   UNL A   1      45.284  27.008  32.028  1.00  0.00     0.034 A 
BRANCH  57  71
ATOM     71  C   UNL A   1      42.836  24.041  27.223  1.00  0.00     0.023 A 
ATOM     72  C   UNL A   1      43.422  24.441  26.001  1.00  0.00     0.012 A 
ATOM     73  C   UNL A   1      42.304  22.727  27.251  1.00  0.00     0.148 A 
ATOM     74  C   UNL A   1      43.463  23.606  24.877  1.00  0.00     0.002 A 
ATOM     75  C   UNL A   1      42.408  21.868  26.152  1.00  0.00     0.091 A 
ATOM     76  F   UNL A   1      41.594  22.307  28.300  1.00  0.00    -0.205 F 
ATOM     77  C   UNL A   1      42.971  22.311  24.955  1.00  0.00     0.022 A 
BRANCH  75  78
ATOM     78  S   UNL A   1      41.833  20.159  26.210  1.00  0.00     0.127 S 
ATOM     79  O   UNL A   1      42.502  19.569  25.051  1.00  0.00    -0.237 OA
ATOM     80  O   UNL A   1      42.339  19.699  27.504  1.00  0.00    -0.237 OA
ATOM     81  O   UNL A   1      40.378  20.219  26.126  1.00  0.00    -0.744 OA
ENDBRANCH  75  78
ENDBRANCH  57  71
BRANCH  58  82
ATOM     82  C   UNL A   1      41.863  31.903  32.943  1.00  0.00     0.023 A 
ATOM     83  C   UNL A   1      41.551  33.240  32.603  1.00  0.00     0.012 A 
ATOM     84  C   UNL A   1      40.973  31.180  33.756  1.00  0.00     0.148 A 
ATOM     85  C   UNL A   1      40.330  33.808  32.968  1.00  0.00     0.002 A 
ATOM     86  C   UNL A   1      39.745  31.748  34.099  1.00  0.00     0.091 A 
ATOM     87  F   UNL A   1      41.288  29.920  34.079  1.00  0.00    -0.205 F 
ATOM     88  C   UNL A   1      39.414  33.049  33.684  1.00  0.00     0.022 A 
BRANCH  86  89
ATOM     89  S   UNL A   1      38.443  30.818  34.920  1.00  0.00     0.127 S 
ATOM     90  O   UNL A   1      37.388  31.821  35.027  1.00  0.00    -0.237 OA
ATOM     91  O   UNL A   1      38.184  29.753  33.953  1.00  0.00    -0.237 OA
ATOM     92  O   UNL A   1      39.025  30.367  36.175  1.00  0.00    -0.744 OA
ENDBRANCH  86  89
ENDBRANCH  58  82
BRANCH  70  93
ATOM     93  C   UNL A   1      45.898  25.884  32.850  1.00  0.00     0.023 A 
ATOM     94  C   UNL A   1      47.280  25.803  33.111  1.00  0.00     0.012 A 
ATOM     95  C   UNL A   1      45.076  24.939  33.523  1.00  0.00     0.148 A 
ATOM     96  C   UNL A   1      47.828  24.812  33.936  1.00  0.00     0.002 A 
ATOM     97  C   UNL A   1      45.614  24.027  34.430  1.00  0.00     0.091 A 
ATOM     98  F   UNL A   1      43.758  24.903  33.278  1.00  0.00    -0.205 F 
ATOM     99  C   UNL A   1      46.993  23.936  34.614  1.00  0.00     0.022 A 
BRANCH  97 100
ATOM    100  S   UNL A   1      44.541  23.062  35.505  1.00  0.00     0.127 S 
ATOM    101  O   UNL A   1      43.515  24.036  35.870  1.00  0.00    -0.237 OA
ATOM    102  O   UNL A   1      44.076  21.994  34.618  1.00  0.00    -0.237 OA
ATOM    103  O   UNL A   1      45.412  22.603  36.580  1.00  0.00    -0.744 OA
ENDBRANCH  97 100
ENDBRANCH  70  93
ENDBRANCH  44  45
ENDBRANCH  36  39
ENDBRANCH  34  35
ENDBRANCH  33  34
ENDBRANCH  32  33
ENDBRANCH   1  32
TORSDOF 20
ENDMDL
MODEL 2
REMARK VINA RESULT:     -12.4      4.475     10.173
REMARK SMILES Cc1ccccc1S(=O)(=O)Nc1ccc(N2CCOCC2)cc1C(=O)NCCCCCCNC(=O)c1ccc(-c2c3nc(c(-c4cccc(S(=O)(=O)[O-])c4F)c4ccc([nH]4)c(-c4cccc(S(=O)(=O)[O-])c4F)c4nc(c(-c5cccc(S(=O)(=O)[O-])c5F)c5ccc2[nH]5)C=C4)C=C3)cc1
REMARK SMILES IDX 29 1 28 2 27 3 26 4 24 5 25 6 23 8 12 9 13 10 14 11 22 12
REMARK SMILES IDX 15 13 11 14 8 16 9 17 10 18 7 19 1 20 2 21 3 22 4 23 6 24
REMARK SMILES IDX 5 25 16 26 17 27 21 28 18 29 20 30 19 31 30 32 31 33 32 34
REMARK SMILES IDX 33 35 34 36 35 38 36 39 37 40 98 41 38 42 97 43 39 44 40 45
REMARK SMILES IDX 41 46 91 47 42 48 96 49 90 50 92 51 43 52 95 53 89 54 88 55
REMARK SMILES IDX 44 57 76 58 56 59 75 60 57 61 60 62 74 63 93 64 58 65 59 66
REMARK SMILES IDX 73 68 94 69 61 70 45 71 46 72 54 73 47 74 49 75 55 76 48 77
REMARK SMILES IDX 50 78 51 79 52 80 53 81 77 82 78 83 86 84 79 85 81 86 87 87
REMARK SMILES IDX 80 88 82 89 83 90 84 91 85 92 62 93 63 94 71 95 64 96 66 97
REMARK SMILES IDX 72 98 65 99 67 100 68 101 69 102 70 103
REMARK H PARENT 26 7 11 15 33 37 92 56 60 67
REMARK Flexibility Score: inf
ROOT
ATOM      1  C   UNL A   1      37.597  24.022  26.009  1.00  0.00     0.002 C 
ENDROOT
BRANCH   1   2
ATOM      2  C   UNL A   1      37.554  22.550  25.601  1.00  0.00     0.021 C 
BRANCH   2   3
ATOM      3  C   UNL A   1      36.278  21.766  25.879  1.00  0.00     0.116 C 
BRANCH   3   4
ATOM      4  N   UNL A   1      35.265  22.450  26.660  1.00  0.00    -0.352 N 
ATOM      5  C   UNL A   1      33.893  22.388  26.552  1.00  0.00     0.253 C 
ATOM      6  O   UNL A   1      33.198  22.902  27.424  1.00  0.00    -0.269 OA
ATOM      7  H   UNL A   1      35.605  23.044  27.368  1.00  0.00     0.163 HD
BRANCH   5   8
ATOM      8  C   UNL A   1      33.260  21.729  25.379  1.00  0.00     0.066 A 
ATOM      9  C   UNL A   1      32.934  22.472  24.237  1.00  0.00     0.062 A 
ATOM     10  C   UNL A   1      32.383  21.816  23.137  1.00  0.00     0.030 A 
ATOM     11  C   UNL A   1      32.265  20.416  23.144  1.00  0.00     0.028 A 
ATOM     12  C   UNL A   1      33.009  20.347  25.403  1.00  0.00     0.042 A 
ATOM     13  C   UNL A   1      32.615  19.645  24.262  1.00  0.00     0.038 A 
BRANCH   9  14
ATOM     14  N   UNL A   1      33.163  23.880  24.188  1.00  0.00    -0.279 N 
ATOM     15  H   UNL A   1      34.073  24.225  24.333  1.00  0.00     0.180 HD
BRANCH  14  16
ATOM     16  S   UNL A   1      31.907  24.963  23.887  1.00  0.00     0.262 S 
ATOM     17  O   UNL A   1      30.754  24.392  24.558  1.00  0.00    -0.201 OA
ATOM     18  O   UNL A   1      31.833  25.176  22.457  1.00  0.00    -0.201 OA
BRANCH  16  19
ATOM     19  C   UNL A   1      32.304  26.510  24.699  1.00  0.00     0.090 A 
ATOM     20  C   UNL A   1      30.185  27.781  23.898  1.00  0.00     0.046 C 
ATOM     21  C   UNL A   1      31.437  27.624  24.709  1.00  0.00    -0.031 A 
ATOM     22  C   UNL A   1      31.776  28.732  25.511  1.00  0.00     0.005 A 
ATOM     23  C   UNL A   1      32.906  28.727  26.324  1.00  0.00     0.000 A 
ATOM     24  C   UNL A   1      33.457  26.526  25.511  1.00  0.00     0.022 A 
ATOM     25  C   UNL A   1      33.751  27.626  26.321  1.00  0.00     0.001 A 
ENDBRANCH  16  19
ENDBRANCH  14  16
ENDBRANCH   9  14
BRANCH  13  26
ATOM     26  N   UNL A   1      32.638  18.268  24.222  1.00  0.00    -0.367 N 
ATOM     27  C   UNL A   1      32.441  17.406  25.400  1.00  0.00     0.145 C 
ATOM     28  C   UNL A   1      33.017  17.540  22.992  1.00  0.00     0.145 C 
ATOM     29  C   UNL A   1      33.631  16.452  25.573  1.00  0.00     0.181 C 
ATOM     30  C   UNL A   1      34.146  16.528  23.281  1.00  0.00     0.181 C 
ATOM     31  O   UNL A   1      33.829  15.670  24.387  1.00  0.00    -0.378 OA
ENDBRANCH  13  26
ENDBRANCH   5   8
ENDBRANCH   3   4
ENDBRANCH   2   3
ENDBRANCH   1   2
BRANCH   1  32
ATOM     32  C   UNL A   1      38.678  24.450  27.007  1.00  0.00     0.002 C 
BRANCH  32  33
ATOM     33  C   UNL A   1      40.116  24.441  26.501  1.00  0.00     0.021 C 
BRANCH  33  34
ATOM     34  C   UNL A   1      40.924  23.209  26.879  1.00  0.00     0.116 C 
BRANCH  34  35
ATOM     35  N   UNL A   1      41.717  22.693  25.772  1.00  0.00    -0.352 N 
ATOM     36  C   UNL A   1      42.855  23.225  25.193  1.00  0.00     0.251 C 
ATOM     37  H   UNL A   1      41.400  21.848  25.381  1.00  0.00     0.163 HD
ATOM     38  O   UNL A   1      43.289  22.750  24.145  1.00  0.00    -0.269 OA
BRANCH  36  39
ATOM     39  C   UNL A   1      43.607  24.264  25.930  1.00  0.00     0.039 A 
ATOM     40  C   UNL A   1      43.774  24.073  27.306  1.00  0.00     0.014 A 
ATOM     41  C   UNL A   1      43.852  25.503  25.351  1.00  0.00     0.014 A 
ATOM     42  C   UNL A   1      43.914  25.178  28.139  1.00  0.00     0.010 A 
ATOM     43  C   UNL A   1      43.895  26.607  26.173  1.00  0.00     0.010 A 
ATOM     44  C   UNL A   1      43.853  26.442  27.565  1.00  0.00    -0.014 A 
BRANCH  44  45
ATOM     45  C   UNL A   1      43.726  27.678  28.312  1.00  0.00     0.031 A 
ATOM     46  C   UNL A   1      42.421  28.365  28.346  1.00  0.00     0.074 A 
ATOM     47  C   UNL A   1      44.730  28.045  29.141  1.00  0.00     0.049 A 
ATOM     48  N   UNL A   1      42.243  29.536  28.852  1.00  0.00    -0.248 NA
ATOM     49  C   UNL A   1      41.213  27.802  27.746  1.00  0.00     0.031 C 
ATOM     50  C   UNL A   1      44.626  28.910  30.310  1.00  0.00     0.029 A 
ATOM     51  N   UNL A   1      46.109  27.877  28.958  1.00  0.00    -0.354 N 
ATOM     52  C   UNL A   1      40.885  29.734  28.936  1.00  0.00     0.074 A 
ATOM     53  C   UNL A   1      40.302  28.713  28.104  1.00  0.00     0.031 C 
ATOM     54  C   UNL A   1      45.837  29.417  30.580  1.00  0.00     0.029 A 
ATOM     55  C   UNL A   1      46.714  29.029  29.490  1.00  0.00     0.049 A 
ATOM     56  H   UNL A   1      46.562  27.107  28.543  1.00  0.00     0.167 HD
ATOM     57  C   UNL A   1      40.418  30.644  29.830  1.00  0.00     0.034 A 
ATOM     58  C   UNL A   1      47.491  29.892  28.774  1.00  0.00     0.034 A 
ATOM     59  C   UNL A   1      41.508  31.494  30.326  1.00  0.00     0.049 A 
ATOM     60  C   UNL A   1      46.959  31.314  28.761  1.00  0.00     0.074 A 
ATOM     61  C   UNL A   1      42.212  31.543  31.514  1.00  0.00     0.029 A 
ATOM     62  N   UNL A   1      42.193  32.303  29.425  1.00  0.00    -0.354 N 
ATOM     63  N   UNL A   1      45.803  31.667  29.252  1.00  0.00    -0.248 NA
ATOM     64  C   UNL A   1      47.673  32.448  28.178  1.00  0.00     0.031 C 
ATOM     65  C   UNL A   1      43.399  32.294  31.281  1.00  0.00     0.029 A 
ATOM     66  C   UNL A   1      43.390  32.742  29.970  1.00  0.00     0.049 A 
ATOM     67  H   UNL A   1      41.873  32.533  28.523  1.00  0.00     0.167 HD
ATOM     68  C   UNL A   1      45.545  32.980  28.953  1.00  0.00     0.074 A 
ATOM     69  C   UNL A   1      46.785  33.443  28.351  1.00  0.00     0.031 C 
ATOM     70  C   UNL A   1      44.315  33.545  29.171  1.00  0.00     0.034 A 
BRANCH  57  71
ATOM     71  C   UNL A   1      39.018  30.671  30.421  1.00  0.00     0.023 A 
ATOM     72  C   UNL A   1      38.576  29.499  31.076  1.00  0.00     0.012 A 
ATOM     73  C   UNL A   1      38.052  31.700  30.279  1.00  0.00     0.148 A 
ATOM     74  C   UNL A   1      37.265  29.347  31.543  1.00  0.00     0.002 A 
ATOM     75  C   UNL A   1      36.763  31.577  30.807  1.00  0.00     0.091 A 
ATOM     76  F   UNL A   1      38.318  32.780  29.543  1.00  0.00    -0.205 F 
ATOM     77  C   UNL A   1      36.359  30.392  31.424  1.00  0.00     0.022 A 
BRANCH  75  78
ATOM     78  S   UNL A   1      35.560  32.918  30.730  1.00  0.00     0.127 S 
ATOM     79  O   UNL A   1      35.362  33.071  29.288  1.00  0.00    -0.237 OA
ATOM     80  O   UNL A   1      34.413  32.356  31.445  1.00  0.00    -0.237 OA
ATOM     81  O   UNL A   1      36.180  34.056  31.398  1.00  0.00    -0.744 OA
ENDBRANCH  75  78
ENDBRANCH  57  71
BRANCH  58  82
ATOM     82  C   UNL A   1      48.294  29.243  27.702  1.00  0.00     0.023 A 
ATOM     83  C   UNL A   1      49.420  28.500  28.126  1.00  0.00     0.012 A 
ATOM     84  C   UNL A   1      47.763  29.008  26.422  1.00  0.00     0.148 A 
ATOM     85  C   UNL A   1      49.937  27.468  27.341  1.00  0.00     0.002 A 
ATOM     86  C   UNL A   1      48.272  27.961  25.653  1.00  0.00     0.091 A 
ATOM     87  F   UNL A   1      46.704  29.728  26.031  1.00  0.00    -0.205 F 
ATOM     88  C   UNL A   1      49.339  27.176  26.122  1.00  0.00     0.022 A 
BRANCH  86  89
ATOM     89  S   UNL A   1      47.503  27.423  24.118  1.00  0.00     0.127 S 
ATOM     90  O   UNL A   1      46.240  28.153  24.151  1.00  0.00    -0.237 OA
ATOM     91  O   UNL A   1      48.463  27.898  23.124  1.00  0.00    -0.237 OA
ATOM     92  O   UNL A   1      47.406  25.975  24.223  1.00  0.00    -0.744 OA
ENDBRANCH  86  89
ENDBRANCH  58  82
BRANCH  70  93
ATOM     93  C   UNL A   1      43.857  34.896  28.638  1.00  0.00     0.023 A 
ATOM     94  C   UNL A   1      42.896  35.021  27.615  1.00  0.00     0.012 A 
ATOM     95  C   UNL A   1      44.272  36.104  29.261  1.00  0.00     0.148 A 
ATOM     96  C   UNL A   1      42.420  36.267  27.186  1.00  0.00     0.002 A 
ATOM     97  C   UNL A   1      43.711  37.331  28.907  1.00  0.00     0.091 A 
ATOM     98  F   UNL A   1      45.232  36.080  30.196  1.00  0.00    -0.205 F 
ATOM     99  C   UNL A   1      42.810  37.422  27.847  1.00  0.00     0.022 A 
BRANCH  97 100
ATOM    100  S   UNL A   1      44.005  38.796  29.910  1.00  0.00     0.127 S 
ATOM    101  O   UNL A   1      43.003  39.726  29.396  1.00  0.00    -0.237 OA
ATOM    102  O   UNL A   1      43.744  38.312  31.268  1.00  0.00    -0.237 OA
ATOM    103  O   UNL A   1      45.399  39.141  29.661  1.00  0.00    -0.744 OA
ENDBRANCH  97 100
ENDBRANCH  70  93
ENDBRANCH  44  45
ENDBRANCH  36  39
ENDBRANCH  34  35
ENDBRANCH  33  34
ENDBRANCH  32  33
ENDBRANCH   1  32
TORSDOF 20
ENDMDL
MODEL 3
REMARK VINA RESULT:     -12.3      4.429     10.266
REMARK SMILES Cc1ccccc1S(=O)(=O)Nc1ccc(N2CCOCC2)cc1C(=O)NCCCCCCNC(=O)c1ccc(-c2c3nc(c(-c4cccc(S(=O)(=O)[O-])c4F)c4ccc([nH]4)c(-c4cccc(S(=O)(=O)[O-])c4F)c4nc(c(-c5cccc(S(=O)(=O)[O-])c5F)c5ccc2[nH]5)C=C4)C=C3)cc1
REMARK SMILES IDX 29 1 28 2 27 3 26 4 24 5 25 6 23 8 12 9 13 10 14 11 22 12
REMARK SMILES IDX 15 13 11 14 8 16 9 17 10 18 7 19 1 20 2 21 3 22 4 23 6 24
REMARK SMILES IDX 5 25 16 26 17 27 21 28 18 29 20 30 19 31 30 32 31 33 32 34
REMARK SMILES IDX 33 35 34 36 35 38 36 39 37 40 98 41 38 42 97 43 39 44 40 45
REMARK SMILES IDX 41 46 91 47 42 48 96 49 90 50 92 51 43 52 95 53 89 54 88 55
REMARK SMILES IDX 44 57 76 58 56 59 75 60 57 61 60 62 74 63 93 64 58 65 59 66
REMARK SMILES IDX 73 68 94 69 61 70 45 71 46 72 54 73 47 74 49 75 55 76 48 77
REMARK SMILES IDX 50 78 51 79 52 80 53 81 77 82 78 83 86 84 79 85 81 86 87 87
REMARK SMILES IDX 80 88 82 89 83 90 84 91 85 92 62 93 63 94 71 95 64 96 66 97
REMARK SMILES IDX 72 98 65 99 67 100 68 101 69 102 70 103
REMARK H PARENT 26 7 11 15 33 37 92 56 60 67
REMARK Flexibility Score: inf
ROOT
ATOM      1  C   UNL A   1      37.332  23.987  25.880  1.00  0.00     0.002 C 
ENDROOT
BRANCH   1   2
ATOM      2  C   UNL A   1      36.862  22.651  25.304  1.00  0.00     0.021 C 
BRANCH   2   3
ATOM      3  C   UNL A   1      35.930  21.794  26.151  1.00  0.00     0.116 C 
BRANCH   3   4
ATOM      4  N   UNL A   1      34.853  22.494  26.824  1.00  0.00    -0.352 N 
ATOM      5  C   UNL A   1      33.496  22.437  26.589  1.00  0.00     0.253 C 
ATOM      6  O   UNL A   1      32.727  22.967  27.385  1.00  0.00    -0.269 OA
ATOM      7  H   UNL A   1      35.130  23.097  27.552  1.00  0.00     0.163 HD
BRANCH   5   8
ATOM      8  C   UNL A   1      32.972  21.764  25.372  1.00  0.00     0.066 A 
ATOM      9  C   UNL A   1      32.676  22.507  24.221  1.00  0.00     0.062 A 
ATOM     10  C   UNL A   1      32.228  21.839  23.082  1.00  0.00     0.030 A 
ATOM     11  C   UNL A   1      32.185  20.435  23.064  1.00  0.00     0.028 A 
ATOM     12  C   UNL A   1      32.794  20.370  25.364  1.00  0.00     0.042 A 
ATOM     13  C   UNL A   1      32.507  19.666  24.192  1.00  0.00     0.038 A 
BRANCH   9  14
ATOM     14  N   UNL A   1      32.833  23.925  24.203  1.00  0.00    -0.279 N 
ATOM     15  H   UNL A   1      33.738  24.310  24.218  1.00  0.00     0.180 HD
BRANCH  14  16
ATOM     16  S   UNL A   1      31.498  24.954  24.158  1.00  0.00     0.262 S 
ATOM     17  O   UNL A   1      30.576  24.412  25.140  1.00  0.00    -0.201 OA
ATOM     18  O   UNL A   1      31.056  25.052  22.783  1.00  0.00    -0.201 OA
BRANCH  16  19
ATOM     19  C   UNL A   1      32.024  26.568  24.731  1.00  0.00     0.090 A 
ATOM     20  C   UNL A   1      34.396  25.823  25.482  1.00  0.00     0.046 C 
ATOM     21  C   UNL A   1      33.330  26.837  25.195  1.00  0.00    -0.031 A 
ATOM     22  C   UNL A   1      33.683  28.174  25.469  1.00  0.00     0.005 A 
ATOM     23  C   UNL A   1      32.797  29.225  25.244  1.00  0.00     0.000 A 
ATOM     24  C   UNL A   1      31.129  27.639  24.527  1.00  0.00     0.022 A 
ATOM     25  C   UNL A   1      31.518  28.958  24.777  1.00  0.00     0.001 A 
ENDBRANCH  16  19
ENDBRANCH  14  16
ENDBRANCH   9  14
BRANCH  13  26
ATOM     26  N   UNL A   1      32.606  18.293  24.137  1.00  0.00    -0.367 N 
ATOM     27  C   UNL A   1      32.474  17.410  25.308  1.00  0.00     0.145 C 
ATOM     28  C   UNL A   1      33.008  17.600  22.894  1.00  0.00     0.145 C 
ATOM     29  C   UNL A   1      33.718  16.522  25.455  1.00  0.00     0.181 C 
ATOM     30  C   UNL A   1      34.195  16.650  23.157  1.00  0.00     0.181 C 
ATOM     31  O   UNL A   1      33.942  15.764  24.258  1.00  0.00    -0.378 OA
ENDBRANCH  13  26
ENDBRANCH   5   8
ENDBRANCH   3   4
ENDBRANCH   2   3
ENDBRANCH   1   2
BRANCH   1  32
ATOM     32  C   UNL A   1      38.531  23.965  26.834  1.00  0.00     0.002 C 
BRANCH  32  33
ATOM     33  C   UNL A   1      39.760  23.194  26.369  1.00  0.00     0.021 C 
BRANCH  33  34
ATOM     34  C   UNL A   1      40.163  22.026  27.259  1.00  0.00     0.116 C 
BRANCH  34  35
ATOM     35  N   UNL A   1      41.004  21.057  26.571  1.00  0.00    -0.352 N 
ATOM     36  C   UNL A   1      42.339  21.153  26.225  1.00  0.00     0.251 C 
ATOM     37  H   UNL A   1      40.561  20.217  26.316  1.00  0.00     0.163 HD
ATOM     38  O   UNL A   1      42.842  20.311  25.482  1.00  0.00    -0.269 OA
BRANCH  36  39
ATOM     39  C   UNL A   1      43.169  22.189  26.878  1.00  0.00     0.039 A 
ATOM     40  C   UNL A   1      43.074  22.298  28.270  1.00  0.00     0.014 A 
ATOM     41  C   UNL A   1      43.759  23.199  26.126  1.00  0.00     0.014 A 
ATOM     42  C   UNL A   1      43.312  23.525  28.879  1.00  0.00     0.010 A 
ATOM     43  C   UNL A   1      43.905  24.439  26.706  1.00  0.00     0.010 A 
ATOM     44  C   UNL A   1      43.611  24.612  28.066  1.00  0.00    -0.014 A 
BRANCH  44  45
ATOM     45  C   UNL A   1      43.632  25.991  28.514  1.00  0.00     0.031 A 
ATOM     46  C   UNL A   1      42.383  26.775  28.485  1.00  0.00     0.074 A 
ATOM     47  C   UNL A   1      44.730  26.450  29.157  1.00  0.00     0.049 A 
ATOM     48  N   UNL A   1      42.327  28.040  28.718  1.00  0.00    -0.248 NA
ATOM     49  C   UNL A   1      41.092  26.193  28.124  1.00  0.00     0.031 C 
ATOM     50  C   UNL A   1      44.789  27.562  30.099  1.00  0.00     0.029 A 
ATOM     51  N   UNL A   1      46.072  26.130  28.916  1.00  0.00    -0.354 N 
ATOM     52  C   UNL A   1      40.999  28.365  28.855  1.00  0.00     0.074 A 
ATOM     53  C   UNL A   1      40.277  27.234  28.329  1.00  0.00     0.031 C 
ATOM     54  C   UNL A   1      46.050  28.014  30.153  1.00  0.00     0.029 A 
ATOM     55  C   UNL A   1      46.797  27.319  29.120  1.00  0.00     0.049 A 
ATOM     56  H   UNL A   1      46.435  25.252  28.658  1.00  0.00     0.167 HD
ATOM     57  C   UNL A   1      40.675  29.488  29.547  1.00  0.00     0.034 A 
ATOM     58  C   UNL A   1      47.558  27.929  28.167  1.00  0.00     0.034 A 
ATOM     59  C   UNL A   1      41.858  30.335  29.749  1.00  0.00     0.049 A 
ATOM     60  C   UNL A   1      47.120  29.351  27.865  1.00  0.00     0.074 A 
ATOM     61  C   UNL A   1      42.671  30.591  30.837  1.00  0.00     0.029 A 
ATOM     62  N   UNL A   1      42.509  30.859  28.636  1.00  0.00    -0.354 N 
ATOM     63  N   UNL A   1      46.038  29.901  28.346  1.00  0.00    -0.248 NA
ATOM     64  C   UNL A   1      47.849  30.261  26.984  1.00  0.00     0.031 C 
ATOM     65  C   UNL A   1      43.877  31.168  30.348  1.00  0.00     0.029 A 
ATOM     66  C   UNL A   1      43.776  31.309  28.973  1.00  0.00     0.049 A 
ATOM     67  H   UNL A   1      42.122  30.906  27.732  1.00  0.00     0.167 HD
ATOM     68  C   UNL A   1      45.839  31.130  27.770  1.00  0.00     0.074 A 
ATOM     69  C   UNL A   1      47.045  31.340  26.987  1.00  0.00     0.031 C 
ATOM     70  C   UNL A   1      44.673  31.830  27.943  1.00  0.00     0.034 A 
BRANCH  57  71
ATOM     71  C   UNL A   1      39.341  29.765  30.218  1.00  0.00     0.023 A 
ATOM     72  C   UNL A   1      38.441  28.681  30.327  1.00  0.00     0.012 A 
ATOM     73  C   UNL A   1      38.841  31.025  30.637  1.00  0.00     0.148 A 
ATOM     74  C   UNL A   1      37.131  28.834  30.800  1.00  0.00     0.002 A 
ATOM     75  C   UNL A   1      37.558  31.166  31.175  1.00  0.00     0.091 A 
ATOM     76  F   UNL A   1      39.552  32.136  30.431  1.00  0.00    -0.205 F 
ATOM     77  C   UNL A   1      36.693  30.074  31.241  1.00  0.00     0.022 A 
BRANCH  75  78
ATOM     78  S   UNL A   1      36.950  32.741  31.811  1.00  0.00     0.127 S 
ATOM     79  O   UNL A   1      35.643  32.370  32.352  1.00  0.00    -0.237 OA
ATOM     80  O   UNL A   1      37.952  33.082  32.822  1.00  0.00    -0.237 OA
ATOM     81  O   UNL A   1      36.918  33.651  30.673  1.00  0.00    -0.744 OA
ENDBRANCH  75  78
ENDBRANCH  57  71
BRANCH  58  82
ATOM     82  C   UNL A   1      48.216  26.990  27.218  1.00  0.00     0.023 A 
ATOM     83  C   UNL A   1      47.489  26.670  26.048  1.00  0.00     0.012 A 
ATOM     84  C   UNL A   1      49.604  26.768  27.243  1.00  0.00     0.148 A 
ATOM     85  C   UNL A   1      48.143  26.248  24.889  1.00  0.00     0.002 A 
ATOM     86  C   UNL A   1      50.252  26.366  26.075  1.00  0.00     0.091 A 
ATOM     87  F   UNL A   1      50.275  27.064  28.363  1.00  0.00    -0.205 F 
ATOM     88  C   UNL A   1      49.527  26.131  24.894  1.00  0.00     0.022 A 
BRANCH  86  89
ATOM     89  S   UNL A   1      52.044  26.296  25.936  1.00  0.00     0.127 S 
ATOM     90  O   UNL A   1      52.420  27.663  26.284  1.00  0.00    -0.237 OA
ATOM     91  O   UNL A   1      52.380  25.289  26.940  1.00  0.00    -0.237 OA
ATOM     92  O   UNL A   1      52.308  25.892  24.563  1.00  0.00    -0.744 OA
ENDBRANCH  86  89
ENDBRANCH  58  82
BRANCH  70  93
ATOM     93  C   UNL A   1      44.256  33.059  27.148  1.00  0.00     0.023 A 
ATOM     94  C   UNL A   1      44.126  33.047  25.745  1.00  0.00     0.012 A 
ATOM     95  C   UNL A   1      43.828  34.244  27.807  1.00  0.00     0.148 A 
ATOM     96  C   UNL A   1      43.663  34.158  25.028  1.00  0.00     0.002 A 
ATOM     97  C   UNL A   1      43.264  35.304  27.098  1.00  0.00     0.091 A 
ATOM     98  F   UNL A   1      43.981  34.364  29.134  1.00  0.00    -0.205 F 
ATOM     99  C   UNL A   1      43.210  35.280  25.705  1.00  0.00     0.022 A 
BRANCH  97 100
ATOM    100  S   UNL A   1      42.441  36.650  27.964  1.00  0.00     0.127 S 
ATOM    101  O   UNL A   1      41.442  35.940  28.758  1.00  0.00    -0.237 OA
ATOM    102  O   UNL A   1      43.530  37.241  28.746  1.00  0.00    -0.237 OA
ATOM    103  O   UNL A   1      41.935  37.514  26.906  1.00  0.00    -0.744 OA
ENDBRANCH  97 100
ENDBRANCH  70  93
ENDBRANCH  44  45
ENDBRANCH  36  39
ENDBRANCH  34  35
ENDBRANCH  33  34
ENDBRANCH  32  33
ENDBRANCH   1  32
TORSDOF 20
ENDMDL
