MODEL 1
REMARK VINA RESULT:     -11.7      0.000      0.000
REMARK SMILES [NH3+]C1(C(=O)N2[C@@H](C(=O)NCCCCCCNC(=O)c3ccc(-c4c5nc(c(-c6cccc(S(=O)(=O)[O-])c6F)c6ccc([nH]6)c(-c6cccc(S(=O)(=O)[O-])c6F)c6nc(c(-c7cccc(S(=O)(=O)[O-])c7F)c7ccc4[nH]7)C=C6)C=C5)cc3)CC[C@@H]3CCCC[C@@H]32)CC1
REMARK SMILES IDX 12 1 11 2 10 3 9 4 7 5 8 6 6 8 5 9 89 10 82 11 84 12 88 13
REMARK SMILES IDX 83 14 85 15 87 16 86 17 3 18 4 19 2 20 90 21 91 22 1 23
REMARK SMILES IDX 13 27 14 28 15 29 16 30 17 31 18 33 19 34 20 35 81 36 21 37
REMARK SMILES IDX 80 38 22 39 23 40 24 41 74 42 25 43 79 44 73 45 75 46 26 47
REMARK SMILES IDX 78 48 72 49 71 50 27 52 59 53 39 54 58 55 40 56 43 57 57 58
REMARK SMILES IDX 76 59 41 60 42 61 56 63 77 64 44 65 28 66 29 67 37 68 30 69
REMARK SMILES IDX 32 70 38 71 31 72 33 73 34 74 35 75 36 76 60 77 61 78 69 79
REMARK SMILES IDX 62 80 64 81 70 82 63 83 65 84 66 85 67 86 68 87 45 88 46 89
REMARK SMILES IDX 54 90 47 91 49 92 55 93 48 94 50 95 51 96 52 97 53 98
REMARK H PARENT 9 7 1 24 1 25 1 26 16 32 75 51 43 62
REMARK Flexibility Score: inf
ROOT
ATOM      1  C   UNL A   1      33.951  22.804  24.249  1.00  0.00     0.002 C 
ENDROOT
BRANCH   1   2
ATOM      2  C   UNL A   1      32.963  22.493  23.115  1.00  0.00     0.021 C 
BRANCH   2   3
ATOM      3  C   UNL A   1      31.733  23.399  23.114  1.00  0.00     0.116 C 
BRANCH   3   4
ATOM      4  N   UNL A   1      31.879  24.406  22.085  1.00  0.00    -0.354 N 
ATOM      5  C   UNL A   1      31.820  25.755  22.199  1.00  0.00     0.242 C 
ATOM      6  O   UNL A   1      31.522  26.403  21.189  1.00  0.00    -0.273 OA
ATOM      7  H   UNL A   1      32.043  24.064  21.177  1.00  0.00     0.163 HD
BRANCH   5   8
ATOM      8  C   UNL A   1      31.984  26.462  23.556  1.00  0.00     0.175 C 
ATOM      9  N   UNL A   1      31.265  27.745  23.781  1.00  0.00    -0.322 N 
ATOM     10  C   UNL A   1      31.665  28.504  24.987  1.00  0.00     0.089 C 
ATOM     11  C   UNL A   1      33.518  26.613  23.756  1.00  0.00     0.036 C 
ATOM     12  C   UNL A   1      33.168  28.749  25.030  1.00  0.00     0.012 C 
ATOM     13  C   UNL A   1      31.134  27.809  26.263  1.00  0.00     0.025 C 
ATOM     14  C   UNL A   1      33.926  27.421  24.980  1.00  0.00     0.008 C 
ATOM     15  C   UNL A   1      33.490  29.583  26.272  1.00  0.00     0.006 C 
ATOM     16  C   UNL A   1      31.773  28.213  27.597  1.00  0.00     0.002 C 
ATOM     17  C   UNL A   1      33.162  28.847  27.561  1.00  0.00     0.000 C 
BRANCH   9  18
ATOM     18  C   UNL A   1      30.002  28.114  23.286  1.00  0.00     0.284 C 
ATOM     19  O   UNL A   1      29.007  27.421  23.513  1.00  0.00    -0.268 OA
BRANCH  18  20
ATOM     20  C   UNL A   1      29.747  29.358  22.456  1.00  0.00     0.174 C 
ATOM     21  C   UNL A   1      29.161  30.506  23.278  1.00  0.00     0.086 C 
ATOM     22  C   UNL A   1      28.423  29.977  22.099  1.00  0.00     0.086 C 
BRANCH  20  23
ATOM     23  N   UNL A   1      30.935  29.740  21.634  1.00  0.00    -0.345 N 
ATOM     24  H   UNL A   1      30.651  30.405  20.915  1.00  0.00     0.345 HD
ATOM     25  H   UNL A   1      31.325  28.907  21.193  1.00  0.00     0.345 HD
ATOM     26  H   UNL A   1      31.639  30.168  22.235  1.00  0.00     0.345 HD
ENDBRANCH  20  23
ENDBRANCH  18  20
ENDBRANCH   9  18
ENDBRANCH   5   8
ENDBRANCH   3   4
ENDBRANCH   2   3
ENDBRANCH   1   2
BRANCH   1  27
ATOM     27  C   UNL A   1      35.426  22.758  23.835  1.00  0.00     0.002 C 
BRANCH  27  28
ATOM     28  C   UNL A   1      36.327  23.731  24.597  1.00  0.00     0.021 C 
BRANCH  28  29
ATOM     29  C   UNL A   1      36.606  23.323  26.038  1.00  0.00     0.116 C 
BRANCH  29  30
ATOM     30  N   UNL A   1      37.710  22.381  26.125  1.00  0.00    -0.352 N 
ATOM     31  C   UNL A   1      39.031  22.633  26.370  1.00  0.00     0.251 C 
ATOM     32  H   UNL A   1      37.475  21.435  25.991  1.00  0.00     0.163 HD
ATOM     33  O   UNL A   1      39.870  21.743  26.192  1.00  0.00    -0.269 OA
BRANCH  31  34
ATOM     34  C   UNL A   1      39.453  23.967  26.838  1.00  0.00     0.039 A 
ATOM     35  C   UNL A   1      39.975  24.876  25.915  1.00  0.00     0.014 A 
ATOM     36  C   UNL A   1      39.352  24.313  28.190  1.00  0.00     0.014 A 
ATOM     37  C   UNL A   1      40.374  26.142  26.345  1.00  0.00     0.010 A 
ATOM     38  C   UNL A   1      39.675  25.602  28.601  1.00  0.00     0.010 A 
ATOM     39  C   UNL A   1      40.215  26.519  27.689  1.00  0.00    -0.014 A 
BRANCH  39  40
ATOM     40  C   UNL A   1      40.644  27.860  28.158  1.00  0.00     0.031 A 
ATOM     41  C   UNL A   1      42.106  28.219  28.184  1.00  0.00     0.074 A 
ATOM     42  C   UNL A   1      39.724  28.734  28.611  1.00  0.00     0.049 A 
ATOM     43  N   UNL A   1      42.674  29.336  28.555  1.00  0.00    -0.248 NA
ATOM     44  C   UNL A   1      43.058  27.176  27.762  1.00  0.00     0.031 C 
ATOM     45  C   UNL A   1      38.288  28.473  28.712  1.00  0.00     0.029 A 
ATOM     46  N   UNL A   1      39.864  30.013  29.085  1.00  0.00    -0.354 N 
ATOM     47  C   UNL A   1      44.043  29.122  28.443  1.00  0.00     0.074 A 
ATOM     48  C   UNL A   1      44.222  27.754  28.014  1.00  0.00     0.031 C 
ATOM     49  C   UNL A   1      37.677  29.565  29.199  1.00  0.00     0.029 A 
ATOM     50  C   UNL A   1      38.678  30.593  29.466  1.00  0.00     0.049 A 
ATOM     51  H   UNL A   1      40.734  30.473  29.146  1.00  0.00     0.167 HD
ATOM     52  C   UNL A   1      45.059  29.996  28.643  1.00  0.00     0.034 A 
ATOM     53  C   UNL A   1      38.426  31.818  29.966  1.00  0.00     0.034 A 
ATOM     54  C   UNL A   1      44.872  31.367  29.029  1.00  0.00     0.049 A 
ATOM     55  C   UNL A   1      39.566  32.786  30.132  1.00  0.00     0.074 A 
ATOM     56  C   UNL A   1      45.827  32.357  29.182  1.00  0.00     0.029 A 
ATOM     57  N   UNL A   1      43.647  31.945  29.326  1.00  0.00    -0.354 N 
ATOM     58  N   UNL A   1      40.839  32.616  29.871  1.00  0.00    -0.248 NA
ATOM     59  C   UNL A   1      39.228  34.131  30.620  1.00  0.00     0.031 C 
ATOM     60  C   UNL A   1      45.179  33.529  29.592  1.00  0.00     0.029 A 
ATOM     61  C   UNL A   1      43.819  33.276  29.666  1.00  0.00     0.049 A 
ATOM     62  H   UNL A   1      42.781  31.476  29.300  1.00  0.00     0.167 HD
ATOM     63  C   UNL A   1      41.448  33.840  30.121  1.00  0.00     0.074 A 
ATOM     64  C   UNL A   1      40.398  34.749  30.538  1.00  0.00     0.031 C 
ATOM     65  C   UNL A   1      42.757  34.180  30.026  1.00  0.00     0.034 A 
BRANCH  52  66
ATOM     66  C   UNL A   1      46.460  29.500  28.392  1.00  0.00     0.023 A 
ATOM     67  C   UNL A   1      47.033  29.651  27.112  1.00  0.00     0.012 A 
ATOM     68  C   UNL A   1      47.223  28.918  29.423  1.00  0.00     0.148 A 
ATOM     69  C   UNL A   1      48.322  29.191  26.849  1.00  0.00     0.002 A 
ATOM     70  C   UNL A   1      48.527  28.505  29.165  1.00  0.00     0.091 A 
ATOM     71  F   UNL A   1      46.658  28.760  30.628  1.00  0.00    -0.205 F 
ATOM     72  C   UNL A   1      49.072  28.628  27.877  1.00  0.00     0.022 A 
BRANCH  70  73
ATOM     73  S   UNL A   1      49.600  27.842  30.443  1.00  0.00     0.127 S 
ATOM     74  O   UNL A   1      48.793  26.738  30.963  1.00  0.00    -0.237 OA
ATOM     75  O   UNL A   1      50.776  27.428  29.676  1.00  0.00    -0.237 OA
ATOM     76  O   UNL A   1      49.838  28.936  31.374  1.00  0.00    -0.744 OA
ENDBRANCH  70  73
ENDBRANCH  52  66
BRANCH  53  77
ATOM     77  C   UNL A   1      37.023  32.227  30.255  1.00  0.00     0.023 A 
ATOM     78  C   UNL A   1      36.516  32.076  31.560  1.00  0.00     0.012 A 
ATOM     79  C   UNL A   1      36.203  32.793  29.260  1.00  0.00     0.148 A 
ATOM     80  C   UNL A   1      35.207  32.451  31.864  1.00  0.00     0.002 A 
ATOM     81  C   UNL A   1      34.917  33.214  29.581  1.00  0.00     0.091 A 
ATOM     82  F   UNL A   1      36.703  32.922  28.023  1.00  0.00    -0.205 F 
ATOM     83  C   UNL A   1      34.411  33.028  30.877  1.00  0.00     0.022 A 
BRANCH  81  84
ATOM     84  S   UNL A   1      33.867  34.083  28.411  1.00  0.00     0.127 S 
ATOM     85  O   UNL A   1      33.113  32.982  27.814  1.00  0.00    -0.237 OA
ATOM     86  O   UNL A   1      33.090  34.954  29.295  1.00  0.00    -0.237 OA
ATOM     87  O   UNL A   1      34.772  34.787  27.515  1.00  0.00    -0.744 OA
ENDBRANCH  81  84
ENDBRANCH  53  77
BRANCH  65  88
ATOM     88  C   UNL A   1      43.131  35.608  30.333  1.00  0.00     0.023 A 
ATOM     89  C   UNL A   1      43.530  35.967  31.635  1.00  0.00     0.012 A 
ATOM     90  C   UNL A   1      43.149  36.578  29.312  1.00  0.00     0.148 A 
ATOM     91  C   UNL A   1      43.905  37.278  31.925  1.00  0.00     0.002 A 
ATOM     92  C   UNL A   1      43.573  37.871  29.597  1.00  0.00     0.091 A 
ATOM     93  F   UNL A   1      42.746  36.223  28.083  1.00  0.00    -0.205 F 
ATOM     94  C   UNL A   1      43.938  38.226  30.904  1.00  0.00     0.022 A 
BRANCH  92  95
ATOM     95  S   UNL A   1      43.742  39.126  28.322  1.00  0.00     0.127 S 
ATOM     96  O   UNL A   1      42.365  39.261  27.853  1.00  0.00    -0.237 OA
ATOM     97  O   UNL A   1      44.243  40.274  29.080  1.00  0.00    -0.237 OA
ATOM     98  O   UNL A   1      44.687  38.586  27.354  1.00  0.00    -0.744 OA
ENDBRANCH  92  95
ENDBRANCH  65  88
ENDBRANCH  39  40
ENDBRANCH  31  34
ENDBRANCH  29  30
ENDBRANCH  28  29
ENDBRANCH  27  28
ENDBRANCH   1  27
TORSDOF 19
ENDMDL
MODEL 2
REMARK VINA RESULT:     -11.7      2.237      2.602
REMARK SMILES [NH3+]C1(C(=O)N2[C@@H](C(=O)NCCCCCCNC(=O)c3ccc(-c4c5nc(c(-c6cccc(S(=O)(=O)[O-])c6F)c6ccc([nH]6)c(-c6cccc(S(=O)(=O)[O-])c6F)c6nc(c(-c7cccc(S(=O)(=O)[O-])c7F)c7ccc4[nH]7)C=C6)C=C5)cc3)CC[C@@H]3CCCC[C@@H]32)CC1
REMARK SMILES IDX 12 1 11 2 10 3 9 4 7 5 8 6 6 8 5 9 89 10 82 11 84 12 88 13
REMARK SMILES IDX 83 14 85 15 87 16 86 17 3 18 4 19 2 20 90 21 91 22 1 23
REMARK SMILES IDX 13 27 14 28 15 29 16 30 17 31 18 33 19 34 20 35 81 36 21 37
REMARK SMILES IDX 80 38 22 39 23 40 24 41 74 42 25 43 79 44 73 45 75 46 26 47
REMARK SMILES IDX 78 48 72 49 71 50 27 52 59 53 39 54 58 55 40 56 43 57 57 58
REMARK SMILES IDX 76 59 41 60 42 61 56 63 77 64 44 65 28 66 29 67 37 68 30 69
REMARK SMILES IDX 32 70 38 71 31 72 33 73 34 74 35 75 36 76 60 77 61 78 69 79
REMARK SMILES IDX 62 80 64 81 70 82 63 83 65 84 66 85 67 86 68 87 45 88 46 89
REMARK SMILES IDX 54 90 47 91 49 92 55 93 48 94 50 95 51 96 52 97 53 98
REMARK H PARENT 9 7 1 24 1 25 1 26 16 32 75 51 43 62
REMARK Flexibility Score: inf
ROOT
ATOM      1  C   UNL A   1      33.969  22.990  22.810  1.00  0.00     0.002 C 
ENDROOT
BRANCH   1   2
ATOM      2  C   UNL A   1      32.739  22.739  23.695  1.00  0.00     0.021 C 
BRANCH   2   3
ATOM      3  C   UNL A   1      31.468  23.411  23.178  1.00  0.00     0.116 C 
BRANCH   3   4
ATOM      4  N   UNL A   1      31.816  24.369  22.151  1.00  0.00    -0.354 N 
ATOM      5  C   UNL A   1      31.908  25.718  22.241  1.00  0.00     0.242 C 
ATOM      6  O   UNL A   1      31.772  26.372  21.201  1.00  0.00    -0.273 OA
ATOM      7  H   UNL A   1      32.012  23.989  21.265  1.00  0.00     0.163 HD
BRANCH   5   8
ATOM      8  C   UNL A   1      32.044  26.433  23.597  1.00  0.00     0.175 C 
ATOM      9  N   UNL A   1      31.312  27.712  23.803  1.00  0.00    -0.322 N 
ATOM     10  C   UNL A   1      31.686  28.480  25.012  1.00  0.00     0.089 C 
ATOM     11  C   UNL A   1      33.573  26.595  23.823  1.00  0.00     0.036 C 
ATOM     12  C   UNL A   1      33.186  28.735  25.079  1.00  0.00     0.012 C 
ATOM     13  C   UNL A   1      31.137  27.788  26.282  1.00  0.00     0.025 C 
ATOM     14  C   UNL A   1      33.954  27.412  25.049  1.00  0.00     0.008 C 
ATOM     15  C   UNL A   1      33.480  29.578  26.323  1.00  0.00     0.006 C 
ATOM     16  C   UNL A   1      31.750  28.202  27.625  1.00  0.00     0.002 C 
ATOM     17  C   UNL A   1      33.135  28.846  27.610  1.00  0.00     0.000 C 
BRANCH   9  18
ATOM     18  C   UNL A   1      30.056  28.070  23.285  1.00  0.00     0.284 C 
ATOM     19  O   UNL A   1      29.060  27.374  23.501  1.00  0.00    -0.268 OA
BRANCH  18  20
ATOM     20  C   UNL A   1      29.808  29.305  22.439  1.00  0.00     0.174 C 
ATOM     21  C   UNL A   1      29.174  30.446  23.234  1.00  0.00     0.086 C 
ATOM     22  C   UNL A   1      28.486  29.899  22.033  1.00  0.00     0.086 C 
BRANCH  20  23
ATOM     23  N   UNL A   1      31.017  29.704  21.656  1.00  0.00    -0.345 N 
ATOM     24  H   UNL A   1      31.856  29.472  22.186  1.00  0.00     0.345 HD
ATOM     25  H   UNL A   1      30.991  30.708  21.480  1.00  0.00     0.345 HD
ATOM     26  H   UNL A   1      31.025  29.202  20.768  1.00  0.00     0.345 HD
ENDBRANCH  20  23
ENDBRANCH  18  20
ENDBRANCH   9  18
ENDBRANCH   5   8
ENDBRANCH   3   4
ENDBRANCH   2   3
ENDBRANCH   1   2
BRANCH   1  27
ATOM     27  C   UNL A   1      35.291  23.099  23.578  1.00  0.00     0.002 C 
BRANCH  27  28
ATOM     28  C   UNL A   1      35.394  22.175  24.792  1.00  0.00     0.021 C 
BRANCH  28  29
ATOM     29  C   UNL A   1      36.523  22.531  25.751  1.00  0.00     0.116 C 
BRANCH  29  30
ATOM     30  N   UNL A   1      37.493  21.454  25.863  1.00  0.00    -0.352 N 
ATOM     31  C   UNL A   1      38.837  21.535  26.094  1.00  0.00     0.251 C 
ATOM     32  H   UNL A   1      37.133  20.544  25.758  1.00  0.00     0.163 HD
ATOM     33  O   UNL A   1      39.549  20.536  25.940  1.00  0.00    -0.269 OA
BRANCH  31  34
ATOM     34  C   UNL A   1      39.437  22.814  26.520  1.00  0.00     0.039 A 
ATOM     35  C   UNL A   1      39.092  23.984  25.841  1.00  0.00     0.014 A 
ATOM     36  C   UNL A   1      40.354  22.855  27.575  1.00  0.00     0.014 A 
ATOM     37  C   UNL A   1      39.649  25.201  26.238  1.00  0.00     0.010 A 
ATOM     38  C   UNL A   1      40.845  24.077  28.020  1.00  0.00     0.010 A 
ATOM     39  C   UNL A   1      40.520  25.258  27.338  1.00  0.00    -0.014 A 
BRANCH  39  40
ATOM     40  C   UNL A   1      41.125  26.545  27.763  1.00  0.00     0.031 A 
ATOM     41  C   UNL A   1      42.567  26.843  27.448  1.00  0.00     0.074 A 
ATOM     42  C   UNL A   1      40.394  27.422  28.479  1.00  0.00     0.049 A 
ATOM     43  N   UNL A   1      43.269  27.908  27.730  1.00  0.00    -0.248 NA
ATOM     44  C   UNL A   1      43.327  25.795  26.744  1.00  0.00     0.031 C 
ATOM     45  C   UNL A   1      39.014  27.212  28.917  1.00  0.00     0.029 A 
ATOM     46  N   UNL A   1      40.717  28.658  28.976  1.00  0.00    -0.354 N 
ATOM     47  C   UNL A   1      44.556  27.647  27.271  1.00  0.00     0.074 A 
ATOM     48  C   UNL A   1      44.548  26.306  26.733  1.00  0.00     0.031 C 
ATOM     49  C   UNL A   1      38.602  28.291  29.602  1.00  0.00     0.029 A 
ATOM     50  C   UNL A   1      39.694  29.257  29.671  1.00  0.00     0.049 A 
ATOM     51  H   UNL A   1      41.599  29.077  28.847  1.00  0.00     0.167 HD
ATOM     52  C   UNL A   1      45.637  28.463  27.263  1.00  0.00     0.034 A 
ATOM     53  C   UNL A   1      39.641  30.454  30.288  1.00  0.00     0.034 A 
ATOM     54  C   UNL A   1      45.628  29.811  27.762  1.00  0.00     0.049 A 
ATOM     55  C   UNL A   1      40.839  31.362  30.223  1.00  0.00     0.074 A 
ATOM     56  C   UNL A   1      46.644  30.749  27.731  1.00  0.00     0.029 A 
ATOM     57  N   UNL A   1      44.546  30.415  28.386  1.00  0.00    -0.354 N 
ATOM     58  N   UNL A   1      41.999  31.159  29.645  1.00  0.00    -0.248 NA
ATOM     59  C   UNL A   1      40.706  32.682  30.855  1.00  0.00     0.031 C 
ATOM     60  C   UNL A   1      46.183  31.914  28.355  1.00  0.00     0.029 A 
ATOM     61  C   UNL A   1      44.870  31.711  28.748  1.00  0.00     0.049 A 
ATOM     62  H   UNL A   1      43.675  29.985  28.547  1.00  0.00     0.167 HD
ATOM     63  C   UNL A   1      42.717  32.337  29.807  1.00  0.00     0.074 A 
ATOM     64  C   UNL A   1      41.853  33.257  30.522  1.00  0.00     0.031 C 
ATOM     65  C   UNL A   1      43.981  32.630  29.411  1.00  0.00     0.034 A 
BRANCH  52  66
ATOM     66  C   UNL A   1      46.905  27.931  26.646  1.00  0.00     0.023 A 
ATOM     67  C   UNL A   1      47.883  27.334  27.468  1.00  0.00     0.012 A 
ATOM     68  C   UNL A   1      47.117  27.987  25.254  1.00  0.00     0.148 A 
ATOM     69  C   UNL A   1      49.069  26.844  26.925  1.00  0.00     0.002 A 
ATOM     70  C   UNL A   1      48.283  27.453  24.714  1.00  0.00     0.091 A 
ATOM     71  F   UNL A   1      46.190  28.578  24.488  1.00  0.00    -0.205 F 
ATOM     72  C   UNL A   1      49.265  26.894  25.548  1.00  0.00     0.022 A 
BRANCH  70  73
ATOM     73  S   UNL A   1      48.590  27.398  22.945  1.00  0.00     0.127 S 
ATOM     74  O   UNL A   1      48.479  25.964  22.672  1.00  0.00    -0.237 OA
ATOM     75  O   UNL A   1      47.493  28.206  22.415  1.00  0.00    -0.237 OA
ATOM     76  O   UNL A   1      49.914  27.971  22.751  1.00  0.00    -0.744 OA
ENDBRANCH  70  73
ENDBRANCH  52  66
BRANCH  53  77
ATOM     77  C   UNL A   1      38.376  30.898  30.938  1.00  0.00     0.023 A 
ATOM     78  C   UNL A   1      38.209  30.707  32.323  1.00  0.00     0.012 A 
ATOM     79  C   UNL A   1      37.357  31.535  30.204  1.00  0.00     0.148 A 
ATOM     80  C   UNL A   1      37.037  31.113  32.962  1.00  0.00     0.002 A 
ATOM     81  C   UNL A   1      36.214  31.985  30.855  1.00  0.00     0.091 A 
ATOM     82  F   UNL A   1      37.533  31.700  28.885  1.00  0.00    -0.205 F 
ATOM     83  C   UNL A   1      36.045  31.760  32.230  1.00  0.00     0.022 A 
BRANCH  81  84
ATOM     84  S   UNL A   1      34.942  32.940  30.021  1.00  0.00     0.127 S 
ATOM     85  O   UNL A   1      34.028  33.242  31.120  1.00  0.00    -0.237 OA
ATOM     86  O   UNL A   1      35.705  34.084  29.521  1.00  0.00    -0.237 OA
ATOM     87  O   UNL A   1      34.413  32.069  28.982  1.00  0.00    -0.744 OA
ENDBRANCH  81  84
ENDBRANCH  53  77
BRANCH  65  88
ATOM     88  C   UNL A   1      44.498  34.017  29.697  1.00  0.00     0.023 A 
ATOM     89  C   UNL A   1      45.230  34.267  30.874  1.00  0.00     0.012 A 
ATOM     90  C   UNL A   1      44.311  35.057  28.765  1.00  0.00     0.148 A 
ATOM     91  C   UNL A   1      45.737  35.539  31.136  1.00  0.00     0.002 A 
ATOM     92  C   UNL A   1      44.864  36.309  29.009  1.00  0.00     0.091 A 
ATOM     93  F   UNL A   1      43.594  34.806  27.660  1.00  0.00    -0.205 F 
ATOM     94  C   UNL A   1      45.565  36.555  30.199  1.00  0.00     0.022 A 
BRANCH  92  95
ATOM     95  S   UNL A   1      44.776  37.645  27.811  1.00  0.00     0.127 S 
ATOM     96  O   UNL A   1      45.647  37.149  26.747  1.00  0.00    -0.237 OA
ATOM     97  O   UNL A   1      43.352  37.667  27.473  1.00  0.00    -0.237 OA
ATOM     98  O   UNL A   1      45.247  38.836  28.507  1.00  0.00    -0.744 OA
ENDBRANCH  92  95
ENDBRANCH  65  88
ENDBRANCH  39  40
ENDBRANCH  31  34
ENDBRANCH  29  30
ENDBRANCH  28  29
ENDBRANCH  27  28
ENDBRANCH   1  27
TORSDOF 19
ENDMDL
MODEL 3
REMARK VINA RESULT:     -11.5      4.649      9.996
REMARK SMILES [NH3+]C1(C(=O)N2[C@@H](C(=O)NCCCCCCNC(=O)c3ccc(-c4c5nc(c(-c6cccc(S(=O)(=O)[O-])c6F)c6ccc([nH]6)c(-c6cccc(S(=O)(=O)[O-])c6F)c6nc(c(-c7cccc(S(=O)(=O)[O-])c7F)c7ccc4[nH]7)C=C6)C=C5)cc3)CC[C@@H]3CCCC[C@@H]32)CC1
REMARK SMILES IDX 12 1 11 2 10 3 9 4 7 5 8 6 6 8 5 9 89 10 82 11 84 12 88 13
REMARK SMILES IDX 83 14 85 15 87 16 86 17 3 18 4 19 2 20 90 21 91 22 1 23
REMARK SMILES IDX 13 27 14 28 15 29 16 30 17 31 18 33 19 34 20 35 81 36 21 37
REMARK SMILES IDX 80 38 22 39 23 40 24 41 74 42 25 43 79 44 73 45 75 46 26 47
REMARK SMILES IDX 78 48 72 49 71 50 27 52 59 53 39 54 58 55 40 56 43 57 57 58
REMARK SMILES IDX 76 59 41 60 42 61 56 63 77 64 44 65 28 66 29 67 37 68 30 69
REMARK SMILES IDX 32 70 38 71 31 72 33 73 34 74 35 75 36 76 60 77 61 78 69 79
REMARK SMILES IDX 62 80 64 81 70 82 63 83 65 84 66 85 67 86 68 87 45 88 46 89
REMARK SMILES IDX 54 90 47 91 49 92 55 93 48 94 50 95 51 96 52 97 53 98
REMARK H PARENT 9 7 1 24 1 25 1 26 16 32 75 51 43 62
REMARK Flexibility Score: inf
ROOT
ATOM      1  C   UNL A   1      31.634  27.051  25.826  1.00  0.00     0.002 C 
ENDROOT
BRANCH   1   2
ATOM      2  C   UNL A   1      30.299  26.427  25.392  1.00  0.00     0.021 C 
BRANCH   2   3
ATOM      3  C   UNL A   1      30.463  25.156  24.561  1.00  0.00     0.116 C 
BRANCH   3   4
ATOM      4  N   UNL A   1      30.272  23.999  25.408  1.00  0.00    -0.354 N 
ATOM      5  C   UNL A   1      31.082  22.928  25.583  1.00  0.00     0.242 C 
ATOM      6  O   UNL A   1      30.565  21.875  25.974  1.00  0.00    -0.273 OA
ATOM      7  H   UNL A   1      29.437  23.989  25.929  1.00  0.00     0.163 HD
BRANCH   5   8
ATOM      8  C   UNL A   1      32.570  22.964  25.190  1.00  0.00     0.175 C 
ATOM      9  N   UNL A   1      33.250  21.681  24.865  1.00  0.00    -0.322 N 
ATOM     10  C   UNL A   1      34.726  21.746  24.755  1.00  0.00     0.089 C 
ATOM     11  C   UNL A   1      33.280  23.722  26.346  1.00  0.00     0.036 C 
ATOM     12  C   UNL A   1      35.360  22.358  25.997  1.00  0.00     0.012 C 
ATOM     13  C   UNL A   1      35.138  22.468  23.451  1.00  0.00     0.025 C 
ATOM     14  C   UNL A   1      34.799  23.759  26.246  1.00  0.00     0.008 C 
ATOM     15  C   UNL A   1      36.881  22.336  25.826  1.00  0.00     0.006 C 
ATOM     16  C   UNL A   1      36.581  22.978  23.361  1.00  0.00     0.002 C 
ATOM     17  C   UNL A   1      37.343  23.202  24.665  1.00  0.00     0.000 C 
BRANCH   9  18
ATOM     18  C   UNL A   1      32.695  20.556  24.232  1.00  0.00     0.284 C 
ATOM     19  O   UNL A   1      32.059  20.671  23.181  1.00  0.00    -0.268 OA
BRANCH  18  20
ATOM     20  C   UNL A   1      32.820  19.139  24.758  1.00  0.00     0.174 C 
ATOM     21  C   UNL A   1      34.018  18.394  24.169  1.00  0.00     0.086 C 
ATOM     22  C   UNL A   1      32.643  17.851  24.000  1.00  0.00     0.086 C 
BRANCH  20  23
ATOM     23  N   UNL A   1      32.740  19.082  26.250  1.00  0.00    -0.345 N 
ATOM     24  H   UNL A   1      31.981  18.460  26.525  1.00  0.00     0.345 HD
ATOM     25  H   UNL A   1      32.563  20.017  26.616  1.00  0.00     0.345 HD
ATOM     26  H   UNL A   1      33.621  18.731  26.623  1.00  0.00     0.345 HD
ENDBRANCH  20  23
ENDBRANCH  18  20
ENDBRANCH   9  18
ENDBRANCH   5   8
ENDBRANCH   3   4
ENDBRANCH   2   3
ENDBRANCH   1   2
BRANCH   1  27
ATOM     27  C   UNL A   1      32.616  27.308  24.678  1.00  0.00     0.002 C 
BRANCH  27  28
ATOM     28  C   UNL A   1      33.387  28.624  24.787  1.00  0.00     0.021 C 
BRANCH  28  29
ATOM     29  C   UNL A   1      34.027  28.860  26.149  1.00  0.00     0.116 C 
BRANCH  29  30
ATOM     30  N   UNL A   1      33.874  30.239  26.583  1.00  0.00    -0.352 N 
ATOM     31  C   UNL A   1      34.591  30.924  27.524  1.00  0.00     0.251 C 
ATOM     32  H   UNL A   1      33.159  30.749  26.139  1.00  0.00     0.163 HD
ATOM     33  O   UNL A   1      34.187  32.021  27.926  1.00  0.00    -0.269 OA
BRANCH  31  34
ATOM     34  C   UNL A   1      35.839  30.351  28.063  1.00  0.00     0.039 A 
ATOM     35  C   UNL A   1      35.810  29.705  29.301  1.00  0.00     0.014 A 
ATOM     36  C   UNL A   1      37.040  30.466  27.355  1.00  0.00     0.014 A 
ATOM     37  C   UNL A   1      36.983  29.155  29.818  1.00  0.00     0.010 A 
ATOM     38  C   UNL A   1      38.189  29.848  27.835  1.00  0.00     0.010 A 
ATOM     39  C   UNL A   1      38.179  29.211  29.084  1.00  0.00    -0.014 A 
BRANCH  39  40
ATOM     40  C   UNL A   1      39.434  28.636  29.628  1.00  0.00     0.031 A 
ATOM     41  C   UNL A   1      40.047  29.211  30.878  1.00  0.00     0.074 A 
ATOM     42  C   UNL A   1      40.050  27.635  28.971  1.00  0.00     0.049 A 
ATOM     43  N   UNL A   1      41.132  28.844  31.507  1.00  0.00    -0.248 NA
ATOM     44  C   UNL A   1      39.365  30.366  31.487  1.00  0.00     0.031 C 
ATOM     45  C   UNL A   1      39.598  27.049  27.709  1.00  0.00     0.029 A 
ATOM     46  N   UNL A   1      41.197  26.944  29.268  1.00  0.00    -0.354 N 
ATOM     47  C   UNL A   1      41.281  29.738  32.561  1.00  0.00     0.074 A 
ATOM     48  C   UNL A   1      40.201  30.693  32.461  1.00  0.00     0.031 C 
ATOM     49  C   UNL A   1      40.449  26.075  27.348  1.00  0.00     0.029 A 
ATOM     50  C   UNL A   1      41.516  25.982  28.340  1.00  0.00     0.049 A 
ATOM     51  H   UNL A   1      41.740  27.120  30.070  1.00  0.00     0.167 HD
ATOM     52  C   UNL A   1      42.211  29.743  33.547  1.00  0.00     0.034 A 
ATOM     53  C   UNL A   1      42.548  25.117  28.298  1.00  0.00     0.034 A 
ATOM     54  C   UNL A   1      43.258  28.766  33.666  1.00  0.00     0.049 A 
ATOM     55  C   UNL A   1      43.540  25.111  29.429  1.00  0.00     0.074 A 
ATOM     56  C   UNL A   1      44.203  28.634  34.668  1.00  0.00     0.029 A 
ATOM     57  N   UNL A   1      43.501  27.753  32.750  1.00  0.00    -0.354 N 
ATOM     58  N   UNL A   1      43.574  25.864  30.503  1.00  0.00    -0.248 NA
ATOM     59  C   UNL A   1      44.610  24.105  29.368  1.00  0.00     0.031 C 
ATOM     60  C   UNL A   1      45.031  27.552  34.346  1.00  0.00     0.029 A 
ATOM     61  C   UNL A   1      44.583  26.993  33.160  1.00  0.00     0.049 A 
ATOM     62  H   UNL A   1      42.981  27.598  31.929  1.00  0.00     0.167 HD
ATOM     63  C   UNL A   1      44.640  25.397  31.263  1.00  0.00     0.074 A 
ATOM     64  C   UNL A   1      45.214  24.283  30.534  1.00  0.00     0.031 C 
ATOM     65  C   UNL A   1      45.109  25.855  32.450  1.00  0.00     0.034 A 
BRANCH  52  66
ATOM     66  C   UNL A   1      42.097  30.813  34.604  1.00  0.00     0.023 A 
ATOM     67  C   UNL A   1      41.352  30.558  35.774  1.00  0.00     0.012 A 
ATOM     68  C   UNL A   1      42.750  32.052  34.459  1.00  0.00     0.148 A 
ATOM     69  C   UNL A   1      41.220  31.533  36.761  1.00  0.00     0.002 A 
ATOM     70  C   UNL A   1      42.653  33.002  35.471  1.00  0.00     0.091 A 
ATOM     71  F   UNL A   1      43.435  32.288  33.332  1.00  0.00    -0.205 F 
ATOM     72  C   UNL A   1      41.878  32.750  36.615  1.00  0.00     0.022 A 
BRANCH  70  73
ATOM     73  S   UNL A   1      43.531  34.569  35.412  1.00  0.00     0.127 S 
ATOM     74  O   UNL A   1      42.854  35.243  34.304  1.00  0.00    -0.237 OA
ATOM     75  O   UNL A   1      43.247  35.132  36.733  1.00  0.00    -0.237 OA
ATOM     76  O   UNL A   1      44.929  34.236  35.182  1.00  0.00    -0.744 OA
ENDBRANCH  70  73
ENDBRANCH  52  66
BRANCH  53  77
ATOM     77  C   UNL A   1      42.641  24.125  27.191  1.00  0.00     0.023 A 
ATOM     78  C   UNL A   1      43.372  24.451  26.032  1.00  0.00     0.012 A 
ATOM     79  C   UNL A   1      42.041  22.855  27.291  1.00  0.00     0.148 A 
ATOM     80  C   UNL A   1      43.479  23.542  24.978  1.00  0.00     0.002 A 
ATOM     81  C   UNL A   1      42.195  21.934  26.260  1.00  0.00     0.091 A 
ATOM     82  F   UNL A   1      41.344  22.568  28.399  1.00  0.00    -0.205 F 
ATOM     83  C   UNL A   1      42.899  22.282  25.096  1.00  0.00     0.022 A 
BRANCH  81  84
ATOM     84  S   UNL A   1      41.593  20.246  26.377  1.00  0.00     0.127 S 
ATOM     85  O   UNL A   1      42.361  19.583  25.325  1.00  0.00    -0.237 OA
ATOM     86  O   UNL A   1      41.978  19.884  27.742  1.00  0.00    -0.237 OA
ATOM     87  O   UNL A   1      40.157  20.323  26.157  1.00  0.00    -0.744 OA
ENDBRANCH  81  84
ENDBRANCH  53  77
BRANCH  65  88
ATOM     88  C   UNL A   1      46.274  25.126  33.067  1.00  0.00     0.023 A 
ATOM     89  C   UNL A   1      47.587  25.593  32.861  1.00  0.00     0.012 A 
ATOM     90  C   UNL A   1      46.060  24.014  33.906  1.00  0.00     0.148 A 
ATOM     91  C   UNL A   1      48.671  24.944  33.449  1.00  0.00     0.002 A 
ATOM     92  C   UNL A   1      47.142  23.404  34.531  1.00  0.00     0.091 A 
ATOM     93  F   UNL A   1      44.807  23.570  34.075  1.00  0.00    -0.205 F 
ATOM     94  C   UNL A   1      48.448  23.858  34.292  1.00  0.00     0.022 A 
BRANCH  92  95
ATOM     95  S   UNL A   1      46.936  22.064  35.710  1.00  0.00     0.127 S 
ATOM     96  O   UNL A   1      46.023  22.660  36.683  1.00  0.00    -0.237 OA
ATOM     97  O   UNL A   1      46.344  21.010  34.884  1.00  0.00    -0.237 OA
ATOM     98  O   UNL A   1      48.273  21.760  36.205  1.00  0.00    -0.744 OA
ENDBRANCH  92  95
ENDBRANCH  65  88
ENDBRANCH  39  40
ENDBRANCH  31  34
ENDBRANCH  29  30
ENDBRANCH  28  29
ENDBRANCH  27  28
ENDBRANCH   1  27
TORSDOF 19
ENDMDL
