MODEL 1
REMARK VINA RESULT:     -10.9      0.000      0.000
REMARK SMILES C[C@@H]1[C@H](C)CC[C@H]1[NH2+]Cc1ccc(C(=O)NCCCCCCNC(=O)c2ccc(-c3c4nc(c(-c5cccc(S(=O)(=O)[O-])c5F)c5ccc([nH]5)c(-c5cccc(S(=O)(=O)[O-])c5F)c5nc(c(-c6cccc(S(=O)(=O)[O-])c6F)c6ccc3[nH]6)C=C5)C=C4)cc2)cn1
REMARK SMILES IDX 19 1 18 2 17 3 16 4 14 5 15 6 13 8 10 9 11 10 90 11 12 12
REMARK SMILES IDX 89 13 9 14 8 15 7 18 1 19 2 20 3 21 4 22 5 23 6 24 20 25
REMARK SMILES IDX 21 26 22 27 23 28 24 29 25 31 26 32 27 33 88 34 28 35 87 36
REMARK SMILES IDX 29 37 30 38 31 39 81 40 32 41 86 42 80 43 82 44 33 45 85 46
REMARK SMILES IDX 79 47 78 48 34 50 66 51 46 52 65 53 47 54 50 55 64 56 83 57
REMARK SMILES IDX 48 58 49 59 63 61 84 62 51 63 35 64 36 65 44 66 37 67 39 68
REMARK SMILES IDX 45 69 38 70 40 71 41 72 42 73 43 74 67 75 68 76 76 77 69 78
REMARK SMILES IDX 71 79 77 80 70 81 72 82 73 83 74 84 75 85 52 86 53 87 61 88
REMARK SMILES IDX 54 89 56 90 62 91 55 92 57 93 58 94 59 95 60 96
REMARK H PARENT 16 7 8 16 8 17 23 30 82 49 50 60
REMARK Flexibility Score: inf
ROOT
ATOM      1  C   UNL A   1      31.375  29.382  24.652  1.00  0.00     0.002 C 
ENDROOT
BRANCH   1   2
ATOM      2  C   UNL A   1      31.955  28.220  23.835  1.00  0.00     0.021 C 
BRANCH   2   3
ATOM      3  C   UNL A   1      31.115  27.873  22.608  1.00  0.00     0.116 C 
BRANCH   3   4
ATOM      4  N   UNL A   1      29.753  27.593  23.012  1.00  0.00    -0.352 N 
ATOM      5  C   UNL A   1      29.263  26.645  23.864  1.00  0.00     0.252 C 
ATOM      6  O   UNL A   1      28.058  26.617  24.106  1.00  0.00    -0.269 OA
ATOM      7  H   UNL A   1      29.071  28.177  22.608  1.00  0.00     0.163 HD
BRANCH   5   8
ATOM      8  C   UNL A   1      30.148  25.676  24.533  1.00  0.00     0.058 A 
ATOM      9  C   UNL A   1      31.481  23.837  26.075  1.00  0.00     0.094 A 
ATOM     10  C   UNL A   1      31.377  23.612  24.704  1.00  0.00     0.030 A 
ATOM     11  N   UNL A   1      31.055  24.989  26.662  1.00  0.00    -0.255 NA
ATOM     12  C   UNL A   1      30.680  24.538  23.927  1.00  0.00     0.017 A 
ATOM     13  C   UNL A   1      30.373  25.861  25.887  1.00  0.00     0.125 A 
BRANCH   9  14
ATOM     14  C   UNL A   1      31.945  22.724  26.998  1.00  0.00     0.318 C 
BRANCH  14  15
ATOM     15  N   UNL A   1      32.444  21.532  26.281  1.00  0.00    -0.339 N 
ATOM     16  H   UNL A   1      32.061  20.704  26.737  1.00  0.00     0.346 HD
ATOM     17  H   UNL A   1      32.143  21.634  25.312  1.00  0.00     0.346 HD
BRANCH  15  18
ATOM     18  C   UNL A   1      33.907  21.400  26.246  1.00  0.00     0.185 C 
ATOM     19  C   UNL A   1      34.019  19.416  24.623  1.00  0.00     0.014 C 
ATOM     20  C   UNL A   1      34.360  20.881  24.864  1.00  0.00     0.047 C 
ATOM     21  C   UNL A   1      35.860  21.257  24.761  1.00  0.00    -0.005 C 
ATOM     22  C   UNL A   1      36.859  20.126  24.976  1.00  0.00     0.008 C 
ATOM     23  C   UNL A   1      36.081  22.366  25.799  1.00  0.00     0.010 C 
ATOM     24  C   UNL A   1      34.703  22.704  26.343  1.00  0.00     0.065 C 
ENDBRANCH  15  18
ENDBRANCH  14  15
ENDBRANCH   9  14
ENDBRANCH   5   8
ENDBRANCH   3   4
ENDBRANCH   2   3
ENDBRANCH   1   2
BRANCH   1  25
ATOM     25  C   UNL A   1      31.711  29.340  26.147  1.00  0.00     0.002 C 
BRANCH  25  26
ATOM     26  C   UNL A   1      32.902  28.448  26.507  1.00  0.00     0.021 C 
BRANCH  26  27
ATOM     27  C   UNL A   1      34.236  29.184  26.555  1.00  0.00     0.116 C 
BRANCH  27  28
ATOM     28  N   UNL A   1      34.059  30.571  26.956  1.00  0.00    -0.352 N 
ATOM     29  C   UNL A   1      34.719  31.274  27.932  1.00  0.00     0.251 C 
ATOM     30  H   UNL A   1      33.373  31.074  26.459  1.00  0.00     0.163 HD
ATOM     31  O   UNL A   1      34.279  32.350  28.323  1.00  0.00    -0.269 OA
BRANCH  29  32
ATOM     32  C   UNL A   1      35.959  30.718  28.510  1.00  0.00     0.039 A 
ATOM     33  C   UNL A   1      35.870  29.746  29.507  1.00  0.00     0.014 A 
ATOM     34  C   UNL A   1      37.207  31.167  28.067  1.00  0.00     0.014 A 
ATOM     35  C   UNL A   1      37.038  29.191  30.032  1.00  0.00     0.010 A 
ATOM     36  C   UNL A   1      38.366  30.559  28.536  1.00  0.00     0.010 A 
ATOM     37  C   UNL A   1      38.294  29.577  29.534  1.00  0.00    -0.014 A 
BRANCH  37  38
ATOM     38  C   UNL A   1      39.545  28.965  30.045  1.00  0.00     0.031 A 
ATOM     39  C   UNL A   1      40.218  29.526  31.268  1.00  0.00     0.074 A 
ATOM     40  C   UNL A   1      40.123  27.963  29.356  1.00  0.00     0.049 A 
ATOM     41  N   UNL A   1      41.338  29.159  31.833  1.00  0.00    -0.248 NA
ATOM     42  C   UNL A   1      39.561  30.669  31.925  1.00  0.00     0.031 C 
ATOM     43  C   UNL A   1      39.611  27.393  28.107  1.00  0.00     0.029 A 
ATOM     44  N   UNL A   1      41.281  27.266  29.590  1.00  0.00    -0.354 N 
ATOM     45  C   UNL A   1      41.540  30.046  32.884  1.00  0.00     0.074 A 
ATOM     46  C   UNL A   1      40.447  30.992  32.855  1.00  0.00     0.031 C 
ATOM     47  C   UNL A   1      40.450  26.431  27.688  1.00  0.00     0.029 A 
ATOM     48  C   UNL A   1      41.570  26.338  28.618  1.00  0.00     0.049 A 
ATOM     49  H   UNL A   1      41.850  27.417  30.378  1.00  0.00     0.167 HD
ATOM     50  C   UNL A   1      42.530  30.054  33.809  1.00  0.00     0.034 A 
ATOM     51  C   UNL A   1      42.624  25.509  28.487  1.00  0.00     0.034 A 
ATOM     52  C   UNL A   1      43.593  29.086  33.855  1.00  0.00     0.049 A 
ATOM     53  C   UNL A   1      43.687  25.505  29.550  1.00  0.00     0.074 A 
ATOM     54  C   UNL A   1      44.588  28.946  34.805  1.00  0.00     0.029 A 
ATOM     55  N   UNL A   1      43.807  28.101  32.903  1.00  0.00    -0.354 N 
ATOM     56  N   UNL A   1      43.774  26.241  30.631  1.00  0.00    -0.248 NA
ATOM     57  C   UNL A   1      44.778  24.531  29.396  1.00  0.00     0.031 C 
ATOM     58  C   UNL A   1      45.422  27.894  34.411  1.00  0.00     0.029 A 
ATOM     59  C   UNL A   1      44.927  27.357  33.233  1.00  0.00     0.049 A 
ATOM     60  H   UNL A   1      43.245  27.953  32.108  1.00  0.00     0.167 HD
ATOM     61  C   UNL A   1      44.907  25.799  31.304  1.00  0.00     0.074 A 
ATOM     62  C   UNL A   1      45.463  24.717  30.517  1.00  0.00     0.031 C 
ATOM     63  C   UNL A   1      45.445  26.255  32.463  1.00  0.00     0.034 A 
BRANCH  50  64
ATOM     64  C   UNL A   1      42.482  31.123  34.871  1.00  0.00     0.023 A 
ATOM     65  C   UNL A   1      41.851  30.855  36.105  1.00  0.00     0.012 A 
ATOM     66  C   UNL A   1      43.088  32.377  34.666  1.00  0.00     0.148 A 
ATOM     67  C   UNL A   1      41.785  31.830  37.097  1.00  0.00     0.002 A 
ATOM     68  C   UNL A   1      43.061  33.329  35.680  1.00  0.00     0.091 A 
ATOM     69  F   UNL A   1      43.664  32.626  33.481  1.00  0.00    -0.205 F 
ATOM     70  C   UNL A   1      42.397  33.063  36.889  1.00  0.00     0.022 A 
BRANCH  68  71
ATOM     71  S   UNL A   1      43.890  34.916  35.538  1.00  0.00     0.127 S 
ATOM     72  O   UNL A   1      45.270  34.506  35.285  1.00  0.00    -0.237 OA
ATOM     73  O   UNL A   1      43.212  35.516  34.389  1.00  0.00    -0.237 OA
ATOM     74  O   UNL A   1      43.660  35.601  36.803  1.00  0.00    -0.744 OA
ENDBRANCH  68  71
ENDBRANCH  50  64
BRANCH  51  75
ATOM     75  C   UNL A   1      42.682  24.569  27.332  1.00  0.00     0.023 A 
ATOM     76  C   UNL A   1      43.377  24.945  26.166  1.00  0.00     0.012 A 
ATOM     77  C   UNL A   1      42.101  23.288  27.404  1.00  0.00     0.148 A 
ATOM     78  C   UNL A   1      43.471  24.072  25.082  1.00  0.00     0.002 A 
ATOM     79  C   UNL A   1      42.247  22.403  26.343  1.00  0.00     0.091 A 
ATOM     80  F   UNL A   1      41.439  22.954  28.521  1.00  0.00    -0.205 F 
ATOM     81  C   UNL A   1      42.917  22.798  25.175  1.00  0.00     0.022 A 
BRANCH  79  82
ATOM     82  S   UNL A   1      41.686  20.698  26.425  1.00  0.00     0.127 S 
ATOM     83  O   UNL A   1      42.446  20.080  25.343  1.00  0.00    -0.237 OA
ATOM     84  O   UNL A   1      42.104  20.310  27.773  1.00  0.00    -0.237 OA
ATOM     85  O   UNL A   1      40.243  20.747  26.234  1.00  0.00    -0.744 OA
ENDBRANCH  79  82
ENDBRANCH  51  75
BRANCH  63  86
ATOM     86  C   UNL A   1      46.685  25.569  32.974  1.00  0.00     0.023 A 
ATOM     87  C   UNL A   1      47.957  26.056  32.612  1.00  0.00     0.012 A 
ATOM     88  C   UNL A   1      46.589  24.491  33.875  1.00  0.00     0.148 A 
ATOM     89  C   UNL A   1      49.113  25.458  33.112  1.00  0.00     0.002 A 
ATOM     90  C   UNL A   1      47.743  23.934  34.410  1.00  0.00     0.091 A 
ATOM     91  F   UNL A   1      45.370  24.032  34.194  1.00  0.00    -0.205 F 
ATOM     92  C   UNL A   1      49.007  24.406  34.021  1.00  0.00     0.022 A 
BRANCH  90  93
ATOM     93  S   UNL A   1      47.701  22.644  35.660  1.00  0.00     0.127 S 
ATOM     94  O   UNL A   1      49.057  22.107  35.580  1.00  0.00    -0.237 OA
ATOM     95  O   UNL A   1      47.415  23.402  36.878  1.00  0.00    -0.237 OA
ATOM     96  O   UNL A   1      46.642  21.729  35.256  1.00  0.00    -0.744 OA
ENDBRANCH  90  93
ENDBRANCH  63  86
ENDBRANCH  37  38
ENDBRANCH  29  32
ENDBRANCH  27  28
ENDBRANCH  26  27
ENDBRANCH  25  26
ENDBRANCH   1  25
TORSDOF 19
ENDMDL
MODEL 2
REMARK VINA RESULT:     -10.7      3.541      8.390
REMARK SMILES C[C@@H]1[C@H](C)CC[C@H]1[NH2+]Cc1ccc(C(=O)NCCCCCCNC(=O)c2ccc(-c3c4nc(c(-c5cccc(S(=O)(=O)[O-])c5F)c5ccc([nH]5)c(-c5cccc(S(=O)(=O)[O-])c5F)c5nc(c(-c6cccc(S(=O)(=O)[O-])c6F)c6ccc3[nH]6)C=C5)C=C4)cc2)cn1
REMARK SMILES IDX 19 1 18 2 17 3 16 4 14 5 15 6 13 8 10 9 11 10 90 11 12 12
REMARK SMILES IDX 89 13 9 14 8 15 7 18 1 19 2 20 3 21 4 22 5 23 6 24 20 25
REMARK SMILES IDX 21 26 22 27 23 28 24 29 25 31 26 32 27 33 88 34 28 35 87 36
REMARK SMILES IDX 29 37 30 38 31 39 81 40 32 41 86 42 80 43 82 44 33 45 85 46
REMARK SMILES IDX 79 47 78 48 34 50 66 51 46 52 65 53 47 54 50 55 64 56 83 57
REMARK SMILES IDX 48 58 49 59 63 61 84 62 51 63 35 64 36 65 44 66 37 67 39 68
REMARK SMILES IDX 45 69 38 70 40 71 41 72 42 73 43 74 67 75 68 76 76 77 69 78
REMARK SMILES IDX 71 79 77 80 70 81 72 82 73 83 74 84 75 85 52 86 53 87 61 88
REMARK SMILES IDX 54 89 56 90 62 91 55 92 57 93 58 94 59 95 60 96
REMARK H PARENT 16 7 8 16 8 17 23 30 82 49 50 60
REMARK Flexibility Score: inf
ROOT
ATOM      1  C   UNL A   1      33.400  29.461  26.864  1.00  0.00     0.002 C 
ENDROOT
BRANCH   1   2
ATOM      2  C   UNL A   1      32.846  29.730  25.459  1.00  0.00     0.021 C 
BRANCH   2   3
ATOM      3  C   UNL A   1      31.376  29.346  25.311  1.00  0.00     0.116 C 
BRANCH   3   4
ATOM      4  N   UNL A   1      30.931  29.628  23.962  1.00  0.00    -0.352 N 
ATOM      5  C   UNL A   1      31.037  28.880  22.825  1.00  0.00     0.252 C 
ATOM      6  O   UNL A   1      30.537  29.296  21.782  1.00  0.00    -0.269 OA
ATOM      7  H   UNL A   1      30.481  30.496  23.846  1.00  0.00     0.163 HD
BRANCH   5   8
ATOM      8  C   UNL A   1      31.703  27.567  22.823  1.00  0.00     0.058 A 
ATOM      9  C   UNL A   1      32.646  25.005  22.528  1.00  0.00     0.094 A 
ATOM     10  C   UNL A   1      33.546  26.065  22.438  1.00  0.00     0.030 A 
ATOM     11  N   UNL A   1      31.342  25.180  22.876  1.00  0.00    -0.255 NA
ATOM     12  C   UNL A   1      33.060  27.366  22.567  1.00  0.00     0.017 A 
ATOM     13  C   UNL A   1      30.897  26.453  22.982  1.00  0.00     0.125 A 
BRANCH   9  14
ATOM     14  C   UNL A   1      33.060  23.612  22.088  1.00  0.00     0.318 C 
BRANCH  14  15
ATOM     15  N   UNL A   1      34.266  23.109  22.778  1.00  0.00    -0.339 N 
ATOM     16  H   UNL A   1      34.810  22.563  22.109  1.00  0.00     0.346 HD
ATOM     17  H   UNL A   1      34.761  23.930  23.125  1.00  0.00     0.346 HD
BRANCH  15  18
ATOM     18  C   UNL A   1      33.999  22.262  23.949  1.00  0.00     0.185 C 
ATOM     19  C   UNL A   1      35.154  23.745  25.695  1.00  0.00     0.014 C 
ATOM     20  C   UNL A   1      33.843  23.138  25.212  1.00  0.00     0.047 C 
ATOM     21  C   UNL A   1      33.087  22.250  26.231  1.00  0.00    -0.005 C 
ATOM     22  C   UNL A   1      33.924  21.635  27.347  1.00  0.00     0.008 C 
ATOM     23  C   UNL A   1      32.417  21.145  25.401  1.00  0.00     0.010 C 
ATOM     24  C   UNL A   1      32.664  21.513  23.947  1.00  0.00     0.065 C 
ENDBRANCH  15  18
ENDBRANCH  14  15
ENDBRANCH   9  14
ENDBRANCH   5   8
ENDBRANCH   3   4
ENDBRANCH   2   3
ENDBRANCH   1   2
BRANCH   1  25
ATOM     25  C   UNL A   1      33.804  30.718  27.642  1.00  0.00     0.002 C 
BRANCH  25  26
ATOM     26  C   UNL A   1      32.735  31.813  27.683  1.00  0.00     0.021 C 
BRANCH  26  27
ATOM     27  C   UNL A   1      33.142  33.103  26.979  1.00  0.00     0.116 C 
BRANCH  27  28
ATOM     28  N   UNL A   1      32.762  34.272  27.757  1.00  0.00    -0.352 N 
ATOM     29  C   UNL A   1      33.175  34.638  29.012  1.00  0.00     0.251 C 
ATOM     30  H   UNL A   1      32.123  34.882  27.324  1.00  0.00     0.163 HD
ATOM     31  O   UNL A   1      32.571  35.508  29.632  1.00  0.00    -0.269 OA
BRANCH  29  32
ATOM     32  C   UNL A   1      34.350  33.973  29.611  1.00  0.00     0.039 A 
ATOM     33  C   UNL A   1      35.628  34.320  29.169  1.00  0.00     0.014 A 
ATOM     34  C   UNL A   1      34.181  33.003  30.604  1.00  0.00     0.014 A 
ATOM     35  C   UNL A   1      36.743  33.720  29.756  1.00  0.00     0.010 A 
ATOM     36  C   UNL A   1      35.295  32.465  31.239  1.00  0.00     0.010 A 
ATOM     37  C   UNL A   1      36.586  32.806  30.811  1.00  0.00    -0.014 A 
BRANCH  37  38
ATOM     38  C   UNL A   1      37.760  32.193  31.480  1.00  0.00     0.031 A 
ATOM     39  C   UNL A   1      38.506  31.068  30.819  1.00  0.00     0.074 A 
ATOM     40  C   UNL A   1      38.098  32.591  32.721  1.00  0.00     0.049 A 
ATOM     41  N   UNL A   1      39.521  30.376  31.267  1.00  0.00    -0.248 NA
ATOM     42  C   UNL A   1      38.031  30.641  29.492  1.00  0.00     0.031 C 
ATOM     43  C   UNL A   1      37.395  33.613  33.501  1.00  0.00     0.029 A 
ATOM     44  N   UNL A   1      39.098  32.164  33.557  1.00  0.00    -0.354 N 
ATOM     45  C   UNL A   1      39.781  29.412  30.300  1.00  0.00     0.074 A 
ATOM     46  C   UNL A   1      38.793  29.584  29.258  1.00  0.00     0.031 C 
ATOM     47  C   UNL A   1      37.988  33.736  34.699  1.00  0.00     0.029 A 
ATOM     48  C   UNL A   1      39.090  32.783  34.785  1.00  0.00     0.049 A 
ATOM     49  H   UNL A   1      39.756  31.479  33.303  1.00  0.00     0.167 HD
ATOM     50  C   UNL A   1      40.771  28.488  30.267  1.00  0.00     0.034 A 
ATOM     51  C   UNL A   1      39.879  32.600  35.862  1.00  0.00     0.034 A 
ATOM     52  C   UNL A   1      41.773  28.349  31.290  1.00  0.00     0.049 A 
ATOM     53  C   UNL A   1      40.999  31.600  35.785  1.00  0.00     0.074 A 
ATOM     54  C   UNL A   1      42.874  27.514  31.307  1.00  0.00     0.029 A 
ATOM     55  N   UNL A   1      41.789  29.057  32.482  1.00  0.00    -0.354 N 
ATOM     56  N   UNL A   1      41.333  30.812  34.792  1.00  0.00    -0.248 NA
ATOM     57  C   UNL A   1      41.874  31.490  36.961  1.00  0.00     0.031 C 
ATOM     58  C   UNL A   1      43.540  27.693  32.524  1.00  0.00     0.029 A 
ATOM     59  C   UNL A   1      42.872  28.667  33.251  1.00  0.00     0.049 A 
ATOM     60  H   UNL A   1      41.127  29.736  32.744  1.00  0.00     0.167 HD
ATOM     61  C   UNL A   1      42.475  30.137  35.208  1.00  0.00     0.074 A 
ATOM     62  C   UNL A   1      42.786  30.624  36.536  1.00  0.00     0.031 C 
ATOM     63  C   UNL A   1      43.194  29.190  34.554  1.00  0.00     0.034 A 
BRANCH  50  64
ATOM     64  C   UNL A   1      40.838  27.583  29.064  1.00  0.00     0.023 A 
ATOM     65  C   UNL A   1      39.974  26.471  28.976  1.00  0.00     0.012 A 
ATOM     66  C   UNL A   1      41.726  27.850  28.005  1.00  0.00     0.148 A 
ATOM     67  C   UNL A   1      40.025  25.615  27.878  1.00  0.00     0.002 A 
ATOM     68  C   UNL A   1      41.737  27.018  26.889  1.00  0.00     0.091 A 
ATOM     69  F   UNL A   1      42.557  28.897  28.112  1.00  0.00    -0.205 F 
ATOM     70  C   UNL A   1      40.899  25.893  26.832  1.00  0.00     0.022 A 
BRANCH  68  71
ATOM     71  S   UNL A   1      42.770  27.339  25.455  1.00  0.00     0.127 S 
ATOM     72  O   UNL A   1      42.606  26.104  24.691  1.00  0.00    -0.237 OA
ATOM     73  O   UNL A   1      42.122  28.511  24.865  1.00  0.00    -0.237 OA
ATOM     74  O   UNL A   1      44.109  27.584  25.974  1.00  0.00    -0.744 OA
ENDBRANCH  68  71
ENDBRANCH  50  64
BRANCH  51  75
ATOM     75  C   UNL A   1      39.669  33.434  37.078  1.00  0.00     0.023 A 
ATOM     76  C   UNL A   1      40.208  34.734  37.128  1.00  0.00     0.012 A 
ATOM     77  C   UNL A   1      38.895  32.968  38.159  1.00  0.00     0.148 A 
ATOM     78  C   UNL A   1      40.001  35.547  38.243  1.00  0.00     0.002 A 
ATOM     79  C   UNL A   1      38.646  33.803  39.241  1.00  0.00     0.091 A 
ATOM     80  F   UNL A   1      38.397  31.725  38.092  1.00  0.00    -0.205 F 
ATOM     81  C   UNL A   1      39.211  35.086  39.293  1.00  0.00     0.022 A 
BRANCH  79  82
ATOM     82  S   UNL A   1      37.531  33.347  40.574  1.00  0.00     0.127 S 
ATOM     83  O   UNL A   1      36.293  33.075  39.850  1.00  0.00    -0.237 OA
ATOM     84  O   UNL A   1      38.195  32.166  41.128  1.00  0.00    -0.237 OA
ATOM     85  O   UNL A   1      37.498  34.495  41.471  1.00  0.00    -0.744 OA
ENDBRANCH  79  82
ENDBRANCH  51  75
BRANCH  63  86
ATOM     86  C   UNL A   1      44.411  28.635  35.248  1.00  0.00     0.023 A 
ATOM     87  C   UNL A   1      45.684  29.172  34.972  1.00  0.00     0.012 A 
ATOM     88  C   UNL A   1      44.281  27.633  36.230  1.00  0.00     0.148 A 
ATOM     89  C   UNL A   1      46.812  28.697  35.639  1.00  0.00     0.002 A 
ATOM     90  C   UNL A   1      45.402  27.201  36.927  1.00  0.00     0.091 A 
ATOM     91  F   UNL A   1      43.063  27.122  36.465  1.00  0.00    -0.205 F 
ATOM     92  C   UNL A   1      46.671  27.722  36.625  1.00  0.00     0.022 A 
BRANCH  90  93
ATOM     93  S   UNL A   1      45.301  26.023  38.279  1.00  0.00     0.127 S 
ATOM     94  O   UNL A   1      46.694  25.952  38.716  1.00  0.00    -0.237 OA
ATOM     95  O   UNL A   1      44.402  26.699  39.214  1.00  0.00    -0.237 OA
ATOM     96  O   UNL A   1      44.764  24.797  37.703  1.00  0.00    -0.744 OA
ENDBRANCH  90  93
ENDBRANCH  63  86
ENDBRANCH  37  38
ENDBRANCH  29  32
ENDBRANCH  27  28
ENDBRANCH  26  27
ENDBRANCH  25  26
ENDBRANCH   1  25
TORSDOF 19
ENDMDL
MODEL 3
REMARK VINA RESULT:     -10.7      3.598      8.541
REMARK SMILES C[C@@H]1[C@H](C)CC[C@H]1[NH2+]Cc1ccc(C(=O)NCCCCCCNC(=O)c2ccc(-c3c4nc(c(-c5cccc(S(=O)(=O)[O-])c5F)c5ccc([nH]5)c(-c5cccc(S(=O)(=O)[O-])c5F)c5nc(c(-c6cccc(S(=O)(=O)[O-])c6F)c6ccc3[nH]6)C=C5)C=C4)cc2)cn1
REMARK SMILES IDX 19 1 18 2 17 3 16 4 14 5 15 6 13 8 10 9 11 10 90 11 12 12
REMARK SMILES IDX 89 13 9 14 8 15 7 18 1 19 2 20 3 21 4 22 5 23 6 24 20 25
REMARK SMILES IDX 21 26 22 27 23 28 24 29 25 31 26 32 27 33 88 34 28 35 87 36
REMARK SMILES IDX 29 37 30 38 31 39 81 40 32 41 86 42 80 43 82 44 33 45 85 46
REMARK SMILES IDX 79 47 78 48 34 50 66 51 46 52 65 53 47 54 50 55 64 56 83 57
REMARK SMILES IDX 48 58 49 59 63 61 84 62 51 63 35 64 36 65 44 66 37 67 39 68
REMARK SMILES IDX 45 69 38 70 40 71 41 72 42 73 43 74 67 75 68 76 76 77 69 78
REMARK SMILES IDX 71 79 77 80 70 81 72 82 73 83 74 84 75 85 52 86 53 87 61 88
REMARK SMILES IDX 54 89 56 90 62 91 55 92 57 93 58 94 59 95 60 96
REMARK H PARENT 16 7 8 16 8 17 23 30 82 49 50 60
REMARK Flexibility Score: inf
ROOT
ATOM      1  C   UNL A   1      31.770  29.841  25.214  1.00  0.00     0.002 C 
ENDROOT
BRANCH   1   2
ATOM      2  C   UNL A   1      32.843  28.887  24.675  1.00  0.00     0.021 C 
BRANCH   2   3
ATOM      3  C   UNL A   1      33.086  29.045  23.176  1.00  0.00     0.116 C 
BRANCH   3   4
ATOM      4  N   UNL A   1      31.838  29.353  22.508  1.00  0.00    -0.352 N 
ATOM      5  C   UNL A   1      30.722  28.587  22.330  1.00  0.00     0.252 C 
ATOM      6  O   UNL A   1      29.742  29.072  21.767  1.00  0.00    -0.269 OA
ATOM      7  H   UNL A   1      31.786  30.256  22.121  1.00  0.00     0.163 HD
BRANCH   5   8
ATOM      8  C   UNL A   1      30.647  27.203  22.827  1.00  0.00     0.058 A 
ATOM      9  C   UNL A   1      30.936  24.652  23.803  1.00  0.00     0.094 A 
ATOM     10  C   UNL A   1      29.961  25.477  24.360  1.00  0.00     0.030 A 
ATOM     11  N   UNL A   1      31.668  25.017  22.715  1.00  0.00    -0.255 NA
ATOM     12  C   UNL A   1      29.832  26.779  23.877  1.00  0.00     0.017 A 
ATOM     13  C   UNL A   1      31.530  26.289  22.276  1.00  0.00     0.125 A 
BRANCH   9  14
ATOM     14  C   UNL A   1      31.326  23.358  24.493  1.00  0.00     0.318 C 
BRANCH  14  15
ATOM     15  N   UNL A   1      32.747  22.996  24.311  1.00  0.00    -0.339 N 
ATOM     16  H   UNL A   1      33.174  23.687  23.692  1.00  0.00     0.346 HD
ATOM     17  H   UNL A   1      33.161  22.980  25.242  1.00  0.00     0.346 HD
BRANCH  15  18
ATOM     18  C   UNL A   1      32.977  21.664  23.734  1.00  0.00     0.185 C 
ATOM     19  C   UNL A   1      33.423  20.426  25.937  1.00  0.00     0.014 C 
ATOM     20  C   UNL A   1      32.513  20.571  24.723  1.00  0.00     0.047 C 
ATOM     21  C   UNL A   1      32.320  19.299  23.860  1.00  0.00    -0.005 C 
ATOM     22  C   UNL A   1      33.414  18.243  23.956  1.00  0.00     0.008 C 
ATOM     23  C   UNL A   1      32.186  19.796  22.414  1.00  0.00     0.010 C 
ATOM     24  C   UNL A   1      32.142  21.312  22.499  1.00  0.00     0.065 C 
ENDBRANCH  15  18
ENDBRANCH  14  15
ENDBRANCH   9  14
ENDBRANCH   5   8
ENDBRANCH   3   4
ENDBRANCH   2   3
ENDBRANCH   1   2
BRANCH   1  25
ATOM     25  C   UNL A   1      32.017  30.336  26.644  1.00  0.00     0.002 C 
BRANCH  25  26
ATOM     26  C   UNL A   1      31.795  31.838  26.845  1.00  0.00     0.021 C 
BRANCH  26  27
ATOM     27  C   UNL A   1      33.054  32.603  27.238  1.00  0.00     0.116 C 
BRANCH  27  28
ATOM     28  N   UNL A   1      32.738  33.955  27.670  1.00  0.00    -0.352 N 
ATOM     29  C   UNL A   1      33.197  34.635  28.769  1.00  0.00     0.251 C 
ATOM     30  H   UNL A   1      32.109  34.449  27.096  1.00  0.00     0.163 HD
ATOM     31  O   UNL A   1      32.641  35.665  29.135  1.00  0.00    -0.269 OA
BRANCH  29  32
ATOM     32  C   UNL A   1      34.363  34.111  29.508  1.00  0.00     0.039 A 
ATOM     33  C   UNL A   1      34.154  33.290  30.617  1.00  0.00     0.014 A 
ATOM     34  C   UNL A   1      35.660  34.441  29.104  1.00  0.00     0.014 A 
ATOM     35  C   UNL A   1      35.253  32.763  31.298  1.00  0.00     0.010 A 
ATOM     36  C   UNL A   1      36.751  33.854  29.737  1.00  0.00     0.010 A 
ATOM     37  C   UNL A   1      36.558  33.022  30.849  1.00  0.00    -0.014 A 
BRANCH  37  38
ATOM     38  C   UNL A   1      37.738  32.434  31.530  1.00  0.00     0.031 A 
ATOM     39  C   UNL A   1      38.491  31.299  30.895  1.00  0.00     0.074 A 
ATOM     40  C   UNL A   1      38.074  32.863  32.762  1.00  0.00     0.049 A 
ATOM     41  N   UNL A   1      39.512  30.625  31.358  1.00  0.00    -0.248 NA
ATOM     42  C   UNL A   1      38.018  30.838  29.579  1.00  0.00     0.031 C 
ATOM     43  C   UNL A   1      37.365  33.898  33.518  1.00  0.00     0.029 A 
ATOM     44  N   UNL A   1      39.078  32.462  33.606  1.00  0.00    -0.354 N 
ATOM     45  C   UNL A   1      39.777  29.641  30.413  1.00  0.00     0.074 A 
ATOM     46  C   UNL A   1      38.787  29.781  29.368  1.00  0.00     0.031 C 
ATOM     47  C   UNL A   1      37.958  34.053  34.713  1.00  0.00     0.029 A 
ATOM     48  C   UNL A   1      39.067  33.110  34.819  1.00  0.00     0.049 A 
ATOM     49  H   UNL A   1      39.741  31.776  33.367  1.00  0.00     0.167 HD
ATOM     50  C   UNL A   1      40.774  28.723  30.401  1.00  0.00     0.034 A 
ATOM     51  C   UNL A   1      39.858  32.957  35.899  1.00  0.00     0.034 A 
ATOM     52  C   UNL A   1      41.778  28.615  31.425  1.00  0.00     0.049 A 
ATOM     53  C   UNL A   1      40.985  31.964  35.844  1.00  0.00     0.074 A 
ATOM     54  C   UNL A   1      42.885  27.788  31.460  1.00  0.00     0.029 A 
ATOM     55  N   UNL A   1      41.790  29.351  32.601  1.00  0.00    -0.354 N 
ATOM     56  N   UNL A   1      41.325  31.156  34.869  1.00  0.00    -0.248 NA
ATOM     57  C   UNL A   1      41.863  31.888  37.021  1.00  0.00     0.031 C 
ATOM     58  C   UNL A   1      43.551  28.001  32.671  1.00  0.00     0.029 A 
ATOM     59  C   UNL A   1      42.877  28.986  33.376  1.00  0.00     0.049 A 
ATOM     60  H   UNL A   1      41.123  30.031  32.847  1.00  0.00     0.167 HD
ATOM     61  C   UNL A   1      42.471  30.499  35.299  1.00  0.00     0.074 A 
ATOM     62  C   UNL A   1      42.780  31.019  36.615  1.00  0.00     0.031 C 
ATOM     63  C   UNL A   1      43.197  29.542  34.667  1.00  0.00     0.034 A 
BRANCH  50  64
ATOM     64  C   UNL A   1      40.846  27.791  29.219  1.00  0.00     0.023 A 
ATOM     65  C   UNL A   1      40.028  26.641  29.183  1.00  0.00     0.012 A 
ATOM     66  C   UNL A   1      41.692  28.067  28.128  1.00  0.00     0.148 A 
ATOM     67  C   UNL A   1      40.085  25.760  28.106  1.00  0.00     0.002 A 
ATOM     68  C   UNL A   1      41.708  27.208  27.034  1.00  0.00     0.091 A 
ATOM     69  F   UNL A   1      42.481  29.150  28.185  1.00  0.00    -0.205 F 
ATOM     70  C   UNL A   1      40.917  26.048  27.028  1.00  0.00     0.022 A 
BRANCH  68  71
ATOM     71  S   UNL A   1      42.686  27.535  25.563  1.00  0.00     0.127 S 
ATOM     72  O   UNL A   1      42.075  28.769  25.071  1.00  0.00    -0.237 OA
ATOM     73  O   UNL A   1      44.031  27.699  26.116  1.00  0.00    -0.237 OA
ATOM     74  O   UNL A   1      42.522  26.368  24.707  1.00  0.00    -0.744 OA
ENDBRANCH  68  71
ENDBRANCH  50  64
BRANCH  51  75
ATOM     75  C   UNL A   1      39.644  33.818  37.096  1.00  0.00     0.023 A 
ATOM     76  C   UNL A   1      40.064  35.162  37.067  1.00  0.00     0.012 A 
ATOM     77  C   UNL A   1      38.979  33.329  38.237  1.00  0.00     0.148 A 
ATOM     78  C   UNL A   1      39.848  35.997  38.164  1.00  0.00     0.002 A 
ATOM     79  C   UNL A   1      38.717  34.181  39.303  1.00  0.00     0.091 A 
ATOM     80  F   UNL A   1      38.593  32.045  38.244  1.00  0.00    -0.205 F 
ATOM     81  C   UNL A   1      39.166  35.511  39.276  1.00  0.00     0.022 A 
BRANCH  79  82
ATOM     82  S   UNL A   1      37.727  33.683  40.717  1.00  0.00     0.127 S 
ATOM     83  O   UNL A   1      37.497  34.959  41.387  1.00  0.00    -0.237 OA
ATOM     84  O   UNL A   1      36.549  33.105  40.068  1.00  0.00    -0.237 OA
ATOM     85  O   UNL A   1      38.541  32.723  41.450  1.00  0.00    -0.744 OA
ENDBRANCH  79  82
ENDBRANCH  51  75
BRANCH  63  86
ATOM     86  C   UNL A   1      44.418  29.012  35.372  1.00  0.00     0.023 A 
ATOM     87  C   UNL A   1      44.313  27.878  36.202  1.00  0.00     0.012 A 
ATOM     88  C   UNL A   1      45.682  29.591  35.150  1.00  0.00     0.148 A 
ATOM     89  C   UNL A   1      45.442  27.350  36.826  1.00  0.00     0.002 A 
ATOM     90  C   UNL A   1      46.811  29.029  35.733  1.00  0.00     0.091 A 
ATOM     91  F   UNL A   1      45.759  30.680  34.371  1.00  0.00    -0.205 F 
ATOM     92  C   UNL A   1      46.692  27.916  36.582  1.00  0.00     0.022 A 
BRANCH  90  93
ATOM     93  S   UNL A   1      48.470  29.630  35.398  1.00  0.00     0.127 S 
ATOM     94  O   UNL A   1      48.551  29.484  33.945  1.00  0.00    -0.237 OA
ATOM     95  O   UNL A   1      48.401  31.013  35.869  1.00  0.00    -0.237 OA
ATOM     96  O   UNL A   1      49.369  28.775  36.162  1.00  0.00    -0.744 OA
ENDBRANCH  90  93
ENDBRANCH  63  86
ENDBRANCH  37  38
ENDBRANCH  29  32
ENDBRANCH  27  28
ENDBRANCH  26  27
ENDBRANCH  25  26
ENDBRANCH   1  25
TORSDOF 19
ENDMDL
