MODEL 1
REMARK VINA RESULT:     -12.7      0.000      0.000
REMARK SMILES Cc1c(N[C@@H]2CC[C@@H]([NH3+])C2)cccc1C(=O)NCCCCCCNC(=O)c1ccc(-c2c3nc(c(-c4cccc(S(=O)(=O)[O-])c4F)c4ccc([nH]4)c(-c4cccc(S(=O)(=O)[O-])c4F)c4nc(c(-c5cccc(S(=O)(=O)[O-])c5F)c5ccc2[nH]5)C=C4)C=C3)cc1
REMARK SMILES IDX 20 1 19 2 18 3 17 4 15 5 16 6 14 8 1 9 2 10 3 11 11 12 13 13
REMARK SMILES IDX 12 14 4 15 5 17 6 18 10 19 7 20 8 21 9 22 21 26 22 27 23 28
REMARK SMILES IDX 24 29 25 30 26 32 27 33 28 34 89 35 29 36 88 37 30 38 31 39
REMARK SMILES IDX 32 40 82 41 33 42 87 43 81 44 83 45 34 46 86 47 80 48 79 49
REMARK SMILES IDX 35 51 67 52 47 53 66 54 48 55 51 56 65 57 84 58 49 59 50 60
REMARK SMILES IDX 64 62 85 63 52 64 36 65 37 66 45 67 38 68 40 69 46 70 39 71
REMARK SMILES IDX 41 72 42 73 43 74 44 75 68 76 69 77 77 78 70 79 72 80 78 81
REMARK SMILES IDX 71 82 73 83 74 84 75 85 76 86 53 87 54 88 62 89 55 90 57 91
REMARK SMILES IDX 63 92 56 93 58 94 59 95 60 96 61 97
REMARK H PARENT 17 7 4 16 9 23 9 24 9 25 24 31 83 50 51 61
REMARK Flexibility Score: inf
ROOT
ATOM      1  C   UNL A   1      31.354  28.046  25.375  1.00  0.00     0.002 C 
ENDROOT
BRANCH   1   2
ATOM      2  C   UNL A   1      30.602  28.041  24.039  1.00  0.00     0.021 C 
BRANCH   2   3
ATOM      3  C   UNL A   1      30.702  26.731  23.244  1.00  0.00     0.116 C 
BRANCH   3   4
ATOM      4  N   UNL A   1      31.843  26.791  22.355  1.00  0.00    -0.352 N 
ATOM      5  C   UNL A   1      33.123  26.308  22.419  1.00  0.00     0.251 C 
ATOM      6  O   UNL A   1      33.871  26.632  21.492  1.00  0.00    -0.269 OA
ATOM      7  H   UNL A   1      31.659  27.286  21.524  1.00  0.00     0.163 HD
BRANCH   5   8
ATOM      8  C   UNL A   1      33.632  25.331  23.435  1.00  0.00     0.044 A 
ATOM      9  C   UNL A   1      32.931  23.141  22.313  1.00  0.00     0.047 C 
ATOM     10  C   UNL A   1      33.685  23.920  23.360  1.00  0.00    -0.015 A 
ATOM     11  C   UNL A   1      34.329  23.167  24.386  1.00  0.00     0.038 A 
ATOM     12  C   UNL A   1      34.616  23.817  25.589  1.00  0.00     0.026 A 
ATOM     13  C   UNL A   1      34.012  25.941  24.645  1.00  0.00     0.014 A 
ATOM     14  C   UNL A   1      34.451  25.191  25.728  1.00  0.00     0.003 A 
BRANCH  11  15
ATOM     15  N   UNL A   1      34.575  21.823  24.181  1.00  0.00    -0.382 N 
ATOM     16  H   UNL A   1      35.096  21.622  23.370  1.00  0.00     0.160 HD
BRANCH  15  17
ATOM     17  C   UNL A   1      34.197  20.654  24.956  1.00  0.00     0.085 C 
ATOM     18  C   UNL A   1      35.061  19.423  24.681  1.00  0.00     0.031 C 
ATOM     19  C   UNL A   1      32.738  20.225  24.832  1.00  0.00     0.089 C 
ATOM     20  C   UNL A   1      34.079  18.266  24.505  1.00  0.00     0.067 C 
ATOM     21  C   UNL A   1      32.768  18.727  25.146  1.00  0.00     0.182 C 
BRANCH  21  22
ATOM     22  N   UNL A   1      32.760  18.464  26.583  1.00  0.00    -0.355 N 
ATOM     23  H   UNL A   1      33.664  18.088  26.866  1.00  0.00     0.344 HD
ATOM     24  H   UNL A   1      32.027  17.789  26.801  1.00  0.00     0.344 HD
ATOM     25  H   UNL A   1      32.580  19.333  27.086  1.00  0.00     0.344 HD
ENDBRANCH  21  22
ENDBRANCH  15  17
ENDBRANCH  11  15
ENDBRANCH   5   8
ENDBRANCH   3   4
ENDBRANCH   2   3
ENDBRANCH   1   2
BRANCH   1  26
ATOM     26  C   UNL A   1      31.857  29.414  25.858  1.00  0.00     0.002 C 
BRANCH  26  27
ATOM     27  C   UNL A   1      33.374  29.553  25.985  1.00  0.00     0.021 C 
BRANCH  27  28
ATOM     28  C   UNL A   1      33.847  29.845  27.402  1.00  0.00     0.116 C 
BRANCH  28  29
ATOM     29  N   UNL A   1      34.744  30.981  27.477  1.00  0.00    -0.352 N 
ATOM     30  C   UNL A   1      36.051  31.067  27.933  1.00  0.00     0.251 C 
ATOM     31  H   UNL A   1      34.364  31.828  27.150  1.00  0.00     0.163 HD
ATOM     32  O   UNL A   1      36.522  32.162  28.141  1.00  0.00    -0.269 OA
BRANCH  30  33
ATOM     33  C   UNL A   1      36.882  29.833  28.023  1.00  0.00     0.039 A 
ATOM     34  C   UNL A   1      37.047  29.261  29.292  1.00  0.00     0.014 A 
ATOM     35  C   UNL A   1      37.639  29.370  26.952  1.00  0.00     0.014 A 
ATOM     36  C   UNL A   1      38.131  28.416  29.536  1.00  0.00     0.010 A 
ATOM     37  C   UNL A   1      38.752  28.597  27.201  1.00  0.00     0.010 A 
ATOM     38  C   UNL A   1      39.037  28.187  28.506  1.00  0.00    -0.014 A 
BRANCH  38  39
ATOM     39  C   UNL A   1      40.333  27.545  28.663  1.00  0.00     0.031 A 
ATOM     40  C   UNL A   1      40.462  26.093  28.473  1.00  0.00     0.074 A 
ATOM     41  C   UNL A   1      41.425  28.329  28.801  1.00  0.00     0.049 A 
ATOM     42  N   UNL A   1      41.524  25.418  28.740  1.00  0.00    -0.248 NA
ATOM     43  C   UNL A   1      39.364  25.279  27.970  1.00  0.00     0.031 C 
ATOM     44  C   UNL A   1      42.824  27.958  28.621  1.00  0.00     0.029 A 
ATOM     45  N   UNL A   1      41.489  29.603  29.375  1.00  0.00    -0.354 N 
ATOM     46  C   UNL A   1      41.353  24.146  28.237  1.00  0.00     0.074 A 
ATOM     47  C   UNL A   1      39.971  24.097  27.826  1.00  0.00     0.031 C 
ATOM     48  C   UNL A   1      43.585  28.806  29.332  1.00  0.00     0.029 A 
ATOM     49  C   UNL A   1      42.678  29.613  30.129  1.00  0.00     0.049 A 
ATOM     50  H   UNL A   1      40.839  30.335  29.273  1.00  0.00     0.167 HD
ATOM     51  C   UNL A   1      42.448  23.338  28.133  1.00  0.00     0.034 A 
ATOM     52  C   UNL A   1      42.685  29.701  31.494  1.00  0.00     0.034 A 
ATOM     53  C   UNL A   1      43.606  23.942  28.814  1.00  0.00     0.049 A 
ATOM     54  C   UNL A   1      43.346  28.507  32.179  1.00  0.00     0.074 A 
ATOM     55  C   UNL A   1      44.699  24.694  28.417  1.00  0.00     0.029 A 
ATOM     56  N   UNL A   1      43.562  24.038  30.192  1.00  0.00    -0.354 N 
ATOM     57  N   UNL A   1      43.867  27.484  31.557  1.00  0.00    -0.248 NA
ATOM     58  C   UNL A   1      43.375  28.336  33.634  1.00  0.00     0.031 C 
ATOM     59  C   UNL A   1      45.255  25.311  29.582  1.00  0.00     0.029 A 
ATOM     60  C   UNL A   1      44.521  24.906  30.683  1.00  0.00     0.049 A 
ATOM     61  H   UNL A   1      42.923  23.546  30.759  1.00  0.00     0.167 HD
ATOM     62  C   UNL A   1      44.135  26.488  32.461  1.00  0.00     0.074 A 
ATOM     63  C   UNL A   1      43.848  27.085  33.754  1.00  0.00     0.031 C 
ATOM     64  C   UNL A   1      44.505  25.221  32.106  1.00  0.00     0.034 A 
BRANCH  51  65
ATOM     65  C   UNL A   1      42.564  22.098  27.261  1.00  0.00     0.023 A 
ATOM     66  C   UNL A   1      41.695  21.022  27.556  1.00  0.00     0.012 A 
ATOM     67  C   UNL A   1      43.497  21.864  26.224  1.00  0.00     0.148 A 
ATOM     68  C   UNL A   1      41.797  19.774  26.928  1.00  0.00     0.002 A 
ATOM     69  C   UNL A   1      43.643  20.602  25.639  1.00  0.00     0.091 A 
ATOM     70  F   UNL A   1      44.213  22.871  25.728  1.00  0.00    -0.205 F 
ATOM     71  C   UNL A   1      42.792  19.552  25.991  1.00  0.00     0.022 A 
BRANCH  69  72
ATOM     72  S   UNL A   1      44.964  20.223  24.470  1.00  0.00     0.127 S 
ATOM     73  O   UNL A   1      46.162  20.518  25.260  1.00  0.00    -0.237 OA
ATOM     74  O   UNL A   1      44.749  18.802  24.203  1.00  0.00    -0.237 OA
ATOM     75  O   UNL A   1      44.771  21.109  23.330  1.00  0.00    -0.744 OA
ENDBRANCH  69  72
ENDBRANCH  51  65
BRANCH  52  76
ATOM     76  C   UNL A   1      41.511  30.457  32.040  1.00  0.00     0.023 A 
ATOM     77  C   UNL A   1      41.341  31.793  31.600  1.00  0.00     0.012 A 
ATOM     78  C   UNL A   1      40.416  29.800  32.628  1.00  0.00     0.148 A 
ATOM     79  C   UNL A   1      40.078  32.387  31.580  1.00  0.00     0.002 A 
ATOM     80  C   UNL A   1      39.166  30.414  32.637  1.00  0.00     0.091 A 
ATOM     81  F   UNL A   1      40.582  28.562  33.108  1.00  0.00    -0.205 F 
ATOM     82  C   UNL A   1      38.983  31.681  32.065  1.00  0.00     0.022 A 
BRANCH  80  83
ATOM     83  S   UNL A   1      37.729  29.553  33.289  1.00  0.00     0.127 S 
ATOM     84  O   UNL A   1      37.834  29.855  34.713  1.00  0.00    -0.237 OA
ATOM     85  O   UNL A   1      36.621  30.211  32.599  1.00  0.00    -0.237 OA
ATOM     86  O   UNL A   1      37.932  28.165  32.900  1.00  0.00    -0.744 OA
ENDBRANCH  80  83
ENDBRANCH  52  76
BRANCH  64  87
ATOM     87  C   UNL A   1      44.886  24.170  33.126  1.00  0.00     0.023 A 
ATOM     88  C   UNL A   1      43.900  23.307  33.648  1.00  0.00     0.012 A 
ATOM     89  C   UNL A   1      46.174  24.105  33.708  1.00  0.00     0.148 A 
ATOM     90  C   UNL A   1      44.189  22.392  34.663  1.00  0.00     0.002 A 
ATOM     91  C   UNL A   1      46.428  23.269  34.791  1.00  0.00     0.091 A 
ATOM     92  F   UNL A   1      47.179  24.817  33.182  1.00  0.00    -0.205 F 
ATOM     93  C   UNL A   1      45.446  22.389  35.251  1.00  0.00     0.022 A 
BRANCH  91  94
ATOM     94  S   UNL A   1      47.953  23.376  35.739  1.00  0.00     0.127 S 
ATOM     95  O   UNL A   1      47.918  24.762  36.211  1.00  0.00    -0.237 OA
ATOM     96  O   UNL A   1      47.734  22.374  36.778  1.00  0.00    -0.237 OA
ATOM     97  O   UNL A   1      49.023  23.098  34.793  1.00  0.00    -0.744 OA
ENDBRANCH  91  94
ENDBRANCH  64  87
ENDBRANCH  38  39
ENDBRANCH  30  33
ENDBRANCH  28  29
ENDBRANCH  27  28
ENDBRANCH  26  27
ENDBRANCH   1  26
TORSDOF 19
ENDMDL
MODEL 2
REMARK VINA RESULT:     -12.3      1.837      2.302
REMARK SMILES Cc1c(N[C@@H]2CC[C@@H]([NH3+])C2)cccc1C(=O)NCCCCCCNC(=O)c1ccc(-c2c3nc(c(-c4cccc(S(=O)(=O)[O-])c4F)c4ccc([nH]4)c(-c4cccc(S(=O)(=O)[O-])c4F)c4nc(c(-c5cccc(S(=O)(=O)[O-])c5F)c5ccc2[nH]5)C=C4)C=C3)cc1
REMARK SMILES IDX 20 1 19 2 18 3 17 4 15 5 16 6 14 8 1 9 2 10 3 11 11 12 13 13
REMARK SMILES IDX 12 14 4 15 5 17 6 18 10 19 7 20 8 21 9 22 21 26 22 27 23 28
REMARK SMILES IDX 24 29 25 30 26 32 27 33 28 34 89 35 29 36 88 37 30 38 31 39
REMARK SMILES IDX 32 40 82 41 33 42 87 43 81 44 83 45 34 46 86 47 80 48 79 49
REMARK SMILES IDX 35 51 67 52 47 53 66 54 48 55 51 56 65 57 84 58 49 59 50 60
REMARK SMILES IDX 64 62 85 63 52 64 36 65 37 66 45 67 38 68 40 69 46 70 39 71
REMARK SMILES IDX 41 72 42 73 43 74 44 75 68 76 69 77 77 78 70 79 72 80 78 81
REMARK SMILES IDX 71 82 73 83 74 84 75 85 76 86 53 87 54 88 62 89 55 90 57 91
REMARK SMILES IDX 63 92 56 93 58 94 59 95 60 96 61 97
REMARK H PARENT 17 7 4 16 9 23 9 24 9 25 24 31 83 50 51 61
REMARK Flexibility Score: inf
ROOT
ATOM      1  C   UNL A   1      30.625  29.917  24.195  1.00  0.00     0.002 C 
ENDROOT
BRANCH   1   2
ATOM      2  C   UNL A   1      30.046  28.860  23.247  1.00  0.00     0.021 C 
BRANCH   2   3
ATOM      3  C   UNL A   1      30.685  27.468  23.361  1.00  0.00     0.116 C 
BRANCH   3   4
ATOM      4  N   UNL A   1      31.744  27.340  22.383  1.00  0.00    -0.352 N 
ATOM      5  C   UNL A   1      32.971  26.732  22.386  1.00  0.00     0.251 C 
ATOM      6  O   UNL A   1      33.663  26.904  21.377  1.00  0.00    -0.269 OA
ATOM      7  H   UNL A   1      31.537  27.786  21.530  1.00  0.00     0.163 HD
BRANCH   5   8
ATOM      8  C   UNL A   1      33.469  25.788  23.438  1.00  0.00     0.044 A 
ATOM      9  C   UNL A   1      33.007  23.559  22.268  1.00  0.00     0.047 C 
ATOM     10  C   UNL A   1      33.625  24.384  23.368  1.00  0.00    -0.015 A 
ATOM     11  C   UNL A   1      34.241  23.673  24.440  1.00  0.00     0.038 A 
ATOM     12  C   UNL A   1      34.392  24.335  25.660  1.00  0.00     0.026 A 
ATOM     13  C   UNL A   1      33.715  26.418  24.672  1.00  0.00     0.014 A 
ATOM     14  C   UNL A   1      34.123  25.694  25.785  1.00  0.00     0.003 A 
BRANCH  11  15
ATOM     15  N   UNL A   1      34.594  22.350  24.254  1.00  0.00    -0.382 N 
ATOM     16  H   UNL A   1      35.195  22.191  23.491  1.00  0.00     0.160 HD
BRANCH  15  17
ATOM     17  C   UNL A   1      34.231  21.153  24.992  1.00  0.00     0.085 C 
ATOM     18  C   UNL A   1      35.253  20.021  24.880  1.00  0.00     0.031 C 
ATOM     19  C   UNL A   1      32.862  20.565  24.662  1.00  0.00     0.089 C 
ATOM     20  C   UNL A   1      34.439  18.762  24.587  1.00  0.00     0.067 C 
ATOM     21  C   UNL A   1      33.005  19.082  25.013  1.00  0.00     0.182 C 
BRANCH  21  22
ATOM     22  N   UNL A   1      32.807  18.831  26.440  1.00  0.00    -0.355 N 
ATOM     23  H   UNL A   1      32.059  19.428  26.790  1.00  0.00     0.344 HD
ATOM     24  H   UNL A   1      33.670  19.036  26.943  1.00  0.00     0.344 HD
ATOM     25  H   UNL A   1      32.557  17.853  26.580  1.00  0.00     0.344 HD
ENDBRANCH  21  22
ENDBRANCH  15  17
ENDBRANCH  11  15
ENDBRANCH   5   8
ENDBRANCH   3   4
ENDBRANCH   2   3
ENDBRANCH   1   2
BRANCH   1  26
ATOM     26  C   UNL A   1      31.613  29.403  25.252  1.00  0.00     0.002 C 
BRANCH  26  27
ATOM     27  C   UNL A   1      31.989  30.402  26.346  1.00  0.00     0.021 C 
BRANCH  27  28
ATOM     28  C   UNL A   1      33.332  30.117  27.003  1.00  0.00     0.116 C 
BRANCH  28  29
ATOM     29  N   UNL A   1      33.925  31.291  27.612  1.00  0.00    -0.352 N 
ATOM     30  C   UNL A   1      35.028  31.413  28.444  1.00  0.00     0.251 C 
ATOM     31  H   UNL A   1      33.471  32.139  27.400  1.00  0.00     0.163 HD
ATOM     32  O   UNL A   1      35.194  32.454  29.039  1.00  0.00    -0.269 OA
BRANCH  30  33
ATOM     33  C   UNL A   1      36.047  30.326  28.480  1.00  0.00     0.039 A 
ATOM     34  C   UNL A   1      36.245  29.670  29.702  1.00  0.00     0.014 A 
ATOM     35  C   UNL A   1      36.920  30.094  27.421  1.00  0.00     0.014 A 
ATOM     36  C   UNL A   1      37.442  28.992  29.939  1.00  0.00     0.010 A 
ATOM     37  C   UNL A   1      38.133  29.491  27.672  1.00  0.00     0.010 A 
ATOM     38  C   UNL A   1      38.421  29.011  28.951  1.00  0.00    -0.014 A 
BRANCH  38  39
ATOM     39  C   UNL A   1      39.796  28.574  29.132  1.00  0.00     0.031 A 
ATOM     40  C   UNL A   1      40.180  27.194  28.796  1.00  0.00     0.074 A 
ATOM     41  C   UNL A   1      40.730  29.502  29.435  1.00  0.00     0.049 A 
ATOM     42  N   UNL A   1      41.325  26.674  29.066  1.00  0.00    -0.248 NA
ATOM     43  C   UNL A   1      39.265  26.279  28.128  1.00  0.00     0.031 C 
ATOM     44  C   UNL A   1      42.179  29.388  29.318  1.00  0.00     0.029 A 
ATOM     45  N   UNL A   1      40.545  30.692  30.146  1.00  0.00    -0.354 N 
ATOM     46  C   UNL A   1      41.401  25.460  28.417  1.00  0.00     0.074 A 
ATOM     47  C   UNL A   1      40.071  25.237  27.902  1.00  0.00     0.031 C 
ATOM     48  C   UNL A   1      42.746  30.257  30.171  1.00  0.00     0.029 A 
ATOM     49  C   UNL A   1      41.673  30.806  30.982  1.00  0.00     0.049 A 
ATOM     50  H   UNL A   1      39.787  31.316  30.077  1.00  0.00     0.167 HD
ATOM     51  C   UNL A   1      42.621  24.859  28.306  1.00  0.00     0.034 A 
ATOM     52  C   UNL A   1      41.591  30.730  32.346  1.00  0.00     0.034 A 
ATOM     53  C   UNL A   1      43.621  25.558  29.132  1.00  0.00     0.049 A 
ATOM     54  C   UNL A   1      42.407  29.586  32.944  1.00  0.00     0.074 A 
ATOM     55  C   UNL A   1      44.590  26.520  28.900  1.00  0.00     0.029 A 
ATOM     56  N   UNL A   1      43.486  25.481  30.505  1.00  0.00    -0.354 N 
ATOM     57  N   UNL A   1      43.127  28.743  32.254  1.00  0.00    -0.248 NA
ATOM     58  C   UNL A   1      42.385  29.250  34.369  1.00  0.00     0.031 C 
ATOM     59  C   UNL A   1      44.969  27.076  30.162  1.00  0.00     0.029 A 
ATOM     60  C   UNL A   1      44.255  26.428  31.156  1.00  0.00     0.049 A 
ATOM     61  H   UNL A   1      42.911  24.827  30.967  1.00  0.00     0.167 HD
ATOM     62  C   UNL A   1      43.511  27.704  33.062  1.00  0.00     0.074 A 
ATOM     63  C   UNL A   1      43.057  28.087  34.387  1.00  0.00     0.031 C 
ATOM     64  C   UNL A   1      44.109  26.564  32.600  1.00  0.00     0.034 A 
BRANCH  51  65
ATOM     65  C   UNL A   1      42.993  23.767  27.316  1.00  0.00     0.023 A 
ATOM     66  C   UNL A   1      43.753  24.156  26.188  1.00  0.00     0.012 A 
ATOM     67  C   UNL A   1      42.606  22.407  27.354  1.00  0.00     0.148 A 
ATOM     68  C   UNL A   1      44.036  23.283  25.130  1.00  0.00     0.002 A 
ATOM     69  C   UNL A   1      42.834  21.550  26.272  1.00  0.00     0.091 A 
ATOM     70  F   UNL A   1      42.077  21.893  28.462  1.00  0.00    -0.205 F 
ATOM     71  C   UNL A   1      43.550  21.986  25.156  1.00  0.00     0.022 A 
BRANCH  69  72
ATOM     72  S   UNL A   1      42.164  19.876  26.207  1.00  0.00     0.127 S 
ATOM     73  O   UNL A   1      40.726  20.128  26.092  1.00  0.00    -0.237 OA
ATOM     74  O   UNL A   1      42.784  19.337  24.998  1.00  0.00    -0.237 OA
ATOM     75  O   UNL A   1      42.556  19.227  27.452  1.00  0.00    -0.744 OA
ENDBRANCH  69  72
ENDBRANCH  51  65
BRANCH  52  76
ATOM     76  C   UNL A   1      40.277  31.214  32.883  1.00  0.00     0.023 A 
ATOM     77  C   UNL A   1      39.240  30.258  33.012  1.00  0.00     0.012 A 
ATOM     78  C   UNL A   1      40.167  32.423  33.591  1.00  0.00     0.148 A 
ATOM     79  C   UNL A   1      38.223  30.425  33.954  1.00  0.00     0.002 A 
ATOM     80  C   UNL A   1      39.129  32.597  34.503  1.00  0.00     0.091 A 
ATOM     81  F   UNL A   1      41.106  33.362  33.425  1.00  0.00    -0.205 F 
ATOM     82  C   UNL A   1      38.190  31.580  34.727  1.00  0.00     0.022 A 
BRANCH  80  83
ATOM     83  S   UNL A   1      39.026  34.091  35.497  1.00  0.00     0.127 S 
ATOM     84  O   UNL A   1      37.843  33.819  36.306  1.00  0.00    -0.237 OA
ATOM     85  O   UNL A   1      40.291  34.078  36.229  1.00  0.00    -0.237 OA
ATOM     86  O   UNL A   1      38.916  35.167  34.521  1.00  0.00    -0.744 OA
ENDBRANCH  80  83
ENDBRANCH  52  76
BRANCH  64  87
ATOM     87  C   UNL A   1      44.607  25.476  33.525  1.00  0.00     0.023 A 
ATOM     88  C   UNL A   1      43.692  24.571  34.102  1.00  0.00     0.012 A 
ATOM     89  C   UNL A   1      45.949  25.410  33.970  1.00  0.00     0.148 A 
ATOM     90  C   UNL A   1      44.096  23.616  35.039  1.00  0.00     0.002 A 
ATOM     91  C   UNL A   1      46.324  24.529  34.981  1.00  0.00     0.091 A 
ATOM     92  F   UNL A   1      46.884  26.164  33.380  1.00  0.00    -0.205 F 
ATOM     93  C   UNL A   1      45.406  23.610  35.496  1.00  0.00     0.022 A 
BRANCH  91  94
ATOM     94  S   UNL A   1      47.936  24.623  35.774  1.00  0.00     0.127 S 
ATOM     95  O   UNL A   1      48.773  23.859  34.845  1.00  0.00    -0.237 OA
ATOM     96  O   UNL A   1      48.188  26.061  35.778  1.00  0.00    -0.237 OA
ATOM     97  O   UNL A   1      47.769  23.996  37.077  1.00  0.00    -0.744 OA
ENDBRANCH  91  94
ENDBRANCH  64  87
ENDBRANCH  38  39
ENDBRANCH  30  33
ENDBRANCH  28  29
ENDBRANCH  27  28
ENDBRANCH  26  27
ENDBRANCH   1  26
TORSDOF 19
ENDMDL
MODEL 3
REMARK VINA RESULT:     -12.2      4.388     10.475
REMARK SMILES Cc1c(N[C@@H]2CC[C@@H]([NH3+])C2)cccc1C(=O)NCCCCCCNC(=O)c1ccc(-c2c3nc(c(-c4cccc(S(=O)(=O)[O-])c4F)c4ccc([nH]4)c(-c4cccc(S(=O)(=O)[O-])c4F)c4nc(c(-c5cccc(S(=O)(=O)[O-])c5F)c5ccc2[nH]5)C=C4)C=C3)cc1
REMARK SMILES IDX 20 1 19 2 18 3 17 4 15 5 16 6 14 8 1 9 2 10 3 11 11 12 13 13
REMARK SMILES IDX 12 14 4 15 5 17 6 18 10 19 7 20 8 21 9 22 21 26 22 27 23 28
REMARK SMILES IDX 24 29 25 30 26 32 27 33 28 34 89 35 29 36 88 37 30 38 31 39
REMARK SMILES IDX 32 40 82 41 33 42 87 43 81 44 83 45 34 46 86 47 80 48 79 49
REMARK SMILES IDX 35 51 67 52 47 53 66 54 48 55 51 56 65 57 84 58 49 59 50 60
REMARK SMILES IDX 64 62 85 63 52 64 36 65 37 66 45 67 38 68 40 69 46 70 39 71
REMARK SMILES IDX 41 72 42 73 43 74 44 75 68 76 69 77 77 78 70 79 72 80 78 81
REMARK SMILES IDX 71 82 73 83 74 84 75 85 76 86 53 87 54 88 62 89 55 90 57 91
REMARK SMILES IDX 63 92 56 93 58 94 59 95 60 96 61 97
REMARK H PARENT 17 7 4 16 9 23 9 24 9 25 24 31 83 50 51 61
REMARK Flexibility Score: inf
ROOT
ATOM      1  C   UNL A   1      34.668  21.518  26.827  1.00  0.00     0.002 C 
ENDROOT
BRANCH   1   2
ATOM      2  C   UNL A   1      33.537  20.675  26.227  1.00  0.00     0.021 C 
BRANCH   2   3
ATOM      3  C   UNL A   1      33.904  19.921  24.939  1.00  0.00     0.116 C 
BRANCH   3   4
ATOM      4  N   UNL A   1      33.009  20.319  23.874  1.00  0.00    -0.352 N 
ATOM      5  C   UNL A   1      32.525  21.526  23.443  1.00  0.00     0.251 C 
ATOM      6  O   UNL A   1      31.690  21.481  22.533  1.00  0.00    -0.269 OA
ATOM      7  H   UNL A   1      32.676  19.559  23.345  1.00  0.00     0.163 HD
BRANCH   5   8
ATOM      8  C   UNL A   1      33.020  22.869  23.887  1.00  0.00     0.044 A 
ATOM      9  C   UNL A   1      31.044  23.595  25.342  1.00  0.00     0.047 C 
ATOM     10  C   UNL A   1      32.453  23.755  24.832  1.00  0.00    -0.015 A 
ATOM     11  C   UNL A   1      33.149  24.940  25.216  1.00  0.00     0.038 A 
ATOM     12  C   UNL A   1      34.220  25.353  24.423  1.00  0.00     0.026 A 
ATOM     13  C   UNL A   1      34.152  23.304  23.172  1.00  0.00     0.014 A 
ATOM     14  C   UNL A   1      34.716  24.552  23.400  1.00  0.00     0.003 A 
BRANCH  11  15
ATOM     15  N   UNL A   1      32.694  25.664  26.302  1.00  0.00    -0.382 N 
ATOM     16  H   UNL A   1      32.663  25.158  27.146  1.00  0.00     0.160 HD
BRANCH  15  17
ATOM     17  C   UNL A   1      32.255  27.044  26.413  1.00  0.00     0.085 C 
ATOM     18  C   UNL A   1      31.374  27.509  25.253  1.00  0.00     0.031 C 
ATOM     19  C   UNL A   1      33.366  28.077  26.585  1.00  0.00     0.089 C 
ATOM     20  C   UNL A   1      31.931  28.869  24.837  1.00  0.00     0.067 C 
ATOM     21  C   UNL A   1      32.759  29.365  26.025  1.00  0.00     0.182 C 
BRANCH  21  22
ATOM     22  N   UNL A   1      31.920  30.052  27.005  1.00  0.00    -0.355 N 
ATOM     23  H   UNL A   1      31.123  29.463  27.244  1.00  0.00     0.344 HD
ATOM     24  H   UNL A   1      31.587  30.932  26.610  1.00  0.00     0.344 HD
ATOM     25  H   UNL A   1      32.466  30.243  27.845  1.00  0.00     0.344 HD
ENDBRANCH  21  22
ENDBRANCH  15  17
ENDBRANCH  11  15
ENDBRANCH   5   8
ENDBRANCH   3   4
ENDBRANCH   2   3
ENDBRANCH   1   2
BRANCH   1  26
ATOM     26  C   UNL A   1      35.908  21.708  25.942  1.00  0.00     0.002 C 
BRANCH  26  27
ATOM     27  C   UNL A   1      36.766  22.932  26.262  1.00  0.00     0.021 C 
BRANCH  27  28
ATOM     28  C   UNL A   1      38.164  22.875  25.662  1.00  0.00     0.116 C 
BRANCH  28  29
ATOM     29  N   UNL A   1      39.196  22.639  26.652  1.00  0.00    -0.352 N 
ATOM     30  C   UNL A   1      39.955  23.534  27.391  1.00  0.00     0.251 C 
ATOM     31  H   UNL A   1      39.388  21.690  26.828  1.00  0.00     0.163 HD
ATOM     32  O   UNL A   1      40.934  23.123  27.972  1.00  0.00    -0.269 OA
BRANCH  30  33
ATOM     33  C   UNL A   1      39.478  24.935  27.566  1.00  0.00     0.039 A 
ATOM     34  C   UNL A   1      40.083  25.923  26.777  1.00  0.00     0.014 A 
ATOM     35  C   UNL A   1      38.625  25.303  28.601  1.00  0.00     0.014 A 
ATOM     36  C   UNL A   1      40.034  27.258  27.180  1.00  0.00     0.010 A 
ATOM     37  C   UNL A   1      38.633  26.607  29.045  1.00  0.00     0.010 A 
ATOM     38  C   UNL A   1      39.400  27.566  28.379  1.00  0.00    -0.014 A 
BRANCH  38  39
ATOM     39  C   UNL A   1      39.475  28.851  29.056  1.00  0.00     0.031 A 
ATOM     40  C   UNL A   1      38.533  29.924  28.704  1.00  0.00     0.074 A 
ATOM     41  C   UNL A   1      40.295  28.966  30.125  1.00  0.00     0.049 A 
ATOM     42  N   UNL A   1      38.619  31.134  29.132  1.00  0.00    -0.248 NA
ATOM     43  C   UNL A   1      37.408  29.700  27.807  1.00  0.00     0.031 C 
ATOM     44  C   UNL A   1      40.283  29.997  31.156  1.00  0.00     0.029 A 
ATOM     45  N   UNL A   1      41.484  28.270  30.361  1.00  0.00    -0.354 N 
ATOM     46  C   UNL A   1      37.460  31.791  28.778  1.00  0.00     0.074 A 
ATOM     47  C   UNL A   1      36.772  30.872  27.903  1.00  0.00     0.031 C 
ATOM     48  C   UNL A   1      41.509  30.069  31.701  1.00  0.00     0.029 A 
ATOM     49  C   UNL A   1      42.373  29.221  30.898  1.00  0.00     0.049 A 
ATOM     50  H   UNL A   1      41.661  27.317  30.188  1.00  0.00     0.167 HD
ATOM     51  C   UNL A   1      37.187  32.989  29.371  1.00  0.00     0.034 A 
ATOM     52  C   UNL A   1      43.499  29.633  30.238  1.00  0.00     0.034 A 
ATOM     53  C   UNL A   1      38.348  33.462  30.145  1.00  0.00     0.049 A 
ATOM     54  C   UNL A   1      43.521  31.132  29.947  1.00  0.00     0.074 A 
ATOM     55  C   UNL A   1      38.729  33.416  31.476  1.00  0.00     0.029 A 
ATOM     56  N   UNL A   1      39.475  33.842  29.441  1.00  0.00    -0.354 N 
ATOM     57  N   UNL A   1      42.578  31.971  30.281  1.00  0.00    -0.248 NA
ATOM     58  C   UNL A   1      44.575  31.777  29.160  1.00  0.00     0.031 C 
ATOM     59  C   UNL A   1      40.130  33.694  31.542  1.00  0.00     0.029 A 
ATOM     60  C   UNL A   1      40.588  33.940  30.258  1.00  0.00     0.049 A 
ATOM     61  H   UNL A   1      39.486  34.024  28.473  1.00  0.00     0.167 HD
ATOM     62  C   UNL A   1      42.790  33.170  29.649  1.00  0.00     0.074 A 
ATOM     63  C   UNL A   1      44.075  33.012  28.992  1.00  0.00     0.031 C 
ATOM     64  C   UNL A   1      41.882  34.192  29.637  1.00  0.00     0.034 A 
BRANCH  51  65
ATOM     65  C   UNL A   1      35.826  33.663  29.438  1.00  0.00     0.023 A 
ATOM     66  C   UNL A   1      35.179  33.927  28.209  1.00  0.00     0.012 A 
ATOM     67  C   UNL A   1      35.155  34.125  30.595  1.00  0.00     0.148 A 
ATOM     68  C   UNL A   1      33.995  34.671  28.122  1.00  0.00     0.002 A 
ATOM     69  C   UNL A   1      34.007  34.920  30.508  1.00  0.00     0.091 A 
ATOM     70  F   UNL A   1      35.567  33.747  31.803  1.00  0.00    -0.205 F 
ATOM     71  C   UNL A   1      33.425  35.196  29.270  1.00  0.00     0.022 A 
BRANCH  69  72
ATOM     72  S   UNL A   1      33.257  35.698  31.953  1.00  0.00     0.127 S 
ATOM     73  O   UNL A   1      32.276  36.595  31.339  1.00  0.00    -0.237 OA
ATOM     74  O   UNL A   1      32.678  34.557  32.659  1.00  0.00    -0.237 OA
ATOM     75  O   UNL A   1      34.334  36.386  32.654  1.00  0.00    -0.744 OA
ENDBRANCH  69  72
ENDBRANCH  51  65
BRANCH  52  76
ATOM     76  C   UNL A   1      44.070  28.579  29.338  1.00  0.00     0.023 A 
ATOM     77  C   UNL A   1      44.458  27.356  29.940  1.00  0.00     0.012 A 
ATOM     78  C   UNL A   1      43.878  28.610  27.946  1.00  0.00     0.148 A 
ATOM     79  C   UNL A   1      44.474  26.169  29.205  1.00  0.00     0.002 A 
ATOM     80  C   UNL A   1      43.932  27.427  27.214  1.00  0.00     0.091 A 
ATOM     81  F   UNL A   1      43.578  29.774  27.357  1.00  0.00    -0.205 F 
ATOM     82  C   UNL A   1      44.174  26.200  27.848  1.00  0.00     0.022 A 
BRANCH  80  83
ATOM     83  S   UNL A   1      43.588  27.426  25.450  1.00  0.00     0.127 S 
ATOM     84  O   UNL A   1      44.880  27.826  24.903  1.00  0.00    -0.237 OA
ATOM     85  O   UNL A   1      43.215  26.035  25.197  1.00  0.00    -0.237 OA
ATOM     86  O   UNL A   1      42.492  28.372  25.295  1.00  0.00    -0.744 OA
ENDBRANCH  80  83
ENDBRANCH  52  76
BRANCH  64  87
ATOM     87  C   UNL A   1      42.181  35.538  29.013  1.00  0.00     0.023 A 
ATOM     88  C   UNL A   1      41.782  35.801  27.686  1.00  0.00     0.012 A 
ATOM     89  C   UNL A   1      42.988  36.510  29.650  1.00  0.00     0.148 A 
ATOM     90  C   UNL A   1      42.126  36.990  27.039  1.00  0.00     0.002 A 
ATOM     91  C   UNL A   1      43.418  37.642  28.964  1.00  0.00     0.091 A 
ATOM     92  F   UNL A   1      43.303  36.370  30.943  1.00  0.00    -0.205 F 
ATOM     93  C   UNL A   1      42.963  37.900  27.668  1.00  0.00     0.022 A 
BRANCH  91  94
ATOM     94  S   UNL A   1      44.675  38.741  29.634  1.00  0.00     0.127 S 
ATOM     95  O   UNL A   1      45.839  37.855  29.709  1.00  0.00    -0.237 OA
ATOM     96  O   UNL A   1      44.759  39.769  28.601  1.00  0.00    -0.237 OA
ATOM     97  O   UNL A   1      44.170  39.170  30.930  1.00  0.00    -0.744 OA
ENDBRANCH  91  94
ENDBRANCH  64  87
ENDBRANCH  38  39
ENDBRANCH  30  33
ENDBRANCH  28  29
ENDBRANCH  27  28
ENDBRANCH  26  27
ENDBRANCH   1  26
TORSDOF 19
ENDMDL
