MODEL 1
REMARK VINA RESULT:     -11.8      0.000      0.000
REMARK SMILES O=C(NCCCCCCNC(=O)c1cc(Br)ccc1OC(=O)c1ccc(F)cc1)c1ccc(-c2c3nc(c(-c4cccc(S(=O)(=O)[O-])c4F)c4ccc([nH]4)c(-c4cccc(S(=O)(=O)[O-])c4F)c4nc(c(-c5cccc(S(=O)(=O)[O-])c5F)c5ccc2[nH]5)C=C4)C=C3)cc1
REMARK SMILES IDX 6 1 5 2 4 3 3 4 1 5 2 6 30 8 31 9 92 10 32 11 91 12 33 13
REMARK SMILES IDX 34 14 35 15 85 16 36 17 90 18 84 19 86 20 37 21 89 22 83 23
REMARK SMILES IDX 82 24 38 26 70 27 50 28 69 29 51 30 54 31 68 32 87 33 52 34
REMARK SMILES IDX 53 35 67 37 88 38 55 39 39 40 40 41 48 42 41 43 43 44 49 45
REMARK SMILES IDX 42 46 44 47 45 48 46 49 47 50 71 51 72 52 80 53 73 54 75 55
REMARK SMILES IDX 81 56 74 57 76 58 77 59 78 60 79 61 56 62 57 63 65 64 58 65
REMARK SMILES IDX 60 66 66 67 59 68 61 69 62 70 63 71 64 72 7 73 8 74 9 75
REMARK SMILES IDX 10 76 11 77 12 79 13 80 14 81 19 82 15 83 18 84 16 85 17 86
REMARK SMILES IDX 20 87 21 88 22 89 23 90 24 91 29 92 25 93 28 94 26 95 27 96
REMARK H PARENT 3 7 86 25 54 36 10 78
REMARK Flexibility Score: inf
ROOT
ATOM      1  C   UNL A   1      31.438  30.807  26.292  1.00  0.00     0.002 C 
ENDROOT
BRANCH   1   2
ATOM      2  C   UNL A   1      31.381  32.303  26.602  1.00  0.00     0.021 C 
BRANCH   2   3
ATOM      3  C   UNL A   1      32.730  32.963  26.849  1.00  0.00     0.116 C 
BRANCH   3   4
ATOM      4  N   UNL A   1      32.604  34.203  27.593  1.00  0.00    -0.352 N 
ATOM      5  O   UNL A   1      32.886  35.600  29.334  1.00  0.00    -0.269 OA
ATOM      6  C   UNL A   1      33.269  34.604  28.725  1.00  0.00     0.251 C 
ATOM      7  H   UNL A   1      31.950  34.846  27.236  1.00  0.00     0.163 HD
BRANCH   6   8
ATOM      8  C   UNL A   1      34.431  33.830  29.215  1.00  0.00     0.039 A 
ATOM      9  C   UNL A   1      35.738  34.249  28.945  1.00  0.00     0.014 A 
ATOM     10  C   UNL A   1      34.208  32.693  29.998  1.00  0.00     0.014 A 
ATOM     11  C   UNL A   1      36.817  33.485  29.378  1.00  0.00     0.010 A 
ATOM     12  C   UNL A   1      35.293  31.966  30.493  1.00  0.00     0.010 A 
ATOM     13  C   UNL A   1      36.604  32.354  30.183  1.00  0.00    -0.014 A 
BRANCH  13  14
ATOM     14  C   UNL A   1      37.762  31.680  30.819  1.00  0.00     0.031 A 
ATOM     15  C   UNL A   1      38.178  31.988  32.226  1.00  0.00     0.074 A 
ATOM     16  C   UNL A   1      38.455  30.791  30.082  1.00  0.00     0.049 A 
ATOM     17  N   UNL A   1      39.172  31.487  32.913  1.00  0.00    -0.248 NA
ATOM     18  C   UNL A   1      37.383  32.984  32.958  1.00  0.00     0.031 C 
ATOM     19  C   UNL A   1      38.151  30.440  28.692  1.00  0.00     0.029 A 
ATOM     20  N   UNL A   1      39.547  30.022  30.388  1.00  0.00    -0.354 N 
ATOM     21  C   UNL A   1      39.139  32.117  34.150  1.00  0.00     0.074 A 
ATOM     22  C   UNL A   1      38.032  33.051  34.114  1.00  0.00     0.031 C 
ATOM     23  C   UNL A   1      39.015  29.505  28.276  1.00  0.00     0.029 A 
ATOM     24  C   UNL A   1      39.964  29.228  29.347  1.00  0.00     0.049 A 
ATOM     25  H   UNL A   1      39.989  30.036  31.268  1.00  0.00     0.167 HD
ATOM     26  C   UNL A   1      39.948  31.921  35.219  1.00  0.00     0.034 A 
ATOM     27  C   UNL A   1      41.002  28.375  29.255  1.00  0.00     0.034 A 
ATOM     28  C   UNL A   1      41.044  30.986  35.241  1.00  0.00     0.049 A 
ATOM     29  C   UNL A   1      41.884  28.178  30.452  1.00  0.00     0.074 A 
ATOM     30  C   UNL A   1      41.918  30.708  36.278  1.00  0.00     0.029 A 
ATOM     31  N   UNL A   1      41.419  30.175  34.179  1.00  0.00    -0.354 N 
ATOM     32  N   UNL A   1      41.792  28.727  31.638  1.00  0.00    -0.248 NA
ATOM     33  C   UNL A   1      42.994  27.227  30.310  1.00  0.00     0.031 C 
ATOM     34  C   UNL A   1      42.828  29.740  35.839  1.00  0.00     0.029 A 
ATOM     35  C   UNL A   1      42.507  29.394  34.535  1.00  0.00     0.049 A 
ATOM     36  H   UNL A   1      40.977  30.158  33.300  1.00  0.00     0.167 HD
ATOM     37  C   UNL A   1      42.812  28.170  32.397  1.00  0.00     0.074 A 
ATOM     38  C   UNL A   1      43.501  27.227  31.537  1.00  0.00     0.031 C 
ATOM     39  C   UNL A   1      43.154  28.428  33.683  1.00  0.00     0.034 A 
BRANCH  26  40
ATOM     40  C   UNL A   1      39.651  32.700  36.475  1.00  0.00     0.023 A 
ATOM     41  C   UNL A   1      40.305  33.931  36.694  1.00  0.00     0.012 A 
ATOM     42  C   UNL A   1      38.684  32.262  37.402  1.00  0.00     0.148 A 
ATOM     43  C   UNL A   1      40.024  34.698  37.823  1.00  0.00     0.002 A 
ATOM     44  C   UNL A   1      38.380  33.052  38.507  1.00  0.00     0.091 A 
ATOM     45  F   UNL A   1      38.089  31.079  37.196  1.00  0.00    -0.205 F 
ATOM     46  C   UNL A   1      39.055  34.264  38.724  1.00  0.00     0.022 A 
BRANCH  44  47
ATOM     47  S   UNL A   1      37.088  32.611  39.678  1.00  0.00     0.127 S 
ATOM     48  O   UNL A   1      35.909  32.571  38.815  1.00  0.00    -0.237 OA
ATOM     49  O   UNL A   1      37.535  31.302  40.158  1.00  0.00    -0.237 OA
ATOM     50  O   UNL A   1      37.098  33.659  40.689  1.00  0.00    -0.744 OA
ENDBRANCH  44  47
ENDBRANCH  26  40
BRANCH  27  51
ATOM     51  C   UNL A   1      41.180  27.591  28.002  1.00  0.00     0.023 A 
ATOM     52  C   UNL A   1      41.803  28.200  26.897  1.00  0.00     0.012 A 
ATOM     53  C   UNL A   1      40.858  26.220  27.944  1.00  0.00     0.148 A 
ATOM     54  C   UNL A   1      42.104  27.459  25.755  1.00  0.00     0.002 A 
ATOM     55  C   UNL A   1      41.214  25.474  26.826  1.00  0.00     0.091 A 
ATOM     56  F   UNL A   1      40.262  25.664  29.008  1.00  0.00    -0.205 F 
ATOM     57  C   UNL A   1      41.825  26.094  25.725  1.00  0.00     0.022 A 
BRANCH  55  58
ATOM     58  S   UNL A   1      41.038  23.688  26.758  1.00  0.00     0.127 S 
ATOM     59  O   UNL A   1      41.885  23.348  25.618  1.00  0.00    -0.237 OA
ATOM     60  O   UNL A   1      41.569  23.288  28.062  1.00  0.00    -0.237 OA
ATOM     61  O   UNL A   1      39.616  23.434  26.581  1.00  0.00    -0.744 OA
ENDBRANCH  55  58
ENDBRANCH  27  51
BRANCH  39  62
ATOM     62  C   UNL A   1      44.313  27.659  34.260  1.00  0.00     0.023 A 
ATOM     63  C   UNL A   1      45.615  28.192  34.178  1.00  0.00     0.012 A 
ATOM     64  C   UNL A   1      44.102  26.451  34.954  1.00  0.00     0.148 A 
ATOM     65  C   UNL A   1      46.693  27.520  34.754  1.00  0.00     0.002 A 
ATOM     66  C   UNL A   1      45.174  25.810  35.563  1.00  0.00     0.091 A 
ATOM     67  F   UNL A   1      42.860  25.948  34.999  1.00  0.00    -0.205 F 
ATOM     68  C   UNL A   1      46.471  26.338  35.457  1.00  0.00     0.022 A 
BRANCH  66  69
ATOM     69  S   UNL A   1      44.958  24.335  36.566  1.00  0.00     0.127 S 
ATOM     70  O   UNL A   1      46.335  24.029  36.949  1.00  0.00    -0.237 OA
ATOM     71  O   UNL A   1      44.114  24.820  37.660  1.00  0.00    -0.237 OA
ATOM     72  O   UNL A   1      44.312  23.358  35.700  1.00  0.00    -0.744 OA
ENDBRANCH  66  69
ENDBRANCH  39  62
ENDBRANCH  13  14
ENDBRANCH   6   8
ENDBRANCH   3   4
ENDBRANCH   2   3
ENDBRANCH   1   2
BRANCH   1  73
ATOM     73  C   UNL A   1      32.403  29.987  27.152  1.00  0.00     0.002 C 
BRANCH  73  74
ATOM     74  C   UNL A   1      33.600  29.379  26.416  1.00  0.00     0.021 C 
BRANCH  74  75
ATOM     75  C   UNL A   1      33.529  27.875  26.169  1.00  0.00     0.116 C 
BRANCH  75  76
ATOM     76  N   UNL A   1      32.280  27.280  26.621  1.00  0.00    -0.352 N 
ATOM     77  C   UNL A   1      31.329  26.613  25.888  1.00  0.00     0.255 C 
ATOM     78  H   UNL A   1      32.092  27.367  27.583  1.00  0.00     0.163 HD
ATOM     79  O   UNL A   1      30.266  26.273  26.396  1.00  0.00    -0.269 OA
BRANCH  77  80
ATOM     80  C   UNL A   1      31.595  26.311  24.469  1.00  0.00     0.083 A 
ATOM     81  C   UNL A   1      32.168  25.077  24.131  1.00  0.00     0.033 A 
ATOM     82  C   UNL A   1      31.262  27.221  23.460  1.00  0.00     0.144 A 
ATOM     83  C   UNL A   1      32.462  24.799  22.797  1.00  0.00     0.019 A 
ATOM     84  C   UNL A   1      31.541  26.928  22.123  1.00  0.00     0.049 A 
ATOM     85  Br  UNL A   1      33.278  23.154  22.346  1.00  0.00    -0.051 Br
ATOM     86  C   UNL A   1      32.162  25.721  21.795  1.00  0.00     0.019 A 
BRANCH  82  87
ATOM     87  O   UNL A   1      30.542  28.399  23.703  1.00  0.00    -0.422 OA
BRANCH  87  88
ATOM     88  C   UNL A   1      29.202  28.378  23.372  1.00  0.00     0.343 C 
ATOM     89  O   UNL A   1      28.425  27.441  23.504  1.00  0.00    -0.246 OA
BRANCH  88  90
ATOM     90  C   UNL A   1      28.810  29.703  22.822  1.00  0.00     0.060 A 
ATOM     91  C   UNL A   1      28.571  29.902  21.452  1.00  0.00     0.019 A 
ATOM     92  C   UNL A   1      28.710  30.790  23.704  1.00  0.00     0.019 A 
ATOM     93  C   UNL A   1      28.243  31.173  20.974  1.00  0.00     0.040 A 
ATOM     94  C   UNL A   1      28.375  32.058  23.222  1.00  0.00     0.040 A 
ATOM     95  C   UNL A   1      28.149  32.238  21.862  1.00  0.00     0.123 A 
ATOM     96  F   UNL A   1      27.839  33.456  21.399  1.00  0.00    -0.207 F 
ENDBRANCH  88  90
ENDBRANCH  87  88
ENDBRANCH  82  87
ENDBRANCH  77  80
ENDBRANCH  75  76
ENDBRANCH  74  75
ENDBRANCH  73  74
ENDBRANCH   1  73
TORSDOF 19
ENDMDL
MODEL 2
REMARK VINA RESULT:     -11.5      2.615      3.587
REMARK SMILES O=C(NCCCCCCNC(=O)c1cc(Br)ccc1OC(=O)c1ccc(F)cc1)c1ccc(-c2c3nc(c(-c4cccc(S(=O)(=O)[O-])c4F)c4ccc([nH]4)c(-c4cccc(S(=O)(=O)[O-])c4F)c4nc(c(-c5cccc(S(=O)(=O)[O-])c5F)c5ccc2[nH]5)C=C4)C=C3)cc1
REMARK SMILES IDX 6 1 5 2 4 3 3 4 1 5 2 6 30 8 31 9 92 10 32 11 91 12 33 13
REMARK SMILES IDX 34 14 35 15 85 16 36 17 90 18 84 19 86 20 37 21 89 22 83 23
REMARK SMILES IDX 82 24 38 26 70 27 50 28 69 29 51 30 54 31 68 32 87 33 52 34
REMARK SMILES IDX 53 35 67 37 88 38 55 39 39 40 40 41 48 42 41 43 43 44 49 45
REMARK SMILES IDX 42 46 44 47 45 48 46 49 47 50 71 51 72 52 80 53 73 54 75 55
REMARK SMILES IDX 81 56 74 57 76 58 77 59 78 60 79 61 56 62 57 63 65 64 58 65
REMARK SMILES IDX 60 66 66 67 59 68 61 69 62 70 63 71 64 72 7 73 8 74 9 75
REMARK SMILES IDX 10 76 11 77 12 79 13 80 14 81 19 82 15 83 18 84 16 85 17 86
REMARK SMILES IDX 20 87 21 88 22 89 23 90 24 91 29 92 25 93 28 94 26 95 27 96
REMARK H PARENT 3 7 86 25 54 36 10 78
REMARK Flexibility Score: inf
ROOT
ATOM      1  C   UNL A   1      31.159  27.063  26.160  1.00  0.00     0.002 C 
ENDROOT
BRANCH   1   2
ATOM      2  C   UNL A   1      31.581  28.334  26.899  1.00  0.00     0.021 C 
BRANCH   2   3
ATOM      3  C   UNL A   1      32.661  29.155  26.207  1.00  0.00     0.116 C 
BRANCH   3   4
ATOM      4  N   UNL A   1      32.444  30.582  26.360  1.00  0.00    -0.352 N 
ATOM      5  O   UNL A   1      32.711  32.619  27.273  1.00  0.00    -0.269 OA
ATOM      6  C   UNL A   1      33.161  31.491  27.097  1.00  0.00     0.251 C 
ATOM      7  H   UNL A   1      31.675  30.948  25.867  1.00  0.00     0.163 HD
BRANCH   6   8
ATOM      8  C   UNL A   1      34.462  31.104  27.687  1.00  0.00     0.039 A 
ATOM      9  C   UNL A   1      35.429  32.069  27.985  1.00  0.00     0.014 A 
ATOM     10  C   UNL A   1      34.697  29.760  27.990  1.00  0.00     0.014 A 
ATOM     11  C   UNL A   1      36.663  31.683  28.501  1.00  0.00     0.010 A 
ATOM     12  C   UNL A   1      35.908  29.381  28.574  1.00  0.00     0.010 A 
ATOM     13  C   UNL A   1      36.900  30.338  28.830  1.00  0.00    -0.014 A 
BRANCH  13  14
ATOM     14  C   UNL A   1      38.127  29.974  29.579  1.00  0.00     0.031 A 
ATOM     15  C   UNL A   1      38.394  30.500  30.958  1.00  0.00     0.074 A 
ATOM     16  C   UNL A   1      39.020  29.169  28.973  1.00  0.00     0.049 A 
ATOM     17  N   UNL A   1      39.424  30.278  31.733  1.00  0.00    -0.248 NA
ATOM     18  C   UNL A   1      37.380  31.388  31.544  1.00  0.00     0.031 C 
ATOM     19  C   UNL A   1      38.871  28.625  27.620  1.00  0.00     0.029 A 
ATOM     20  N   UNL A   1      40.220  28.666  29.402  1.00  0.00    -0.354 N 
ATOM     21  C   UNL A   1      39.197  31.012  32.890  1.00  0.00     0.074 A 
ATOM     22  C   UNL A   1      37.936  31.700  32.709  1.00  0.00     0.031 C 
ATOM     23  C   UNL A   1      39.921  27.842  27.343  1.00  0.00     0.029 A 
ATOM     24  C   UNL A   1      40.842  27.868  28.473  1.00  0.00     0.049 A 
ATOM     25  H   UNL A   1      40.599  28.857  30.291  1.00  0.00     0.167 HD
ATOM     26  C   UNL A   1      39.966  31.089  34.003  1.00  0.00     0.034 A 
ATOM     27  C   UNL A   1      42.028  27.232  28.515  1.00  0.00     0.034 A 
ATOM     28  C   UNL A   1      41.218  30.397  34.171  1.00  0.00     0.049 A 
ATOM     29  C   UNL A   1      42.860  27.336  29.758  1.00  0.00     0.074 A 
ATOM     30  C   UNL A   1      42.067  30.404  35.264  1.00  0.00     0.029 A 
ATOM     31  N   UNL A   1      41.803  29.571  33.220  1.00  0.00    -0.354 N 
ATOM     32  N   UNL A   1      42.595  27.974  30.872  1.00  0.00    -0.248 NA
ATOM     33  C   UNL A   1      44.138  26.613  29.765  1.00  0.00     0.031 C 
ATOM     34  C   UNL A   1      43.170  29.594  34.969  1.00  0.00     0.029 A 
ATOM     35  C   UNL A   1      42.998  29.061  33.701  1.00  0.00     0.049 A 
ATOM     36  H   UNL A   1      41.424  29.378  32.332  1.00  0.00     0.167 HD
ATOM     37  C   UNL A   1      43.657  27.710  31.725  1.00  0.00     0.074 A 
ATOM     38  C   UNL A   1      44.563  26.838  31.002  1.00  0.00     0.031 C 
ATOM     39  C   UNL A   1      43.868  28.160  32.987  1.00  0.00     0.034 A 
BRANCH  26  40
ATOM     40  C   UNL A   1      39.452  31.919  35.153  1.00  0.00     0.023 A 
ATOM     41  C   UNL A   1      38.583  31.328  36.094  1.00  0.00     0.012 A 
ATOM     42  C   UNL A   1      39.875  33.248  35.348  1.00  0.00     0.148 A 
ATOM     43  C   UNL A   1      38.122  32.053  37.192  1.00  0.00     0.002 A 
ATOM     44  C   UNL A   1      39.442  33.953  36.468  1.00  0.00     0.091 A 
ATOM     45  F   UNL A   1      40.680  33.806  34.433  1.00  0.00    -0.205 F 
ATOM     46  C   UNL A   1      38.558  33.361  37.385  1.00  0.00     0.022 A 
BRANCH  44  47
ATOM     47  S   UNL A   1      40.016  35.616  36.839  1.00  0.00     0.127 S 
ATOM     48  O   UNL A   1      39.325  35.893  38.097  1.00  0.00    -0.237 OA
ATOM     49  O   UNL A   1      41.462  35.426  36.967  1.00  0.00    -0.237 OA
ATOM     50  O   UNL A   1      39.615  36.435  35.703  1.00  0.00    -0.744 OA
ENDBRANCH  44  47
ENDBRANCH  26  40
BRANCH  27  51
ATOM     51  C   UNL A   1      42.426  26.375  27.365  1.00  0.00     0.023 A 
ATOM     52  C   UNL A   1      43.308  26.894  26.399  1.00  0.00     0.012 A 
ATOM     53  C   UNL A   1      42.044  25.020  27.294  1.00  0.00     0.148 A 
ATOM     54  C   UNL A   1      43.804  26.080  25.382  1.00  0.00     0.002 A 
ATOM     55  C   UNL A   1      42.589  24.200  26.313  1.00  0.00     0.091 A 
ATOM     56  F   UNL A   1      41.200  24.550  28.224  1.00  0.00    -0.205 F 
ATOM     57  C   UNL A   1      43.459  24.730  25.348  1.00  0.00     0.022 A 
BRANCH  55  58
ATOM     58  S   UNL A   1      42.327  22.423  26.282  1.00  0.00     0.127 S 
ATOM     59  O   UNL A   1      42.789  22.029  27.611  1.00  0.00    -0.237 OA
ATOM     60  O   UNL A   1      40.880  22.340  26.083  1.00  0.00    -0.237 OA
ATOM     61  O   UNL A   1      43.121  21.923  25.169  1.00  0.00    -0.744 OA
ENDBRANCH  55  58
ENDBRANCH  27  51
BRANCH  39  62
ATOM     62  C   UNL A   1      45.117  27.698  33.689  1.00  0.00     0.023 A 
ATOM     63  C   UNL A   1      46.286  28.482  33.622  1.00  0.00     0.012 A 
ATOM     64  C   UNL A   1      45.110  26.532  34.479  1.00  0.00     0.148 A 
ATOM     65  C   UNL A   1      47.437  28.097  34.310  1.00  0.00     0.002 A 
ATOM     66  C   UNL A   1      46.247  26.179  35.197  1.00  0.00     0.091 A 
ATOM     67  F   UNL A   1      43.996  25.786  34.509  1.00  0.00    -0.205 F 
ATOM     68  C   UNL A   1      47.413  26.955  35.107  1.00  0.00     0.022 A 
BRANCH  66  69
ATOM     69  S   UNL A   1      46.267  24.776  36.320  1.00  0.00     0.127 S 
ATOM     70  O   UNL A   1      46.079  23.655  35.400  1.00  0.00    -0.237 OA
ATOM     71  O   UNL A   1      47.605  24.864  36.909  1.00  0.00    -0.237 OA
ATOM     72  O   UNL A   1      45.181  25.007  37.262  1.00  0.00    -0.744 OA
ENDBRANCH  66  69
ENDBRANCH  39  62
ENDBRANCH  13  14
ENDBRANCH   6   8
ENDBRANCH   3   4
ENDBRANCH   2   3
ENDBRANCH   1   2
BRANCH   1  73
ATOM     73  C   UNL A   1      32.119  25.876  26.277  1.00  0.00     0.002 C 
BRANCH  73  74
ATOM     74  C   UNL A   1      31.462  24.499  26.398  1.00  0.00     0.021 C 
BRANCH  74  75
ATOM     75  C   UNL A   1      32.383  23.365  26.841  1.00  0.00     0.116 C 
BRANCH  75  76
ATOM     76  N   UNL A   1      31.971  22.064  26.338  1.00  0.00    -0.352 N 
ATOM     77  C   UNL A   1      32.550  21.297  25.357  1.00  0.00     0.255 C 
ATOM     78  H   UNL A   1      31.168  21.681  26.759  1.00  0.00     0.163 HD
ATOM     79  O   UNL A   1      32.010  20.270  24.960  1.00  0.00    -0.269 OA
BRANCH  77  80
ATOM     80  C   UNL A   1      33.836  21.725  24.774  1.00  0.00     0.083 A 
ATOM     81  C   UNL A   1      35.004  21.031  25.117  1.00  0.00     0.033 A 
ATOM     82  C   UNL A   1      33.901  22.790  23.869  1.00  0.00     0.144 A 
ATOM     83  C   UNL A   1      36.229  21.453  24.604  1.00  0.00     0.019 A 
ATOM     84  C   UNL A   1      35.130  23.196  23.344  1.00  0.00     0.049 A 
ATOM     85  Br  UNL A   1      37.811  20.546  25.103  1.00  0.00    -0.051 Br
ATOM     86  C   UNL A   1      36.299  22.538  23.729  1.00  0.00     0.019 A 
BRANCH  82  87
ATOM     87  O   UNL A   1      32.762  23.426  23.355  1.00  0.00    -0.422 OA
BRANCH  87  88
ATOM     88  C   UNL A   1      32.928  24.116  22.171  1.00  0.00     0.343 C 
ATOM     89  O   UNL A   1      33.300  23.659  21.098  1.00  0.00    -0.246 OA
BRANCH  88  90
ATOM     90  C   UNL A   1      32.566  25.544  22.379  1.00  0.00     0.060 A 
ATOM     91  C   UNL A   1      31.235  25.989  22.339  1.00  0.00     0.019 A 
ATOM     92  C   UNL A   1      33.598  26.471  22.589  1.00  0.00     0.019 A 
ATOM     93  C   UNL A   1      30.944  27.347  22.501  1.00  0.00     0.040 A 
ATOM     94  C   UNL A   1      33.302  27.827  22.756  1.00  0.00     0.040 A 
ATOM     95  C   UNL A   1      31.979  28.251  22.707  1.00  0.00     0.123 A 
ATOM     96  F   UNL A   1      31.696  29.552  22.855  1.00  0.00    -0.207 F 
ENDBRANCH  88  90
ENDBRANCH  87  88
ENDBRANCH  82  87
ENDBRANCH  77  80
ENDBRANCH  75  76
ENDBRANCH  74  75
ENDBRANCH  73  74
ENDBRANCH   1  73
TORSDOF 19
ENDMDL
MODEL 3
REMARK VINA RESULT:     -11.3      5.445      8.761
REMARK SMILES O=C(NCCCCCCNC(=O)c1cc(Br)ccc1OC(=O)c1ccc(F)cc1)c1ccc(-c2c3nc(c(-c4cccc(S(=O)(=O)[O-])c4F)c4ccc([nH]4)c(-c4cccc(S(=O)(=O)[O-])c4F)c4nc(c(-c5cccc(S(=O)(=O)[O-])c5F)c5ccc2[nH]5)C=C4)C=C3)cc1
REMARK SMILES IDX 6 1 5 2 4 3 3 4 1 5 2 6 30 8 31 9 92 10 32 11 91 12 33 13
REMARK SMILES IDX 34 14 35 15 85 16 36 17 90 18 84 19 86 20 37 21 89 22 83 23
REMARK SMILES IDX 82 24 38 26 70 27 50 28 69 29 51 30 54 31 68 32 87 33 52 34
REMARK SMILES IDX 53 35 67 37 88 38 55 39 39 40 40 41 48 42 41 43 43 44 49 45
REMARK SMILES IDX 42 46 44 47 45 48 46 49 47 50 71 51 72 52 80 53 73 54 75 55
REMARK SMILES IDX 81 56 74 57 76 58 77 59 78 60 79 61 56 62 57 63 65 64 58 65
REMARK SMILES IDX 60 66 66 67 59 68 61 69 62 70 63 71 64 72 7 73 8 74 9 75
REMARK SMILES IDX 10 76 11 77 12 79 13 80 14 81 19 82 15 83 18 84 16 85 17 86
REMARK SMILES IDX 20 87 21 88 22 89 23 90 24 91 29 92 25 93 28 94 26 95 27 96
REMARK H PARENT 3 7 86 25 54 36 10 78
REMARK Flexibility Score: inf
ROOT
ATOM      1  C   UNL A   1      35.121  22.837  23.548  1.00  0.00     0.002 C 
ENDROOT
BRANCH   1   2
ATOM      2  C   UNL A   1      35.891  22.105  24.647  1.00  0.00     0.021 C 
BRANCH   2   3
ATOM      3  C   UNL A   1      37.384  21.948  24.395  1.00  0.00     0.116 C 
BRANCH   3   4
ATOM      4  N   UNL A   1      37.953  20.847  25.151  1.00  0.00    -0.352 N 
ATOM      5  O   UNL A   1      39.477  19.795  26.427  1.00  0.00    -0.269 OA
ATOM      6  C   UNL A   1      39.000  20.858  26.038  1.00  0.00     0.251 C 
ATOM      7  H   UNL A   1      37.529  19.972  25.006  1.00  0.00     0.163 HD
BRANCH   6   8
ATOM      8  C   UNL A   1      39.560  22.144  26.508  1.00  0.00     0.039 A 
ATOM      9  C   UNL A   1      40.721  22.180  27.286  1.00  0.00     0.014 A 
ATOM     10  C   UNL A   1      38.939  23.336  26.123  1.00  0.00     0.014 A 
ATOM     11  C   UNL A   1      41.210  23.396  27.754  1.00  0.00     0.010 A 
ATOM     12  C   UNL A   1      39.470  24.561  26.534  1.00  0.00     0.010 A 
ATOM     13  C   UNL A   1      40.606  24.600  27.355  1.00  0.00    -0.014 A 
BRANCH  13  14
ATOM     14  C   UNL A   1      41.263  25.889  27.678  1.00  0.00     0.031 A 
ATOM     15  C   UNL A   1      40.557  26.961  28.453  1.00  0.00     0.074 A 
ATOM     16  C   UNL A   1      42.518  26.087  27.230  1.00  0.00     0.049 A 
ATOM     17  N   UNL A   1      40.997  28.142  28.804  1.00  0.00    -0.248 NA
ATOM     18  C   UNL A   1      39.183  26.677  28.891  1.00  0.00     0.031 C 
ATOM     19  C   UNL A   1      43.285  25.119  26.441  1.00  0.00     0.029 A 
ATOM     20  N   UNL A   1      43.369  27.152  27.368  1.00  0.00    -0.354 N 
ATOM     21  C   UNL A   1      39.953  28.753  29.485  1.00  0.00     0.074 A 
ATOM     22  C   UNL A   1      38.849  27.816  29.485  1.00  0.00     0.031 C 
ATOM     23  C   UNL A   1      44.501  25.621  26.191  1.00  0.00     0.029 A 
ATOM     24  C   UNL A   1      44.584  26.963  26.755  1.00  0.00     0.049 A 
ATOM     25  H   UNL A   1      43.132  27.972  27.860  1.00  0.00     0.167 HD
ATOM     26  C   UNL A   1      39.928  29.976  30.068  1.00  0.00     0.034 A 
ATOM     27  C   UNL A   1      45.648  27.780  26.646  1.00  0.00     0.034 A 
ATOM     28  C   UNL A   1      41.036  30.897  30.062  1.00  0.00     0.049 A 
ATOM     29  C   UNL A   1      45.593  29.129  27.298  1.00  0.00     0.074 A 
ATOM     30  C   UNL A   1      41.112  32.157  30.631  1.00  0.00     0.029 A 
ATOM     31  N   UNL A   1      42.263  30.660  29.458  1.00  0.00    -0.354 N 
ATOM     32  N   UNL A   1      44.624  29.661  28.003  1.00  0.00    -0.248 NA
ATOM     33  C   UNL A   1      46.782  29.980  27.167  1.00  0.00     0.031 C 
ATOM     34  C   UNL A   1      42.379  32.685  30.360  1.00  0.00     0.029 A 
ATOM     35  C   UNL A   1      43.104  31.746  29.643  1.00  0.00     0.049 A 
ATOM     36  H   UNL A   1      42.501  29.840  28.968  1.00  0.00     0.167 HD
ATOM     37  C   UNL A   1      45.093  30.898  28.424  1.00  0.00     0.074 A 
ATOM     38  C   UNL A   1      46.442  31.027  27.908  1.00  0.00     0.031 C 
ATOM     39  C   UNL A   1      44.459  31.843  29.161  1.00  0.00     0.034 A 
BRANCH  26  40
ATOM     40  C   UNL A   1      38.674  30.375  30.805  1.00  0.00     0.023 A 
ATOM     41  C   UNL A   1      38.551  30.063  32.175  1.00  0.00     0.012 A 
ATOM     42  C   UNL A   1      37.654  31.115  30.175  1.00  0.00     0.148 A 
ATOM     43  C   UNL A   1      37.425  30.453  32.898  1.00  0.00     0.002 A 
ATOM     44  C   UNL A   1      36.550  31.535  30.912  1.00  0.00     0.091 A 
ATOM     45  F   UNL A   1      37.771  31.383  28.866  1.00  0.00    -0.205 F 
ATOM     46  C   UNL A   1      36.430  31.197  32.269  1.00  0.00     0.022 A 
BRANCH  44  47
ATOM     47  S   UNL A   1      35.258  32.566  30.205  1.00  0.00     0.127 S 
ATOM     48  O   UNL A   1      34.746  31.709  29.138  1.00  0.00    -0.237 OA
ATOM     49  O   UNL A   1      34.344  32.741  31.336  1.00  0.00    -0.237 OA
ATOM     50  O   UNL A   1      35.921  33.789  29.773  1.00  0.00    -0.744 OA
ENDBRANCH  44  47
ENDBRANCH  26  40
BRANCH  27  51
ATOM     51  C   UNL A   1      46.873  27.279  25.964  1.00  0.00     0.023 A 
ATOM     52  C   UNL A   1      47.094  27.623  24.617  1.00  0.00     0.012 A 
ATOM     53  C   UNL A   1      47.873  26.582  26.672  1.00  0.00     0.148 A 
ATOM     54  C   UNL A   1      48.290  27.282  23.986  1.00  0.00     0.002 A 
ATOM     55  C   UNL A   1      49.085  26.298  26.054  1.00  0.00     0.091 A 
ATOM     56  F   UNL A   1      47.636  26.262  27.952  1.00  0.00    -0.205 F 
ATOM     57  C   UNL A   1      49.291  26.636  24.708  1.00  0.00     0.022 A 
BRANCH  55  58
ATOM     58  S   UNL A   1      50.486  25.610  26.943  1.00  0.00     0.127 S 
ATOM     59  O   UNL A   1      51.448  25.398  25.865  1.00  0.00    -0.237 OA
ATOM     60  O   UNL A   1      50.820  26.701  27.860  1.00  0.00    -0.237 OA
ATOM     61  O   UNL A   1      49.994  24.403  27.591  1.00  0.00    -0.744 OA
ENDBRANCH  55  58
ENDBRANCH  27  51
BRANCH  39  62
ATOM     62  C   UNL A   1      45.223  33.100  29.482  1.00  0.00     0.023 A 
ATOM     63  C   UNL A   1      46.041  33.147  30.628  1.00  0.00     0.012 A 
ATOM     64  C   UNL A   1      45.193  34.204  28.606  1.00  0.00     0.148 A 
ATOM     65  C   UNL A   1      46.798  34.284  30.911  1.00  0.00     0.002 A 
ATOM     66  C   UNL A   1      45.984  35.315  28.872  1.00  0.00     0.091 A 
ATOM     67  F   UNL A   1      44.389  34.150  27.535  1.00  0.00    -0.205 F 
ATOM     68  C   UNL A   1      46.780  35.361  30.028  1.00  0.00     0.022 A 
BRANCH  66  69
ATOM     69  S   UNL A   1      46.089  36.703  27.736  1.00  0.00     0.127 S 
ATOM     70  O   UNL A   1      44.726  37.229  27.780  1.00  0.00    -0.237 OA
ATOM     71  O   UNL A   1      47.093  37.557  28.375  1.00  0.00    -0.237 OA
ATOM     72  O   UNL A   1      46.508  36.140  26.460  1.00  0.00    -0.744 OA
ENDBRANCH  66  69
ENDBRANCH  39  62
ENDBRANCH  13  14
ENDBRANCH   6   8
ENDBRANCH   3   4
ENDBRANCH   2   3
ENDBRANCH   1   2
BRANCH   1  73
ATOM     73  C   UNL A   1      34.762  24.295  23.845  1.00  0.00     0.002 C 
BRANCH  73  74
ATOM     74  C   UNL A   1      33.758  24.943  22.889  1.00  0.00     0.021 C 
BRANCH  74  75
ATOM     75  C   UNL A   1      33.452  26.415  23.150  1.00  0.00     0.116 C 
BRANCH  75  76
ATOM     76  N   UNL A   1      33.319  26.728  24.565  1.00  0.00    -0.352 N 
ATOM     77  C   UNL A   1      32.239  27.251  25.233  1.00  0.00     0.255 C 
ATOM     78  H   UNL A   1      34.110  26.539  25.118  1.00  0.00     0.163 HD
ATOM     79  O   UNL A   1      32.323  27.573  26.413  1.00  0.00    -0.269 OA
BRANCH  77  80
ATOM     80  C   UNL A   1      30.964  27.430  24.512  1.00  0.00     0.083 A 
ATOM     81  C   UNL A   1      30.792  28.563  23.704  1.00  0.00     0.033 A 
ATOM     82  C   UNL A   1      29.942  26.480  24.602  1.00  0.00     0.144 A 
ATOM     83  C   UNL A   1      29.577  28.763  23.052  1.00  0.00     0.019 A 
ATOM     84  C   UNL A   1      28.733  26.677  23.930  1.00  0.00     0.049 A 
ATOM     85  Br  UNL A   1      29.327  30.314  22.000  1.00  0.00    -0.051 Br
ATOM     86  C   UNL A   1      28.544  27.833  23.170  1.00  0.00     0.019 A 
BRANCH  82  87
ATOM     87  O   UNL A   1      30.099  25.250  25.255  1.00  0.00    -0.422 OA
BRANCH  87  88
ATOM     88  C   UNL A   1      30.629  24.220  24.504  1.00  0.00     0.343 C 
ATOM     89  O   UNL A   1      30.440  24.003  23.314  1.00  0.00    -0.246 OA
BRANCH  88  90
ATOM     90  C   UNL A   1      31.507  23.384  25.366  1.00  0.00     0.060 A 
ATOM     91  C   UNL A   1      32.146  23.902  26.505  1.00  0.00     0.019 A 
ATOM     92  C   UNL A   1      31.723  22.046  25.002  1.00  0.00     0.019 A 
ATOM     93  C   UNL A   1      32.994  23.090  27.264  1.00  0.00     0.040 A 
ATOM     94  C   UNL A   1      32.567  21.237  25.768  1.00  0.00     0.040 A 
ATOM     95  C   UNL A   1      33.196  21.767  26.888  1.00  0.00     0.123 A 
ATOM     96  F   UNL A   1      34.014  20.995  27.615  1.00  0.00    -0.207 F 
ENDBRANCH  88  90
ENDBRANCH  87  88
ENDBRANCH  82  87
ENDBRANCH  77  80
ENDBRANCH  75  76
ENDBRANCH  74  75
ENDBRANCH  73  74
ENDBRANCH   1  73
TORSDOF 19
ENDMDL
