MODEL 1
REMARK VINA RESULT:     -12.0      0.000      0.000
REMARK SMILES Cc1ccc(Nc2c(F)cccc2I)c(CC(=O)NCCCCCCNC(=O)c2ccc(-c3c4nc(c(-c5cccc(S(=O)(=O)[O-])c5F)c5ccc([nH]5)c(-c5cccc(S(=O)(=O)[O-])c5F)c5nc(c(-c6cccc(S(=O)(=O)[O-])c6F)c6ccc3[nH]6)C=C5)C=C4)cc2)c1
REMARK SMILES IDX 22 1 21 2 20 3 19 4 17 5 18 6 16 8 15 9 1 10 2 11 3 12 92 13
REMARK SMILES IDX 4 14 5 15 6 16 7 18 8 19 13 20 9 21 10 22 12 23 14 24 11 25
REMARK SMILES IDX 23 26 24 27 25 28 26 29 27 30 28 32 29 33 30 34 91 35 31 36
REMARK SMILES IDX 90 37 32 38 33 39 34 40 84 41 35 42 89 43 83 44 85 45 36 46
REMARK SMILES IDX 88 47 82 48 81 49 37 51 69 52 49 53 68 54 50 55 53 56 67 57
REMARK SMILES IDX 86 58 51 59 52 60 66 62 87 63 54 64 38 65 39 66 47 67 40 68
REMARK SMILES IDX 42 69 48 70 41 71 43 72 44 73 45 74 46 75 70 76 71 77 79 78
REMARK SMILES IDX 72 79 74 80 80 81 73 82 75 83 76 84 77 85 78 86 55 87 56 88
REMARK SMILES IDX 64 89 57 90 59 91 65 92 58 93 60 94 61 95 62 96 63 97
REMARK H PARENT 19 7 6 17 26 31 85 50 53 61
REMARK Flexibility Score: inf
ROOT
ATOM      1  C   UNL A   1      36.172  21.708  25.324  1.00  0.00     0.002 C 
ENDROOT
BRANCH   1   2
ATOM      2  C   UNL A   1      35.959  22.919  24.405  1.00  0.00     0.021 C 
BRANCH   2   3
ATOM      3  C   UNL A   1      34.501  23.349  24.229  1.00  0.00     0.116 C 
BRANCH   3   4
ATOM      4  N   UNL A   1      34.388  24.688  23.692  1.00  0.00    -0.356 N 
ATOM      5  C   UNL A   1      34.018  25.833  24.328  1.00  0.00     0.224 C 
ATOM      6  O   UNL A   1      33.907  26.866  23.663  1.00  0.00    -0.275 OA
ATOM      7  H   UNL A   1      34.610  24.784  22.738  1.00  0.00     0.163 HD
BRANCH   5   8
ATOM      8  C   UNL A   1      33.746  25.840  25.820  1.00  0.00     0.137 C 
BRANCH   8   9
ATOM      9  C   UNL A   1      33.182  27.141  26.353  1.00  0.00    -0.015 A 
ATOM     10  C   UNL A   1      34.644  30.561  27.271  1.00  0.00     0.044 C 
ATOM     11  C   UNL A   1      33.669  29.444  27.040  1.00  0.00    -0.051 A 
ATOM     12  C   UNL A   1      32.330  29.603  27.384  1.00  0.00     0.005 A 
ATOM     13  C   UNL A   1      34.077  28.226  26.494  1.00  0.00     0.009 A 
ATOM     14  C   UNL A   1      31.424  28.551  27.208  1.00  0.00     0.026 A 
ATOM     15  C   UNL A   1      31.828  27.299  26.716  1.00  0.00     0.042 A 
BRANCH  15  16
ATOM     16  N   UNL A   1      30.901  26.244  26.562  1.00  0.00    -0.352 N 
ATOM     17  H   UNL A   1      30.195  26.206  27.248  1.00  0.00     0.167 HD
BRANCH  16  18
ATOM     18  C   UNL A   1      30.834  25.235  25.576  1.00  0.00     0.088 A 
ATOM     19  C   UNL A   1      31.132  23.896  25.870  1.00  0.00     0.147 A 
ATOM     20  C   UNL A   1      30.529  25.547  24.236  1.00  0.00     0.040 A 
ATOM     21  F   UNL A   1      31.408  23.524  27.130  1.00  0.00    -0.205 F 
ATOM     22  C   UNL A   1      31.120  22.905  24.889  1.00  0.00     0.041 A 
ATOM     23  C   UNL A   1      30.519  24.556  23.245  1.00  0.00     0.017 A 
ATOM     24  I   UNL A   1      30.120  27.517  23.620  1.00  0.00    -0.042 I 
ATOM     25  C   UNL A   1      30.814  23.234  23.573  1.00  0.00     0.004 A 
ENDBRANCH  16  18
ENDBRANCH  15  16
ENDBRANCH   8   9
ENDBRANCH   5   8
ENDBRANCH   3   4
ENDBRANCH   2   3
ENDBRANCH   1   2
BRANCH   1  26
ATOM     26  C   UNL A   1      37.174  20.651  24.834  1.00  0.00     0.002 C 
BRANCH  26  27
ATOM     27  C   UNL A   1      38.566  20.705  25.466  1.00  0.00     0.021 C 
BRANCH  27  28
ATOM     28  C   UNL A   1      38.937  22.059  26.050  1.00  0.00     0.116 C 
BRANCH  28  29
ATOM     29  N   UNL A   1      40.034  21.984  26.996  1.00  0.00    -0.352 N 
ATOM     30  C   UNL A   1      40.818  22.984  27.533  1.00  0.00     0.251 C 
ATOM     31  H   UNL A   1      40.254  21.075  27.303  1.00  0.00     0.163 HD
ATOM     32  O   UNL A   1      41.837  22.649  28.139  1.00  0.00    -0.269 OA
BRANCH  30  33
ATOM     33  C   UNL A   1      40.362  24.398  27.531  1.00  0.00     0.039 A 
ATOM     34  C   UNL A   1      41.145  25.322  26.820  1.00  0.00     0.014 A 
ATOM     35  C   UNL A   1      39.365  24.860  28.385  1.00  0.00     0.014 A 
ATOM     36  C   UNL A   1      41.128  26.668  27.180  1.00  0.00     0.010 A 
ATOM     37  C   UNL A   1      39.397  26.173  28.799  1.00  0.00     0.010 A 
ATOM     38  C   UNL A   1      40.345  27.048  28.261  1.00  0.00    -0.014 A 
BRANCH  38  39
ATOM     39  C   UNL A   1      40.517  28.273  29.025  1.00  0.00     0.031 A 
ATOM     40  C   UNL A   1      39.570  29.390  28.876  1.00  0.00     0.074 A 
ATOM     41  C   UNL A   1      41.363  28.227  30.081  1.00  0.00     0.049 A 
ATOM     42  N   UNL A   1      39.690  30.501  29.515  1.00  0.00    -0.248 NA
ATOM     43  C   UNL A   1      38.418  29.359  27.980  1.00  0.00     0.031 C 
ATOM     44  C   UNL A   1      41.353  29.066  31.274  1.00  0.00     0.029 A 
ATOM     45  N   UNL A   1      42.571  27.525  30.180  1.00  0.00    -0.354 N 
ATOM     46  C   UNL A   1      38.499  31.168  29.389  1.00  0.00     0.074 A 
ATOM     47  C   UNL A   1      37.805  30.500  28.317  1.00  0.00     0.031 C 
ATOM     48  C   UNL A   1      42.581  29.066  31.812  1.00  0.00     0.029 A 
ATOM     49  C   UNL A   1      43.449  28.386  30.868  1.00  0.00     0.049 A 
ATOM     50  H   UNL A   1      42.766  26.621  29.841  1.00  0.00     0.167 HD
ATOM     51  C   UNL A   1      38.193  32.115  30.318  1.00  0.00     0.034 A 
ATOM     52  C   UNL A   1      44.559  28.930  30.284  1.00  0.00     0.034 A 
ATOM     53  C   UNL A   1      39.377  32.498  31.100  1.00  0.00     0.049 A 
ATOM     54  C   UNL A   1      44.545  30.457  30.244  1.00  0.00     0.074 A 
ATOM     55  C   UNL A   1      39.816  32.324  32.400  1.00  0.00     0.029 A 
ATOM     56  N   UNL A   1      40.461  33.008  30.403  1.00  0.00    -0.354 N 
ATOM     57  N   UNL A   1      43.632  31.216  30.791  1.00  0.00    -0.248 NA
ATOM     58  C   UNL A   1      45.525  31.240  29.490  1.00  0.00     0.031 C 
ATOM     59  C   UNL A   1      41.209  32.659  32.443  1.00  0.00     0.029 A 
ATOM     60  C   UNL A   1      41.599  33.080  31.183  1.00  0.00     0.049 A 
ATOM     61  H   UNL A   1      40.424  33.287  29.460  1.00  0.00     0.167 HD
ATOM     62  C   UNL A   1      43.773  32.502  30.331  1.00  0.00     0.074 A 
ATOM     63  C   UNL A   1      45.005  32.476  29.560  1.00  0.00     0.031 C 
ATOM     64  C   UNL A   1      42.842  33.485  30.536  1.00  0.00     0.034 A 
BRANCH  51  65
ATOM     65  C   UNL A   1      36.804  32.643  30.607  1.00  0.00     0.023 A 
ATOM     66  C   UNL A   1      36.263  32.371  31.883  1.00  0.00     0.012 A 
ATOM     67  C   UNL A   1      35.942  33.294  29.688  1.00  0.00     0.148 A 
ATOM     68  C   UNL A   1      34.953  32.716  32.229  1.00  0.00     0.002 A 
ATOM     69  C   UNL A   1      34.659  33.704  30.059  1.00  0.00     0.091 A 
ATOM     70  F   UNL A   1      36.302  33.432  28.409  1.00  0.00    -0.205 F 
ATOM     71  C   UNL A   1      34.154  33.402  31.326  1.00  0.00     0.022 A 
BRANCH  69  72
ATOM     72  S   UNL A   1      33.596  34.644  28.948  1.00  0.00     0.127 S 
ATOM     73  O   UNL A   1      32.522  35.076  29.841  1.00  0.00    -0.237 OA
ATOM     74  O   UNL A   1      34.480  35.721  28.496  1.00  0.00    -0.237 OA
ATOM     75  O   UNL A   1      33.198  33.717  27.894  1.00  0.00    -0.744 OA
ENDBRANCH  69  72
ENDBRANCH  51  65
BRANCH  52  76
ATOM     76  C   UNL A   1      45.164  28.046  29.241  1.00  0.00     0.023 A 
ATOM     77  C   UNL A   1      45.753  26.837  29.686  1.00  0.00     0.012 A 
ATOM     78  C   UNL A   1      44.837  28.177  27.880  1.00  0.00     0.148 A 
ATOM     79  C   UNL A   1      45.883  25.744  28.828  1.00  0.00     0.002 A 
ATOM     80  C   UNL A   1      44.983  27.085  27.027  1.00  0.00     0.091 A 
ATOM     81  F   UNL A   1      44.311  29.331  27.453  1.00  0.00    -0.205 F 
ATOM     82  C   UNL A   1      45.466  25.858  27.507  1.00  0.00     0.022 A 
BRANCH  80  83
ATOM     83  S   UNL A   1      44.439  27.154  25.314  1.00  0.00     0.127 S 
ATOM     84  O   UNL A   1      43.290  28.050  25.411  1.00  0.00    -0.237 OA
ATOM     85  O   UNL A   1      45.606  27.713  24.636  1.00  0.00    -0.237 OA
ATOM     86  O   UNL A   1      44.150  25.772  24.959  1.00  0.00    -0.744 OA
ENDBRANCH  80  83
ENDBRANCH  52  76
BRANCH  64  87
ATOM     87  C   UNL A   1      43.039  34.923  30.089  1.00  0.00     0.023 A 
ATOM     88  C   UNL A   1      42.841  35.278  28.738  1.00  0.00     0.012 A 
ATOM     89  C   UNL A   1      43.560  35.930  30.943  1.00  0.00     0.148 A 
ATOM     90  C   UNL A   1      43.085  36.576  28.271  1.00  0.00     0.002 A 
ATOM     91  C   UNL A   1      43.891  37.190  30.454  1.00  0.00     0.091 A 
ATOM     92  F   UNL A   1      43.699  35.685  32.251  1.00  0.00    -0.205 F 
ATOM     93  C   UNL A   1      43.627  37.526  29.124  1.00  0.00     0.022 A 
BRANCH  91  94
ATOM     94  S   UNL A   1      44.775  38.408  31.442  1.00  0.00     0.127 S 
ATOM     95  O   UNL A   1      46.055  37.734  31.671  1.00  0.00    -0.237 OA
ATOM     96  O   UNL A   1      44.842  39.546  30.527  1.00  0.00    -0.237 OA
ATOM     97  O   UNL A   1      43.979  38.609  32.643  1.00  0.00    -0.744 OA
ENDBRANCH  91  94
ENDBRANCH  64  87
ENDBRANCH  38  39
ENDBRANCH  30  33
ENDBRANCH  28  29
ENDBRANCH  27  28
ENDBRANCH  26  27
ENDBRANCH   1  26
TORSDOF 19
ENDMDL
MODEL 2
REMARK VINA RESULT:     -11.7      4.266      9.903
REMARK SMILES Cc1ccc(Nc2c(F)cccc2I)c(CC(=O)NCCCCCCNC(=O)c2ccc(-c3c4nc(c(-c5cccc(S(=O)(=O)[O-])c5F)c5ccc([nH]5)c(-c5cccc(S(=O)(=O)[O-])c5F)c5nc(c(-c6cccc(S(=O)(=O)[O-])c6F)c6ccc3[nH]6)C=C5)C=C4)cc2)c1
REMARK SMILES IDX 22 1 21 2 20 3 19 4 17 5 18 6 16 8 15 9 1 10 2 11 3 12 92 13
REMARK SMILES IDX 4 14 5 15 6 16 7 18 8 19 13 20 9 21 10 22 12 23 14 24 11 25
REMARK SMILES IDX 23 26 24 27 25 28 26 29 27 30 28 32 29 33 30 34 91 35 31 36
REMARK SMILES IDX 90 37 32 38 33 39 34 40 84 41 35 42 89 43 83 44 85 45 36 46
REMARK SMILES IDX 88 47 82 48 81 49 37 51 69 52 49 53 68 54 50 55 53 56 67 57
REMARK SMILES IDX 86 58 51 59 52 60 66 62 87 63 54 64 38 65 39 66 47 67 40 68
REMARK SMILES IDX 42 69 48 70 41 71 43 72 44 73 45 74 46 75 70 76 71 77 79 78
REMARK SMILES IDX 72 79 74 80 80 81 73 82 75 83 76 84 77 85 78 86 55 87 56 88
REMARK SMILES IDX 64 89 57 90 59 91 65 92 58 93 60 94 61 95 62 96 63 97
REMARK H PARENT 19 7 6 17 26 31 85 50 53 61
REMARK Flexibility Score: inf
ROOT
ATOM      1  C   UNL A   1      34.220  32.539  28.935  1.00  0.00     0.002 C 
ENDROOT
BRANCH   1   2
ATOM      2  C   UNL A   1      34.968  31.290  28.450  1.00  0.00     0.021 C 
BRANCH   2   3
ATOM      3  C   UNL A   1      34.310  30.555  27.280  1.00  0.00     0.116 C 
BRANCH   3   4
ATOM      4  N   UNL A   1      33.294  29.625  27.723  1.00  0.00    -0.356 N 
ATOM      5  C   UNL A   1      32.583  28.727  26.988  1.00  0.00     0.224 C 
ATOM      6  O   UNL A   1      31.697  28.076  27.549  1.00  0.00    -0.275 OA
ATOM      7  H   UNL A   1      33.090  29.643  28.686  1.00  0.00     0.163 HD
BRANCH   5   8
ATOM      8  C   UNL A   1      32.870  28.530  25.511  1.00  0.00     0.137 C 
BRANCH   8   9
ATOM      9  C   UNL A   1      31.651  28.222  24.666  1.00  0.00    -0.015 A 
ATOM     10  C   UNL A   1      28.900  30.309  23.006  1.00  0.00     0.044 C 
ATOM     11  C   UNL A   1      29.733  29.141  23.446  1.00  0.00    -0.051 A 
ATOM     12  C   UNL A   1      29.332  27.843  23.141  1.00  0.00     0.005 A 
ATOM     13  C   UNL A   1      30.908  29.321  24.175  1.00  0.00     0.009 A 
ATOM     14  C   UNL A   1      30.083  26.748  23.582  1.00  0.00     0.026 A 
ATOM     15  C   UNL A   1      31.236  26.907  24.368  1.00  0.00     0.042 A 
BRANCH  15  16
ATOM     16  N   UNL A   1      31.970  25.788  24.818  1.00  0.00    -0.352 N 
ATOM     17  H   UNL A   1      32.299  25.850  25.745  1.00  0.00     0.167 HD
BRANCH  16  18
ATOM     18  C   UNL A   1      32.307  24.594  24.142  1.00  0.00     0.088 A 
ATOM     19  C   UNL A   1      32.959  24.611  22.899  1.00  0.00     0.147 A 
ATOM     20  C   UNL A   1      31.938  23.337  24.659  1.00  0.00     0.040 A 
ATOM     21  F   UNL A   1      33.360  25.772  22.359  1.00  0.00    -0.205 F 
ATOM     22  C   UNL A   1      33.246  23.438  22.201  1.00  0.00     0.041 A 
ATOM     23  C   UNL A   1      32.220  22.155  23.961  1.00  0.00     0.017 A 
ATOM     24  I   UNL A   1      30.900  23.146  26.479  1.00  0.00    -0.042 I 
ATOM     25  C   UNL A   1      32.875  22.206  22.731  1.00  0.00     0.004 A 
ENDBRANCH  16  18
ENDBRANCH  15  16
ENDBRANCH   8   9
ENDBRANCH   5   8
ENDBRANCH   3   4
ENDBRANCH   2   3
ENDBRANCH   1   2
BRANCH   1  26
ATOM     26  C   UNL A   1      34.627  33.871  28.284  1.00  0.00     0.002 C 
BRANCH  26  27
ATOM     27  C   UNL A   1      34.213  35.137  29.035  1.00  0.00     0.021 C 
BRANCH  27  28
ATOM     28  C   UNL A   1      33.674  34.888  30.434  1.00  0.00     0.116 C 
BRANCH  28  29
ATOM     29  N   UNL A   1      34.564  35.367  31.475  1.00  0.00    -0.352 N 
ATOM     30  C   UNL A   1      35.609  34.733  32.115  1.00  0.00     0.251 C 
ATOM     31  H   UNL A   1      34.396  36.291  31.770  1.00  0.00     0.163 HD
ATOM     32  O   UNL A   1      36.069  35.267  33.126  1.00  0.00    -0.269 OA
BRANCH  30  33
ATOM     33  C   UNL A   1      36.267  33.544  31.514  1.00  0.00     0.039 A 
ATOM     34  C   UNL A   1      36.037  32.304  32.131  1.00  0.00     0.014 A 
ATOM     35  C   UNL A   1      37.265  33.654  30.551  1.00  0.00     0.014 A 
ATOM     36  C   UNL A   1      36.974  31.280  32.003  1.00  0.00     0.010 A 
ATOM     37  C   UNL A   1      38.234  32.677  30.480  1.00  0.00     0.010 A 
ATOM     38  C   UNL A   1      38.131  31.536  31.280  1.00  0.00    -0.014 A 
BRANCH  38  39
ATOM     39  C   UNL A   1      39.364  30.777  31.387  1.00  0.00     0.031 A 
ATOM     40  C   UNL A   1      39.524  29.499  30.672  1.00  0.00     0.074 A 
ATOM     41  C   UNL A   1      40.445  31.422  31.887  1.00  0.00     0.049 A 
ATOM     42  N   UNL A   1      40.589  28.781  30.750  1.00  0.00    -0.248 NA
ATOM     43  C   UNL A   1      38.490  28.912  29.826  1.00  0.00     0.031 C 
ATOM     44  C   UNL A   1      41.853  31.128  31.649  1.00  0.00     0.029 A 
ATOM     45  N   UNL A   1      40.473  32.371  32.917  1.00  0.00    -0.354 N 
ATOM     46  C   UNL A   1      40.526  27.856  29.739  1.00  0.00     0.074 A 
ATOM     47  C   UNL A   1      39.155  27.878  29.296  1.00  0.00     0.031 C 
ATOM     48  C   UNL A   1      42.575  31.624  32.666  1.00  0.00     0.029 A 
ATOM     49  C   UNL A   1      41.626  32.073  33.669  1.00  0.00     0.049 A 
ATOM     50  H   UNL A   1      39.825  33.094  33.081  1.00  0.00     0.167 HD
ATOM     51  C   UNL A   1      41.689  27.296  29.309  1.00  0.00     0.034 A 
ATOM     52  C   UNL A   1      41.572  31.624  34.959  1.00  0.00     0.034 A 
ATOM     53  C   UNL A   1      42.781  27.532  30.264  1.00  0.00     0.049 A 
ATOM     54  C   UNL A   1      42.193  30.242  35.154  1.00  0.00     0.074 A 
ATOM     55  C   UNL A   1      43.938  28.289  30.292  1.00  0.00     0.029 A 
ATOM     56  N   UNL A   1      42.607  27.064  31.557  1.00  0.00    -0.354 N 
ATOM     57  N   UNL A   1      42.817  29.559  34.231  1.00  0.00    -0.248 NA
ATOM     58  C   UNL A   1      42.065  29.484  36.400  1.00  0.00     0.031 C 
ATOM     59  C   UNL A   1      44.402  28.335  31.647  1.00  0.00     0.029 A 
ATOM     60  C   UNL A   1      43.554  27.567  32.428  1.00  0.00     0.049 A 
ATOM     61  H   UNL A   1      41.891  26.444  31.823  1.00  0.00     0.167 HD
ATOM     62  C   UNL A   1      42.996  28.268  34.660  1.00  0.00     0.074 A 
ATOM     63  C   UNL A   1      42.555  28.285  36.045  1.00  0.00     0.031 C 
ATOM     64  C   UNL A   1      43.411  27.250  33.844  1.00  0.00     0.034 A 
BRANCH  51  65
ATOM     65  C   UNL A   1      41.890  26.608  27.976  1.00  0.00     0.023 A 
ATOM     66  C   UNL A   1      41.630  27.366  26.813  1.00  0.00     0.012 A 
ATOM     67  C   UNL A   1      42.209  25.241  27.772  1.00  0.00     0.148 A 
ATOM     68  C   UNL A   1      41.680  26.810  25.531  1.00  0.00     0.002 A 
ATOM     69  C   UNL A   1      42.331  24.705  26.488  1.00  0.00     0.091 A 
ATOM     70  F   UNL A   1      42.295  24.407  28.813  1.00  0.00    -0.205 F 
ATOM     71  C   UNL A   1      42.051  25.484  25.363  1.00  0.00     0.022 A 
BRANCH  69  72
ATOM     72  S   UNL A   1      42.861  23.006  26.206  1.00  0.00     0.127 S 
ATOM     73  O   UNL A   1      44.089  22.931  26.994  1.00  0.00    -0.237 OA
ATOM     74  O   UNL A   1      41.744  22.229  26.746  1.00  0.00    -0.237 OA
ATOM     75  O   UNL A   1      43.035  22.874  24.763  1.00  0.00    -0.744 OA
ENDBRANCH  69  72
ENDBRANCH  51  65
BRANCH  52  76
ATOM     76  C   UNL A   1      40.396  32.155  35.714  1.00  0.00     0.023 A 
ATOM     77  C   UNL A   1      39.160  31.487  35.532  1.00  0.00     0.012 A 
ATOM     78  C   UNL A   1      40.553  32.992  36.833  1.00  0.00     0.148 A 
ATOM     79  C   UNL A   1      38.162  31.545  36.506  1.00  0.00     0.002 A 
ATOM     80  C   UNL A   1      39.545  33.055  37.795  1.00  0.00     0.091 A 
ATOM     81  F   UNL A   1      41.708  33.648  36.989  1.00  0.00    -0.205 F 
ATOM     82  C   UNL A   1      38.369  32.301  37.653  1.00  0.00     0.022 A 
BRANCH  80  83
ATOM     83  S   UNL A   1      39.757  33.991  39.315  1.00  0.00     0.127 S 
ATOM     84  O   UNL A   1      40.023  35.330  38.796  1.00  0.00    -0.237 OA
ATOM     85  O   UNL A   1      38.460  33.826  39.968  1.00  0.00    -0.237 OA
ATOM     86  O   UNL A   1      40.859  33.336  40.005  1.00  0.00    -0.744 OA
ENDBRANCH  80  83
ENDBRANCH  52  76
BRANCH  64  87
ATOM     87  C   UNL A   1      43.678  25.840  34.344  1.00  0.00     0.023 A 
ATOM     88  C   UNL A   1      42.607  25.021  34.758  1.00  0.00     0.012 A 
ATOM     89  C   UNL A   1      44.987  25.335  34.556  1.00  0.00     0.148 A 
ATOM     90  C   UNL A   1      42.817  23.745  35.294  1.00  0.00     0.002 A 
ATOM     91  C   UNL A   1      45.193  24.106  35.178  1.00  0.00     0.091 A 
ATOM     92  F   UNL A   1      46.046  26.024  34.118  1.00  0.00    -0.205 F 
ATOM     93  C   UNL A   1      44.110  23.295  35.521  1.00  0.00     0.022 A 
BRANCH  91  94
ATOM     94  S   UNL A   1      46.826  23.541  35.684  1.00  0.00     0.127 S 
ATOM     95  O   UNL A   1      46.574  22.130  35.982  1.00  0.00    -0.237 OA
ATOM     96  O   UNL A   1      47.614  23.776  34.475  1.00  0.00    -0.237 OA
ATOM     97  O   UNL A   1      47.191  24.343  36.843  1.00  0.00    -0.744 OA
ENDBRANCH  91  94
ENDBRANCH  64  87
ENDBRANCH  38  39
ENDBRANCH  30  33
ENDBRANCH  28  29
ENDBRANCH  27  28
ENDBRANCH  26  27
ENDBRANCH   1  26
TORSDOF 19
ENDMDL
MODEL 3
REMARK VINA RESULT:     -11.6      3.998      9.599
REMARK SMILES Cc1ccc(Nc2c(F)cccc2I)c(CC(=O)NCCCCCCNC(=O)c2ccc(-c3c4nc(c(-c5cccc(S(=O)(=O)[O-])c5F)c5ccc([nH]5)c(-c5cccc(S(=O)(=O)[O-])c5F)c5nc(c(-c6cccc(S(=O)(=O)[O-])c6F)c6ccc3[nH]6)C=C5)C=C4)cc2)c1
REMARK SMILES IDX 22 1 21 2 20 3 19 4 17 5 18 6 16 8 15 9 1 10 2 11 3 12 92 13
REMARK SMILES IDX 4 14 5 15 6 16 7 18 8 19 13 20 9 21 10 22 12 23 14 24 11 25
REMARK SMILES IDX 23 26 24 27 25 28 26 29 27 30 28 32 29 33 30 34 91 35 31 36
REMARK SMILES IDX 90 37 32 38 33 39 34 40 84 41 35 42 89 43 83 44 85 45 36 46
REMARK SMILES IDX 88 47 82 48 81 49 37 51 69 52 49 53 68 54 50 55 53 56 67 57
REMARK SMILES IDX 86 58 51 59 52 60 66 62 87 63 54 64 38 65 39 66 47 67 40 68
REMARK SMILES IDX 42 69 48 70 41 71 43 72 44 73 45 74 46 75 70 76 71 77 79 78
REMARK SMILES IDX 72 79 74 80 80 81 73 82 75 83 76 84 77 85 78 86 55 87 56 88
REMARK SMILES IDX 64 89 57 90 59 91 65 92 58 93 60 94 61 95 62 96 63 97
REMARK H PARENT 19 7 6 17 26 31 85 50 53 61
REMARK Flexibility Score: inf
ROOT
ATOM      1  C   UNL A   1      31.977  28.784  26.218  1.00  0.00     0.002 C 
ENDROOT
BRANCH   1   2
ATOM      2  C   UNL A   1      31.728  27.601  27.164  1.00  0.00     0.021 C 
BRANCH   2   3
ATOM      3  C   UNL A   1      31.246  26.318  26.483  1.00  0.00     0.116 C 
BRANCH   3   4
ATOM      4  N   UNL A   1      31.666  25.131  27.196  1.00  0.00    -0.356 N 
ATOM      5  C   UNL A   1      31.569  23.829  26.813  1.00  0.00     0.224 C 
ATOM      6  O   UNL A   1      31.918  22.954  27.610  1.00  0.00    -0.275 OA
ATOM      7  H   UNL A   1      32.078  25.287  28.076  1.00  0.00     0.163 HD
BRANCH   5   8
ATOM      8  C   UNL A   1      31.043  23.459  25.439  1.00  0.00     0.137 C 
BRANCH   8   9
ATOM      9  C   UNL A   1      31.977  23.792  24.295  1.00  0.00    -0.015 A 
ATOM     10  C   UNL A   1      31.784  26.037  21.197  1.00  0.00     0.044 C 
ATOM     11  C   UNL A   1      32.296  25.081  22.233  1.00  0.00    -0.051 A 
ATOM     12  C   UNL A   1      33.544  24.484  22.078  1.00  0.00     0.005 A 
ATOM     13  C   UNL A   1      31.538  24.757  23.359  1.00  0.00     0.009 A 
ATOM     14  C   UNL A   1      34.010  23.561  23.020  1.00  0.00     0.026 A 
ATOM     15  C   UNL A   1      33.236  23.177  24.128  1.00  0.00     0.042 A 
BRANCH  15  16
ATOM     16  N   UNL A   1      33.717  22.230  25.059  1.00  0.00    -0.352 N 
ATOM     17  H   UNL A   1      33.835  22.570  25.976  1.00  0.00     0.167 HD
BRANCH  16  18
ATOM     18  C   UNL A   1      34.057  20.872  24.874  1.00  0.00     0.088 A 
ATOM     19  C   UNL A   1      33.076  19.879  24.735  1.00  0.00     0.147 A 
ATOM     20  C   UNL A   1      35.402  20.450  24.891  1.00  0.00     0.040 A 
ATOM     21  F   UNL A   1      31.776  20.212  24.687  1.00  0.00    -0.205 F 
ATOM     22  C   UNL A   1      33.404  18.530  24.606  1.00  0.00     0.041 A 
ATOM     23  C   UNL A   1      35.738  19.096  24.765  1.00  0.00     0.017 A 
ATOM     24  I   UNL A   1      36.988  21.808  25.154  1.00  0.00    -0.042 I 
ATOM     25  C   UNL A   1      34.738  18.135  24.623  1.00  0.00     0.004 A 
ENDBRANCH  16  18
ENDBRANCH  15  16
ENDBRANCH   8   9
ENDBRANCH   5   8
ENDBRANCH   3   4
ENDBRANCH   2   3
ENDBRANCH   1   2
BRANCH   1  26
ATOM     26  C   UNL A   1      32.803  29.947  26.787  1.00  0.00     0.002 C 
BRANCH  26  27
ATOM     27  C   UNL A   1      34.167  29.577  27.374  1.00  0.00     0.021 C 
BRANCH  27  28
ATOM     28  C   UNL A   1      35.083  30.764  27.625  1.00  0.00     0.116 C 
BRANCH  28  29
ATOM     29  N   UNL A   1      34.362  31.963  28.004  1.00  0.00    -0.352 N 
ATOM     30  C   UNL A   1      34.554  32.820  29.068  1.00  0.00     0.251 C 
ATOM     31  H   UNL A   1      33.617  32.205  27.408  1.00  0.00     0.163 HD
ATOM     32  O   UNL A   1      33.669  33.643  29.309  1.00  0.00    -0.269 OA
BRANCH  30  33
ATOM     33  C   UNL A   1      35.853  32.866  29.790  1.00  0.00     0.039 A 
ATOM     34  C   UNL A   1      36.968  33.328  29.074  1.00  0.00     0.014 A 
ATOM     35  C   UNL A   1      36.039  32.252  31.025  1.00  0.00     0.014 A 
ATOM     36  C   UNL A   1      38.248  32.921  29.444  1.00  0.00     0.010 A 
ATOM     37  C   UNL A   1      37.291  31.783  31.354  1.00  0.00     0.010 A 
ATOM     38  C   UNL A   1      38.374  32.040  30.509  1.00  0.00    -0.014 A 
BRANCH  38  39
ATOM     39  C   UNL A   1      39.533  31.203  30.765  1.00  0.00     0.031 A 
ATOM     40  C   UNL A   1      39.642  29.865  30.161  1.00  0.00     0.074 A 
ATOM     41  C   UNL A   1      40.624  31.805  31.297  1.00  0.00     0.049 A 
ATOM     42  N   UNL A   1      40.639  29.078  30.372  1.00  0.00    -0.248 NA
ATOM     43  C   UNL A   1      38.626  29.290  29.284  1.00  0.00     0.031 C 
ATOM     44  C   UNL A   1      42.018  31.391  31.189  1.00  0.00     0.029 A 
ATOM     45  N   UNL A   1      40.655  32.828  32.254  1.00  0.00    -0.354 N 
ATOM     46  C   UNL A   1      40.573  28.084  29.430  1.00  0.00     0.074 A 
ATOM     47  C   UNL A   1      39.243  28.171  28.883  1.00  0.00     0.031 C 
ATOM     48  C   UNL A   1      42.703  31.911  32.218  1.00  0.00     0.029 A 
ATOM     49  C   UNL A   1      41.726  32.506  33.110  1.00  0.00     0.049 A 
ATOM     50  H   UNL A   1      40.056  33.607  32.314  1.00  0.00     0.167 HD
ATOM     51  C   UNL A   1      41.716  27.407  29.131  1.00  0.00     0.034 A 
ATOM     52  C   UNL A   1      41.546  32.166  34.422  1.00  0.00     0.034 A 
ATOM     53  C   UNL A   1      42.754  27.638  30.147  1.00  0.00     0.049 A 
ATOM     54  C   UNL A   1      42.040  30.762  34.765  1.00  0.00     0.074 A 
ATOM     55  C   UNL A   1      43.962  28.308  30.206  1.00  0.00     0.029 A 
ATOM     56  N   UNL A   1      42.454  27.288  31.454  1.00  0.00    -0.354 N 
ATOM     57  N   UNL A   1      42.672  29.965  33.944  1.00  0.00    -0.248 NA
ATOM     58  C   UNL A   1      41.767  30.117  36.050  1.00  0.00     0.031 C 
ATOM     59  C   UNL A   1      44.332  28.427  31.586  1.00  0.00     0.029 A 
ATOM     60  C   UNL A   1      43.374  27.787  32.354  1.00  0.00     0.049 A 
ATOM     61  H   UNL A   1      41.674  26.745  31.710  1.00  0.00     0.167 HD
ATOM     62  C   UNL A   1      42.718  28.702  34.480  1.00  0.00     0.074 A 
ATOM     63  C   UNL A   1      42.184  28.861  35.823  1.00  0.00     0.031 C 
ATOM     64  C   UNL A   1      43.108  27.595  33.775  1.00  0.00     0.034 A 
BRANCH  51  65
ATOM     65  C   UNL A   1      41.955  26.603  27.872  1.00  0.00     0.023 A 
ATOM     66  C   UNL A   1      42.165  27.325  26.676  1.00  0.00     0.012 A 
ATOM     67  C   UNL A   1      41.882  25.193  27.746  1.00  0.00     0.148 A 
ATOM     68  C   UNL A   1      42.292  26.695  25.434  1.00  0.00     0.002 A 
ATOM     69  C   UNL A   1      42.084  24.560  26.516  1.00  0.00     0.091 A 
ATOM     70  F   UNL A   1      41.511  24.441  28.787  1.00  0.00    -0.205 F 
ATOM     71  C   UNL A   1      42.273  25.309  25.354  1.00  0.00     0.022 A 
BRANCH  69  72
ATOM     72  S   UNL A   1      42.123  22.765  26.359  1.00  0.00     0.127 S 
ATOM     73  O   UNL A   1      40.713  22.411  26.513  1.00  0.00    -0.237 OA
ATOM     74  O   UNL A   1      42.652  22.575  25.007  1.00  0.00    -0.237 OA
ATOM     75  O   UNL A   1      43.007  22.289  27.417  1.00  0.00    -0.744 OA
ENDBRANCH  69  72
ENDBRANCH  51  65
BRANCH  52  76
ATOM     76  C   UNL A   1      40.366  32.840  35.045  1.00  0.00     0.023 A 
ATOM     77  C   UNL A   1      39.138  32.134  35.026  1.00  0.00     0.012 A 
ATOM     78  C   UNL A   1      40.515  33.911  35.944  1.00  0.00     0.148 A 
ATOM     79  C   UNL A   1      38.143  32.398  35.968  1.00  0.00     0.002 A 
ATOM     80  C   UNL A   1      39.510  34.178  36.873  1.00  0.00     0.091 A 
ATOM     81  F   UNL A   1      41.662  34.599  35.940  1.00  0.00    -0.205 F 
ATOM     82  C   UNL A   1      38.344  33.397  36.913  1.00  0.00     0.022 A 
BRANCH  80  83
ATOM     83  S   UNL A   1      39.715  35.437  38.140  1.00  0.00     0.127 S 
ATOM     84  O   UNL A   1      38.589  35.145  39.023  1.00  0.00    -0.237 OA
ATOM     85  O   UNL A   1      41.031  35.118  38.689  1.00  0.00    -0.237 OA
ATOM     86  O   UNL A   1      39.660  36.701  37.421  1.00  0.00    -0.744 OA
ENDBRANCH  80  83
ENDBRANCH  52  76
BRANCH  64  87
ATOM     87  C   UNL A   1      43.227  26.214  34.396  1.00  0.00     0.023 A 
ATOM     88  C   UNL A   1      42.077  25.548  34.870  1.00  0.00     0.012 A 
ATOM     89  C   UNL A   1      44.476  25.595  34.662  1.00  0.00     0.148 A 
ATOM     90  C   UNL A   1      42.153  24.308  35.516  1.00  0.00     0.002 A 
ATOM     91  C   UNL A   1      44.554  24.410  35.389  1.00  0.00     0.091 A 
ATOM     92  F   UNL A   1      45.601  26.131  34.175  1.00  0.00    -0.205 F 
ATOM     93  C   UNL A   1      43.392  23.748  35.791  1.00  0.00     0.022 A 
BRANCH  91  94
ATOM     94  S   UNL A   1      46.120  23.725  35.954  1.00  0.00     0.127 S 
ATOM     95  O   UNL A   1      46.535  24.713  36.952  1.00  0.00    -0.237 OA
ATOM     96  O   UNL A   1      45.702  22.439  36.510  1.00  0.00    -0.237 OA
ATOM     97  O   UNL A   1      46.980  23.658  34.782  1.00  0.00    -0.744 OA
ENDBRANCH  91  94
ENDBRANCH  64  87
ENDBRANCH  38  39
ENDBRANCH  30  33
ENDBRANCH  28  29
ENDBRANCH  27  28
ENDBRANCH  26  27
ENDBRANCH   1  26
TORSDOF 19
ENDMDL
