MODEL 1
REMARK VINA RESULT:     -12.0      0.000      0.000
REMARK SMILES O=C(NCCCCCCNC(=O)[C@H](CO)NC(=O)[C@H](Cc1ccc(O)cc1)NC(=O)c1ccc(F)cc1)c1ccc(-c2c3nc(c(-c4cccc(S(=O)(=O)[O-])c4F)c4ccc([nH]4)c(-c4cccc(S(=O)(=O)[O-])c4F)c4nc(c(-c5cccc(S(=O)(=O)[O-])c5F)c5ccc2[nH]5)C=C4)C=C3)cc1
REMARK SMILES IDX 7 1 6 2 5 3 4 4 3 5 1 6 2 7 38 9 39 10 100 11 40 12 99 13
REMARK SMILES IDX 41 14 42 15 43 16 93 17 44 18 98 19 92 20 94 21 45 22 97 23
REMARK SMILES IDX 91 24 90 25 46 27 78 28 58 29 77 30 59 31 62 32 76 33 95 34
REMARK SMILES IDX 60 35 61 36 75 38 96 39 63 40 47 41 48 42 56 43 49 44 51 45
REMARK SMILES IDX 57 46 50 47 52 48 53 49 54 50 55 51 79 52 80 53 88 54 81 55
REMARK SMILES IDX 83 56 89 57 82 58 84 59 85 60 86 61 87 62 64 63 65 64 73 65
REMARK SMILES IDX 66 66 68 67 74 68 67 69 69 70 70 71 71 72 72 73 8 74 9 75
REMARK SMILES IDX 10 76 11 77 12 79 13 80 16 81 17 82 18 84 19 85 28 86 29 87
REMARK SMILES IDX 30 89 31 90 32 91 37 92 33 93 36 94 34 95 35 96 20 97 21 98
REMARK SMILES IDX 22 99 27 100 23 101 26 102 24 103 25 104 14 106 15 107
REMARK H PARENT 3 8 94 26 62 37 10 78 16 83 28 88 25 105 15 108
REMARK Flexibility Score: inf
ROOT
ATOM      1  C   UNL A   1      32.436  29.351  27.217  1.00  0.00     0.002 C 
ENDROOT
BRANCH   1   2
ATOM      2  C   UNL A   1      31.925  30.374  26.196  1.00  0.00     0.002 C 
BRANCH   2   3
ATOM      3  C   UNL A   1      31.665  31.770  26.767  1.00  0.00     0.021 C 
BRANCH   3   4
ATOM      4  C   UNL A   1      32.882  32.399  27.431  1.00  0.00     0.116 C 
BRANCH   4   5
ATOM      5  N   UNL A   1      32.673  33.817  27.686  1.00  0.00    -0.352 N 
ATOM      6  O   UNL A   1      32.727  35.702  28.920  1.00  0.00    -0.269 OA
ATOM      7  C   UNL A   1      33.211  34.596  28.675  1.00  0.00     0.251 C 
ATOM      8  H   UNL A   1      32.062  34.275  27.066  1.00  0.00     0.163 HD
BRANCH   7   9
ATOM      9  C   UNL A   1      34.370  34.095  29.439  1.00  0.00     0.039 A 
ATOM     10  C   UNL A   1      34.173  33.200  30.495  1.00  0.00     0.014 A 
ATOM     11  C   UNL A   1      35.659  34.502  29.088  1.00  0.00     0.014 A 
ATOM     12  C   UNL A   1      35.250  32.801  31.273  1.00  0.00     0.010 A 
ATOM     13  C   UNL A   1      36.752  34.023  29.812  1.00  0.00     0.010 A 
ATOM     14  C   UNL A   1      36.555  33.174  30.912  1.00  0.00    -0.014 A 
BRANCH  14  15
ATOM     15  C   UNL A   1      37.699  32.536  31.603  1.00  0.00     0.031 A 
ATOM     16  C   UNL A   1      38.172  33.001  32.945  1.00  0.00     0.074 A 
ATOM     17  C   UNL A   1      38.317  31.518  30.973  1.00  0.00     0.049 A 
ATOM     18  N   UNL A   1      39.152  32.531  33.673  1.00  0.00    -0.248 NA
ATOM     19  C   UNL A   1      37.466  34.141  33.550  1.00  0.00     0.031 C 
ATOM     20  C   UNL A   1      37.953  31.010  29.648  1.00  0.00     0.029 A 
ATOM     21  N   UNL A   1      39.370  30.729  31.352  1.00  0.00    -0.354 N 
ATOM     22  C   UNL A   1      39.202  33.330  34.808  1.00  0.00     0.074 A 
ATOM     23  C   UNL A   1      38.161  34.325  34.665  1.00  0.00     0.031 C 
ATOM     24  C   UNL A   1      38.739  29.972  29.341  1.00  0.00     0.029 A 
ATOM     25  C   UNL A   1      39.708  29.785  30.413  1.00  0.00     0.049 A 
ATOM     26  H   UNL A   1      39.838  30.827  32.214  1.00  0.00     0.167 HD
ATOM     27  C   UNL A   1      40.035  33.228  35.872  1.00  0.00     0.034 A 
ATOM     28  C   UNL A   1      40.701  28.876  30.399  1.00  0.00     0.034 A 
ATOM     29  C   UNL A   1      41.066  32.228  35.994  1.00  0.00     0.049 A 
ATOM     30  C   UNL A   1      41.617  28.793  31.581  1.00  0.00     0.074 A 
ATOM     31  C   UNL A   1      41.939  32.018  37.046  1.00  0.00     0.029 A 
ATOM     32  N   UNL A   1      41.373  31.279  35.027  1.00  0.00    -0.354 N 
ATOM     33  N   UNL A   1      41.596  29.499  32.685  1.00  0.00    -0.248 NA
ATOM     34  C   UNL A   1      42.672  27.775  31.533  1.00  0.00     0.031 C 
ATOM     35  C   UNL A   1      42.798  30.970  36.701  1.00  0.00     0.029 A 
ATOM     36  C   UNL A   1      42.429  30.489  35.454  1.00  0.00     0.049 A 
ATOM     37  H   UNL A   1      40.910  31.181  34.164  1.00  0.00     0.167 HD
ATOM     38  C   UNL A   1      42.614  28.992  33.481  1.00  0.00     0.074 A 
ATOM     39  C   UNL A   1      43.225  27.910  32.733  1.00  0.00     0.031 C 
ATOM     40  C   UNL A   1      43.005  29.390  34.717  1.00  0.00     0.034 A 
BRANCH  27  41
ATOM     41  C   UNL A   1      39.852  34.208  37.006  1.00  0.00     0.023 A 
ATOM     42  C   UNL A   1      40.189  35.564  36.818  1.00  0.00     0.012 A 
ATOM     43  C   UNL A   1      39.285  33.804  38.232  1.00  0.00     0.148 A 
ATOM     44  C   UNL A   1      39.997  36.494  37.839  1.00  0.00     0.002 A 
ATOM     45  C   UNL A   1      39.052  34.746  39.228  1.00  0.00     0.091 A 
ATOM     46  F   UNL A   1      38.989  32.508  38.404  1.00  0.00    -0.205 F 
ATOM     47  C   UNL A   1      39.419  36.088  39.038  1.00  0.00     0.022 A 
BRANCH  45  48
ATOM     48  S   UNL A   1      38.229  34.340  40.773  1.00  0.00     0.127 S 
ATOM     49  O   UNL A   1      37.120  33.510  40.306  1.00  0.00    -0.237 OA
ATOM     50  O   UNL A   1      39.272  33.612  41.495  1.00  0.00    -0.237 OA
ATOM     51  O   UNL A   1      37.851  35.613  41.372  1.00  0.00    -0.744 OA
ENDBRANCH  45  48
ENDBRANCH  27  41
BRANCH  28  52
ATOM     52  C   UNL A   1      40.804  27.945  29.244  1.00  0.00     0.023 A 
ATOM     53  C   UNL A   1      39.912  26.861  29.153  1.00  0.00     0.012 A 
ATOM     54  C   UNL A   1      41.684  28.208  28.175  1.00  0.00     0.148 A 
ATOM     55  C   UNL A   1      39.893  26.052  28.017  1.00  0.00     0.002 A 
ATOM     56  C   UNL A   1      41.619  27.436  27.022  1.00  0.00     0.091 A 
ATOM     57  F   UNL A   1      42.521  29.249  28.287  1.00  0.00    -0.205 F 
ATOM     58  C   UNL A   1      40.734  26.350  26.946  1.00  0.00     0.022 A 
BRANCH  56  59
ATOM     59  S   UNL A   1      42.546  27.835  25.536  1.00  0.00     0.127 S 
ATOM     60  O   UNL A   1      43.905  27.961  26.059  1.00  0.00    -0.237 OA
ATOM     61  O   UNL A   1      42.309  26.650  24.712  1.00  0.00    -0.237 OA
ATOM     62  O   UNL A   1      41.960  29.063  25.017  1.00  0.00    -0.744 OA
ENDBRANCH  56  59
ENDBRANCH  28  52
BRANCH  40  63
ATOM     63  C   UNL A   1      44.127  28.630  35.374  1.00  0.00     0.023 A 
ATOM     64  C   UNL A   1      45.466  29.003  35.145  1.00  0.00     0.012 A 
ATOM     65  C   UNL A   1      43.843  27.604  36.298  1.00  0.00     0.148 A 
ATOM     66  C   UNL A   1      46.505  28.351  35.806  1.00  0.00     0.002 A 
ATOM     67  C   UNL A   1      44.879  26.998  36.995  1.00  0.00     0.091 A 
ATOM     68  F   UNL A   1      42.563  27.249  36.486  1.00  0.00    -0.205 F 
ATOM     69  C   UNL A   1      46.212  27.360  36.741  1.00  0.00     0.022 A 
BRANCH  67  70
ATOM     70  S   UNL A   1      44.590  25.791  38.295  1.00  0.00     0.127 S 
ATOM     71  O   UNL A   1      43.844  26.579  39.274  1.00  0.00    -0.237 OA
ATOM     72  O   UNL A   1      43.800  24.773  37.600  1.00  0.00    -0.237 OA
ATOM     73  O   UNL A   1      45.906  25.344  38.729  1.00  0.00    -0.744 OA
ENDBRANCH  67  70
ENDBRANCH  40  63
ENDBRANCH  14  15
ENDBRANCH   7   9
ENDBRANCH   4   5
ENDBRANCH   3   4
ENDBRANCH   2   3
ENDBRANCH   1   2
BRANCH   1  74
ATOM     74  C   UNL A   1      31.535  28.126  27.391  1.00  0.00     0.021 C 
BRANCH  74  75
ATOM     75  C   UNL A   1      31.731  27.070  26.310  1.00  0.00     0.116 C 
BRANCH  75  76
ATOM     76  N   UNL A   1      30.963  27.360  25.125  1.00  0.00    -0.354 N 
ATOM     77  C   UNL A   1      31.369  27.344  23.824  1.00  0.00     0.244 C 
ATOM     78  H   UNL A   1      30.022  27.602  25.275  1.00  0.00     0.163 HD
ATOM     79  O   UNL A   1      30.531  27.654  22.974  1.00  0.00    -0.273 OA
BRANCH  77  80
ATOM     80  C   UNL A   1      32.824  26.934  23.460  1.00  0.00     0.197 C 
BRANCH  80  81
ATOM     81  N   UNL A   1      32.849  25.660  22.720  1.00  0.00    -0.340 N 
ATOM     82  C   UNL A   1      33.570  24.511  22.820  1.00  0.00     0.243 C 
ATOM     83  H   UNL A   1      32.194  25.634  21.986  1.00  0.00     0.164 HD
ATOM     84  O   UNL A   1      33.599  23.846  21.776  1.00  0.00    -0.273 OA
BRANCH  82  85
ATOM     85  C   UNL A   1      34.469  24.101  24.033  1.00  0.00     0.176 C 
BRANCH  85  86
ATOM     86  N   UNL A   1      33.825  23.625  25.262  1.00  0.00    -0.340 N 
ATOM     87  C   UNL A   1      33.130  22.494  25.601  1.00  0.00     0.251 C 
ATOM     88  H   UNL A   1      33.913  24.259  26.010  1.00  0.00     0.164 HD
ATOM     89  O   UNL A   1      32.483  22.529  26.648  1.00  0.00    -0.269 OA
BRANCH  87  90
ATOM     90  C   UNL A   1      33.136  21.232  24.816  1.00  0.00     0.040 A 
ATOM     91  C   UNL A   1      33.815  20.081  25.216  1.00  0.00     0.017 A 
ATOM     92  C   UNL A   1      32.310  21.160  23.681  1.00  0.00     0.017 A 
ATOM     93  C   UNL A   1      33.700  18.888  24.501  1.00  0.00     0.040 A 
ATOM     94  C   UNL A   1      32.192  19.968  22.960  1.00  0.00     0.040 A 
ATOM     95  C   UNL A   1      32.889  18.843  23.378  1.00  0.00     0.123 A 
ATOM     96  F   UNL A   1      32.769  17.694  22.700  1.00  0.00    -0.207 F 
ENDBRANCH  87  90
ENDBRANCH  85  86
BRANCH  85  97
ATOM     97  C   UNL A   1      35.517  23.042  23.576  1.00  0.00     0.070 C 
BRANCH  97  98
ATOM     98  C   UNL A   1      36.663  22.647  24.497  1.00  0.00    -0.045 A 
ATOM     99  C   UNL A   1      37.208  23.650  25.322  1.00  0.00     0.007 A 
ATOM    100  C   UNL A   1      37.251  21.375  24.541  1.00  0.00     0.007 A 
ATOM    101  C   UNL A   1      38.309  23.397  26.147  1.00  0.00     0.046 A 
ATOM    102  C   UNL A   1      38.352  21.120  25.365  1.00  0.00     0.046 A 
ATOM    103  C   UNL A   1      38.877  22.132  26.154  1.00  0.00     0.115 A 
BRANCH 103 104
ATOM    104  O   UNL A   1      39.967  21.839  26.918  1.00  0.00    -0.508 OA
ATOM    105  H   UNL A   1      40.708  21.415  26.534  1.00  0.00     0.293 HD
ENDBRANCH 103 104
ENDBRANCH  97  98
ENDBRANCH  85  97
ENDBRANCH  82  85
ENDBRANCH  80  81
BRANCH  80 106
ATOM    106  C   UNL A   1      33.431  28.066  22.581  1.00  0.00     0.191 C 
BRANCH 106 107
ATOM    107  O   UNL A   1      32.988  29.390  22.896  1.00  0.00    -0.394 OA
ATOM    108  H   UNL A   1      32.423  29.720  22.180  1.00  0.00     0.210 HD
ENDBRANCH 106 107
ENDBRANCH  80 106
ENDBRANCH  77  80
ENDBRANCH  75  76
ENDBRANCH  74  75
ENDBRANCH   1  74
TORSDOF 25
ENDMDL
MODEL 2
REMARK VINA RESULT:     -11.8      2.111      7.610
REMARK SMILES O=C(NCCCCCCNC(=O)[C@H](CO)NC(=O)[C@H](Cc1ccc(O)cc1)NC(=O)c1ccc(F)cc1)c1ccc(-c2c3nc(c(-c4cccc(S(=O)(=O)[O-])c4F)c4ccc([nH]4)c(-c4cccc(S(=O)(=O)[O-])c4F)c4nc(c(-c5cccc(S(=O)(=O)[O-])c5F)c5ccc2[nH]5)C=C4)C=C3)cc1
REMARK SMILES IDX 7 1 6 2 5 3 4 4 3 5 1 6 2 7 38 9 39 10 100 11 40 12 99 13
REMARK SMILES IDX 41 14 42 15 43 16 93 17 44 18 98 19 92 20 94 21 45 22 97 23
REMARK SMILES IDX 91 24 90 25 46 27 78 28 58 29 77 30 59 31 62 32 76 33 95 34
REMARK SMILES IDX 60 35 61 36 75 38 96 39 63 40 47 41 48 42 56 43 49 44 51 45
REMARK SMILES IDX 57 46 50 47 52 48 53 49 54 50 55 51 79 52 80 53 88 54 81 55
REMARK SMILES IDX 83 56 89 57 82 58 84 59 85 60 86 61 87 62 64 63 65 64 73 65
REMARK SMILES IDX 66 66 68 67 74 68 67 69 69 70 70 71 71 72 72 73 8 74 9 75
REMARK SMILES IDX 10 76 11 77 12 79 13 80 16 81 17 82 18 84 19 85 28 86 29 87
REMARK SMILES IDX 30 89 31 90 32 91 37 92 33 93 36 94 34 95 35 96 20 97 21 98
REMARK SMILES IDX 22 99 27 100 23 101 26 102 24 103 25 104 14 106 15 107
REMARK H PARENT 3 8 94 26 62 37 10 78 16 83 28 88 25 105 15 108
REMARK Flexibility Score: inf
ROOT
ATOM      1  C   UNL A   1      32.624  28.223  27.690  1.00  0.00     0.002 C 
ENDROOT
BRANCH   1   2
ATOM      2  C   UNL A   1      33.699  28.749  26.731  1.00  0.00     0.002 C 
BRANCH   2   3
ATOM      3  C   UNL A   1      33.598  30.244  26.417  1.00  0.00     0.021 C 
BRANCH   3   4
ATOM      4  C   UNL A   1      32.744  31.024  27.407  1.00  0.00     0.116 C 
BRANCH   4   5
ATOM      5  N   UNL A   1      32.885  32.459  27.212  1.00  0.00    -0.352 N 
ATOM      6  O   UNL A   1      33.592  34.534  27.736  1.00  0.00    -0.269 OA
ATOM      7  C   UNL A   1      33.777  33.318  27.797  1.00  0.00     0.251 C 
ATOM      8  H   UNL A   1      32.255  32.866  26.575  1.00  0.00     0.163 HD
BRANCH   7   9
ATOM      9  C   UNL A   1      34.954  32.769  28.498  1.00  0.00     0.039 A 
ATOM     10  C   UNL A   1      34.778  31.891  29.572  1.00  0.00     0.014 A 
ATOM     11  C   UNL A   1      36.238  33.114  28.070  1.00  0.00     0.014 A 
ATOM     12  C   UNL A   1      35.879  31.448  30.290  1.00  0.00     0.010 A 
ATOM     13  C   UNL A   1      37.348  32.590  28.735  1.00  0.00     0.010 A 
ATOM     14  C   UNL A   1      37.176  31.758  29.852  1.00  0.00    -0.014 A 
BRANCH  14  15
ATOM     15  C   UNL A   1      38.327  31.072  30.482  1.00  0.00     0.031 A 
ATOM     16  C   UNL A   1      39.134  30.046  29.749  1.00  0.00     0.074 A 
ATOM     17  C   UNL A   1      38.623  31.394  31.756  1.00  0.00     0.049 A 
ATOM     18  N   UNL A   1      40.174  29.372  30.169  1.00  0.00    -0.248 NA
ATOM     19  C   UNL A   1      38.725  29.725  28.373  1.00  0.00     0.031 C 
ATOM     20  C   UNL A   1      37.877  32.358  32.569  1.00  0.00     0.029 A 
ATOM     21  N   UNL A   1      39.617  30.957  32.589  1.00  0.00    -0.354 N 
ATOM     22  C   UNL A   1      40.530  28.528  29.125  1.00  0.00     0.074 A 
ATOM     23  C   UNL A   1      39.584  28.765  28.055  1.00  0.00     0.031 C 
ATOM     24  C   UNL A   1      38.462  32.471  33.767  1.00  0.00     0.029 A 
ATOM     25  C   UNL A   1      39.578  31.537  33.835  1.00  0.00     0.049 A 
ATOM     26  H   UNL A   1      40.295  30.293  32.323  1.00  0.00     0.167 HD
ATOM     27  C   UNL A   1      41.559  27.649  29.069  1.00  0.00     0.034 A 
ATOM     28  C   UNL A   1      40.342  31.332  34.924  1.00  0.00     0.034 A 
ATOM     29  C   UNL A   1      42.489  27.429  30.147  1.00  0.00     0.049 A 
ATOM     30  C   UNL A   1      41.464  30.344  34.840  1.00  0.00     0.074 A 
ATOM     31  C   UNL A   1      43.586  26.586  30.177  1.00  0.00     0.029 A 
ATOM     32  N   UNL A   1      42.427  28.043  31.391  1.00  0.00    -0.354 N 
ATOM     33  N   UNL A   1      41.841  29.617  33.816  1.00  0.00    -0.248 NA
ATOM     34  C   UNL A   1      42.284  30.166  36.043  1.00  0.00     0.031 C 
ATOM     35  C   UNL A   1      44.163  26.662  31.449  1.00  0.00     0.029 A 
ATOM     36  C   UNL A   1      43.458  27.590  32.198  1.00  0.00     0.049 A 
ATOM     37  H   UNL A   1      41.748  28.703  31.661  1.00  0.00     0.167 HD
ATOM     38  C   UNL A   1      42.963  28.917  34.239  1.00  0.00     0.074 A 
ATOM     39  C   UNL A   1      43.209  29.317  35.611  1.00  0.00     0.031 C 
ATOM     40  C   UNL A   1      43.716  28.023  33.551  1.00  0.00     0.034 A 
BRANCH  27  41
ATOM     41  C   UNL A   1      41.753  26.873  27.788  1.00  0.00     0.023 A 
ATOM     42  C   UNL A   1      42.210  27.538  26.631  1.00  0.00     0.012 A 
ATOM     43  C   UNL A   1      41.552  25.478  27.745  1.00  0.00     0.148 A 
ATOM     44  C   UNL A   1      42.429  26.837  25.445  1.00  0.00     0.002 A 
ATOM     45  C   UNL A   1      41.819  24.778  26.573  1.00  0.00     0.091 A 
ATOM     46  F   UNL A   1      41.098  24.862  28.845  1.00  0.00    -0.205 F 
ATOM     47  C   UNL A   1      42.245  25.458  25.420  1.00  0.00     0.022 A 
BRANCH  45  48
ATOM     48  S   UNL A   1      41.701  22.989  26.464  1.00  0.00     0.127 S 
ATOM     49  O   UNL A   1      40.253  22.788  26.492  1.00  0.00    -0.237 OA
ATOM     50  O   UNL A   1      42.328  22.717  25.171  1.00  0.00    -0.237 OA
ATOM     51  O   UNL A   1      42.429  22.468  27.613  1.00  0.00    -0.744 OA
ENDBRANCH  45  48
ENDBRANCH  27  41
BRANCH  28  52
ATOM     52  C   UNL A   1      40.085  32.145  36.143  1.00  0.00     0.023 A 
ATOM     53  C   UNL A   1      40.823  33.325  36.350  1.00  0.00     0.012 A 
ATOM     54  C   UNL A   1      39.026  31.828  37.018  1.00  0.00     0.148 A 
ATOM     55  C   UNL A   1      40.512  34.178  37.409  1.00  0.00     0.002 A 
ATOM     56  C   UNL A   1      38.684  32.712  38.033  1.00  0.00     0.091 A 
ATOM     57  F   UNL A   1      38.339  30.699  36.796  1.00  0.00    -0.205 F 
ATOM     58  C   UNL A   1      39.433  33.880  38.239  1.00  0.00     0.022 A 
BRANCH  56  59
ATOM     59  S   UNL A   1      37.220  32.494  39.052  1.00  0.00     0.127 S 
ATOM     60  O   UNL A   1      37.429  33.500  40.091  1.00  0.00    -0.237 OA
ATOM     61  O   UNL A   1      36.151  32.801  38.102  1.00  0.00    -0.237 OA
ATOM     62  O   UNL A   1      37.251  31.111  39.506  1.00  0.00    -0.744 OA
ENDBRANCH  56  59
ENDBRANCH  28  52
BRANCH  40  63
ATOM     63  C   UNL A   1      44.914  27.436  34.248  1.00  0.00     0.023 A 
ATOM     64  C   UNL A   1      46.157  28.098  34.203  1.00  0.00     0.012 A 
ATOM     65  C   UNL A   1      44.778  26.272  35.033  1.00  0.00     0.148 A 
ATOM     66  C   UNL A   1      47.251  27.597  34.906  1.00  0.00     0.002 A 
ATOM     67  C   UNL A   1      45.857  25.811  35.776  1.00  0.00     0.091 A 
ATOM     68  F   UNL A   1      43.593  25.645  35.046  1.00  0.00    -0.205 F 
ATOM     69  C   UNL A   1      47.098  26.464  35.703  1.00  0.00     0.022 A 
BRANCH  67  70
ATOM     70  S   UNL A   1      45.723  24.427  36.913  1.00  0.00     0.127 S 
ATOM     71  O   UNL A   1      45.356  23.336  36.013  1.00  0.00    -0.237 OA
ATOM     72  O   UNL A   1      47.080  24.341  37.455  1.00  0.00    -0.237 OA
ATOM     73  O   UNL A   1      44.705  24.801  37.884  1.00  0.00    -0.744 OA
ENDBRANCH  67  70
ENDBRANCH  40  63
ENDBRANCH  14  15
ENDBRANCH   7   9
ENDBRANCH   4   5
ENDBRANCH   3   4
ENDBRANCH   2   3
ENDBRANCH   1   2
BRANCH   1  74
ATOM     74  C   UNL A   1      31.457  27.509  27.003  1.00  0.00     0.021 C 
BRANCH  74  75
ATOM     75  C   UNL A   1      31.899  26.488  25.961  1.00  0.00     0.116 C 
BRANCH  75  76
ATOM     76  N   UNL A   1      30.809  26.072  25.116  1.00  0.00    -0.354 N 
ATOM     77  C   UNL A   1      30.615  26.327  23.790  1.00  0.00     0.244 C 
ATOM     78  H   UNL A   1      30.111  25.533  25.552  1.00  0.00     0.163 HD
ATOM     79  O   UNL A   1      29.585  25.882  23.281  1.00  0.00    -0.273 OA
BRANCH  77  80
ATOM     80  C   UNL A   1      31.673  27.132  22.983  1.00  0.00     0.197 C 
BRANCH  80  81
ATOM     81  N   UNL A   1      31.943  26.499  21.680  1.00  0.00    -0.340 N 
ATOM     82  C   UNL A   1      32.553  25.350  21.283  1.00  0.00     0.243 C 
ATOM     83  H   UNL A   1      31.605  27.029  20.923  1.00  0.00     0.164 HD
ATOM     84  O   UNL A   1      32.951  25.373  20.112  1.00  0.00    -0.273 OA
BRANCH  82  85
ATOM     85  C   UNL A   1      32.932  24.152  22.214  1.00  0.00     0.176 C 
BRANCH  85  86
ATOM     86  N   UNL A   1      32.234  22.873  22.042  1.00  0.00    -0.340 N 
ATOM     87  C   UNL A   1      32.210  21.695  22.741  1.00  0.00     0.251 C 
ATOM     88  H   UNL A   1      31.653  22.858  21.247  1.00  0.00     0.164 HD
ATOM     89  O   UNL A   1      31.726  20.718  22.170  1.00  0.00    -0.269 OA
BRANCH  87  90
ATOM     90  C   UNL A   1      32.690  21.532  24.138  1.00  0.00     0.040 A 
ATOM     91  C   UNL A   1      33.782  20.737  24.488  1.00  0.00     0.017 A 
ATOM     92  C   UNL A   1      32.092  22.323  25.134  1.00  0.00     0.017 A 
ATOM     93  C   UNL A   1      34.261  20.705  25.798  1.00  0.00     0.040 A 
ATOM     94  C   UNL A   1      32.568  22.293  26.449  1.00  0.00     0.040 A 
ATOM     95  C   UNL A   1      33.649  21.483  26.768  1.00  0.00     0.123 A 
ATOM     96  F   UNL A   1      34.119  21.461  28.022  1.00  0.00    -0.207 F 
ENDBRANCH  87  90
ENDBRANCH  85  86
BRANCH  85  97
ATOM     97  C   UNL A   1      34.468  23.895  22.141  1.00  0.00     0.070 C 
BRANCH  97  98
ATOM     98  C   UNL A   1      35.300  23.846  23.415  1.00  0.00    -0.045 A 
ATOM     99  C   UNL A   1      36.439  23.016  23.416  1.00  0.00     0.007 A 
ATOM    100  C   UNL A   1      34.983  24.519  24.604  1.00  0.00     0.007 A 
ATOM    101  C   UNL A   1      37.221  22.852  24.564  1.00  0.00     0.046 A 
ATOM    102  C   UNL A   1      35.764  24.356  25.753  1.00  0.00     0.046 A 
ATOM    103  C   UNL A   1      36.870  23.520  25.727  1.00  0.00     0.115 A 
BRANCH 103 104
ATOM    104  O   UNL A   1      37.581  23.374  26.880  1.00  0.00    -0.508 OA
ATOM    105  H   UNL A   1      37.928  22.536  27.114  1.00  0.00     0.293 HD
ENDBRANCH 103 104
ENDBRANCH  97  98
ENDBRANCH  85  97
ENDBRANCH  82  85
ENDBRANCH  80  81
BRANCH  80 106
ATOM    106  C   UNL A   1      31.113  28.568  22.766  1.00  0.00     0.191 C 
BRANCH 106 107
ATOM    107  O   UNL A   1      30.314  28.742  21.591  1.00  0.00    -0.394 OA
ATOM    108  H   UNL A   1      29.786  29.550  21.677  1.00  0.00     0.210 HD
ENDBRANCH 106 107
ENDBRANCH  80 106
ENDBRANCH  77  80
ENDBRANCH  75  76
ENDBRANCH  74  75
ENDBRANCH   1  74
TORSDOF 25
ENDMDL
MODEL 3
REMARK VINA RESULT:     -11.1      2.337      8.316
REMARK SMILES O=C(NCCCCCCNC(=O)[C@H](CO)NC(=O)[C@H](Cc1ccc(O)cc1)NC(=O)c1ccc(F)cc1)c1ccc(-c2c3nc(c(-c4cccc(S(=O)(=O)[O-])c4F)c4ccc([nH]4)c(-c4cccc(S(=O)(=O)[O-])c4F)c4nc(c(-c5cccc(S(=O)(=O)[O-])c5F)c5ccc2[nH]5)C=C4)C=C3)cc1
REMARK SMILES IDX 7 1 6 2 5 3 4 4 3 5 1 6 2 7 38 9 39 10 100 11 40 12 99 13
REMARK SMILES IDX 41 14 42 15 43 16 93 17 44 18 98 19 92 20 94 21 45 22 97 23
REMARK SMILES IDX 91 24 90 25 46 27 78 28 58 29 77 30 59 31 62 32 76 33 95 34
REMARK SMILES IDX 60 35 61 36 75 38 96 39 63 40 47 41 48 42 56 43 49 44 51 45
REMARK SMILES IDX 57 46 50 47 52 48 53 49 54 50 55 51 79 52 80 53 88 54 81 55
REMARK SMILES IDX 83 56 89 57 82 58 84 59 85 60 86 61 87 62 64 63 65 64 73 65
REMARK SMILES IDX 66 66 68 67 74 68 67 69 69 70 70 71 71 72 72 73 8 74 9 75
REMARK SMILES IDX 10 76 11 77 12 79 13 80 16 81 17 82 18 84 19 85 28 86 29 87
REMARK SMILES IDX 30 89 31 90 32 91 37 92 33 93 36 94 34 95 35 96 20 97 21 98
REMARK SMILES IDX 22 99 27 100 23 101 26 102 24 103 25 104 14 106 15 107
REMARK H PARENT 3 8 94 26 62 37 10 78 16 83 28 88 25 105 15 108
REMARK Flexibility Score: inf
ROOT
ATOM      1  C   UNL A   1      35.011  30.383  28.372  1.00  0.00     0.002 C 
ENDROOT
BRANCH   1   2
ATOM      2  C   UNL A   1      35.172  31.853  27.967  1.00  0.00     0.002 C 
BRANCH   2   3
ATOM      3  C   UNL A   1      33.860  32.634  27.865  1.00  0.00     0.021 C 
BRANCH   3   4
ATOM      4  C   UNL A   1      34.049  34.135  27.694  1.00  0.00     0.116 C 
BRANCH   4   5
ATOM      5  N   UNL A   1      33.313  34.880  28.705  1.00  0.00    -0.352 N 
ATOM      6  O   UNL A   1      32.565  35.313  30.787  1.00  0.00    -0.269 OA
ATOM      7  C   UNL A   1      33.441  34.830  30.067  1.00  0.00     0.251 C 
ATOM      8  H   UNL A   1      32.631  35.502  28.362  1.00  0.00     0.163 HD
BRANCH   7   9
ATOM      9  C   UNL A   1      34.634  34.192  30.657  1.00  0.00     0.039 A 
ATOM     10  C   UNL A   1      34.487  33.080  31.491  1.00  0.00     0.014 A 
ATOM     11  C   UNL A   1      35.904  34.692  30.361  1.00  0.00     0.014 A 
ATOM     12  C   UNL A   1      35.598  32.536  32.120  1.00  0.00     0.010 A 
ATOM     13  C   UNL A   1      37.030  34.083  30.919  1.00  0.00     0.010 A 
ATOM     14  C   UNL A   1      36.884  33.006  31.806  1.00  0.00    -0.014 A 
BRANCH  14  15
ATOM     15  C   UNL A   1      38.060  32.250  32.295  1.00  0.00     0.031 A 
ATOM     16  C   UNL A   1      38.683  31.151  31.491  1.00  0.00     0.074 A 
ATOM     17  C   UNL A   1      38.551  32.576  33.505  1.00  0.00     0.049 A 
ATOM     18  N   UNL A   1      39.722  30.411  31.786  1.00  0.00    -0.248 NA
ATOM     19  C   UNL A   1      38.067  30.832  30.194  1.00  0.00     0.031 C 
ATOM     20  C   UNL A   1      37.995  33.610  34.382  1.00  0.00     0.029 A 
ATOM     21  N   UNL A   1      39.618  32.084  34.209  1.00  0.00    -0.354 N 
ATOM     22  C   UNL A   1      39.869  29.521  30.730  1.00  0.00     0.074 A 
ATOM     23  C   UNL A   1      38.804  29.804  29.791  1.00  0.00     0.031 C 
ATOM     24  C   UNL A   1      38.746  33.704  35.485  1.00  0.00     0.029 A 
ATOM     25  C   UNL A   1      39.793  32.692  35.429  1.00  0.00     0.049 A 
ATOM     26  H   UNL A   1      40.204  31.366  33.873  1.00  0.00     0.167 HD
ATOM     27  C   UNL A   1      40.816  28.567  30.561  1.00  0.00     0.034 A 
ATOM     28  C   UNL A   1      40.683  32.454  36.409  1.00  0.00     0.034 A 
ATOM     29  C   UNL A   1      41.869  28.302  31.508  1.00  0.00     0.049 A 
ATOM     30  C   UNL A   1      41.711  31.384  36.204  1.00  0.00     0.074 A 
ATOM     31  C   UNL A   1      42.897  27.381  31.414  1.00  0.00     0.029 A 
ATOM     32  N   UNL A   1      42.023  28.945  32.730  1.00  0.00    -0.354 N 
ATOM     33  N   UNL A   1      41.891  30.609  35.162  1.00  0.00    -0.248 NA
ATOM     34  C   UNL A   1      42.675  31.171  37.289  1.00  0.00     0.031 C 
ATOM     35  C   UNL A   1      43.648  27.441  32.593  1.00  0.00     0.029 A 
ATOM     36  C   UNL A   1      43.122  28.435  33.402  1.00  0.00     0.049 A 
ATOM     37  H   UNL A   1      41.436  29.660  33.069  1.00  0.00     0.167 HD
ATOM     38  C   UNL A   1      43.008  29.838  35.449  1.00  0.00     0.074 A 
ATOM     39  C   UNL A   1      43.469  30.248  36.761  1.00  0.00     0.031 C 
ATOM     40  C   UNL A   1      43.594  28.876  34.693  1.00  0.00     0.034 A 
BRANCH  27  41
ATOM     41  C   UNL A   1      40.776  27.752  29.290  1.00  0.00     0.023 A 
ATOM     42  C   UNL A   1      39.823  26.722  29.151  1.00  0.00     0.012 A 
ATOM     43  C   UNL A   1      41.631  28.048  28.209  1.00  0.00     0.148 A 
ATOM     44  C   UNL A   1      39.744  25.978  27.974  1.00  0.00     0.002 A 
ATOM     45  C   UNL A   1      41.514  27.334  27.021  1.00  0.00     0.091 A 
ATOM     46  F   UNL A   1      42.546  29.015  28.363  1.00  0.00    -0.205 F 
ATOM     47  C   UNL A   1      40.581  26.291  26.907  1.00  0.00     0.022 A 
BRANCH  45  48
ATOM     48  S   UNL A   1      42.483  27.720  25.558  1.00  0.00     0.127 S 
ATOM     49  O   UNL A   1      43.836  27.778  26.109  1.00  0.00    -0.237 OA
ATOM     50  O   UNL A   1      42.223  26.563  24.702  1.00  0.00    -0.237 OA
ATOM     51  O   UNL A   1      41.957  28.980  25.051  1.00  0.00    -0.744 OA
ENDBRANCH  45  48
ENDBRANCH  27  41
BRANCH  28  52
ATOM     52  C   UNL A   1      40.655  33.309  37.626  1.00  0.00     0.023 A 
ATOM     53  C   UNL A   1      39.844  32.932  38.712  1.00  0.00     0.012 A 
ATOM     54  C   UNL A   1      41.526  34.409  37.761  1.00  0.00     0.148 A 
ATOM     55  C   UNL A   1      39.899  33.636  39.915  1.00  0.00     0.002 A 
ATOM     56  C   UNL A   1      41.620  35.067  38.981  1.00  0.00     0.091 A 
ATOM     57  F   UNL A   1      42.290  34.744  36.712  1.00  0.00    -0.205 F 
ATOM     58  C   UNL A   1      40.798  34.692  40.055  1.00  0.00     0.022 A 
BRANCH  56  59
ATOM     59  S   UNL A   1      42.855  36.332  39.305  1.00  0.00     0.127 S 
ATOM     60  O   UNL A   1      42.578  37.297  38.244  1.00  0.00    -0.237 OA
ATOM     61  O   UNL A   1      42.483  36.770  40.651  1.00  0.00    -0.237 OA
ATOM     62  O   UNL A   1      44.145  35.661  39.219  1.00  0.00    -0.744 OA
ENDBRANCH  56  59
ENDBRANCH  28  52
BRANCH  40  63
ATOM     63  C   UNL A   1      44.832  28.216  35.238  1.00  0.00     0.023 A 
ATOM     64  C   UNL A   1      46.099  28.791  35.015  1.00  0.00     0.012 A 
ATOM     65  C   UNL A   1      44.726  27.075  36.058  1.00  0.00     0.148 A 
ATOM     66  C   UNL A   1      47.242  28.226  35.578  1.00  0.00     0.002 A 
ATOM     67  C   UNL A   1      45.861  26.550  36.662  1.00  0.00     0.091 A 
ATOM     68  F   UNL A   1      43.514  26.530  36.241  1.00  0.00    -0.205 F 
ATOM     69  C   UNL A   1      47.122  27.116  36.412  1.00  0.00     0.022 A 
BRANCH  67  70
ATOM     70  S   UNL A   1      45.788  25.192  37.836  1.00  0.00     0.127 S 
ATOM     71  O   UNL A   1      45.392  24.077  36.978  1.00  0.00    -0.237 OA
ATOM     72  O   UNL A   1      47.167  25.130  38.321  1.00  0.00    -0.237 OA
ATOM     73  O   UNL A   1      44.810  25.582  38.841  1.00  0.00    -0.744 OA
ENDBRANCH  67  70
ENDBRANCH  40  63
ENDBRANCH  14  15
ENDBRANCH   7   9
ENDBRANCH   4   5
ENDBRANCH   3   4
ENDBRANCH   2   3
ENDBRANCH   1   2
BRANCH   1  74
ATOM     74  C   UNL A   1      35.456  29.380  27.304  1.00  0.00     0.021 C 
BRANCH  74  75
ATOM     75  C   UNL A   1      34.299  28.628  26.657  1.00  0.00     0.116 C 
BRANCH  75  76
ATOM     76  N   UNL A   1      34.243  28.842  25.233  1.00  0.00    -0.354 N 
ATOM     77  C   UNL A   1      33.150  29.065  24.449  1.00  0.00     0.244 C 
ATOM     78  H   UNL A   1      35.107  28.826  24.764  1.00  0.00     0.163 HD
ATOM     79  O   UNL A   1      33.349  29.198  23.240  1.00  0.00    -0.273 OA
BRANCH  77  80
ATOM     80  C   UNL A   1      31.734  29.157  25.084  1.00  0.00     0.197 C 
BRANCH  80  81
ATOM     81  N   UNL A   1      31.404  27.932  25.833  1.00  0.00    -0.340 N 
ATOM     82  C   UNL A   1      30.720  26.791  25.547  1.00  0.00     0.243 C 
ATOM     83  H   UNL A   1      31.761  27.939  26.750  1.00  0.00     0.164 HD
ATOM     84  O   UNL A   1      30.305  26.192  26.547  1.00  0.00    -0.273 OA
BRANCH  82  85
ATOM     85  C   UNL A   1      30.286  26.323  24.119  1.00  0.00     0.176 C 
BRANCH  85  86
ATOM     86  N   UNL A   1      30.267  24.887  23.820  1.00  0.00    -0.340 N 
ATOM     87  C   UNL A   1      31.211  23.895  23.832  1.00  0.00     0.251 C 
ATOM     88  H   UNL A   1      29.377  24.564  23.550  1.00  0.00     0.164 HD
ATOM     89  O   UNL A   1      30.925  22.844  23.259  1.00  0.00    -0.269 OA
BRANCH  87  90
ATOM     90  C   UNL A   1      32.527  23.991  24.517  1.00  0.00     0.040 A 
ATOM     91  C   UNL A   1      32.846  23.277  25.673  1.00  0.00     0.017 A 
ATOM     92  C   UNL A   1      33.540  24.739  23.892  1.00  0.00     0.017 A 
ATOM     93  C   UNL A   1      34.132  23.317  26.214  1.00  0.00     0.040 A 
ATOM     94  C   UNL A   1      34.829  24.782  24.431  1.00  0.00     0.040 A 
ATOM     95  C   UNL A   1      35.112  24.071  25.589  1.00  0.00     0.123 A 
ATOM     96  F   UNL A   1      36.349  24.097  26.102  1.00  0.00    -0.207 F 
ENDBRANCH  87  90
ENDBRANCH  85  86
BRANCH  85  97
ATOM     97  C   UNL A   1      28.891  26.924  23.771  1.00  0.00     0.070 C 
BRANCH  97  98
ATOM     98  C   UNL A   1      28.788  28.260  23.048  1.00  0.00    -0.045 A 
ATOM     99  C   UNL A   1      29.926  28.711  22.350  1.00  0.00     0.007 A 
ATOM    100  C   UNL A   1      27.665  29.099  23.074  1.00  0.00     0.007 A 
ATOM    101  C   UNL A   1      29.948  29.958  21.718  1.00  0.00     0.046 A 
ATOM    102  C   UNL A   1      27.684  30.346  22.444  1.00  0.00     0.046 A 
ATOM    103  C   UNL A   1      28.825  30.770  21.778  1.00  0.00     0.115 A 
BRANCH 103 104
ATOM    104  O   UNL A   1      28.802  32.005  21.203  1.00  0.00    -0.508 OA
ATOM    105  H   UNL A   1      28.879  32.092  20.274  1.00  0.00     0.293 HD
ENDBRANCH 103 104
ENDBRANCH  97  98
ENDBRANCH  85  97
ENDBRANCH  82  85
ENDBRANCH  80  81
BRANCH  80 106
ATOM    106  C   UNL A   1      31.723  30.381  26.046  1.00  0.00     0.191 C 
BRANCH 106 107
ATOM    107  O   UNL A   1      31.036  31.537  25.557  1.00  0.00    -0.394 OA
ATOM    108  H   UNL A   1      31.019  31.517  24.588  1.00  0.00     0.210 HD
ENDBRANCH 106 107
ENDBRANCH  80 106
ENDBRANCH  77  80
ENDBRANCH  75  76
ENDBRANCH  74  75
ENDBRANCH   1  74
TORSDOF 25
ENDMDL
