MODEL 1
REMARK VINA RESULT:     -10.6      0.000      0.000
REMARK SMILES CC(C)(C)C(=O)C[N@H+]1CCCC[C@H]1C(=O)NCCCCCCNC(=O)c1ccc(-c2c3nc(c(-c4cccc(S(=O)(=O)[O-])c4F)c4ccc([nH]4)c(-c4cccc(S(=O)(=O)[O-])c4F)c4nc(c(-c5cccc(S(=O)(=O)[O-])c5F)c5ccc2[nH]5)C=C4)C=C3)cc1
REMARK SMILES IDX 19 1 18 2 17 3 16 4 14 5 15 6 13 8 8 9 9 10 10 12 12 13
REMARK SMILES IDX 11 14 7 15 5 16 6 17 2 18 1 19 3 20 4 21 20 22 21 23 22 24
REMARK SMILES IDX 23 25 24 26 25 28 26 29 27 30 88 31 28 32 87 33 29 34 30 35
REMARK SMILES IDX 31 36 81 37 32 38 86 39 80 40 82 41 33 42 85 43 79 44 78 45
REMARK SMILES IDX 34 47 66 48 46 49 65 50 47 51 50 52 64 53 83 54 48 55 49 56
REMARK SMILES IDX 63 58 84 59 51 60 35 61 36 62 44 63 37 64 39 65 45 66 38 67
REMARK SMILES IDX 40 68 41 69 42 70 43 71 67 72 68 73 76 74 69 75 71 76 77 77
REMARK SMILES IDX 70 78 72 79 73 80 74 81 75 82 52 83 53 84 61 85 54 86 56 87
REMARK SMILES IDX 62 88 55 89 57 90 58 91 59 92 60 93
REMARK H PARENT 16 7 8 11 23 27 82 46 50 57
REMARK Flexibility Score: inf
ROOT
ATOM      1  C   UNL A   1      33.951  21.987  23.897  1.00  0.00     0.002 C 
ENDROOT
BRANCH   1   2
ATOM      2  C   UNL A   1      34.224  23.003  22.781  1.00  0.00     0.021 C 
BRANCH   2   3
ATOM      3  C   UNL A   1      33.139  24.068  22.623  1.00  0.00     0.116 C 
BRANCH   3   4
ATOM      4  N   UNL A   1      33.700  25.393  22.804  1.00  0.00    -0.351 N 
ATOM      5  C   UNL A   1      33.079  26.584  23.025  1.00  0.00     0.278 C 
ATOM      6  O   UNL A   1      33.786  27.595  23.014  1.00  0.00    -0.268 OA
ATOM      7  H   UNL A   1      34.683  25.438  22.760  1.00  0.00     0.163 HD
BRANCH   5   8
ATOM      8  C   UNL A   1      31.552  26.600  23.279  1.00  0.00     0.274 C 
ATOM      9  N   UNL A   1      31.178  26.805  24.706  1.00  0.00    -0.319 N 
ATOM     10  C   UNL A   1      31.468  28.155  25.192  1.00  0.00     0.263 C 
ATOM     11  H   UNL A   1      30.164  26.710  24.734  1.00  0.00     0.349 HD
ATOM     12  C   UNL A   1      30.761  29.207  24.336  1.00  0.00     0.062 C 
ATOM     13  C   UNL A   1      30.850  27.633  22.386  1.00  0.00     0.076 C 
ATOM     14  C   UNL A   1      31.093  29.061  22.857  1.00  0.00     0.012 C 
BRANCH   9  15
ATOM     15  C   UNL A   1      31.720  25.765  25.592  1.00  0.00     0.340 C 
BRANCH  15  16
ATOM     16  C   UNL A   1      30.586  24.938  26.211  1.00  0.00     0.192 C 
ATOM     17  O   UNL A   1      29.532  25.500  26.529  1.00  0.00    -0.293 OA
BRANCH  16  18
ATOM     18  C   UNL A   1      30.797  23.421  26.454  1.00  0.00     0.026 C 
ATOM     19  C   UNL A   1      29.597  22.871  27.250  1.00  0.00     0.019 C 
ATOM     20  C   UNL A   1      32.067  23.163  27.277  1.00  0.00     0.019 C 
ATOM     21  C   UNL A   1      30.876  22.671  25.119  1.00  0.00     0.019 C 
ENDBRANCH  16  18
ENDBRANCH  15  16
ENDBRANCH   9  15
ENDBRANCH   5   8
ENDBRANCH   3   4
ENDBRANCH   2   3
ENDBRANCH   1   2
BRANCH   1  22
ATOM     22  C   UNL A   1      35.068  21.853  24.936  1.00  0.00     0.002 C 
BRANCH  22  23
ATOM     23  C   UNL A   1      35.359  23.126  25.730  1.00  0.00     0.021 C 
BRANCH  23  24
ATOM     24  C   UNL A   1      36.790  23.632  25.603  1.00  0.00     0.116 C 
BRANCH  24  25
ATOM     25  N   UNL A   1      37.766  22.590  25.877  1.00  0.00    -0.352 N 
ATOM     26  C   UNL A   1      39.043  22.716  26.361  1.00  0.00     0.251 C 
ATOM     27  H   UNL A   1      37.472  21.670  25.689  1.00  0.00     0.163 HD
ATOM     28  O   UNL A   1      39.804  21.750  26.355  1.00  0.00    -0.269 OA
BRANCH  26  29
ATOM     29  C   UNL A   1      39.503  24.024  26.876  1.00  0.00     0.039 A 
ATOM     30  C   UNL A   1      40.073  24.940  25.990  1.00  0.00     0.014 A 
ATOM     31  C   UNL A   1      39.376  24.340  28.232  1.00  0.00     0.014 A 
ATOM     32  C   UNL A   1      40.485  26.189  26.459  1.00  0.00     0.010 A 
ATOM     33  C   UNL A   1      39.704  25.615  28.678  1.00  0.00     0.010 A 
ATOM     34  C   UNL A   1      40.288  26.544  27.805  1.00  0.00    -0.014 A 
BRANCH  34  35
ATOM     35  C   UNL A   1      40.722  27.864  28.326  1.00  0.00     0.031 A 
ATOM     36  C   UNL A   1      42.191  28.187  28.424  1.00  0.00     0.074 A 
ATOM     37  C   UNL A   1      39.806  28.748  28.769  1.00  0.00     0.049 A 
ATOM     38  N   UNL A   1      42.771  29.263  28.888  1.00  0.00    -0.248 NA
ATOM     39  C   UNL A   1      43.133  27.150  27.968  1.00  0.00     0.031 C 
ATOM     40  C   UNL A   1      38.359  28.526  28.794  1.00  0.00     0.029 A 
ATOM     41  N   UNL A   1      39.959  30.002  29.304  1.00  0.00    -0.354 N 
ATOM     42  C   UNL A   1      44.137  29.020  28.815  1.00  0.00     0.074 A 
ATOM     43  C   UNL A   1      44.301  27.677  28.305  1.00  0.00     0.031 C 
ATOM     44  C   UNL A   1      37.757  29.613  29.305  1.00  0.00     0.029 A 
ATOM     45  C   UNL A   1      38.773  30.593  29.673  1.00  0.00     0.049 A 
ATOM     46  H   UNL A   1      40.835  30.437  29.414  1.00  0.00     0.167 HD
ATOM     47  C   UNL A   1      45.167  29.848  29.112  1.00  0.00     0.034 A 
ATOM     48  C   UNL A   1      38.534  31.789  30.247  1.00  0.00     0.034 A 
ATOM     49  C   UNL A   1      45.000  31.196  29.583  1.00  0.00     0.049 A 
ATOM     50  C   UNL A   1      39.693  32.706  30.533  1.00  0.00     0.074 A 
ATOM     51  C   UNL A   1      45.974  32.142  29.846  1.00  0.00     0.029 A 
ATOM     52  N   UNL A   1      43.779  31.788  29.867  1.00  0.00    -0.354 N 
ATOM     53  N   UNL A   1      40.973  32.509  30.330  1.00  0.00    -0.248 NA
ATOM     54  C   UNL A   1      39.370  34.028  31.090  1.00  0.00     0.031 C 
ATOM     55  C   UNL A   1      45.343  33.298  30.318  1.00  0.00     0.029 A 
ATOM     56  C   UNL A   1      43.974  33.087  30.305  1.00  0.00     0.049 A 
ATOM     57  H   UNL A   1      42.903  31.350  29.771  1.00  0.00     0.167 HD
ATOM     58  C   UNL A   1      41.602  33.699  30.682  1.00  0.00     0.074 A 
ATOM     59  C   UNL A   1      40.560  34.612  31.101  1.00  0.00     0.031 C 
ATOM     60  C   UNL A   1      42.923  34.004  30.664  1.00  0.00     0.034 A 
BRANCH  47  61
ATOM     61  C   UNL A   1      46.566  29.329  28.895  1.00  0.00     0.023 A 
ATOM     62  C   UNL A   1      47.365  28.985  30.006  1.00  0.00     0.012 A 
ATOM     63  C   UNL A   1      47.077  29.141  27.597  1.00  0.00     0.148 A 
ATOM     64  C   UNL A   1      48.663  28.507  29.830  1.00  0.00     0.002 A 
ATOM     65  C   UNL A   1      48.353  28.616  27.427  1.00  0.00     0.091 A 
ATOM     66  F   UNL A   1      46.313  29.491  26.552  1.00  0.00    -0.205 F 
ATOM     67  C   UNL A   1      49.152  28.313  28.541  1.00  0.00     0.022 A 
BRANCH  65  68
ATOM     68  S   UNL A   1      49.043  28.247  25.811  1.00  0.00     0.127 S 
ATOM     69  O   UNL A   1      50.172  29.173  25.754  1.00  0.00    -0.237 OA
ATOM     70  O   UNL A   1      49.415  26.839  25.950  1.00  0.00    -0.237 OA
ATOM     71  O   UNL A   1      47.978  28.502  24.850  1.00  0.00    -0.744 OA
ENDBRANCH  65  68
ENDBRANCH  47  61
BRANCH  48  72
ATOM     72  C   UNL A   1      37.134  32.220  30.520  1.00  0.00     0.023 A 
ATOM     73  C   UNL A   1      36.594  32.045  31.809  1.00  0.00     0.012 A 
ATOM     74  C   UNL A   1      36.343  32.813  29.518  1.00  0.00     0.148 A 
ATOM     75  C   UNL A   1      35.276  32.414  32.085  1.00  0.00     0.002 A 
ATOM     76  C   UNL A   1      35.050  33.231  29.815  1.00  0.00     0.091 A 
ATOM     77  F   UNL A   1      36.874  32.966  28.297  1.00  0.00    -0.205 F 
ATOM     78  C   UNL A   1      34.508  33.014  31.091  1.00  0.00     0.022 A 
BRANCH  76  79
ATOM     79  S   UNL A   1      34.030  34.123  28.637  1.00  0.00     0.127 S 
ATOM     80  O   UNL A   1      34.920  35.208  28.232  1.00  0.00    -0.237 OA
ATOM     81  O   UNL A   1      33.795  33.104  27.613  1.00  0.00    -0.237 OA
ATOM     82  O   UNL A   1      32.838  34.525  29.371  1.00  0.00    -0.744 OA
ENDBRANCH  76  79
ENDBRANCH  48  72
BRANCH  60  83
ATOM     83  C   UNL A   1      43.321  35.408  31.039  1.00  0.00     0.023 A 
ATOM     84  C   UNL A   1      43.639  35.727  32.374  1.00  0.00     0.012 A 
ATOM     85  C   UNL A   1      43.437  36.401  30.046  1.00  0.00     0.148 A 
ATOM     86  C   UNL A   1      44.021  37.023  32.721  1.00  0.00     0.002 A 
ATOM     87  C   UNL A   1      43.874  37.675  30.389  1.00  0.00     0.091 A 
ATOM     88  F   UNL A   1      43.113  36.085  28.783  1.00  0.00    -0.205 F 
ATOM     89  C   UNL A   1      44.150  37.992  31.729  1.00  0.00     0.022 A 
BRANCH  87  90
ATOM     90  S   UNL A   1      44.168  38.950  29.161  1.00  0.00     0.127 S 
ATOM     91  O   UNL A   1      42.877  39.011  28.479  1.00  0.00    -0.237 OA
ATOM     92  O   UNL A   1      44.473  40.116  29.991  1.00  0.00    -0.237 OA
ATOM     93  O   UNL A   1      45.283  38.479  28.351  1.00  0.00    -0.744 OA
ENDBRANCH  87  90
ENDBRANCH  60  83
ENDBRANCH  34  35
ENDBRANCH  26  29
ENDBRANCH  24  25
ENDBRANCH  23  24
ENDBRANCH  22  23
ENDBRANCH   1  22
TORSDOF 19
ENDMDL
MODEL 2
REMARK VINA RESULT:     -10.5      3.571      5.303
REMARK SMILES CC(C)(C)C(=O)C[N@H+]1CCCC[C@H]1C(=O)NCCCCCCNC(=O)c1ccc(-c2c3nc(c(-c4cccc(S(=O)(=O)[O-])c4F)c4ccc([nH]4)c(-c4cccc(S(=O)(=O)[O-])c4F)c4nc(c(-c5cccc(S(=O)(=O)[O-])c5F)c5ccc2[nH]5)C=C4)C=C3)cc1
REMARK SMILES IDX 19 1 18 2 17 3 16 4 14 5 15 6 13 8 8 9 9 10 10 12 12 13
REMARK SMILES IDX 11 14 7 15 5 16 6 17 2 18 1 19 3 20 4 21 20 22 21 23 22 24
REMARK SMILES IDX 23 25 24 26 25 28 26 29 27 30 88 31 28 32 87 33 29 34 30 35
REMARK SMILES IDX 31 36 81 37 32 38 86 39 80 40 82 41 33 42 85 43 79 44 78 45
REMARK SMILES IDX 34 47 66 48 46 49 65 50 47 51 50 52 64 53 83 54 48 55 49 56
REMARK SMILES IDX 63 58 84 59 51 60 35 61 36 62 44 63 37 64 39 65 45 66 38 67
REMARK SMILES IDX 40 68 41 69 42 70 43 71 67 72 68 73 76 74 69 75 71 76 77 77
REMARK SMILES IDX 70 78 72 79 73 80 74 81 75 82 52 83 53 84 61 85 54 86 56 87
REMARK SMILES IDX 62 88 55 89 57 90 58 91 59 92 60 93
REMARK H PARENT 16 7 8 11 23 27 82 46 50 57
REMARK Flexibility Score: inf
ROOT
ATOM      1  C   UNL A   1      40.684  22.666  26.801  1.00  0.00     0.002 C 
ENDROOT
BRANCH   1   2
ATOM      2  C   UNL A   1      39.298  23.326  26.804  1.00  0.00     0.021 C 
BRANCH   2   3
ATOM      3  C   UNL A   1      38.231  22.548  26.035  1.00  0.00     0.116 C 
BRANCH   3   4
ATOM      4  N   UNL A   1      36.906  22.914  26.496  1.00  0.00    -0.351 N 
ATOM      5  C   UNL A   1      35.701  22.807  25.872  1.00  0.00     0.278 C 
ATOM      6  O   UNL A   1      34.730  23.316  26.437  1.00  0.00    -0.268 OA
ATOM      7  H   UNL A   1      36.873  23.300  27.401  1.00  0.00     0.163 HD
BRANCH   5   8
ATOM      8  C   UNL A   1      35.620  22.060  24.518  1.00  0.00     0.274 C 
ATOM      9  N   UNL A   1      34.369  21.273  24.335  1.00  0.00    -0.319 N 
ATOM     10  C   UNL A   1      33.178  22.108  24.167  1.00  0.00     0.263 C 
ATOM     11  H   UNL A   1      34.489  20.777  23.453  1.00  0.00     0.349 HD
ATOM     12  C   UNL A   1      33.344  23.061  22.982  1.00  0.00     0.062 C 
ATOM     13  C   UNL A   1      35.825  23.022  23.339  1.00  0.00     0.076 C 
ATOM     14  C   UNL A   1      34.607  23.904  23.095  1.00  0.00     0.012 C 
BRANCH   9  15
ATOM     15  C   UNL A   1      34.187  20.245  25.370  1.00  0.00     0.340 C 
BRANCH  15  16
ATOM     16  C   UNL A   1      33.060  19.279  24.981  1.00  0.00     0.192 C 
ATOM     17  O   UNL A   1      31.885  19.620  25.161  1.00  0.00    -0.293 OA
BRANCH  16  18
ATOM     18  C   UNL A   1      33.418  17.887  24.402  1.00  0.00     0.026 C 
ATOM     19  C   UNL A   1      34.951  17.731  24.386  1.00  0.00     0.019 C 
ATOM     20  C   UNL A   1      32.914  17.742  22.959  1.00  0.00     0.019 C 
ATOM     21  C   UNL A   1      32.828  16.775  25.278  1.00  0.00     0.019 C 
ENDBRANCH  16  18
ENDBRANCH  15  16
ENDBRANCH   9  15
ENDBRANCH   5   8
ENDBRANCH   3   4
ENDBRANCH   2   3
ENDBRANCH   1   2
BRANCH   1  22
ATOM     22  C   UNL A   1      40.893  21.599  27.880  1.00  0.00     0.002 C 
BRANCH  22  23
ATOM     23  C   UNL A   1      41.316  20.228  27.350  1.00  0.00     0.021 C 
BRANCH  23  24
ATOM     24  C   UNL A   1      41.349  20.125  25.831  1.00  0.00     0.116 C 
BRANCH  24  25
ATOM     25  N   UNL A   1      42.595  19.554  25.348  1.00  0.00    -0.352 N 
ATOM     26  C   UNL A   1      43.796  20.177  25.127  1.00  0.00     0.251 C 
ATOM     27  H   UNL A   1      42.575  18.589  25.152  1.00  0.00     0.163 HD
ATOM     28  O   UNL A   1      44.699  19.587  24.535  1.00  0.00    -0.269 OA
BRANCH  26  29
ATOM     29  C   UNL A   1      43.994  21.567  25.591  1.00  0.00     0.039 A 
ATOM     30  C   UNL A   1      44.431  21.791  26.899  1.00  0.00     0.014 A 
ATOM     31  C   UNL A   1      43.744  22.646  24.737  1.00  0.00     0.014 A 
ATOM     32  C   UNL A   1      44.649  23.098  27.338  1.00  0.00     0.010 A 
ATOM     33  C   UNL A   1      44.048  23.938  25.149  1.00  0.00     0.010 A 
ATOM     34  C   UNL A   1      44.476  24.182  26.461  1.00  0.00    -0.014 A 
BRANCH  34  35
ATOM     35  C   UNL A   1      44.698  25.580  26.910  1.00  0.00     0.031 A 
ATOM     36  C   UNL A   1      46.088  26.162  26.893  1.00  0.00     0.074 A 
ATOM     37  C   UNL A   1      43.669  26.304  27.391  1.00  0.00     0.049 A 
ATOM     38  N   UNL A   1      46.494  27.343  27.282  1.00  0.00    -0.248 NA
ATOM     39  C   UNL A   1      47.170  25.291  26.402  1.00  0.00     0.031 C 
ATOM     40  C   UNL A   1      42.290  25.831  27.526  1.00  0.00     0.029 A 
ATOM     41  N   UNL A   1      43.628  27.588  27.876  1.00  0.00    -0.354 N 
ATOM     42  C   UNL A   1      47.874  27.344  27.118  1.00  0.00     0.074 A 
ATOM     43  C   UNL A   1      48.244  26.031  26.638  1.00  0.00     0.031 C 
ATOM     44  C   UNL A   1      41.537  26.813  28.046  1.00  0.00     0.029 A 
ATOM     45  C   UNL A   1      42.382  27.974  28.311  1.00  0.00     0.049 A 
ATOM     46  H   UNL A   1      44.417  28.176  27.909  1.00  0.00     0.167 HD
ATOM     47  C   UNL A   1      48.755  28.353  27.316  1.00  0.00     0.034 A 
ATOM     48  C   UNL A   1      41.969  29.131  28.864  1.00  0.00     0.034 A 
ATOM     49  C   UNL A   1      48.378  29.669  27.757  1.00  0.00     0.049 A 
ATOM     50  C   UNL A   1      42.959  30.250  29.040  1.00  0.00     0.074 A 
ATOM     51  C   UNL A   1      49.181  30.784  27.921  1.00  0.00     0.029 A 
ATOM     52  N   UNL A   1      47.092  30.047  28.110  1.00  0.00    -0.354 N 
ATOM     53  N   UNL A   1      44.238  30.276  28.751  1.00  0.00    -0.248 NA
ATOM     54  C   UNL A   1      42.441  31.516  29.578  1.00  0.00     0.031 C 
ATOM     55  C   UNL A   1      48.384  31.828  28.402  1.00  0.00     0.029 A 
ATOM     56  C   UNL A   1      47.078  31.376  28.494  1.00  0.00     0.049 A 
ATOM     57  H   UNL A   1      46.305  29.455  28.091  1.00  0.00     0.167 HD
ATOM     58  C   UNL A   1      44.664  31.572  29.021  1.00  0.00     0.074 A 
ATOM     59  C   UNL A   1      43.504  32.303  29.486  1.00  0.00     0.031 C 
ATOM     60  C   UNL A   1      45.904  32.107  28.899  1.00  0.00     0.034 A 
BRANCH  47  61
ATOM     61  C   UNL A   1      50.207  28.083  27.015  1.00  0.00     0.023 A 
ATOM     62  C   UNL A   1      51.079  27.704  28.058  1.00  0.00     0.012 A 
ATOM     63  C   UNL A   1      50.702  28.161  25.699  1.00  0.00     0.148 A 
ATOM     64  C   UNL A   1      52.427  27.453  27.804  1.00  0.00     0.002 A 
ATOM     65  C   UNL A   1      52.035  27.859  25.445  1.00  0.00     0.091 A 
ATOM     66  F   UNL A   1      49.866  28.542  24.723  1.00  0.00    -0.205 F 
ATOM     67  C   UNL A   1      52.901  27.520  26.497  1.00  0.00     0.022 A 
BRANCH  65  68
ATOM     68  S   UNL A   1      52.725  27.833  23.787  1.00  0.00     0.127 S 
ATOM     69  O   UNL A   1      54.098  27.406  24.046  1.00  0.00    -0.237 OA
ATOM     70  O   UNL A   1      51.890  26.832  23.124  1.00  0.00    -0.237 OA
ATOM     71  O   UNL A   1      52.580  29.186  23.269  1.00  0.00    -0.744 OA
ENDBRANCH  65  68
ENDBRANCH  47  61
BRANCH  48  72
ATOM     72  C   UNL A   1      40.535  29.317  29.224  1.00  0.00     0.023 A 
ATOM     73  C   UNL A   1      39.604  29.642  28.218  1.00  0.00     0.012 A 
ATOM     74  C   UNL A   1      40.087  29.163  30.550  1.00  0.00     0.148 A 
ATOM     75  C   UNL A   1      38.260  29.850  28.532  1.00  0.00     0.002 A 
ATOM     76  C   UNL A   1      38.737  29.315  30.847  1.00  0.00     0.091 A 
ATOM     77  F   UNL A   1      40.989  28.859  31.493  1.00  0.00    -0.205 F 
ATOM     78  C   UNL A   1      37.826  29.678  29.843  1.00  0.00     0.022 A 
BRANCH  76  79
ATOM     79  S   UNL A   1      38.066  28.994  32.480  1.00  0.00     0.127 S 
ATOM     80  O   UNL A   1      38.425  27.593  32.682  1.00  0.00    -0.237 OA
ATOM     81  O   UNL A   1      38.814  29.946  33.303  1.00  0.00    -0.237 OA
ATOM     82  O   UNL A   1      36.639  29.273  32.384  1.00  0.00    -0.744 OA
ENDBRANCH  76  79
ENDBRANCH  48  72
BRANCH  60  83
ATOM     83  C   UNL A   1      46.066  33.573  29.203  1.00  0.00     0.023 A 
ATOM     84  C   UNL A   1      46.512  33.995  30.472  1.00  0.00     0.012 A 
ATOM     85  C   UNL A   1      45.831  34.535  28.200  1.00  0.00     0.148 A 
ATOM     86  C   UNL A   1      46.676  35.352  30.750  1.00  0.00     0.002 A 
ATOM     87  C   UNL A   1      46.051  35.880  28.466  1.00  0.00     0.091 A 
ATOM     88  F   UNL A   1      45.389  34.117  27.004  1.00  0.00    -0.205 F 
ATOM     89  C   UNL A   1      46.458  36.292  29.746  1.00  0.00     0.022 A 
BRANCH  87  90
ATOM     90  S   UNL A   1      45.896  37.146  27.202  1.00  0.00     0.127 S 
ATOM     91  O   UNL A   1      46.749  36.613  26.141  1.00  0.00    -0.237 OA
ATOM     92  O   UNL A   1      44.464  37.113  26.905  1.00  0.00    -0.237 OA
ATOM     93  O   UNL A   1      46.357  38.384  27.815  1.00  0.00    -0.744 OA
ENDBRANCH  87  90
ENDBRANCH  60  83
ENDBRANCH  34  35
ENDBRANCH  26  29
ENDBRANCH  24  25
ENDBRANCH  23  24
ENDBRANCH  22  23
ENDBRANCH   1  22
TORSDOF 19
ENDMDL
MODEL 3
REMARK VINA RESULT:     -10.3      3.881      9.329
REMARK SMILES CC(C)(C)C(=O)C[N@H+]1CCCC[C@H]1C(=O)NCCCCCCNC(=O)c1ccc(-c2c3nc(c(-c4cccc(S(=O)(=O)[O-])c4F)c4ccc([nH]4)c(-c4cccc(S(=O)(=O)[O-])c4F)c4nc(c(-c5cccc(S(=O)(=O)[O-])c5F)c5ccc2[nH]5)C=C4)C=C3)cc1
REMARK SMILES IDX 19 1 18 2 17 3 16 4 14 5 15 6 13 8 8 9 9 10 10 12 12 13
REMARK SMILES IDX 11 14 7 15 5 16 6 17 2 18 1 19 3 20 4 21 20 22 21 23 22 24
REMARK SMILES IDX 23 25 24 26 25 28 26 29 27 30 88 31 28 32 87 33 29 34 30 35
REMARK SMILES IDX 31 36 81 37 32 38 86 39 80 40 82 41 33 42 85 43 79 44 78 45
REMARK SMILES IDX 34 47 66 48 46 49 65 50 47 51 50 52 64 53 83 54 48 55 49 56
REMARK SMILES IDX 63 58 84 59 51 60 35 61 36 62 44 63 37 64 39 65 45 66 38 67
REMARK SMILES IDX 40 68 41 69 42 70 43 71 67 72 68 73 76 74 69 75 71 76 77 77
REMARK SMILES IDX 70 78 72 79 73 80 74 81 75 82 52 83 53 84 61 85 54 86 56 87
REMARK SMILES IDX 62 88 55 89 57 90 58 91 59 92 60 93
REMARK H PARENT 16 7 8 11 23 27 82 46 50 57
REMARK Flexibility Score: inf
ROOT
ATOM      1  C   UNL A   1      40.873  22.527  26.846  1.00  0.00     0.002 C 
ENDROOT
BRANCH   1   2
ATOM      2  C   UNL A   1      39.541  23.253  26.612  1.00  0.00     0.021 C 
BRANCH   2   3
ATOM      3  C   UNL A   1      38.438  22.368  26.034  1.00  0.00     0.116 C 
BRANCH   3   4
ATOM      4  N   UNL A   1      37.138  22.806  26.504  1.00  0.00    -0.351 N 
ATOM      5  C   UNL A   1      35.925  22.766  25.888  1.00  0.00     0.278 C 
ATOM      6  O   UNL A   1      34.987  23.327  26.460  1.00  0.00    -0.268 OA
ATOM      7  H   UNL A   1      37.133  23.192  27.410  1.00  0.00     0.163 HD
BRANCH   5   8
ATOM      8  C   UNL A   1      35.794  22.027  24.533  1.00  0.00     0.274 C 
ATOM      9  N   UNL A   1      34.502  21.307  24.360  1.00  0.00    -0.319 N 
ATOM     10  C   UNL A   1      33.355  22.203  24.202  1.00  0.00     0.263 C 
ATOM     11  H   UNL A   1      34.589  20.807  23.476  1.00  0.00     0.349 HD
ATOM     12  C   UNL A   1      33.561  23.149  23.018  1.00  0.00     0.062 C 
ATOM     13  C   UNL A   1      36.040  22.979  23.354  1.00  0.00     0.076 C 
ATOM     14  C   UNL A   1      34.868  23.924  23.122  1.00  0.00     0.012 C 
BRANCH   9  15
ATOM     15  C   UNL A   1      34.275  20.288  25.394  1.00  0.00     0.340 C 
BRANCH  15  16
ATOM     16  C   UNL A   1      33.040  19.442  25.059  1.00  0.00     0.192 C 
ATOM     17  O   UNL A   1      31.917  19.872  25.347  1.00  0.00    -0.293 OA
BRANCH  16  18
ATOM     18  C   UNL A   1      33.227  18.054  24.394  1.00  0.00     0.026 C 
ATOM     19  C   UNL A   1      34.734  17.754  24.279  1.00  0.00     0.019 C 
ATOM     20  C   UNL A   1      32.633  18.033  22.979  1.00  0.00     0.019 C 
ATOM     21  C   UNL A   1      32.580  16.959  25.251  1.00  0.00     0.019 C 
ENDBRANCH  16  18
ENDBRANCH  15  16
ENDBRANCH   9  15
ENDBRANCH   5   8
ENDBRANCH   3   4
ENDBRANCH   2   3
ENDBRANCH   1   2
BRANCH   1  22
ATOM     22  C   UNL A   1      40.826  21.414  27.896  1.00  0.00     0.002 C 
BRANCH  22  23
ATOM     23  C   UNL A   1      41.331  20.055  27.411  1.00  0.00     0.021 C 
BRANCH  23  24
ATOM     24  C   UNL A   1      41.239  19.852  25.905  1.00  0.00     0.116 C 
BRANCH  24  25
ATOM     25  N   UNL A   1      42.413  19.183  25.369  1.00  0.00    -0.352 N 
ATOM     26  C   UNL A   1      43.629  19.721  25.033  1.00  0.00     0.251 C 
ATOM     27  H   UNL A   1      42.325  18.213  25.227  1.00  0.00     0.163 HD
ATOM     28  O   UNL A   1      44.452  19.049  24.414  1.00  0.00    -0.269 OA
BRANCH  26  29
ATOM     29  C   UNL A   1      43.938  21.118  25.407  1.00  0.00     0.039 A 
ATOM     30  C   UNL A   1      44.470  21.381  26.671  1.00  0.00     0.014 A 
ATOM     31  C   UNL A   1      43.699  22.165  24.512  1.00  0.00     0.014 A 
ATOM     32  C   UNL A   1      44.793  22.693  27.024  1.00  0.00     0.010 A 
ATOM     33  C   UNL A   1      44.104  23.455  24.832  1.00  0.00     0.010 A 
ATOM     34  C   UNL A   1      44.629  23.739  26.101  1.00  0.00    -0.014 A 
BRANCH  34  35
ATOM     35  C   UNL A   1      44.962  25.141  26.457  1.00  0.00     0.031 A 
ATOM     36  C   UNL A   1      43.881  26.067  26.953  1.00  0.00     0.074 A 
ATOM     37  C   UNL A   1      46.216  25.602  26.277  1.00  0.00     0.049 A 
ATOM     38  N   UNL A   1      43.961  27.332  27.274  1.00  0.00    -0.248 NA
ATOM     39  C   UNL A   1      42.525  25.505  27.074  1.00  0.00     0.031 C 
ATOM     40  C   UNL A   1      47.334  24.826  25.737  1.00  0.00     0.029 A 
ATOM     41  N   UNL A   1      46.754  26.843  26.509  1.00  0.00    -0.354 N 
ATOM     42  C   UNL A   1      42.668  27.724  27.599  1.00  0.00     0.074 A 
ATOM     43  C   UNL A   1      41.813  26.576  27.392  1.00  0.00     0.031 C 
ATOM     44  C   UNL A   1      48.427  25.605  25.691  1.00  0.00     0.029 A 
ATOM     45  C   UNL A   1      48.083  26.940  26.168  1.00  0.00     0.049 A 
ATOM     46  H   UNL A   1      46.237  27.592  26.884  1.00  0.00     0.167 HD
ATOM     47  C   UNL A   1      42.230  28.920  28.061  1.00  0.00     0.034 A 
ATOM     48  C   UNL A   1      48.926  27.990  26.228  1.00  0.00     0.034 A 
ATOM     49  C   UNL A   1      43.089  30.047  28.301  1.00  0.00     0.049 A 
ATOM     50  C   UNL A   1      48.425  29.298  26.779  1.00  0.00     0.074 A 
ATOM     51  C   UNL A   1      42.760  31.281  28.834  1.00  0.00     0.029 A 
ATOM     52  N   UNL A   1      44.446  30.082  28.020  1.00  0.00    -0.354 N 
ATOM     53  N   UNL A   1      47.226  29.609  27.209  1.00  0.00    -0.248 NA
ATOM     54  C   UNL A   1      49.405  30.388  26.893  1.00  0.00     0.031 C 
ATOM     55  C   UNL A   1      43.914  32.072  28.848  1.00  0.00     0.029 A 
ATOM     56  C   UNL A   1      44.970  31.316  28.366  1.00  0.00     0.049 A 
ATOM     57  H   UNL A   1      44.961  29.338  27.632  1.00  0.00     0.167 HD
ATOM     58  C   UNL A   1      47.321  30.910  27.693  1.00  0.00     0.074 A 
ATOM     59  C   UNL A   1      48.697  31.322  27.512  1.00  0.00     0.031 C 
ATOM     60  C   UNL A   1      46.354  31.692  28.234  1.00  0.00     0.034 A 
BRANCH  47  61
ATOM     61  C   UNL A   1      40.762  29.053  28.374  1.00  0.00     0.023 A 
ATOM     62  C   UNL A   1      39.840  29.270  27.328  1.00  0.00     0.012 A 
ATOM     63  C   UNL A   1      40.287  28.924  29.693  1.00  0.00     0.148 A 
ATOM     64  C   UNL A   1      38.478  29.401  27.595  1.00  0.00     0.002 A 
ATOM     65  C   UNL A   1      38.922  29.003  29.945  1.00  0.00     0.091 A 
ATOM     66  F   UNL A   1      41.177  28.737  30.678  1.00  0.00    -0.205 F 
ATOM     67  C   UNL A   1      38.019  29.257  28.901  1.00  0.00     0.022 A 
BRANCH  65  68
ATOM     68  S   UNL A   1      38.221  28.747  31.579  1.00  0.00     0.127 S 
ATOM     69  O   UNL A   1      36.802  28.997  31.333  1.00  0.00    -0.237 OA
ATOM     70  O   UNL A   1      38.558  27.348  31.840  1.00  0.00    -0.237 OA
ATOM     71  O   UNL A   1      38.880  29.705  32.455  1.00  0.00    -0.744 OA
ENDBRANCH  65  68
ENDBRANCH  47  61
BRANCH  48  72
ATOM     72  C   UNL A   1      50.351  27.828  25.824  1.00  0.00     0.023 A 
ATOM     73  C   UNL A   1      51.337  27.649  26.815  1.00  0.00     0.012 A 
ATOM     74  C   UNL A   1      50.733  27.836  24.469  1.00  0.00     0.148 A 
ATOM     75  C   UNL A   1      52.682  27.524  26.466  1.00  0.00     0.002 A 
ATOM     76  C   UNL A   1      52.068  27.653  24.125  1.00  0.00     0.091 A 
ATOM     77  F   UNL A   1      49.781  28.012  23.543  1.00  0.00    -0.205 F 
ATOM     78  C   UNL A   1      53.046  27.516  25.123  1.00  0.00     0.022 A 
BRANCH  76  79
ATOM     79  S   UNL A   1      52.614  27.506  22.422  1.00  0.00     0.127 S 
ATOM     80  O   UNL A   1      51.531  26.730  21.825  1.00  0.00    -0.237 OA
ATOM     81  O   UNL A   1      52.671  28.908  22.005  1.00  0.00    -0.237 OA
ATOM     82  O   UNL A   1      53.910  26.842  22.477  1.00  0.00    -0.744 OA
ENDBRANCH  76  79
ENDBRANCH  48  72
BRANCH  60  83
ATOM     83  C   UNL A   1      46.758  33.053  28.740  1.00  0.00     0.023 A 
ATOM     84  C   UNL A   1      47.233  33.212  30.057  1.00  0.00     0.012 A 
ATOM     85  C   UNL A   1      46.720  34.168  27.880  1.00  0.00     0.148 A 
ATOM     86  C   UNL A   1      47.620  34.469  30.523  1.00  0.00     0.002 A 
ATOM     87  C   UNL A   1      47.161  35.406  28.333  1.00  0.00     0.091 A 
ATOM     88  F   UNL A   1      46.248  34.002  26.635  1.00  0.00    -0.205 F 
ATOM     89  C   UNL A   1      47.596  35.561  29.659  1.00  0.00     0.022 A 
BRANCH  87  90
ATOM     90  S   UNL A   1      47.263  36.839  27.257  1.00  0.00     0.127 S 
ATOM     91  O   UNL A   1      47.781  37.859  28.167  1.00  0.00    -0.237 OA
ATOM     92  O   UNL A   1      48.213  36.395  26.237  1.00  0.00    -0.237 OA
ATOM     93  O   UNL A   1      45.912  37.068  26.763  1.00  0.00    -0.744 OA
ENDBRANCH  87  90
ENDBRANCH  60  83
ENDBRANCH  34  35
ENDBRANCH  26  29
ENDBRANCH  24  25
ENDBRANCH  23  24
ENDBRANCH  22  23
ENDBRANCH   1  22
TORSDOF 19
ENDMDL
