MODEL 1
REMARK VINA RESULT:      -9.4      0.000      0.000
REMARK SMILES COCc1cc(C)nc(N/N=C\c2ccc(-c3cccc(C(=O)NCCCCCCNC(=O)c4ccc(-c5c6nc(c(-c7cccc(S(=O)(=O)[O-])c7F)c7ccc([nH]7)c(-c7cccc(S(=O)(=O)[O-])c7F)c7nc(c(-c8cccc(S(=O)(=O)[O-])c8F)c8ccc5[nH]8)C=C7)C=C6)cc4)c3)o2)c1C#N
REMARK SMILES IDX 26 1 25 2 24 3 22 4 23 5 21 7 17 8 18 9 97 10 19 11 20 12
REMARK SMILES IDX 16 13 13 14 14 15 98 16 15 17 12 18 11 19 10 20 9 22 4 23
REMARK SMILES IDX 5 24 99 25 6 26 7 27 8 28 3 29 2 30 1 31 100 32 101 33 27 34
REMARK SMILES IDX 28 35 29 36 30 37 31 38 32 39 33 41 34 42 35 43 96 44 36 45
REMARK SMILES IDX 95 46 37 47 38 48 39 49 89 50 40 51 94 52 88 53 90 54 41 55
REMARK SMILES IDX 93 56 87 57 86 58 42 60 74 61 54 62 73 63 55 64 58 65 72 66
REMARK SMILES IDX 91 67 56 68 57 69 71 71 92 72 59 73 43 74 44 75 52 76 45 77
REMARK SMILES IDX 47 78 53 79 46 80 48 81 49 82 50 83 51 84 75 85 76 86 84 87
REMARK SMILES IDX 77 88 79 89 85 90 78 91 80 92 81 93 82 94 83 95 60 96 61 97
REMARK SMILES IDX 69 98 62 99 64 100 70 101 63 102 65 103 66 104 67 105 68 106
REMARK H PARENT 24 6 10 21 31 40 90 59 58 70
REMARK Flexibility Score: inf
ROOT
ATOM      1  C   UNL A   1      42.940  22.326  26.011  1.00  0.00     0.021 C 
ENDROOT
BRANCH   1   2
ATOM      2  C   UNL A   1      42.275  23.260  27.030  1.00  0.00     0.116 C 
BRANCH   2   3
ATOM      3  N   UNL A   1      40.827  23.210  26.927  1.00  0.00    -0.352 N 
ATOM      4  C   UNL A   1      39.869  24.194  26.856  1.00  0.00     0.251 C 
ATOM      5  O   UNL A   1      38.705  23.841  26.660  1.00  0.00    -0.269 OA
ATOM      6  H   UNL A   1      40.462  22.296  26.903  1.00  0.00     0.163 HD
BRANCH   4   7
ATOM      7  C   UNL A   1      40.174  25.652  26.964  1.00  0.00     0.040 A 
ATOM      8  C   UNL A   1      40.240  27.754  28.215  1.00  0.00     0.018 A 
ATOM      9  C   UNL A   1      40.936  28.353  27.161  1.00  0.00     0.012 A 
ATOM     10  C   UNL A   1      39.794  26.440  28.048  1.00  0.00     0.025 A 
ATOM     11  C   UNL A   1      41.257  27.612  26.018  1.00  0.00     0.002 A 
ATOM     12  C   UNL A   1      40.902  26.261  25.934  1.00  0.00     0.014 A 
BRANCH   8  13
ATOM     13  C   UNL A   1      40.176  28.331  29.560  1.00  0.00     0.134 A 
ATOM     14  C   UNL A   1      39.291  28.434  31.566  1.00  0.00     0.147 A 
ATOM     15  C   UNL A   1      39.873  29.664  31.347  1.00  0.00     0.053 A 
ATOM     16  O   UNL A   1      39.561  27.592  30.520  1.00  0.00    -0.455 OA
ATOM     17  C   UNL A   1      40.448  29.598  30.054  1.00  0.00     0.051 A 
BRANCH  14  18
ATOM     18  C   UNL A   1      38.445  27.907  32.586  1.00  0.00     0.180 C 
ATOM     19  N   UNL A   1      37.438  28.423  33.226  1.00  0.00    -0.178 NA
BRANCH  19  20
ATOM     20  N   UNL A   1      36.921  29.670  33.045  1.00  0.00    -0.260 N 
ATOM     21  H   UNL A   1      36.800  30.201  33.865  1.00  0.00     0.192 HD
BRANCH  20  22
ATOM     22  C   UNL A   1      36.530  30.313  31.833  1.00  0.00     0.164 A 
ATOM     23  C   UNL A   1      36.150  32.375  30.602  1.00  0.00     0.001 A 
ATOM     24  C   UNL A   1      36.363  31.672  29.424  1.00  0.00     0.031 A 
ATOM     25  C   UNL A   1      36.292  31.702  31.829  1.00  0.00     0.102 A 
ATOM     26  C   UNL A   1      36.335  30.301  29.500  1.00  0.00     0.040 A 
ATOM     27  C   UNL A   1      36.049  29.551  28.237  1.00  0.00     0.067 C 
ATOM     28  N   UNL A   1      36.419  29.625  30.672  1.00  0.00    -0.233 NA
BRANCH  23  29
ATOM     29  C   UNL A   1      35.515  33.735  30.454  1.00  0.00     0.196 C 
BRANCH  29  30
ATOM     30  O   UNL A   1      34.084  33.614  30.365  1.00  0.00    -0.380 OA
ATOM     31  C   UNL A   1      33.396  34.797  29.962  1.00  0.00     0.195 C 
ENDBRANCH  29  30
ENDBRANCH  23  29
BRANCH  25  32
ATOM     32  C   UNL A   1      36.101  32.406  33.061  1.00  0.00     0.103 C 
ATOM     33  N   UNL A   1      35.907  32.990  34.043  1.00  0.00    -0.192 NA
ENDBRANCH  25  32
ENDBRANCH  20  22
ENDBRANCH  19  20
ENDBRANCH  14  18
ENDBRANCH   8  13
ENDBRANCH   4   7
ENDBRANCH   2   3
ENDBRANCH   1   2
BRANCH   1  34
ATOM     34  C   UNL A   1      43.447  23.032  24.754  1.00  0.00     0.002 C 
BRANCH  34  35
ATOM     35  C   UNL A   1      44.469  24.139  25.021  1.00  0.00     0.002 C 
BRANCH  35  36
ATOM     36  C   UNL A   1      45.922  23.757  24.720  1.00  0.00     0.021 C 
BRANCH  36  37
ATOM     37  C   UNL A   1      46.954  24.558  25.510  1.00  0.00     0.116 C 
BRANCH  37  38
ATOM     38  N   UNL A   1      47.522  25.625  24.700  1.00  0.00    -0.352 N 
ATOM     39  C   UNL A   1      47.254  26.969  24.719  1.00  0.00     0.251 C 
ATOM     40  H   UNL A   1      48.198  25.340  24.043  1.00  0.00     0.163 HD
ATOM     41  O   UNL A   1      47.598  27.671  23.772  1.00  0.00    -0.269 OA
BRANCH  39  42
ATOM     42  C   UNL A   1      46.562  27.567  25.878  1.00  0.00     0.039 A 
ATOM     43  C   UNL A   1      45.166  27.606  25.885  1.00  0.00     0.014 A 
ATOM     44  C   UNL A   1      47.288  28.119  26.938  1.00  0.00     0.014 A 
ATOM     45  C   UNL A   1      44.499  28.167  26.974  1.00  0.00     0.010 A 
ATOM     46  C   UNL A   1      46.620  28.599  28.061  1.00  0.00     0.010 A 
ATOM     47  C   UNL A   1      45.220  28.644  28.083  1.00  0.00    -0.014 A 
BRANCH  47  48
ATOM     48  C   UNL A   1      44.511  29.179  29.271  1.00  0.00     0.031 A 
ATOM     49  C   UNL A   1      44.050  30.610  29.312  1.00  0.00     0.074 A 
ATOM     50  C   UNL A   1      44.334  28.382  30.343  1.00  0.00     0.049 A 
ATOM     51  N   UNL A   1      43.409  31.240  30.262  1.00  0.00    -0.248 NA
ATOM     52  C   UNL A   1      44.374  31.453  28.150  1.00  0.00     0.031 C 
ATOM     53  C   UNL A   1      44.817  27.005  30.458  1.00  0.00     0.029 A 
ATOM     54  N   UNL A   1      43.719  28.620  31.546  1.00  0.00    -0.354 N 
ATOM     55  C   UNL A   1      43.280  32.554  29.830  1.00  0.00     0.074 A 
ATOM     56  C   UNL A   1      43.944  32.641  28.547  1.00  0.00     0.031 C 
ATOM     57  C   UNL A   1      44.469  26.516  31.658  1.00  0.00     0.029 A 
ATOM     58  C   UNL A   1      43.774  27.553  32.412  1.00  0.00     0.049 A 
ATOM     59  H   UNL A   1      43.281  29.473  31.768  1.00  0.00     0.167 HD
ATOM     60  C   UNL A   1      42.648  33.589  30.433  1.00  0.00     0.034 A 
ATOM     61  C   UNL A   1      43.325  27.427  33.675  1.00  0.00     0.034 A 
ATOM     62  C   UNL A   1      41.971  33.489  31.698  1.00  0.00     0.049 A 
ATOM     63  C   UNL A   1      42.590  28.577  34.306  1.00  0.00     0.074 A 
ATOM     64  C   UNL A   1      41.218  34.451  32.349  1.00  0.00     0.029 A 
ATOM     65  N   UNL A   1      41.984  32.371  32.518  1.00  0.00    -0.354 N 
ATOM     66  N   UNL A   1      42.328  29.761  33.808  1.00  0.00    -0.248 NA
ATOM     67  C   UNL A   1      42.054  28.360  35.657  1.00  0.00     0.031 C 
ATOM     68  C   UNL A   1      40.817  33.930  33.585  1.00  0.00     0.029 A 
ATOM     69  C   UNL A   1      41.274  32.625  33.680  1.00  0.00     0.049 A 
ATOM     70  H   UNL A   1      42.432  31.520  32.306  1.00  0.00     0.167 HD
ATOM     71  C   UNL A   1      41.572  30.420  34.770  1.00  0.00     0.074 A 
ATOM     72  C   UNL A   1      41.395  29.490  35.868  1.00  0.00     0.031 C 
ATOM     73  C   UNL A   1      41.079  31.683  34.753  1.00  0.00     0.034 A 
BRANCH  60  74
ATOM     74  C   UNL A   1      42.640  34.916  29.719  1.00  0.00     0.023 A 
ATOM     75  C   UNL A   1      41.676  35.176  28.722  1.00  0.00     0.012 A 
ATOM     76  C   UNL A   1      43.557  35.927  30.068  1.00  0.00     0.148 A 
ATOM     77  C   UNL A   1      41.652  36.400  28.054  1.00  0.00     0.002 A 
ATOM     78  C   UNL A   1      43.494  37.163  29.435  1.00  0.00     0.091 A 
ATOM     79  F   UNL A   1      44.480  35.658  31.002  1.00  0.00    -0.205 F 
ATOM     80  C   UNL A   1      42.554  37.396  28.419  1.00  0.00     0.022 A 
BRANCH  78  81
ATOM     81  S   UNL A   1      44.555  38.539  29.890  1.00  0.00     0.127 S 
ATOM     82  O   UNL A   1      44.242  39.511  28.844  1.00  0.00    -0.237 OA
ATOM     83  O   UNL A   1      44.050  38.890  31.218  1.00  0.00    -0.237 OA
ATOM     84  O   UNL A   1      45.916  38.021  29.875  1.00  0.00    -0.744 OA
ENDBRANCH  78  81
ENDBRANCH  60  74
BRANCH  61  85
ATOM     85  C   UNL A   1      43.527  26.145  34.406  1.00  0.00     0.023 A 
ATOM     86  C   UNL A   1      42.495  25.188  34.444  1.00  0.00     0.012 A 
ATOM     87  C   UNL A   1      44.755  25.859  35.033  1.00  0.00     0.148 A 
ATOM     88  C   UNL A   1      42.672  23.982  35.124  1.00  0.00     0.002 A 
ATOM     89  C   UNL A   1      44.946  24.630  35.653  1.00  0.00     0.091 A 
ATOM     90  F   UNL A   1      45.723  26.787  34.989  1.00  0.00    -0.205 F 
ATOM     91  C   UNL A   1      43.899  23.698  35.718  1.00  0.00     0.022 A 
BRANCH  89  92
ATOM     92  S   UNL A   1      46.538  24.124  36.314  1.00  0.00     0.127 S 
ATOM     93  O   UNL A   1      46.175  22.949  37.100  1.00  0.00    -0.237 OA
ATOM     94  O   UNL A   1      47.294  23.841  35.093  1.00  0.00    -0.237 OA
ATOM     95  O   UNL A   1      47.034  25.264  37.074  1.00  0.00    -0.744 OA
ENDBRANCH  89  92
ENDBRANCH  61  85
BRANCH  73  96
ATOM     96  C   UNL A   1      40.267  32.128  35.944  1.00  0.00     0.023 A 
ATOM     97  C   UNL A   1      38.860  32.114  35.887  1.00  0.00     0.012 A 
ATOM     98  C   UNL A   1      40.906  32.518  37.138  1.00  0.00     0.148 A 
ATOM     99  C   UNL A   1      38.101  32.529  36.981  1.00  0.00     0.002 A 
ATOM    100  C   UNL A   1      40.144  32.875  38.243  1.00  0.00     0.091 A 
ATOM    101  F   UNL A   1      42.247  32.541  37.169  1.00  0.00    -0.205 F 
ATOM    102  C   UNL A   1      38.742  32.899  38.161  1.00  0.00     0.022 A 
BRANCH 100 103
ATOM    103  S   UNL A   1      40.880  33.269  39.833  1.00  0.00     0.127 S 
ATOM    104  O   UNL A   1      39.700  33.586  40.637  1.00  0.00    -0.237 OA
ATOM    105  O   UNL A   1      41.540  32.012  40.188  1.00  0.00    -0.237 OA
ATOM    106  O   UNL A   1      41.789  34.381  39.592  1.00  0.00    -0.744 OA
ENDBRANCH 100 103
ENDBRANCH  73  96
ENDBRANCH  47  48
ENDBRANCH  39  42
ENDBRANCH  37  38
ENDBRANCH  36  37
ENDBRANCH  35  36
ENDBRANCH  34  35
ENDBRANCH   1  34
TORSDOF 23
ENDMDL
MODEL 2
REMARK VINA RESULT:      -8.9      3.483     10.938
REMARK SMILES COCc1cc(C)nc(N/N=C\c2ccc(-c3cccc(C(=O)NCCCCCCNC(=O)c4ccc(-c5c6nc(c(-c7cccc(S(=O)(=O)[O-])c7F)c7ccc([nH]7)c(-c7cccc(S(=O)(=O)[O-])c7F)c7nc(c(-c8cccc(S(=O)(=O)[O-])c8F)c8ccc5[nH]8)C=C7)C=C6)cc4)c3)o2)c1C#N
REMARK SMILES IDX 26 1 25 2 24 3 22 4 23 5 21 7 17 8 18 9 97 10 19 11 20 12
REMARK SMILES IDX 16 13 13 14 14 15 98 16 15 17 12 18 11 19 10 20 9 22 4 23
REMARK SMILES IDX 5 24 99 25 6 26 7 27 8 28 3 29 2 30 1 31 100 32 101 33 27 34
REMARK SMILES IDX 28 35 29 36 30 37 31 38 32 39 33 41 34 42 35 43 96 44 36 45
REMARK SMILES IDX 95 46 37 47 38 48 39 49 89 50 40 51 94 52 88 53 90 54 41 55
REMARK SMILES IDX 93 56 87 57 86 58 42 60 74 61 54 62 73 63 55 64 58 65 72 66
REMARK SMILES IDX 91 67 56 68 57 69 71 71 92 72 59 73 43 74 44 75 52 76 45 77
REMARK SMILES IDX 47 78 53 79 46 80 48 81 49 82 50 83 51 84 75 85 76 86 84 87
REMARK SMILES IDX 77 88 79 89 85 90 78 91 80 92 81 93 82 94 83 95 60 96 61 97
REMARK SMILES IDX 69 98 62 99 64 100 70 101 63 102 65 103 66 104 67 105 68 106
REMARK H PARENT 24 6 10 21 31 40 90 59 58 70
REMARK Flexibility Score: inf
ROOT
ATOM      1  C   UNL A   1      36.690  32.551  31.317  1.00  0.00     0.021 C 
ENDROOT
BRANCH   1   2
ATOM      2  C   UNL A   1      35.985  31.843  32.482  1.00  0.00     0.116 C 
BRANCH   2   3
ATOM      3  N   UNL A   1      36.721  32.008  33.723  1.00  0.00    -0.352 N 
ATOM      4  C   UNL A   1      37.819  31.363  34.241  1.00  0.00     0.251 C 
ATOM      5  O   UNL A   1      38.296  31.804  35.290  1.00  0.00    -0.269 OA
ATOM      6  H   UNL A   1      36.365  32.718  34.305  1.00  0.00     0.163 HD
BRANCH   4   7
ATOM      7  C   UNL A   1      38.477  30.195  33.583  1.00  0.00     0.040 A 
ATOM      8  C   UNL A   1      40.464  28.925  32.931  1.00  0.00     0.018 A 
ATOM      9  C   UNL A   1      39.645  27.884  32.483  1.00  0.00     0.012 A 
ATOM     10  C   UNL A   1      39.853  30.097  33.384  1.00  0.00     0.025 A 
ATOM     11  C   UNL A   1      38.254  27.989  32.588  1.00  0.00     0.002 A 
ATOM     12  C   UNL A   1      37.675  29.128  33.161  1.00  0.00     0.014 A 
BRANCH   8  13
ATOM     13  C   UNL A   1      41.897  28.760  33.187  1.00  0.00     0.134 A 
ATOM     14  C   UNL A   1      43.682  27.496  33.373  1.00  0.00     0.147 A 
ATOM     15  C   UNL A   1      43.945  28.631  34.109  1.00  0.00     0.053 A 
ATOM     16  O   UNL A   1      42.477  27.619  32.732  1.00  0.00    -0.455 OA
ATOM     17  C   UNL A   1      42.796  29.449  33.987  1.00  0.00     0.051 A 
BRANCH  14  18
ATOM     18  C   UNL A   1      44.351  26.247  33.206  1.00  0.00     0.180 C 
ATOM     19  N   UNL A   1      44.521  25.243  34.013  1.00  0.00    -0.178 NA
BRANCH  19  20
ATOM     20  N   UNL A   1      44.056  25.146  35.289  1.00  0.00    -0.260 N 
ATOM     21  H   UNL A   1      43.128  25.445  35.425  1.00  0.00     0.192 HD
BRANCH  20  22
ATOM     22  C   UNL A   1      44.726  24.672  36.456  1.00  0.00     0.164 A 
ATOM     23  C   UNL A   1      45.187  24.910  38.832  1.00  0.00     0.001 A 
ATOM     24  C   UNL A   1      45.478  23.553  38.878  1.00  0.00     0.031 A 
ATOM     25  C   UNL A   1      44.748  25.469  37.617  1.00  0.00     0.102 A 
ATOM     26  C   UNL A   1      45.678  22.916  37.678  1.00  0.00     0.040 A 
ATOM     27  C   UNL A   1      46.470  21.646  37.701  1.00  0.00     0.067 C 
ATOM     28  N   UNL A   1      45.313  23.451  36.488  1.00  0.00    -0.233 NA
BRANCH  23  29
ATOM     29  C   UNL A   1      45.630  25.722  40.022  1.00  0.00     0.196 C 
BRANCH  29  30
ATOM     30  O   UNL A   1      44.577  25.794  41.000  1.00  0.00    -0.380 OA
ATOM     31  C   UNL A   1      44.393  27.074  41.605  1.00  0.00     0.195 C 
ENDBRANCH  29  30
ENDBRANCH  23  29
BRANCH  25  32
ATOM     32  C   UNL A   1      44.418  26.860  37.545  1.00  0.00     0.103 C 
ATOM     33  N   UNL A   1      44.116  27.979  37.514  1.00  0.00    -0.192 NA
ENDBRANCH  25  32
ENDBRANCH  20  22
ENDBRANCH  19  20
ENDBRANCH  14  18
ENDBRANCH   8  13
ENDBRANCH   4   7
ENDBRANCH   2   3
ENDBRANCH   1   2
BRANCH   1  34
ATOM     34  C   UNL A   1      36.132  33.938  31.000  1.00  0.00     0.002 C 
BRANCH  34  35
ATOM     35  C   UNL A   1      34.999  33.942  29.972  1.00  0.00     0.002 C 
BRANCH  35  36
ATOM     36  C   UNL A   1      34.468  32.555  29.596  1.00  0.00     0.021 C 
BRANCH  36  37
ATOM     37  C   UNL A   1      34.278  32.344  28.096  1.00  0.00     0.116 C 
BRANCH  37  38
ATOM     38  N   UNL A   1      33.799  31.000  27.811  1.00  0.00    -0.352 N 
ATOM     39  C   UNL A   1      34.513  29.851  27.593  1.00  0.00     0.251 C 
ATOM     40  H   UNL A   1      32.821  30.902  27.769  1.00  0.00     0.163 HD
ATOM     41  O   UNL A   1      33.964  28.883  27.073  1.00  0.00    -0.269 OA
BRANCH  39  42
ATOM     42  C   UNL A   1      35.933  29.778  27.989  1.00  0.00     0.039 A 
ATOM     43  C   UNL A   1      36.250  29.455  29.311  1.00  0.00     0.014 A 
ATOM     44  C   UNL A   1      36.948  30.061  27.070  1.00  0.00     0.014 A 
ATOM     45  C   UNL A   1      37.588  29.382  29.698  1.00  0.00     0.010 A 
ATOM     46  C   UNL A   1      38.281  29.903  27.437  1.00  0.00     0.010 A 
ATOM     47  C   UNL A   1      38.615  29.579  28.759  1.00  0.00    -0.014 A 
BRANCH  47  48
ATOM     48  C   UNL A   1      40.038  29.435  29.153  1.00  0.00     0.031 A 
ATOM     49  C   UNL A   1      40.774  28.145  28.915  1.00  0.00     0.074 A 
ATOM     50  C   UNL A   1      40.652  30.456  29.783  1.00  0.00     0.049 A 
ATOM     51  N   UNL A   1      42.019  27.848  29.185  1.00  0.00    -0.248 NA
ATOM     52  C   UNL A   1      40.011  27.036  28.321  1.00  0.00     0.031 C 
ATOM     53  C   UNL A   1      40.015  31.722  30.152  1.00  0.00     0.029 A 
ATOM     54  N   UNL A   1      41.937  30.583  30.242  1.00  0.00    -0.354 N 
ATOM     55  C   UNL A   1      42.180  26.515  28.827  1.00  0.00     0.074 A 
ATOM     56  C   UNL A   1      40.894  26.049  28.355  1.00  0.00     0.031 C 
ATOM     57  C   UNL A   1      40.916  32.503  30.768  1.00  0.00     0.029 A 
ATOM     58  C   UNL A   1      42.180  31.781  30.873  1.00  0.00     0.049 A 
ATOM     59  H   UNL A   1      42.621  29.884  30.132  1.00  0.00     0.167 HD
ATOM     60  C   UNL A   1      43.299  25.754  28.866  1.00  0.00     0.034 A 
ATOM     61  C   UNL A   1      43.290  32.243  31.478  1.00  0.00     0.034 A 
ATOM     62  C   UNL A   1      44.579  26.230  29.317  1.00  0.00     0.049 A 
ATOM     63  C   UNL A   1      44.531  31.395  31.470  1.00  0.00     0.074 A 
ATOM     64  C   UNL A   1      45.796  25.570  29.305  1.00  0.00     0.029 A 
ATOM     65  N   UNL A   1      44.807  27.475  29.883  1.00  0.00    -0.354 N 
ATOM     66  N   UNL A   1      44.708  30.197  30.968  1.00  0.00    -0.248 NA
ATOM     67  C   UNL A   1      45.736  31.978  32.075  1.00  0.00     0.031 C 
ATOM     68  C   UNL A   1      46.749  26.398  29.909  1.00  0.00     0.029 A 
ATOM     69  C   UNL A   1      46.138  27.595  30.248  1.00  0.00     0.049 A 
ATOM     70  H   UNL A   1      44.123  28.172  30.008  1.00  0.00     0.167 HD
ATOM     71  C   UNL A   1      46.049  29.894  31.170  1.00  0.00     0.074 A 
ATOM     72  C   UNL A   1      46.644  31.049  31.813  1.00  0.00     0.031 C 
ATOM     73  C   UNL A   1      46.725  28.760  30.861  1.00  0.00     0.034 A 
BRANCH  60  74
ATOM     74  C   UNL A   1      43.193  24.328  28.387  1.00  0.00     0.023 A 
ATOM     75  C   UNL A   1      42.552  23.359  29.187  1.00  0.00     0.012 A 
ATOM     76  C   UNL A   1      43.687  23.957  27.120  1.00  0.00     0.148 A 
ATOM     77  C   UNL A   1      42.444  22.037  28.756  1.00  0.00     0.002 A 
ATOM     78  C   UNL A   1      43.529  22.650  26.676  1.00  0.00     0.091 A 
ATOM     79  F   UNL A   1      44.312  24.884  26.381  1.00  0.00    -0.205 F 
ATOM     80  C   UNL A   1      42.922  21.686  27.497  1.00  0.00     0.022 A 
BRANCH  78  81
ATOM     81  S   UNL A   1      44.034  22.116  25.037  1.00  0.00     0.127 S 
ATOM     82  O   UNL A   1      45.475  22.360  25.078  1.00  0.00    -0.237 OA
ATOM     83  O   UNL A   1      43.654  20.703  25.044  1.00  0.00    -0.237 OA
ATOM     84  O   UNL A   1      43.289  22.941  24.097  1.00  0.00    -0.744 OA
ENDBRANCH  78  81
ENDBRANCH  60  74
BRANCH  61  85
ATOM     85  C   UNL A   1      43.282  33.595  32.104  1.00  0.00     0.023 A 
ATOM     86  C   UNL A   1      43.705  34.715  31.363  1.00  0.00     0.012 A 
ATOM     87  C   UNL A   1      42.820  33.776  33.422  1.00  0.00     0.148 A 
ATOM     88  C   UNL A   1      43.701  35.988  31.937  1.00  0.00     0.002 A 
ATOM     89  C   UNL A   1      42.759  35.053  33.965  1.00  0.00     0.091 A 
ATOM     90  F   UNL A   1      42.427  32.694  34.111  1.00  0.00    -0.205 F 
ATOM     91  C   UNL A   1      43.218  36.158  33.231  1.00  0.00     0.022 A 
BRANCH  89  92
ATOM     92  S   UNL A   1      42.016  35.382  35.567  1.00  0.00     0.127 S 
ATOM     93  O   UNL A   1      41.810  36.826  35.510  1.00  0.00    -0.237 OA
ATOM     94  O   UNL A   1      40.794  34.580  35.502  1.00  0.00    -0.237 OA
ATOM     95  O   UNL A   1      42.982  34.921  36.555  1.00  0.00    -0.744 OA
ENDBRANCH  89  92
ENDBRANCH  61  85
BRANCH  73  96
ATOM     96  C   UNL A   1      48.199  28.720  31.184  1.00  0.00     0.023 A 
ATOM     97  C   UNL A   1      49.142  29.167  30.238  1.00  0.00     0.012 A 
ATOM     98  C   UNL A   1      48.642  28.279  32.446  1.00  0.00     0.148 A 
ATOM     99  C   UNL A   1      50.507  29.128  30.525  1.00  0.00     0.002 A 
ATOM    100  C   UNL A   1      49.998  28.298  32.747  1.00  0.00     0.091 A 
ATOM    101  F   UNL A   1      47.730  27.842  33.328  1.00  0.00    -0.205 F 
ATOM    102  C   UNL A   1      50.933  28.704  31.782  1.00  0.00     0.022 A 
BRANCH 100 103
ATOM    103  S   UNL A   1      50.630  27.866  34.372  1.00  0.00     0.127 S 
ATOM    104  O   UNL A   1      52.042  28.222  34.246  1.00  0.00    -0.237 OA
ATOM    105  O   UNL A   1      49.855  28.745  35.248  1.00  0.00    -0.237 OA
ATOM    106  O   UNL A   1      50.356  26.445  34.545  1.00  0.00    -0.744 OA
ENDBRANCH 100 103
ENDBRANCH  73  96
ENDBRANCH  47  48
ENDBRANCH  39  42
ENDBRANCH  37  38
ENDBRANCH  36  37
ENDBRANCH  35  36
ENDBRANCH  34  35
ENDBRANCH   1  34
TORSDOF 23
ENDMDL
MODEL 3
REMARK VINA RESULT:      -8.8      1.456      7.240
REMARK SMILES COCc1cc(C)nc(N/N=C\c2ccc(-c3cccc(C(=O)NCCCCCCNC(=O)c4ccc(-c5c6nc(c(-c7cccc(S(=O)(=O)[O-])c7F)c7ccc([nH]7)c(-c7cccc(S(=O)(=O)[O-])c7F)c7nc(c(-c8cccc(S(=O)(=O)[O-])c8F)c8ccc5[nH]8)C=C7)C=C6)cc4)c3)o2)c1C#N
REMARK SMILES IDX 26 1 25 2 24 3 22 4 23 5 21 7 17 8 18 9 97 10 19 11 20 12
REMARK SMILES IDX 16 13 13 14 14 15 98 16 15 17 12 18 11 19 10 20 9 22 4 23
REMARK SMILES IDX 5 24 99 25 6 26 7 27 8 28 3 29 2 30 1 31 100 32 101 33 27 34
REMARK SMILES IDX 28 35 29 36 30 37 31 38 32 39 33 41 34 42 35 43 96 44 36 45
REMARK SMILES IDX 95 46 37 47 38 48 39 49 89 50 40 51 94 52 88 53 90 54 41 55
REMARK SMILES IDX 93 56 87 57 86 58 42 60 74 61 54 62 73 63 55 64 58 65 72 66
REMARK SMILES IDX 91 67 56 68 57 69 71 71 92 72 59 73 43 74 44 75 52 76 45 77
REMARK SMILES IDX 47 78 53 79 46 80 48 81 49 82 50 83 51 84 75 85 76 86 84 87
REMARK SMILES IDX 77 88 79 89 85 90 78 91 80 92 81 93 82 94 83 95 60 96 61 97
REMARK SMILES IDX 69 98 62 99 64 100 70 101 63 102 65 103 66 104 67 105 68 106
REMARK H PARENT 24 6 10 21 31 40 90 59 58 70
REMARK Flexibility Score: inf
ROOT
ATOM      1  C   UNL A   1      42.996  21.841  25.579  1.00  0.00     0.021 C 
ENDROOT
BRANCH   1   2
ATOM      2  C   UNL A   1      42.331  22.325  26.874  1.00  0.00     0.116 C 
BRANCH   2   3
ATOM      3  N   UNL A   1      40.883  22.249  26.785  1.00  0.00    -0.352 N 
ATOM      4  C   UNL A   1      39.906  23.215  26.735  1.00  0.00     0.251 C 
ATOM      5  O   UNL A   1      38.746  22.843  26.547  1.00  0.00    -0.269 OA
ATOM      6  H   UNL A   1      40.534  21.329  26.753  1.00  0.00     0.163 HD
BRANCH   4   7
ATOM      7  C   UNL A   1      40.184  24.677  26.859  1.00  0.00     0.040 A 
ATOM      8  C   UNL A   1      40.238  26.762  28.139  1.00  0.00     0.018 A 
ATOM      9  C   UNL A   1      40.897  27.390  27.078  1.00  0.00     0.012 A 
ATOM     10  C   UNL A   1      39.814  25.442  27.963  1.00  0.00     0.025 A 
ATOM     11  C   UNL A   1      41.205  26.672  25.917  1.00  0.00     0.002 A 
ATOM     12  C   UNL A   1      40.875  25.316  25.821  1.00  0.00     0.014 A 
BRANCH   8  13
ATOM     13  C   UNL A   1      40.195  27.317  29.494  1.00  0.00     0.134 A 
ATOM     14  C   UNL A   1      39.116  27.769  31.351  1.00  0.00     0.147 A 
ATOM     15  C   UNL A   1      40.165  28.663  31.297  1.00  0.00     0.053 A 
ATOM     16  O   UNL A   1      39.194  26.888  30.305  1.00  0.00    -0.455 OA
ATOM     17  C   UNL A   1      40.863  28.370  30.100  1.00  0.00     0.051 A 
BRANCH  14  18
ATOM     18  C   UNL A   1      37.981  27.626  32.202  1.00  0.00     0.180 C 
ATOM     19  N   UNL A   1      37.513  28.379  33.153  1.00  0.00    -0.178 NA
BRANCH  19  20
ATOM     20  N   UNL A   1      38.035  29.565  33.574  1.00  0.00    -0.260 N 
ATOM     21  H   UNL A   1      38.694  29.502  34.302  1.00  0.00     0.192 HD
BRANCH  20  22
ATOM     22  C   UNL A   1      37.760  30.884  33.105  1.00  0.00     0.164 A 
ATOM     23  C   UNL A   1      37.770  33.281  33.515  1.00  0.00     0.001 A 
ATOM     24  C   UNL A   1      37.828  33.482  32.142  1.00  0.00     0.031 A 
ATOM     25  C   UNL A   1      37.795  31.964  34.009  1.00  0.00     0.102 A 
ATOM     26  C   UNL A   1      37.535  32.406  31.341  1.00  0.00     0.040 A 
ATOM     27  C   UNL A   1      37.092  32.696  29.941  1.00  0.00     0.067 C 
ATOM     28  N   UNL A   1      37.502  31.131  31.799  1.00  0.00    -0.233 NA
BRANCH  23  29
ATOM     29  C   UNL A   1      37.409  34.487  34.345  1.00  0.00     0.196 C 
BRANCH  29  30
ATOM     30  O   UNL A   1      36.145  35.028  33.920  1.00  0.00    -0.380 OA
ATOM     31  C   UNL A   1      35.032  34.143  34.034  1.00  0.00     0.195 C 
ENDBRANCH  29  30
ENDBRANCH  23  29
BRANCH  25  32
ATOM     32  C   UNL A   1      37.761  31.726  35.421  1.00  0.00     0.103 C 
ATOM     33  N   UNL A   1      37.697  31.559  36.566  1.00  0.00    -0.192 NA
ENDBRANCH  25  32
ENDBRANCH  20  22
ENDBRANCH  19  20
ENDBRANCH  14  18
ENDBRANCH   8  13
ENDBRANCH   4   7
ENDBRANCH   2   3
ENDBRANCH   1   2
BRANCH   1  34
ATOM     34  C   UNL A   1      43.645  22.953  24.756  1.00  0.00     0.002 C 
BRANCH  34  35
ATOM     35  C   UNL A   1      44.596  23.851  25.548  1.00  0.00     0.002 C 
BRANCH  35  36
ATOM     36  C   UNL A   1      46.062  23.406  25.532  1.00  0.00     0.021 C 
BRANCH  36  37
ATOM     37  C   UNL A   1      47.042  24.464  26.033  1.00  0.00     0.116 C 
BRANCH  37  38
ATOM     38  N   UNL A   1      47.307  25.462  25.008  1.00  0.00    -0.352 N 
ATOM     39  C   UNL A   1      46.850  26.751  24.910  1.00  0.00     0.251 C 
ATOM     40  H   UNL A   1      47.900  25.170  24.279  1.00  0.00     0.163 HD
ATOM     41  O   UNL A   1      46.927  27.344  23.837  1.00  0.00    -0.269 OA
BRANCH  39  42
ATOM     42  C   UNL A   1      46.276  27.422  26.093  1.00  0.00     0.039 A 
ATOM     43  C   UNL A   1      47.138  28.013  27.019  1.00  0.00     0.014 A 
ATOM     44  C   UNL A   1      44.894  27.438  26.307  1.00  0.00     0.014 A 
ATOM     45  C   UNL A   1      46.609  28.651  28.141  1.00  0.00     0.010 A 
ATOM     46  C   UNL A   1      44.365  28.149  27.380  1.00  0.00     0.010 A 
ATOM     47  C   UNL A   1      45.218  28.747  28.318  1.00  0.00    -0.014 A 
BRANCH  47  48
ATOM     48  C   UNL A   1      44.652  29.485  29.474  1.00  0.00     0.031 A 
ATOM     49  C   UNL A   1      44.334  28.771  30.760  1.00  0.00     0.074 A 
ATOM     50  C   UNL A   1      44.371  30.796  29.343  1.00  0.00     0.049 A 
ATOM     51  N   UNL A   1      43.846  29.258  31.871  1.00  0.00    -0.248 NA
ATOM     52  C   UNL A   1      44.565  27.318  30.796  1.00  0.00     0.031 C 
ATOM     53  C   UNL A   1      44.549  31.577  28.117  1.00  0.00     0.029 A 
ATOM     54  N   UNL A   1      43.857  31.697  30.240  1.00  0.00    -0.354 N 
ATOM     55  C   UNL A   1      43.683  28.174  32.724  1.00  0.00     0.074 A 
ATOM     56  C   UNL A   1      44.088  26.995  31.989  1.00  0.00     0.031 C 
ATOM     57  C   UNL A   1      44.164  32.842  28.343  1.00  0.00     0.029 A 
ATOM     58  C   UNL A   1      43.677  32.954  29.713  1.00  0.00     0.049 A 
ATOM     59  H   UNL A   1      43.637  31.465  31.171  1.00  0.00     0.167 HD
ATOM     60  C   UNL A   1      43.257  28.161  34.009  1.00  0.00     0.034 A 
ATOM     61  C   UNL A   1      43.166  34.070  30.267  1.00  0.00     0.034 A 
ATOM     62  C   UNL A   1      42.877  29.339  34.742  1.00  0.00     0.049 A 
ATOM     63  C   UNL A   1      42.739  34.040  31.708  1.00  0.00     0.074 A 
ATOM     64  C   UNL A   1      42.524  29.447  36.076  1.00  0.00     0.029 A 
ATOM     65  N   UNL A   1      42.775  30.611  34.199  1.00  0.00    -0.354 N 
ATOM     66  N   UNL A   1      42.756  33.036  32.552  1.00  0.00    -0.248 NA
ATOM     67  C   UNL A   1      42.262  35.304  32.285  1.00  0.00     0.031 C 
ATOM     68  C   UNL A   1      42.162  30.776  36.327  1.00  0.00     0.029 A 
ATOM     69  C   UNL A   1      42.341  31.506  35.163  1.00  0.00     0.049 A 
ATOM     70  H   UNL A   1      42.981  30.845  33.265  1.00  0.00     0.167 HD
ATOM     71  C   UNL A   1      42.320  33.553  33.766  1.00  0.00     0.074 A 
ATOM     72  C   UNL A   1      42.076  34.966  33.553  1.00  0.00     0.031 C 
ATOM     73  C   UNL A   1      42.129  32.915  34.948  1.00  0.00     0.034 A 
BRANCH  60  74
ATOM     74  C   UNL A   1      43.201  26.830  34.716  1.00  0.00     0.023 A 
ATOM     75  C   UNL A   1      41.973  26.148  34.842  1.00  0.00     0.012 A 
ATOM     76  C   UNL A   1      44.375  26.230  35.213  1.00  0.00     0.148 A 
ATOM     77  C   UNL A   1      41.904  24.915  35.489  1.00  0.00     0.002 A 
ATOM     78  C   UNL A   1      44.307  24.977  35.810  1.00  0.00     0.091 A 
ATOM     79  F   UNL A   1      45.531  26.899  35.105  1.00  0.00    -0.205 F 
ATOM     80  C   UNL A   1      43.072  24.325  35.963  1.00  0.00     0.022 A 
BRANCH  78  81
ATOM     81  S   UNL A   1      45.765  24.095  36.378  1.00  0.00     0.127 S 
ATOM     82  O   UNL A   1      46.607  24.116  35.183  1.00  0.00    -0.237 OA
ATOM     83  O   UNL A   1      46.234  24.948  37.470  1.00  0.00    -0.237 OA
ATOM     84  O   UNL A   1      45.303  22.777  36.792  1.00  0.00    -0.744 OA
ENDBRANCH  78  81
ENDBRANCH  60  74
BRANCH  61  85
ATOM     85  C   UNL A   1      43.071  35.318  29.459  1.00  0.00     0.023 A 
ATOM     86  C   UNL A   1      41.904  35.589  28.718  1.00  0.00     0.012 A 
ATOM     87  C   UNL A   1      44.122  36.255  29.454  1.00  0.00     0.148 A 
ATOM     88  C   UNL A   1      41.801  36.755  27.958  1.00  0.00     0.002 A 
ATOM     89  C   UNL A   1      43.987  37.443  28.747  1.00  0.00     0.091 A 
ATOM     90  F   UNL A   1      45.226  35.975  30.162  1.00  0.00    -0.205 F 
ATOM     91  C   UNL A   1      42.836  37.686  27.981  1.00  0.00     0.022 A 
BRANCH  89  92
ATOM     92  S   UNL A   1      45.205  38.760  28.838  1.00  0.00     0.127 S 
ATOM     93  O   UNL A   1      46.315  38.195  28.077  1.00  0.00    -0.237 OA
ATOM     94  O   UNL A   1      44.504  39.864  28.180  1.00  0.00    -0.237 OA
ATOM     95  O   UNL A   1      45.456  38.973  30.257  1.00  0.00    -0.744 OA
ENDBRANCH  89  92
ENDBRANCH  61  85
BRANCH  73  96
ATOM     96  C   UNL A   1      41.662  33.746  36.117  1.00  0.00     0.023 A 
ATOM     97  C   UNL A   1      40.286  33.969  36.323  1.00  0.00     0.012 A 
ATOM     98  C   UNL A   1      42.591  34.269  37.037  1.00  0.00     0.148 A 
ATOM     99  C   UNL A   1      39.845  34.742  37.398  1.00  0.00     0.002 A 
ATOM    100  C   UNL A   1      42.142  34.988  38.138  1.00  0.00     0.091 A 
ATOM    101  F   UNL A   1      43.898  34.061  36.817  1.00  0.00    -0.205 F 
ATOM    102  C   UNL A   1      40.772  35.241  38.310  1.00  0.00     0.022 A 
BRANCH 100 103
ATOM    103  S   UNL A   1      43.254  35.584  39.417  1.00  0.00     0.127 S 
ATOM    104  O   UNL A   1      44.019  34.378  39.731  1.00  0.00    -0.237 OA
ATOM    105  O   UNL A   1      44.009  36.619  38.712  1.00  0.00    -0.237 OA
ATOM    106  O   UNL A   1      42.403  36.082  40.490  1.00  0.00    -0.744 OA
ENDBRANCH 100 103
ENDBRANCH  73  96
ENDBRANCH  47  48
ENDBRANCH  39  42
ENDBRANCH  37  38
ENDBRANCH  36  37
ENDBRANCH  35  36
ENDBRANCH  34  35
ENDBRANCH   1  34
TORSDOF 23
ENDMDL
