MODEL 1
REMARK VINA RESULT:      -8.3      0.000      0.000
REMARK SMILES C[C@@H]1C[N@@H+](Cc2cccc(C(=O)NCCCCCCNC(=O)c3ccc(-c4c5nc(c(-c6cccc(S(=O)(=O)[O-])c6F)c6ccc([nH]6)c(-c6cccc(S(=O)(=O)[O-])c6F)c6nc(c(-c7cccc(S(=O)(=O)[O-])c7F)c7ccc4[nH]7)C=C6)C=C5)cc3)c2)CCN1C(=O)OC(C)(C)C
REMARK SMILES IDX 15 1 14 2 13 3 11 4 12 5 10 7 6 8 7 9 86 10 8 11 9 12 5 13
REMARK SMILES IDX 4 14 1 15 2 16 3 17 89 18 88 19 87 20 90 22 91 23 92 24
REMARK SMILES IDX 93 25 94 26 95 27 96 28 16 29 17 30 18 31 19 32 20 33 21 34
REMARK SMILES IDX 22 36 23 37 24 38 85 39 25 40 84 41 26 42 27 43 28 44 78 45
REMARK SMILES IDX 29 46 83 47 77 48 79 49 30 50 82 51 76 52 75 53 31 55 63 56
REMARK SMILES IDX 43 57 62 58 44 59 47 60 61 61 80 62 45 63 46 64 60 66 81 67
REMARK SMILES IDX 48 68 32 69 33 70 41 71 34 72 36 73 42 74 35 75 37 76 38 77
REMARK SMILES IDX 39 78 40 79 64 80 65 81 73 82 66 83 68 84 74 85 67 86 69 87
REMARK SMILES IDX 70 88 71 89 72 90 49 91 50 92 58 93 51 94 53 95 59 96 52 97
REMARK SMILES IDX 54 98 55 99 56 100 57 101
REMARK H PARENT 13 6 4 21 20 35 79 54 47 65
REMARK Flexibility Score: inf
ROOT
ATOM      1  C   UNL A   1      43.307  24.745  28.117  1.00  0.00     0.021 C 
ENDROOT
BRANCH   1   2
ATOM      2  C   UNL A   1      42.438  23.764  28.901  1.00  0.00     0.116 C 
BRANCH   2   3
ATOM      3  N   UNL A   1      41.328  23.295  28.100  1.00  0.00    -0.352 N 
ATOM      4  C   UNL A   1      40.362  23.942  27.372  1.00  0.00     0.251 C 
ATOM      5  O   UNL A   1      39.570  23.234  26.745  1.00  0.00    -0.269 OA
ATOM      6  H   UNL A   1      41.250  22.313  28.073  1.00  0.00     0.163 HD
BRANCH   4   7
ATOM      7  C   UNL A   1      40.269  25.428  27.230  1.00  0.00     0.040 A 
ATOM      8  C   UNL A   1      39.814  27.685  28.059  1.00  0.00     0.007 A 
ATOM      9  C   UNL A   1      40.461  28.222  26.940  1.00  0.00     0.009 A 
ATOM     10  C   UNL A   1      39.624  26.289  28.123  1.00  0.00     0.023 A 
ATOM     11  C   UNL A   1      40.977  27.380  25.955  1.00  0.00     0.001 A 
ATOM     12  C   UNL A   1      40.916  25.995  26.121  1.00  0.00     0.014 A 
BRANCH   8  13
ATOM     13  C   UNL A   1      39.393  28.588  29.211  1.00  0.00     0.299 C 
BRANCH  13  14
ATOM     14  N   UNL A   1      37.996  29.078  29.199  1.00  0.00    -0.328 N 
ATOM     15  C   UNL A   1      35.368  29.923  27.623  1.00  0.00     0.037 C 
ATOM     16  C   UNL A   1      36.305  30.832  28.425  1.00  0.00     0.140 C 
ATOM     17  C   UNL A   1      37.783  30.307  28.394  1.00  0.00     0.287 C 
ATOM     18  N   UNL A   1      35.850  30.940  29.823  1.00  0.00    -0.294 N 
ATOM     19  C   UNL A   1      35.981  29.707  30.592  1.00  0.00     0.185 C 
ATOM     20  C   UNL A   1      37.445  29.262  30.554  1.00  0.00     0.284 C 
ATOM     21  H   UNL A   1      37.482  28.330  28.734  1.00  0.00     0.348 HD
BRANCH  18  22
ATOM     22  C   UNL A   1      35.547  32.119  30.482  1.00  0.00     0.410 C 
ATOM     23  O   UNL A   1      34.408  32.428  30.806  1.00  0.00    -0.224 OA
BRANCH  22  24
ATOM     24  O   UNL A   1      36.643  32.884  30.740  1.00  0.00    -0.444 OA
BRANCH  24  25
ATOM     25  C   UNL A   1      37.164  32.982  32.095  1.00  0.00     0.106 C 
ATOM     26  C   UNL A   1      37.419  34.444  32.490  1.00  0.00     0.056 C 
ATOM     27  C   UNL A   1      36.263  32.268  33.112  1.00  0.00     0.056 C 
ATOM     28  C   UNL A   1      38.516  32.251  32.060  1.00  0.00     0.056 C 
ENDBRANCH  24  25
ENDBRANCH  22  24
ENDBRANCH  18  22
ENDBRANCH  13  14
ENDBRANCH   8  13
ENDBRANCH   4   7
ENDBRANCH   2   3
ENDBRANCH   1   2
BRANCH   1  29
ATOM     29  C   UNL A   1      44.802  24.520  28.360  1.00  0.00     0.002 C 
BRANCH  29  30
ATOM     30  C   UNL A   1      45.367  23.261  27.688  1.00  0.00     0.002 C 
BRANCH  30  31
ATOM     31  C   UNL A   1      46.306  23.522  26.507  1.00  0.00     0.021 C 
BRANCH  31  32
ATOM     32  C   UNL A   1      45.638  24.190  25.309  1.00  0.00     0.116 C 
BRANCH  32  33
ATOM     33  N   UNL A   1      46.536  25.127  24.651  1.00  0.00    -0.352 N 
ATOM     34  C   UNL A   1      46.648  26.484  24.798  1.00  0.00     0.251 C 
ATOM     35  H   UNL A   1      47.158  24.724  24.002  1.00  0.00     0.163 HD
ATOM     36  O   UNL A   1      47.283  27.132  23.970  1.00  0.00    -0.269 OA
BRANCH  34  37
ATOM     37  C   UNL A   1      46.014  27.166  25.946  1.00  0.00     0.039 A 
ATOM     38  C   UNL A   1      46.800  27.477  27.057  1.00  0.00     0.014 A 
ATOM     39  C   UNL A   1      44.645  27.453  25.950  1.00  0.00     0.014 A 
ATOM     40  C   UNL A   1      46.218  28.104  28.160  1.00  0.00     0.010 A 
ATOM     41  C   UNL A   1      44.085  28.151  27.017  1.00  0.00     0.010 A 
ATOM     42  C   UNL A   1      44.859  28.466  28.141  1.00  0.00    -0.014 A 
BRANCH  42  43
ATOM     43  C   UNL A   1      44.251  29.175  29.294  1.00  0.00     0.031 A 
ATOM     44  C   UNL A   1      43.932  30.644  29.212  1.00  0.00     0.074 A 
ATOM     45  C   UNL A   1      44.026  28.499  30.439  1.00  0.00     0.049 A 
ATOM     46  N   UNL A   1      43.379  31.417  30.111  1.00  0.00    -0.248 NA
ATOM     47  C   UNL A   1      44.303  31.344  27.971  1.00  0.00     0.031 C 
ATOM     48  C   UNL A   1      44.371  27.094  30.670  1.00  0.00     0.029 A 
ATOM     49  N   UNL A   1      43.468  28.903  31.624  1.00  0.00    -0.354 N 
ATOM     50  C   UNL A   1      43.362  32.693  29.560  1.00  0.00     0.074 A 
ATOM     51  C   UNL A   1      43.995  32.600  28.263  1.00  0.00     0.031 C 
ATOM     52  C   UNL A   1      44.000  26.749  31.913  1.00  0.00     0.029 A 
ATOM     53  C   UNL A   1      43.421  27.913  32.577  1.00  0.00     0.049 A 
ATOM     54  H   UNL A   1      43.133  29.816  31.779  1.00  0.00     0.167 HD
ATOM     55  C   UNL A   1      42.840  33.833  30.073  1.00  0.00     0.034 A 
ATOM     56  C   UNL A   1      42.966  27.938  33.844  1.00  0.00     0.034 A 
ATOM     57  C   UNL A   1      42.185  33.914  31.350  1.00  0.00     0.049 A 
ATOM     58  C   UNL A   1      42.356  29.207  34.373  1.00  0.00     0.074 A 
ATOM     59  C   UNL A   1      41.548  35.000  31.924  1.00  0.00     0.029 A 
ATOM     60  N   UNL A   1      42.094  32.872  32.261  1.00  0.00    -0.354 N 
ATOM     61  N   UNL A   1      42.202  30.362  33.773  1.00  0.00    -0.248 NA
ATOM     62  C   UNL A   1      41.818  29.162  35.740  1.00  0.00     0.031 C 
ATOM     63  C   UNL A   1      41.106  34.627  33.198  1.00  0.00     0.029 A 
ATOM     64  C   UNL A   1      41.426  33.294  33.399  1.00  0.00     0.049 A 
ATOM     65  H   UNL A   1      42.451  31.966  32.120  1.00  0.00     0.167 HD
ATOM     66  C   UNL A   1      41.520  31.171  34.674  1.00  0.00     0.074 A 
ATOM     67  C   UNL A   1      41.268  30.363  35.851  1.00  0.00     0.031 C 
ATOM     68  C   UNL A   1      41.146  32.468  34.547  1.00  0.00     0.034 A 
BRANCH  55  69
ATOM     69  C   UNL A   1      42.922  35.083  29.233  1.00  0.00     0.023 A 
ATOM     70  C   UNL A   1      41.856  35.422  28.375  1.00  0.00     0.012 A 
ATOM     71  C   UNL A   1      44.025  35.954  29.337  1.00  0.00     0.148 A 
ATOM     72  C   UNL A   1      41.901  36.585  27.608  1.00  0.00     0.002 A 
ATOM     73  C   UNL A   1      44.041  37.136  28.607  1.00  0.00     0.091 A 
ATOM     74  F   UNL A   1      45.039  35.607  30.143  1.00  0.00    -0.205 F 
ATOM     75  C   UNL A   1      42.987  37.447  27.732  1.00  0.00     0.022 A 
BRANCH  73  76
ATOM     76  S   UNL A   1      45.354  38.353  28.759  1.00  0.00     0.127 S 
ATOM     77  O   UNL A   1      46.498  37.622  28.215  1.00  0.00    -0.237 OA
ATOM     78  O   UNL A   1      44.864  39.439  27.909  1.00  0.00    -0.237 OA
ATOM     79  O   UNL A   1      45.439  38.679  30.175  1.00  0.00    -0.744 OA
ENDBRANCH  73  76
ENDBRANCH  55  69
BRANCH  56  80
ATOM     80  C   UNL A   1      43.019  26.705  34.680  1.00  0.00     0.023 A 
ATOM     81  C   UNL A   1      41.881  25.882  34.781  1.00  0.00     0.012 A 
ATOM     82  C   UNL A   1      44.197  26.334  35.355  1.00  0.00     0.148 A 
ATOM     83  C   UNL A   1      41.903  24.733  35.572  1.00  0.00     0.002 A 
ATOM     84  C   UNL A   1      44.231  25.158  36.093  1.00  0.00     0.091 A 
ATOM     85  F   UNL A   1      45.267  27.136  35.251  1.00  0.00    -0.205 F 
ATOM     86  C   UNL A   1      43.080  24.366  36.218  1.00  0.00     0.022 A 
BRANCH  84  87
ATOM     87  S   UNL A   1      45.738  24.540  36.849  1.00  0.00     0.127 S 
ATOM     88  O   UNL A   1      46.048  25.600  37.806  1.00  0.00    -0.237 OA
ATOM     89  O   UNL A   1      45.283  23.285  37.446  1.00  0.00    -0.237 OA
ATOM     90  O   UNL A   1      46.690  24.377  35.758  1.00  0.00    -0.744 OA
ENDBRANCH  84  87
ENDBRANCH  56  80
BRANCH  68  91
ATOM     91  C   UNL A   1      40.387  33.089  35.691  1.00  0.00     0.023 A 
ATOM     92  C   UNL A   1      38.981  32.998  35.741  1.00  0.00     0.012 A 
ATOM     93  C   UNL A   1      41.075  33.726  36.744  1.00  0.00     0.148 A 
ATOM     94  C   UNL A   1      38.270  33.570  36.795  1.00  0.00     0.002 A 
ATOM     95  C   UNL A   1      40.363  34.244  37.818  1.00  0.00     0.091 A 
ATOM     96  F   UNL A   1      42.411  33.820  36.671  1.00  0.00    -0.205 F 
ATOM     97  C   UNL A   1      38.962  34.183  37.838  1.00  0.00     0.022 A 
BRANCH  95  98
ATOM     98  S   UNL A   1      41.174  34.961  39.252  1.00  0.00     0.127 S 
ATOM     99  O   UNL A   1      40.032  35.367  40.069  1.00  0.00    -0.237 OA
ATOM    100  O   UNL A   1      41.929  33.824  39.781  1.00  0.00    -0.237 OA
ATOM    101  O   UNL A   1      41.999  36.049  38.745  1.00  0.00    -0.744 OA
ENDBRANCH  95  98
ENDBRANCH  68  91
ENDBRANCH  42  43
ENDBRANCH  34  37
ENDBRANCH  32  33
ENDBRANCH  31  32
ENDBRANCH  30  31
ENDBRANCH  29  30
ENDBRANCH   1  29
TORSDOF 21
ENDMDL
MODEL 2
REMARK VINA RESULT:      -8.2      5.214      8.699
REMARK SMILES C[C@@H]1C[N@@H+](Cc2cccc(C(=O)NCCCCCCNC(=O)c3ccc(-c4c5nc(c(-c6cccc(S(=O)(=O)[O-])c6F)c6ccc([nH]6)c(-c6cccc(S(=O)(=O)[O-])c6F)c6nc(c(-c7cccc(S(=O)(=O)[O-])c7F)c7ccc4[nH]7)C=C6)C=C5)cc3)c2)CCN1C(=O)OC(C)(C)C
REMARK SMILES IDX 15 1 14 2 13 3 11 4 12 5 10 7 6 8 7 9 86 10 8 11 9 12 5 13
REMARK SMILES IDX 4 14 1 15 2 16 3 17 89 18 88 19 87 20 90 22 91 23 92 24
REMARK SMILES IDX 93 25 94 26 95 27 96 28 16 29 17 30 18 31 19 32 20 33 21 34
REMARK SMILES IDX 22 36 23 37 24 38 85 39 25 40 84 41 26 42 27 43 28 44 78 45
REMARK SMILES IDX 29 46 83 47 77 48 79 49 30 50 82 51 76 52 75 53 31 55 63 56
REMARK SMILES IDX 43 57 62 58 44 59 47 60 61 61 80 62 45 63 46 64 60 66 81 67
REMARK SMILES IDX 48 68 32 69 33 70 41 71 34 72 36 73 42 74 35 75 37 76 38 77
REMARK SMILES IDX 39 78 40 79 64 80 65 81 73 82 66 83 68 84 74 85 67 86 69 87
REMARK SMILES IDX 70 88 71 89 72 90 49 91 50 92 58 93 51 94 53 95 59 96 52 97
REMARK SMILES IDX 54 98 55 99 56 100 57 101
REMARK H PARENT 13 6 4 21 20 35 79 54 47 65
REMARK Flexibility Score: inf
ROOT
ATOM      1  C   UNL A   1      35.679  21.341  24.595  1.00  0.00     0.021 C 
ENDROOT
BRANCH   1   2
ATOM      2  C   UNL A   1      35.763  19.863  24.966  1.00  0.00     0.116 C 
BRANCH   2   3
ATOM      3  N   UNL A   1      34.458  19.237  24.919  1.00  0.00    -0.352 N 
ATOM      4  C   UNL A   1      33.201  19.673  25.253  1.00  0.00     0.251 C 
ATOM      5  O   UNL A   1      32.268  18.896  25.039  1.00  0.00    -0.269 OA
ATOM      6  H   UNL A   1      34.478  18.313  24.579  1.00  0.00     0.163 HD
BRANCH   4   7
ATOM      7  C   UNL A   1      32.895  21.043  25.769  1.00  0.00     0.040 A 
ATOM      8  C   UNL A   1      31.796  23.228  25.670  1.00  0.00     0.007 A 
ATOM      9  C   UNL A   1      32.134  23.454  27.010  1.00  0.00     0.009 A 
ATOM     10  C   UNL A   1      32.290  22.069  25.036  1.00  0.00     0.023 A 
ATOM     11  C   UNL A   1      32.874  22.507  27.717  1.00  0.00     0.001 A 
ATOM     12  C   UNL A   1      33.216  21.296  27.112  1.00  0.00     0.014 A 
BRANCH   8  13
ATOM     13  C   UNL A   1      30.855  24.180  24.943  1.00  0.00     0.299 C 
BRANCH  13  14
ATOM     14  N   UNL A   1      31.361  25.546  24.679  1.00  0.00    -0.328 N 
ATOM     15  C   UNL A   1      32.196  28.438  25.701  1.00  0.00     0.037 C 
ATOM     16  C   UNL A   1      30.998  28.073  24.818  1.00  0.00     0.140 C 
ATOM     17  C   UNL A   1      30.462  26.634  25.141  1.00  0.00     0.287 C 
ATOM     18  N   UNL A   1      31.360  28.155  23.392  1.00  0.00    -0.294 N 
ATOM     19  C   UNL A   1      32.310  27.137  22.957  1.00  0.00     0.185 C 
ATOM     20  C   UNL A   1      31.721  25.757  23.266  1.00  0.00     0.284 C 
ATOM     21  H   UNL A   1      32.208  25.604  25.246  1.00  0.00     0.348 HD
BRANCH  18  22
ATOM     22  C   UNL A   1      30.722  28.935  22.443  1.00  0.00     0.410 C 
ATOM     23  O   UNL A   1      31.304  29.773  21.768  1.00  0.00    -0.224 OA
BRANCH  22  24
ATOM     24  O   UNL A   1      29.393  28.662  22.333  1.00  0.00    -0.444 OA
BRANCH  24  25
ATOM     25  C   UNL A   1      28.412  29.721  22.511  1.00  0.00     0.106 C 
ATOM     26  C   UNL A   1      28.857  30.719  23.588  1.00  0.00     0.056 C 
ATOM     27  C   UNL A   1      28.076  30.423  21.189  1.00  0.00     0.056 C 
ATOM     28  C   UNL A   1      27.141  29.012  23.010  1.00  0.00     0.056 C 
ENDBRANCH  24  25
ENDBRANCH  22  24
ENDBRANCH  18  22
ENDBRANCH  13  14
ENDBRANCH   8  13
ENDBRANCH   4   7
ENDBRANCH   2   3
ENDBRANCH   1   2
BRANCH   1  29
ATOM     29  C   UNL A   1      37.059  21.955  24.341  1.00  0.00     0.002 C 
BRANCH  29  30
ATOM     30  C   UNL A   1      38.225  21.146  24.925  1.00  0.00     0.002 C 
BRANCH  30  31
ATOM     31  C   UNL A   1      38.738  21.635  26.283  1.00  0.00     0.021 C 
BRANCH  31  32
ATOM     32  C   UNL A   1      39.773  22.753  26.199  1.00  0.00     0.116 C 
BRANCH  32  33
ATOM     33  N   UNL A   1      41.063  22.253  25.750  1.00  0.00    -0.352 N 
ATOM     34  C   UNL A   1      42.262  22.904  25.627  1.00  0.00     0.251 C 
ATOM     35  H   UNL A   1      41.077  21.301  25.496  1.00  0.00     0.163 HD
ATOM     36  O   UNL A   1      43.172  22.382  24.989  1.00  0.00    -0.269 OA
BRANCH  34  37
ATOM     37  C   UNL A   1      42.463  24.223  26.263  1.00  0.00     0.039 A 
ATOM     38  C   UNL A   1      42.331  25.371  25.480  1.00  0.00     0.014 A 
ATOM     39  C   UNL A   1      42.826  24.328  27.610  1.00  0.00     0.014 A 
ATOM     40  C   UNL A   1      42.536  26.626  26.055  1.00  0.00     0.010 A 
ATOM     41  C   UNL A   1      42.949  25.583  28.200  1.00  0.00     0.010 A 
ATOM     42  C   UNL A   1      42.825  26.745  27.426  1.00  0.00    -0.014 A 
BRANCH  42  43
ATOM     43  C   UNL A   1      42.995  28.081  28.049  1.00  0.00     0.031 A 
ATOM     44  C   UNL A   1      44.352  28.729  28.118  1.00  0.00     0.074 A 
ATOM     45  C   UNL A   1      41.926  28.695  28.594  1.00  0.00     0.049 A 
ATOM     46  N   UNL A   1      44.681  29.899  28.604  1.00  0.00    -0.248 NA
ATOM     47  C   UNL A   1      45.494  27.957  27.600  1.00  0.00     0.031 C 
ATOM     48  C   UNL A   1      40.576  28.131  28.665  1.00  0.00     0.029 A 
ATOM     49  N   UNL A   1      41.808  29.917  29.203  1.00  0.00    -0.354 N 
ATOM     50  C   UNL A   1      46.062  29.991  28.476  1.00  0.00     0.074 A 
ATOM     51  C   UNL A   1      46.516  28.743  27.904  1.00  0.00     0.031 C 
ATOM     52  C   UNL A   1      39.762  29.014  29.265  1.00  0.00     0.029 A 
ATOM     53  C   UNL A   1      40.536  30.189  29.650  1.00  0.00     0.049 A 
ATOM     54  H   UNL A   1      42.562  30.541  29.312  1.00  0.00     0.167 HD
ATOM     55  C   UNL A   1      46.876  31.030  28.781  1.00  0.00     0.034 A 
ATOM     56  C   UNL A   1      40.048  31.263  30.299  1.00  0.00     0.034 A 
ATOM     57  C   UNL A   1      46.415  32.280  29.323  1.00  0.00     0.049 A 
ATOM     58  C   UNL A   1      40.965  32.419  30.588  1.00  0.00     0.074 A 
ATOM     59  C   UNL A   1      47.145  33.426  29.586  1.00  0.00     0.029 A 
ATOM     60  N   UNL A   1      45.107  32.546  29.698  1.00  0.00    -0.354 N 
ATOM     61  N   UNL A   1      42.239  32.551  30.311  1.00  0.00    -0.248 NA
ATOM     62  C   UNL A   1      40.367  33.591  31.242  1.00  0.00     0.031 C 
ATOM     63  C   UNL A   1      46.287  34.371  30.157  1.00  0.00     0.029 A 
ATOM     64  C   UNL A   1      45.012  33.832  30.207  1.00  0.00     0.049 A 
ATOM     65  H   UNL A   1      44.356  31.915  29.616  1.00  0.00     0.167 HD
ATOM     66  C   UNL A   1      42.589  33.832  30.724  1.00  0.00     0.074 A 
ATOM     67  C   UNL A   1      41.383  34.443  31.246  1.00  0.00     0.031 C 
ATOM     68  C   UNL A   1      43.798  34.443  30.686  1.00  0.00     0.034 A 
BRANCH  55  69
ATOM     69  C   UNL A   1      48.350  30.875  28.498  1.00  0.00     0.023 A 
ATOM     70  C   UNL A   1      48.880  31.331  27.274  1.00  0.00     0.012 A 
ATOM     71  C   UNL A   1      49.218  30.335  29.467  1.00  0.00     0.148 A 
ATOM     72  C   UNL A   1      50.243  31.218  27.003  1.00  0.00     0.002 A 
ATOM     73  C   UNL A   1      50.583  30.272  29.210  1.00  0.00     0.091 A 
ATOM     74  F   UNL A   1      48.695  29.889  30.618  1.00  0.00    -0.205 F 
ATOM     75  C   UNL A   1      51.095  30.700  27.974  1.00  0.00     0.022 A 
BRANCH  73  76
ATOM     76  S   UNL A   1      51.774  29.698  30.426  1.00  0.00     0.127 S 
ATOM     77  O   UNL A   1      53.042  30.038  29.780  1.00  0.00    -0.237 OA
ATOM     78  O   UNL A   1      51.444  30.522  31.590  1.00  0.00    -0.237 OA
ATOM     79  O   UNL A   1      51.524  28.275  30.596  1.00  0.00    -0.744 OA
ENDBRANCH  73  76
ENDBRANCH  55  69
BRANCH  56  80
ATOM     80  C   UNL A   1      38.604  31.318  30.668  1.00  0.00     0.023 A 
ATOM     81  C   UNL A   1      38.172  30.745  31.879  1.00  0.00     0.012 A 
ATOM     82  C   UNL A   1      37.664  31.955  29.835  1.00  0.00     0.148 A 
ATOM     83  C   UNL A   1      36.824  30.770  32.236  1.00  0.00     0.002 A 
ATOM     84  C   UNL A   1      36.333  32.028  30.224  1.00  0.00     0.091 A 
ATOM     85  F   UNL A   1      38.096  32.488  28.683  1.00  0.00    -0.205 F 
ATOM     86  C   UNL A   1      35.907  31.420  31.415  1.00  0.00     0.022 A 
BRANCH  84  87
ATOM     87  S   UNL A   1      35.109  32.958  29.295  1.00  0.00     0.127 S 
ATOM     88  O   UNL A   1      35.835  34.190  28.995  1.00  0.00    -0.237 OA
ATOM     89  O   UNL A   1      34.877  32.085  28.145  1.00  0.00    -0.237 OA
ATOM     90  O   UNL A   1      33.964  33.101  30.184  1.00  0.00    -0.744 OA
ENDBRANCH  84  87
ENDBRANCH  56  80
BRANCH  68  91
ATOM     91  C   UNL A   1      43.876  35.862  31.186  1.00  0.00     0.023 A 
ATOM     92  C   UNL A   1      44.078  36.120  32.558  1.00  0.00     0.012 A 
ATOM     93  C   UNL A   1      43.794  36.943  30.287  1.00  0.00     0.148 A 
ATOM     94  C   UNL A   1      44.150  37.430  33.030  1.00  0.00     0.002 A 
ATOM     95  C   UNL A   1      43.923  38.244  30.757  1.00  0.00     0.091 A 
ATOM     96  F   UNL A   1      43.583  36.681  28.988  1.00  0.00    -0.205 F 
ATOM     97  C   UNL A   1      44.084  38.490  32.129  1.00  0.00     0.022 A 
BRANCH  95  98
ATOM     98  S   UNL A   1      43.950  39.666  29.659  1.00  0.00     0.127 S 
ATOM     99  O   UNL A   1      43.885  40.776  30.608  1.00  0.00    -0.237 OA
ATOM    100  O   UNL A   1      45.241  39.513  28.987  1.00  0.00    -0.237 OA
ATOM    101  O   UNL A   1      42.794  39.520  28.785  1.00  0.00    -0.744 OA
ENDBRANCH  95  98
ENDBRANCH  68  91
ENDBRANCH  42  43
ENDBRANCH  34  37
ENDBRANCH  32  33
ENDBRANCH  31  32
ENDBRANCH  30  31
ENDBRANCH  29  30
ENDBRANCH   1  29
TORSDOF 21
ENDMDL
MODEL 3
REMARK VINA RESULT:      -7.8      4.231      9.404
REMARK SMILES C[C@@H]1C[N@@H+](Cc2cccc(C(=O)NCCCCCCNC(=O)c3ccc(-c4c5nc(c(-c6cccc(S(=O)(=O)[O-])c6F)c6ccc([nH]6)c(-c6cccc(S(=O)(=O)[O-])c6F)c6nc(c(-c7cccc(S(=O)(=O)[O-])c7F)c7ccc4[nH]7)C=C6)C=C5)cc3)c2)CCN1C(=O)OC(C)(C)C
REMARK SMILES IDX 15 1 14 2 13 3 11 4 12 5 10 7 6 8 7 9 86 10 8 11 9 12 5 13
REMARK SMILES IDX 4 14 1 15 2 16 3 17 89 18 88 19 87 20 90 22 91 23 92 24
REMARK SMILES IDX 93 25 94 26 95 27 96 28 16 29 17 30 18 31 19 32 20 33 21 34
REMARK SMILES IDX 22 36 23 37 24 38 85 39 25 40 84 41 26 42 27 43 28 44 78 45
REMARK SMILES IDX 29 46 83 47 77 48 79 49 30 50 82 51 76 52 75 53 31 55 63 56
REMARK SMILES IDX 43 57 62 58 44 59 47 60 61 61 80 62 45 63 46 64 60 66 81 67
REMARK SMILES IDX 48 68 32 69 33 70 41 71 34 72 36 73 42 74 35 75 37 76 38 77
REMARK SMILES IDX 39 78 40 79 64 80 65 81 73 82 66 83 68 84 74 85 67 86 69 87
REMARK SMILES IDX 70 88 71 89 72 90 49 91 50 92 58 93 51 94 53 95 59 96 52 97
REMARK SMILES IDX 54 98 55 99 56 100 57 101
REMARK H PARENT 13 6 4 21 20 35 79 54 47 65
REMARK Flexibility Score: inf
ROOT
ATOM      1  C   UNL A   1      38.968  28.638  27.744  1.00  0.00     0.021 C 
ENDROOT
BRANCH   1   2
ATOM      2  C   UNL A   1      40.467  28.900  27.872  1.00  0.00     0.116 C 
BRANCH   2   3
ATOM      3  N   UNL A   1      41.103  28.944  26.573  1.00  0.00    -0.352 N 
ATOM      4  C   UNL A   1      41.633  27.976  25.758  1.00  0.00     0.251 C 
ATOM      5  O   UNL A   1      42.064  28.345  24.663  1.00  0.00    -0.269 OA
ATOM      6  H   UNL A   1      41.168  29.854  26.198  1.00  0.00     0.163 HD
BRANCH   4   7
ATOM      7  C   UNL A   1      41.639  26.515  26.081  1.00  0.00     0.040 A 
ATOM      8  C   UNL A   1      40.571  24.409  26.719  1.00  0.00     0.007 A 
ATOM      9  C   UNL A   1      41.723  23.713  26.334  1.00  0.00     0.009 A 
ATOM     10  C   UNL A   1      40.595  25.818  26.697  1.00  0.00     0.023 A 
ATOM     11  C   UNL A   1      42.837  24.405  25.860  1.00  0.00     0.001 A 
ATOM     12  C   UNL A   1      42.778  25.791  25.699  1.00  0.00     0.014 A 
BRANCH   8  13
ATOM     13  C   UNL A   1      39.301  23.651  27.084  1.00  0.00     0.299 C 
BRANCH  13  14
ATOM     14  N   UNL A   1      38.480  23.144  25.960  1.00  0.00    -0.328 N 
ATOM     15  C   UNL A   1      36.597  23.654  23.452  1.00  0.00     0.037 C 
ATOM     16  C   UNL A   1      36.208  23.029  24.795  1.00  0.00     0.140 C 
ATOM     17  C   UNL A   1      37.070  23.608  25.971  1.00  0.00     0.287 C 
ATOM     18  N   UNL A   1      36.360  21.564  24.748  1.00  0.00    -0.294 N 
ATOM     19  C   UNL A   1      37.743  21.108  24.652  1.00  0.00     0.185 C 
ATOM     20  C   UNL A   1      38.526  21.675  25.840  1.00  0.00     0.284 C 
ATOM     21  H   UNL A   1      38.919  23.554  25.136  1.00  0.00     0.348 HD
BRANCH  18  22
ATOM     22  C   UNL A   1      35.361  20.642  25.010  1.00  0.00     0.410 C 
ATOM     23  O   UNL A   1      35.476  19.447  24.768  1.00  0.00    -0.224 OA
BRANCH  22  24
ATOM     24  O   UNL A   1      34.254  21.199  25.572  1.00  0.00    -0.444 OA
BRANCH  24  25
ATOM     25  C   UNL A   1      32.960  21.073  24.918  1.00  0.00     0.106 C 
ATOM     26  C   UNL A   1      32.533  19.603  24.806  1.00  0.00     0.056 C 
ATOM     27  C   UNL A   1      31.884  21.927  25.601  1.00  0.00     0.056 C 
ATOM     28  C   UNL A   1      33.173  21.621  23.497  1.00  0.00     0.056 C 
ENDBRANCH  24  25
ENDBRANCH  22  24
ENDBRANCH  18  22
ENDBRANCH  13  14
ENDBRANCH   8  13
ENDBRANCH   4   7
ENDBRANCH   2   3
ENDBRANCH   1   2
BRANCH   1  29
ATOM     29  C   UNL A   1      38.134  29.895  28.002  1.00  0.00     0.002 C 
BRANCH  29  30
ATOM     30  C   UNL A   1      36.819  29.636  28.751  1.00  0.00     0.002 C 
BRANCH  30  31
ATOM     31  C   UNL A   1      35.577  30.269  28.118  1.00  0.00     0.021 C 
BRANCH  31  32
ATOM     32  C   UNL A   1      35.738  31.742  27.754  1.00  0.00     0.116 C 
BRANCH  32  33
ATOM     33  N   UNL A   1      34.785  32.576  28.469  1.00  0.00    -0.352 N 
ATOM     34  C   UNL A   1      34.744  32.925  29.793  1.00  0.00     0.251 C 
ATOM     35  H   UNL A   1      34.058  32.947  27.916  1.00  0.00     0.163 HD
ATOM     36  O   UNL A   1      33.721  33.422  30.256  1.00  0.00    -0.269 OA
BRANCH  34  37
ATOM     37  C   UNL A   1      35.922  32.710  30.658  1.00  0.00     0.039 A 
ATOM     38  C   UNL A   1      35.915  31.633  31.546  1.00  0.00     0.014 A 
ATOM     39  C   UNL A   1      37.009  33.591  30.631  1.00  0.00     0.014 A 
ATOM     40  C   UNL A   1      37.009  31.422  32.385  1.00  0.00     0.010 A 
ATOM     41  C   UNL A   1      38.133  33.331  31.410  1.00  0.00     0.010 A 
ATOM     42  C   UNL A   1      38.138  32.257  32.310  1.00  0.00    -0.014 A 
BRANCH  42  43
ATOM     43  C   UNL A   1      39.322  32.006  33.168  1.00  0.00     0.031 A 
ATOM     44  C   UNL A   1      39.391  32.563  34.565  1.00  0.00     0.074 A 
ATOM     45  C   UNL A   1      40.361  31.306  32.669  1.00  0.00     0.049 A 
ATOM     46  N   UNL A   1      40.334  32.424  35.460  1.00  0.00    -0.248 NA
ATOM     47  C   UNL A   1      38.268  33.408  35.008  1.00  0.00     0.031 C 
ATOM     48  C   UNL A   1      40.449  30.787  31.303  1.00  0.00     0.029 A 
ATOM     49  N   UNL A   1      41.544  30.924  33.247  1.00  0.00    -0.354 N 
ATOM     50  C   UNL A   1      39.936  33.181  36.556  1.00  0.00     0.074 A 
ATOM     51  C   UNL A   1      38.684  33.811  36.200  1.00  0.00     0.031 C 
ATOM     52  C   UNL A   1      41.615  30.138  31.153  1.00  0.00     0.029 A 
ATOM     53  C   UNL A   1      42.369  30.223  32.399  1.00  0.00     0.049 A 
ATOM     54  H   UNL A   1      41.782  31.133  34.179  1.00  0.00     0.167 HD
ATOM     55  C   UNL A   1      40.542  33.317  37.760  1.00  0.00     0.034 A 
ATOM     56  C   UNL A   1      43.596  29.706  32.601  1.00  0.00     0.034 A 
ATOM     57  C   UNL A   1      41.773  32.665  38.119  1.00  0.00     0.049 A 
ATOM     58  C   UNL A   1      44.227  29.838  33.960  1.00  0.00     0.074 A 
ATOM     59  C   UNL A   1      42.424  32.669  39.340  1.00  0.00     0.029 A 
ATOM     60  N   UNL A   1      42.546  31.904  37.257  1.00  0.00    -0.354 N 
ATOM     61  N   UNL A   1      43.758  30.422  35.035  1.00  0.00    -0.248 NA
ATOM     62  C   UNL A   1      45.539  29.203  34.144  1.00  0.00     0.031 C 
ATOM     63  C   UNL A   1      43.612  31.943  39.205  1.00  0.00     0.029 A 
ATOM     64  C   UNL A   1      43.677  31.446  37.913  1.00  0.00     0.049 A 
ATOM     65  H   UNL A   1      42.325  31.715  36.316  1.00  0.00     0.167 HD
ATOM     66  C   UNL A   1      44.699  30.196  36.033  1.00  0.00     0.074 A 
ATOM     67  C   UNL A   1      45.752  29.398  35.438  1.00  0.00     0.031 C 
ATOM     68  C   UNL A   1      44.698  30.619  37.321  1.00  0.00     0.034 A 
BRANCH  55  69
ATOM     69  C   UNL A   1      39.862  34.178  38.796  1.00  0.00     0.023 A 
ATOM     70  C   UNL A   1      39.984  35.581  38.730  1.00  0.00     0.012 A 
ATOM     71  C   UNL A   1      39.054  33.603  39.796  1.00  0.00     0.148 A 
ATOM     72  C   UNL A   1      39.344  36.396  39.664  1.00  0.00     0.002 A 
ATOM     73  C   UNL A   1      38.379  34.423  40.693  1.00  0.00     0.091 A 
ATOM     74  F   UNL A   1      38.964  32.266  39.856  1.00  0.00    -0.205 F 
ATOM     75  C   UNL A   1      38.534  35.818  40.637  1.00  0.00     0.022 A 
BRANCH  73  76
ATOM     76  S   UNL A   1      37.246  33.782  41.930  1.00  0.00     0.127 S 
ATOM     77  O   UNL A   1      37.027  34.961  42.768  1.00  0.00    -0.237 OA
ATOM     78  O   UNL A   1      36.094  33.391  41.117  1.00  0.00    -0.237 OA
ATOM     79  O   UNL A   1      37.938  32.678  42.578  1.00  0.00    -0.744 OA
ENDBRANCH  73  76
ENDBRANCH  55  69
BRANCH  56  80
ATOM     80  C   UNL A   1      44.283  28.967  31.504  1.00  0.00     0.023 A 
ATOM     81  C   UNL A   1      45.273  29.614  30.741  1.00  0.00     0.012 A 
ATOM     82  C   UNL A   1      43.975  27.620  31.230  1.00  0.00     0.148 A 
ATOM     83  C   UNL A   1      45.917  28.946  29.698  1.00  0.00     0.002 A 
ATOM     84  C   UNL A   1      44.661  26.943  30.230  1.00  0.00     0.091 A 
ATOM     85  F   UNL A   1      43.024  27.025  31.965  1.00  0.00    -0.205 F 
ATOM     86  C   UNL A   1      45.619  27.609  29.450  1.00  0.00     0.022 A 
BRANCH  84  87
ATOM     87  S   UNL A   1      44.437  25.187  29.930  1.00  0.00     0.127 S 
ATOM     88  O   UNL A   1      43.093  25.151  29.359  1.00  0.00    -0.237 OA
ATOM     89  O   UNL A   1      45.516  24.903  28.984  1.00  0.00    -0.237 OA
ATOM     90  O   UNL A   1      44.589  24.542  31.227  1.00  0.00    -0.744 OA
ENDBRANCH  84  87
ENDBRANCH  56  80
BRANCH  68  91
ATOM     91  C   UNL A   1      45.853  30.196  38.192  1.00  0.00     0.023 A 
ATOM     92  C   UNL A   1      46.970  31.043  38.349  1.00  0.00     0.012 A 
ATOM     93  C   UNL A   1      45.810  28.975  38.894  1.00  0.00     0.148 A 
ATOM     94  C   UNL A   1      48.043  30.659  39.152  1.00  0.00     0.002 A 
ATOM     95  C   UNL A   1      46.858  28.626  39.736  1.00  0.00     0.091 A 
ATOM     96  F   UNL A   1      44.748  28.174  38.719  1.00  0.00    -0.205 F 
ATOM     97  C   UNL A   1      47.982  29.457  39.853  1.00  0.00     0.022 A 
BRANCH  95  98
ATOM     98  S   UNL A   1      46.821  27.146  40.754  1.00  0.00     0.127 S 
ATOM     99  O   UNL A   1      46.784  26.090  39.744  1.00  0.00    -0.237 OA
ATOM    100  O   UNL A   1      48.083  27.244  41.488  1.00  0.00    -0.237 OA
ATOM    101  O   UNL A   1      45.629  27.259  41.585  1.00  0.00    -0.744 OA
ENDBRANCH  95  98
ENDBRANCH  68  91
ENDBRANCH  42  43
ENDBRANCH  34  37
ENDBRANCH  32  33
ENDBRANCH  31  32
ENDBRANCH  30  31
ENDBRANCH  29  30
ENDBRANCH   1  29
TORSDOF 21
ENDMDL
