MODEL 1
REMARK VINA RESULT:     -13.0      0.000      0.000
REMARK SMILES Cc1cccc(S(=O)(=O)Nc2cc(C(=O)NCCCCCCNC(=O)c3ccc(-c4c5nc(c(-c6cccc(S(=O)(=O)[O-])c6F)c6ccc([nH]6)c(-c6cccc(S(=O)(=O)[O-])c6F)c6nc(c(-c7cccc(S(=O)(=O)[O-])c7F)c7ccc4[nH]7)C=C6)C=C5)cc3)cnc2N2CCC[C@H](C)C2)c1
REMARK SMILES IDX 19 1 18 2 17 3 16 4 14 5 15 6 13 8 11 9 12 10 91 11 90 12
REMARK SMILES IDX 89 13 10 14 7 16 8 17 9 18 6 19 1 20 2 21 3 22 99 23 4 24
REMARK SMILES IDX 5 25 92 26 93 27 98 28 94 29 96 30 95 31 97 32 20 33 21 34
REMARK SMILES IDX 22 35 23 36 24 37 25 39 26 40 27 41 88 42 28 43 87 44 29 45
REMARK SMILES IDX 30 46 31 47 81 48 32 49 86 50 80 51 82 52 33 53 85 54 79 55
REMARK SMILES IDX 78 56 34 58 66 59 46 60 65 61 47 62 50 63 64 64 83 65 48 66
REMARK SMILES IDX 49 67 63 69 84 70 51 71 35 72 36 73 44 74 37 75 39 76 45 77
REMARK SMILES IDX 38 78 40 79 41 80 42 81 43 82 67 83 68 84 76 85 69 86 71 87
REMARK SMILES IDX 77 88 70 89 72 90 73 91 74 92 75 93 52 94 53 95 61 96 54 97
REMARK SMILES IDX 56 98 62 99 55 100 57 101 58 102 59 103 60 104
REMARK H PARENT 16 7 10 15 23 38 82 57 50 68
REMARK Flexibility Score: inf
ROOT
ATOM      1  C   UNL A   1      35.551  20.756  24.719  1.00  0.00     0.002 C 
ENDROOT
BRANCH   1   2
ATOM      2  C   UNL A   1      34.350  19.833  24.938  1.00  0.00     0.021 C 
BRANCH   2   3
ATOM      3  C   UNL A   1      33.026  20.538  24.664  1.00  0.00     0.116 C 
BRANCH   3   4
ATOM      4  N   UNL A   1      32.572  20.279  23.310  1.00  0.00    -0.352 N 
ATOM      5  C   UNL A   1      32.037  21.084  22.339  1.00  0.00     0.252 C 
ATOM      6  O   UNL A   1      31.801  20.595  21.235  1.00  0.00    -0.269 OA
ATOM      7  H   UNL A   1      32.667  19.338  23.035  1.00  0.00     0.163 HD
BRANCH   5   8
ATOM      8  C   UNL A   1      31.836  22.535  22.534  1.00  0.00     0.060 A 
ATOM      9  C   UNL A   1      30.958  24.414  23.721  1.00  0.00     0.092 A 
ATOM     10  C   UNL A   1      30.853  23.086  23.337  1.00  0.00     0.046 A 
ATOM     11  C   UNL A   1      31.875  25.260  23.063  1.00  0.00     0.153 A 
ATOM     12  N   UNL A   1      32.753  24.758  22.167  1.00  0.00    -0.236 NA
ATOM     13  C   UNL A   1      32.745  23.413  21.957  1.00  0.00     0.127 A 
BRANCH   9  14
ATOM     14  N   UNL A   1      30.103  24.860  24.776  1.00  0.00    -0.276 N 
ATOM     15  H   UNL A   1      29.211  25.207  24.549  1.00  0.00     0.180 HD
BRANCH  14  16
ATOM     16  S   UNL A   1      30.575  24.810  26.409  1.00  0.00     0.262 S 
ATOM     17  O   UNL A   1      29.630  23.890  27.025  1.00  0.00    -0.201 OA
ATOM     18  O   UNL A   1      30.639  26.179  26.863  1.00  0.00    -0.201 OA
BRANCH  16  19
ATOM     19  C   UNL A   1      32.192  24.115  26.721  1.00  0.00     0.088 A 
ATOM     20  C   UNL A   1      35.827  24.254  25.604  1.00  0.00     0.044 C 
ATOM     21  C   UNL A   1      34.584  23.890  26.366  1.00  0.00    -0.050 A 
ATOM     22  C   UNL A   1      34.602  22.760  27.195  1.00  0.00     0.003 A 
ATOM     23  C   UNL A   1      33.388  24.612  26.201  1.00  0.00     0.025 A 
ATOM     24  C   UNL A   1      33.434  22.328  27.815  1.00  0.00     0.002 A 
ATOM     25  C   UNL A   1      32.230  22.985  27.556  1.00  0.00     0.022 A 
ENDBRANCH  16  19
ENDBRANCH  14  16
ENDBRANCH   9  14
BRANCH  11  26
ATOM     26  N   UNL A   1      31.760  26.626  23.171  1.00  0.00    -0.355 N 
ATOM     27  C   UNL A   1      32.598  27.444  24.026  1.00  0.00     0.118 C 
ATOM     28  C   UNL A   1      31.023  27.322  22.126  1.00  0.00     0.121 C 
ATOM     29  C   UNL A   1      31.690  28.429  24.774  1.00  0.00     0.022 C 
ATOM     30  C   UNL A   1      30.019  28.266  22.807  1.00  0.00     0.005 C 
ATOM     31  C   UNL A   1      30.737  29.175  23.829  1.00  0.00     0.007 C 
ATOM     32  C   UNL A   1      28.868  27.476  23.442  1.00  0.00     0.009 C 
ENDBRANCH  11  26
ENDBRANCH   5   8
ENDBRANCH   3   4
ENDBRANCH   2   3
ENDBRANCH   1   2
BRANCH   1  33
ATOM     33  C   UNL A   1      36.921  20.115  25.003  1.00  0.00     0.002 C 
BRANCH  33  34
ATOM     34  C   UNL A   1      38.119  21.061  24.901  1.00  0.00     0.021 C 
BRANCH  34  35
ATOM     35  C   UNL A   1      38.256  21.975  26.102  1.00  0.00     0.116 C 
BRANCH  35  36
ATOM     36  N   UNL A   1      39.635  22.097  26.525  1.00  0.00    -0.352 N 
ATOM     37  C   UNL A   1      40.468  23.195  26.543  1.00  0.00     0.251 C 
ATOM     38  H   UNL A   1      40.043  21.263  26.854  1.00  0.00     0.163 HD
ATOM     39  O   UNL A   1      41.675  22.996  26.641  1.00  0.00    -0.269 OA
BRANCH  37  40
ATOM     40  C   UNL A   1      39.898  24.564  26.672  1.00  0.00     0.039 A 
ATOM     41  C   UNL A   1      40.604  25.564  25.989  1.00  0.00     0.014 A 
ATOM     42  C   UNL A   1      39.074  24.900  27.737  1.00  0.00     0.014 A 
ATOM     43  C   UNL A   1      40.782  26.796  26.596  1.00  0.00     0.010 A 
ATOM     44  C   UNL A   1      39.343  26.063  28.407  1.00  0.00     0.010 A 
ATOM     45  C   UNL A   1      40.272  26.956  27.872  1.00  0.00    -0.014 A 
BRANCH  45  46
ATOM     46  C   UNL A   1      40.551  28.075  28.736  1.00  0.00     0.031 A 
ATOM     47  C   UNL A   1      39.627  29.204  28.673  1.00  0.00     0.074 A 
ATOM     48  C   UNL A   1      41.432  27.878  29.738  1.00  0.00     0.049 A 
ATOM     49  N   UNL A   1      39.782  30.283  29.340  1.00  0.00    -0.248 NA
ATOM     50  C   UNL A   1      38.442  29.204  27.823  1.00  0.00     0.031 C 
ATOM     51  C   UNL A   1      41.535  28.562  31.019  1.00  0.00     0.029 A 
ATOM     52  N   UNL A   1      42.554  27.059  29.709  1.00  0.00    -0.354 N 
ATOM     53  C   UNL A   1      38.606  30.991  29.250  1.00  0.00     0.074 A 
ATOM     54  C   UNL A   1      37.856  30.341  28.207  1.00  0.00     0.031 C 
ATOM     55  C   UNL A   1      42.749  28.323  31.547  1.00  0.00     0.029 A 
ATOM     56  C   UNL A   1      43.533  27.662  30.517  1.00  0.00     0.049 A 
ATOM     57  H   UNL A   1      42.647  26.212  29.215  1.00  0.00     0.167 HD
ATOM     58  C   UNL A   1      38.384  31.944  30.195  1.00  0.00     0.034 A 
ATOM     59  C   UNL A   1      44.640  28.205  29.912  1.00  0.00     0.034 A 
ATOM     60  C   UNL A   1      39.605  32.127  31.008  1.00  0.00     0.049 A 
ATOM     61  C   UNL A   1      44.708  29.729  30.017  1.00  0.00     0.074 A 
ATOM     62  C   UNL A   1      40.020  31.688  32.255  1.00  0.00     0.029 A 
ATOM     63  N   UNL A   1      40.754  32.559  30.362  1.00  0.00    -0.354 N 
ATOM     64  N   UNL A   1      43.796  30.489  30.564  1.00  0.00    -0.248 NA
ATOM     65  C   UNL A   1      45.799  30.515  29.448  1.00  0.00     0.031 C 
ATOM     66  C   UNL A   1      41.442  31.843  32.329  1.00  0.00     0.029 A 
ATOM     67  C   UNL A   1      41.885  32.411  31.148  1.00  0.00     0.049 A 
ATOM     68  H   UNL A   1      40.765  32.926  29.449  1.00  0.00     0.167 HD
ATOM     69  C   UNL A   1      44.055  31.811  30.292  1.00  0.00     0.074 A 
ATOM     70  C   UNL A   1      45.343  31.769  29.612  1.00  0.00     0.031 C 
ATOM     71  C   UNL A   1      43.172  32.823  30.589  1.00  0.00     0.034 A 
BRANCH  58  72
ATOM     72  C   UNL A   1      37.043  32.562  30.554  1.00  0.00     0.023 A 
ATOM     73  C   UNL A   1      36.573  32.311  31.864  1.00  0.00     0.012 A 
ATOM     74  C   UNL A   1      36.166  33.299  29.720  1.00  0.00     0.148 A 
ATOM     75  C   UNL A   1      35.302  32.701  32.300  1.00  0.00     0.002 A 
ATOM     76  C   UNL A   1      34.890  33.682  30.148  1.00  0.00     0.091 A 
ATOM     77  F   UNL A   1      36.546  33.667  28.498  1.00  0.00    -0.205 F 
ATOM     78  C   UNL A   1      34.453  33.374  31.437  1.00  0.00     0.022 A 
BRANCH  76  79
ATOM     79  S   UNL A   1      33.714  34.546  29.086  1.00  0.00     0.127 S 
ATOM     80  O   UNL A   1      33.359  33.508  28.116  1.00  0.00    -0.237 OA
ATOM     81  O   UNL A   1      32.644  34.892  30.021  1.00  0.00    -0.237 OA
ATOM     82  O   UNL A   1      34.424  35.685  28.514  1.00  0.00    -0.744 OA
ENDBRANCH  76  79
ENDBRANCH  58  72
BRANCH  59  83
ATOM     83  C   UNL A   1      45.048  27.398  28.701  1.00  0.00     0.023 A 
ATOM     84  C   UNL A   1      44.503  27.800  27.452  1.00  0.00     0.012 A 
ATOM     85  C   UNL A   1      46.226  26.631  28.698  1.00  0.00     0.148 A 
ATOM     86  C   UNL A   1      45.239  27.658  26.273  1.00  0.00     0.002 A 
ATOM     87  C   UNL A   1      46.929  26.449  27.506  1.00  0.00     0.091 A 
ATOM     88  F   UNL A   1      46.680  26.131  29.854  1.00  0.00    -0.205 F 
ATOM     89  C   UNL A   1      46.477  27.024  26.309  1.00  0.00     0.022 A 
BRANCH  87  90
ATOM     90  S   UNL A   1      48.484  25.546  27.494  1.00  0.00     0.127 S 
ATOM     91  O   UNL A   1      48.019  24.164  27.448  1.00  0.00    -0.237 OA
ATOM     92  O   UNL A   1      49.129  26.012  26.266  1.00  0.00    -0.237 OA
ATOM     93  O   UNL A   1      49.159  25.961  28.715  1.00  0.00    -0.744 OA
ENDBRANCH  87  90
ENDBRANCH  59  83
BRANCH  71  94
ATOM     94  C   UNL A   1      43.412  34.309  30.308  1.00  0.00     0.023 A 
ATOM     95  C   UNL A   1      43.467  35.257  31.345  1.00  0.00     0.012 A 
ATOM     96  C   UNL A   1      43.504  34.836  28.987  1.00  0.00     0.148 A 
ATOM     97  C   UNL A   1      43.752  36.608  31.106  1.00  0.00     0.002 A 
ATOM     98  C   UNL A   1      43.755  36.183  28.746  1.00  0.00     0.091 A 
ATOM     99  F   UNL A   1      43.301  34.051  27.928  1.00  0.00    -0.205 F 
ATOM    100  C   UNL A   1      43.918  37.069  29.808  1.00  0.00     0.022 A 
BRANCH  98 101
ATOM    101  S   UNL A   1      43.842  36.863  27.080  1.00  0.00     0.127 S 
ATOM    102  O   UNL A   1      45.072  36.248  26.580  1.00  0.00    -0.237 OA
ATOM    103  O   UNL A   1      42.612  36.346  26.480  1.00  0.00    -0.237 OA
ATOM    104  O   UNL A   1      43.888  38.311  27.226  1.00  0.00    -0.744 OA
ENDBRANCH  98 101
ENDBRANCH  71  94
ENDBRANCH  45  46
ENDBRANCH  37  40
ENDBRANCH  35  36
ENDBRANCH  34  35
ENDBRANCH  33  34
ENDBRANCH   1  33
TORSDOF 20
ENDMDL
MODEL 2
REMARK VINA RESULT:     -12.6      2.222      2.979
REMARK SMILES Cc1cccc(S(=O)(=O)Nc2cc(C(=O)NCCCCCCNC(=O)c3ccc(-c4c5nc(c(-c6cccc(S(=O)(=O)[O-])c6F)c6ccc([nH]6)c(-c6cccc(S(=O)(=O)[O-])c6F)c6nc(c(-c7cccc(S(=O)(=O)[O-])c7F)c7ccc4[nH]7)C=C6)C=C5)cc3)cnc2N2CCC[C@H](C)C2)c1
REMARK SMILES IDX 19 1 18 2 17 3 16 4 14 5 15 6 13 8 11 9 12 10 91 11 90 12
REMARK SMILES IDX 89 13 10 14 7 16 8 17 9 18 6 19 1 20 2 21 3 22 99 23 4 24
REMARK SMILES IDX 5 25 92 26 93 27 98 28 94 29 96 30 95 31 97 32 20 33 21 34
REMARK SMILES IDX 22 35 23 36 24 37 25 39 26 40 27 41 88 42 28 43 87 44 29 45
REMARK SMILES IDX 30 46 31 47 81 48 32 49 86 50 80 51 82 52 33 53 85 54 79 55
REMARK SMILES IDX 78 56 34 58 66 59 46 60 65 61 47 62 50 63 64 64 83 65 48 66
REMARK SMILES IDX 49 67 63 69 84 70 51 71 35 72 36 73 44 74 37 75 39 76 45 77
REMARK SMILES IDX 38 78 40 79 41 80 42 81 43 82 67 83 68 84 76 85 69 86 71 87
REMARK SMILES IDX 77 88 70 89 72 90 73 91 74 92 75 93 52 94 53 95 61 96 54 97
REMARK SMILES IDX 56 98 62 99 55 100 57 101 58 102 59 103 60 104
REMARK H PARENT 16 7 10 15 23 38 82 57 50 68
REMARK Flexibility Score: inf
ROOT
ATOM      1  C   UNL A   1      35.571  22.933  24.912  1.00  0.00     0.002 C 
ENDROOT
BRANCH   1   2
ATOM      2  C   UNL A   1      35.394  21.439  25.197  1.00  0.00     0.021 C 
BRANCH   2   3
ATOM      3  C   UNL A   1      33.960  21.095  25.584  1.00  0.00     0.116 C 
BRANCH   3   4
ATOM      4  N   UNL A   1      33.275  20.424  24.494  1.00  0.00    -0.352 N 
ATOM      5  C   UNL A   1      32.578  20.887  23.408  1.00  0.00     0.252 C 
ATOM      6  O   UNL A   1      32.152  20.071  22.593  1.00  0.00    -0.269 OA
ATOM      7  H   UNL A   1      33.320  19.442  24.544  1.00  0.00     0.163 HD
BRANCH   5   8
ATOM      8  C   UNL A   1      32.415  22.329  23.128  1.00  0.00     0.060 A 
ATOM      9  C   UNL A   1      31.676  24.529  23.693  1.00  0.00     0.092 A 
ATOM     10  C   UNL A   1      31.518  23.155  23.781  1.00  0.00     0.046 A 
ATOM     11  C   UNL A   1      32.538  25.071  22.717  1.00  0.00     0.153 A 
ATOM     12  N   UNL A   1      33.323  24.265  21.969  1.00  0.00    -0.236 NA
ATOM     13  C   UNL A   1      33.278  22.928  22.218  1.00  0.00     0.127 A 
BRANCH   9  14
ATOM     14  N   UNL A   1      30.929  25.334  24.607  1.00  0.00    -0.276 N 
ATOM     15  H   UNL A   1      30.069  25.713  24.314  1.00  0.00     0.180 HD
BRANCH  14  16
ATOM     16  S   UNL A   1      31.473  25.659  26.186  1.00  0.00     0.262 S 
ATOM     17  O   UNL A   1      32.513  24.668  26.415  1.00  0.00    -0.201 OA
ATOM     18  O   UNL A   1      30.303  25.677  27.031  1.00  0.00    -0.201 OA
BRANCH  16  19
ATOM     19  C   UNL A   1      32.265  27.246  26.413  1.00  0.00     0.088 A 
ATOM     20  C   UNL A   1      31.599  30.991  26.502  1.00  0.00     0.044 C 
ATOM     21  C   UNL A   1      32.307  29.668  26.583  1.00  0.00    -0.050 A 
ATOM     22  C   UNL A   1      33.708  29.646  26.573  1.00  0.00     0.003 A 
ATOM     23  C   UNL A   1      31.593  28.456  26.587  1.00  0.00     0.025 A 
ATOM     24  C   UNL A   1      34.388  28.434  26.522  1.00  0.00     0.002 A 
ATOM     25  C   UNL A   1      33.671  27.242  26.413  1.00  0.00     0.022 A 
ENDBRANCH  16  19
ENDBRANCH  14  16
ENDBRANCH   9  14
BRANCH  11  26
ATOM     26  N   UNL A   1      32.452  26.401  22.376  1.00  0.00    -0.355 N 
ATOM     27  C   UNL A   1      33.555  27.337  22.477  1.00  0.00     0.118 C 
ATOM     28  C   UNL A   1      31.329  26.807  21.543  1.00  0.00     0.121 C 
ATOM     29  C   UNL A   1      33.026  28.620  23.127  1.00  0.00     0.022 C 
ATOM     30  C   UNL A   1      30.686  28.045  22.190  1.00  0.00     0.005 C 
ATOM     31  C   UNL A   1      31.748  29.135  22.448  1.00  0.00     0.007 C 
ATOM     32  C   UNL A   1      29.926  27.662  23.466  1.00  0.00     0.009 C 
ENDBRANCH  11  26
ENDBRANCH   5   8
ENDBRANCH   3   4
ENDBRANCH   2   3
ENDBRANCH   1   2
BRANCH   1  33
ATOM     33  C   UNL A   1      37.000  23.465  25.118  1.00  0.00     0.002 C 
BRANCH  33  34
ATOM     34  C   UNL A   1      37.716  22.949  26.368  1.00  0.00     0.021 C 
BRANCH  34  35
ATOM     35  C   UNL A   1      39.117  22.448  26.085  1.00  0.00     0.116 C 
BRANCH  35  36
ATOM     36  N   UNL A   1      39.973  22.570  27.246  1.00  0.00    -0.352 N 
ATOM     37  C   UNL A   1      40.431  23.693  27.901  1.00  0.00     0.251 C 
ATOM     38  H   UNL A   1      40.275  21.714  27.629  1.00  0.00     0.163 HD
ATOM     39  O   UNL A   1      41.390  23.562  28.657  1.00  0.00    -0.269 OA
BRANCH  37  40
ATOM     40  C   UNL A   1      39.643  24.954  27.865  1.00  0.00     0.039 A 
ATOM     41  C   UNL A   1      40.041  25.871  26.883  1.00  0.00     0.014 A 
ATOM     42  C   UNL A   1      38.939  25.392  28.979  1.00  0.00     0.014 A 
ATOM     43  C   UNL A   1      40.075  27.220  27.195  1.00  0.00     0.010 A 
ATOM     44  C   UNL A   1      39.085  26.702  29.348  1.00  0.00     0.010 A 
ATOM     45  C   UNL A   1      39.741  27.582  28.487  1.00  0.00    -0.014 A 
BRANCH  45  46
ATOM     46  C   UNL A   1      39.933  28.894  29.051  1.00  0.00     0.031 A 
ATOM     47  C   UNL A   1      38.938  29.909  28.714  1.00  0.00     0.074 A 
ATOM     48  C   UNL A   1      40.809  29.008  30.069  1.00  0.00     0.049 A 
ATOM     49  N   UNL A   1      39.012  31.126  29.096  1.00  0.00    -0.248 NA
ATOM     50  C   UNL A   1      37.768  29.621  27.891  1.00  0.00     0.031 C 
ATOM     51  C   UNL A   1      40.847  29.990  31.143  1.00  0.00     0.029 A 
ATOM     52  N   UNL A   1      41.983  28.284  30.240  1.00  0.00    -0.354 N 
ATOM     53  C   UNL A   1      37.794  31.710  28.837  1.00  0.00     0.074 A 
ATOM     54  C   UNL A   1      37.104  30.776  27.986  1.00  0.00     0.031 C 
ATOM     55  C   UNL A   1      42.066  29.969  31.712  1.00  0.00     0.029 A 
ATOM     56  C   UNL A   1      42.908  29.131  30.874  1.00  0.00     0.049 A 
ATOM     57  H   UNL A   1      42.138  27.350  29.968  1.00  0.00     0.167 HD
ATOM     58  C   UNL A   1      37.495  32.848  29.520  1.00  0.00     0.034 A 
ATOM     59  C   UNL A   1      43.986  29.582  30.154  1.00  0.00     0.034 A 
ATOM     60  C   UNL A   1      38.689  33.306  30.262  1.00  0.00     0.049 A 
ATOM     61  C   UNL A   1      43.952  31.087  29.883  1.00  0.00     0.074 A 
ATOM     62  C   UNL A   1      39.113  33.214  31.578  1.00  0.00     0.029 A 
ATOM     63  N   UNL A   1      39.817  33.643  29.528  1.00  0.00    -0.354 N 
ATOM     64  N   UNL A   1      42.984  31.895  30.227  1.00  0.00    -0.248 NA
ATOM     65  C   UNL A   1      44.998  31.782  29.137  1.00  0.00     0.031 C 
ATOM     66  C   UNL A   1      40.520  33.477  31.610  1.00  0.00     0.029 A 
ATOM     67  C   UNL A   1      40.943  33.768  30.325  1.00  0.00     0.049 A 
ATOM     68  H   UNL A   1      39.818  33.776  28.553  1.00  0.00     0.167 HD
ATOM     69  C   UNL A   1      43.160  33.124  29.640  1.00  0.00     0.074 A 
ATOM     70  C   UNL A   1      44.459  33.004  28.989  1.00  0.00     0.031 C 
ATOM     71  C   UNL A   1      42.208  34.116  29.681  1.00  0.00     0.034 A 
BRANCH  58  72
ATOM     72  C   UNL A   1      36.111  33.443  29.718  1.00  0.00     0.023 A 
ATOM     73  C   UNL A   1      35.423  33.824  28.544  1.00  0.00     0.012 A 
ATOM     74  C   UNL A   1      35.448  33.734  30.937  1.00  0.00     0.148 A 
ATOM     75  C   UNL A   1      34.200  34.503  28.568  1.00  0.00     0.002 A 
ATOM     76  C   UNL A   1      34.230  34.421  30.967  1.00  0.00     0.091 A 
ATOM     77  F   UNL A   1      35.965  33.338  32.098  1.00  0.00    -0.205 F 
ATOM     78  C   UNL A   1      33.609  34.815  29.781  1.00  0.00     0.022 A 
BRANCH  76  79
ATOM     79  S   UNL A   1      33.399  34.884  32.502  1.00  0.00     0.127 S 
ATOM     80  O   UNL A   1      33.274  33.593  33.181  1.00  0.00    -0.237 OA
ATOM     81  O   UNL A   1      34.361  35.800  33.114  1.00  0.00    -0.237 OA
ATOM     82  O   UNL A   1      32.127  35.489  32.123  1.00  0.00    -0.744 OA
ENDBRANCH  76  79
ENDBRANCH  58  72
BRANCH  59  83
ATOM     83  C   UNL A   1      44.465  28.533  29.177  1.00  0.00     0.023 A 
ATOM     84  C   UNL A   1      44.813  27.267  29.721  1.00  0.00     0.012 A 
ATOM     85  C   UNL A   1      44.144  28.606  27.811  1.00  0.00     0.148 A 
ATOM     86  C   UNL A   1      44.603  26.094  28.990  1.00  0.00     0.002 A 
ATOM     87  C   UNL A   1      43.986  27.431  27.074  1.00  0.00     0.091 A 
ATOM     88  F   UNL A   1      43.943  29.806  27.253  1.00  0.00    -0.205 F 
ATOM     89  C   UNL A   1      44.142  26.175  27.680  1.00  0.00     0.022 A 
BRANCH  87  90
ATOM     90  S   UNL A   1      43.490  27.497  25.347  1.00  0.00     0.127 S 
ATOM     91  O   UNL A   1      42.961  26.152  25.144  1.00  0.00    -0.237 OA
ATOM     92  O   UNL A   1      42.481  28.556  25.331  1.00  0.00    -0.237 OA
ATOM     93  O   UNL A   1      44.711  27.828  24.626  1.00  0.00    -0.744 OA
ENDBRANCH  87  90
ENDBRANCH  59  83
BRANCH  71  94
ATOM     94  C   UNL A   1      42.355  35.501  29.044  1.00  0.00     0.023 A 
ATOM     95  C   UNL A   1      41.833  35.787  27.770  1.00  0.00     0.012 A 
ATOM     96  C   UNL A   1      43.099  36.552  29.653  1.00  0.00     0.148 A 
ATOM     97  C   UNL A   1      41.904  37.067  27.205  1.00  0.00     0.002 A 
ATOM     98  C   UNL A   1      43.197  37.816  29.081  1.00  0.00     0.091 A 
ATOM     99  F   UNL A   1      43.774  36.338  30.785  1.00  0.00    -0.205 F 
ATOM    100  C   UNL A   1      42.567  38.089  27.869  1.00  0.00     0.022 A 
BRANCH  98 101
ATOM    101  S   UNL A   1      44.162  39.141  29.828  1.00  0.00     0.127 S 
ATOM    102  O   UNL A   1      43.960  40.225  28.867  1.00  0.00    -0.237 OA
ATOM    103  O   UNL A   1      43.479  39.325  31.109  1.00  0.00    -0.237 OA
ATOM    104  O   UNL A   1      45.529  38.650  29.931  1.00  0.00    -0.744 OA
ENDBRANCH  98 101
ENDBRANCH  71  94
ENDBRANCH  45  46
ENDBRANCH  37  40
ENDBRANCH  35  36
ENDBRANCH  34  35
ENDBRANCH  33  34
ENDBRANCH   1  33
TORSDOF 20
ENDMDL
MODEL 3
REMARK VINA RESULT:     -12.5      1.435      2.290
REMARK SMILES Cc1cccc(S(=O)(=O)Nc2cc(C(=O)NCCCCCCNC(=O)c3ccc(-c4c5nc(c(-c6cccc(S(=O)(=O)[O-])c6F)c6ccc([nH]6)c(-c6cccc(S(=O)(=O)[O-])c6F)c6nc(c(-c7cccc(S(=O)(=O)[O-])c7F)c7ccc4[nH]7)C=C6)C=C5)cc3)cnc2N2CCC[C@H](C)C2)c1
REMARK SMILES IDX 19 1 18 2 17 3 16 4 14 5 15 6 13 8 11 9 12 10 91 11 90 12
REMARK SMILES IDX 89 13 10 14 7 16 8 17 9 18 6 19 1 20 2 21 3 22 99 23 4 24
REMARK SMILES IDX 5 25 92 26 93 27 98 28 94 29 96 30 95 31 97 32 20 33 21 34
REMARK SMILES IDX 22 35 23 36 24 37 25 39 26 40 27 41 88 42 28 43 87 44 29 45
REMARK SMILES IDX 30 46 31 47 81 48 32 49 86 50 80 51 82 52 33 53 85 54 79 55
REMARK SMILES IDX 78 56 34 58 66 59 46 60 65 61 47 62 50 63 64 64 83 65 48 66
REMARK SMILES IDX 49 67 63 69 84 70 51 71 35 72 36 73 44 74 37 75 39 76 45 77
REMARK SMILES IDX 38 78 40 79 41 80 42 81 43 82 67 83 68 84 76 85 69 86 71 87
REMARK SMILES IDX 77 88 70 89 72 90 73 91 74 92 75 93 52 94 53 95 61 96 54 97
REMARK SMILES IDX 56 98 62 99 55 100 57 101 58 102 59 103 60 104
REMARK H PARENT 16 7 10 15 23 38 82 57 50 68
REMARK Flexibility Score: inf
ROOT
ATOM      1  C   UNL A   1      35.594  22.745  24.372  1.00  0.00     0.002 C 
ENDROOT
BRANCH   1   2
ATOM      2  C   UNL A   1      35.377  21.262  24.679  1.00  0.00     0.021 C 
BRANCH   2   3
ATOM      3  C   UNL A   1      33.965  20.978  25.180  1.00  0.00     0.116 C 
BRANCH   3   4
ATOM      4  N   UNL A   1      33.146  20.407  24.126  1.00  0.00    -0.352 N 
ATOM      5  C   UNL A   1      32.390  20.967  23.129  1.00  0.00     0.252 C 
ATOM      6  O   UNL A   1      31.843  20.221  22.319  1.00  0.00    -0.269 OA
ATOM      7  H   UNL A   1      33.131  19.423  24.127  1.00  0.00     0.163 HD
BRANCH   5   8
ATOM      8  C   UNL A   1      32.297  22.428  22.930  1.00  0.00     0.060 A 
ATOM      9  C   UNL A   1      31.876  24.651  23.698  1.00  0.00     0.092 A 
ATOM     10  C   UNL A   1      31.622  23.290  23.775  1.00  0.00     0.046 A 
ATOM     11  C   UNL A   1      32.570  25.169  22.585  1.00  0.00     0.153 A 
ATOM     12  N   UNL A   1      33.119  24.340  21.670  1.00  0.00    -0.236 NA
ATOM     13  C   UNL A   1      33.010  23.000  21.883  1.00  0.00     0.127 A 
BRANCH   9  14
ATOM     14  N   UNL A   1      31.396  25.468  24.768  1.00  0.00    -0.276 N 
ATOM     15  H   UNL A   1      30.491  25.851  24.705  1.00  0.00     0.180 HD
BRANCH  14  16
ATOM     16  S   UNL A   1      32.334  25.801  26.147  1.00  0.00     0.262 S 
ATOM     17  O   UNL A   1      33.616  25.171  25.867  1.00  0.00    -0.201 OA
ATOM     18  O   UNL A   1      31.560  25.372  27.287  1.00  0.00    -0.201 OA
BRANCH  16  19
ATOM     19  C   UNL A   1      32.701  27.528  26.427  1.00  0.00     0.088 A 
ATOM     20  C   UNL A   1      31.234  31.029  26.164  1.00  0.00     0.044 C 
ATOM     21  C   UNL A   1      32.182  29.900  26.458  1.00  0.00    -0.050 A 
ATOM     22  C   UNL A   1      33.526  30.193  26.719  1.00  0.00     0.003 A 
ATOM     23  C   UNL A   1      31.761  28.559  26.397  1.00  0.00     0.025 A 
ATOM     24  C   UNL A   1      34.450  29.164  26.871  1.00  0.00     0.002 A 
ATOM     25  C   UNL A   1      34.045  27.840  26.698  1.00  0.00     0.022 A 
ENDBRANCH  16  19
ENDBRANCH  14  16
ENDBRANCH   9  14
BRANCH  11  26
ATOM     26  N   UNL A   1      32.530  26.515  22.307  1.00  0.00    -0.355 N 
ATOM     27  C   UNL A   1      33.678  27.396  22.402  1.00  0.00     0.118 C 
ATOM     28  C   UNL A   1      31.394  27.009  21.543  1.00  0.00     0.121 C 
ATOM     29  C   UNL A   1      33.237  28.670  23.131  1.00  0.00     0.022 C 
ATOM     30  C   UNL A   1      30.836  28.242  22.272  1.00  0.00     0.005 C 
ATOM     31  C   UNL A   1      31.957  29.272  22.532  1.00  0.00     0.007 C 
ATOM     32  C   UNL A   1      30.113  27.834  23.562  1.00  0.00     0.009 C 
ENDBRANCH  11  26
ENDBRANCH   5   8
ENDBRANCH   3   4
ENDBRANCH   2   3
ENDBRANCH   1   2
BRANCH   1  33
ATOM     33  C   UNL A   1      36.819  23.376  25.058  1.00  0.00     0.002 C 
BRANCH  33  34
ATOM     34  C   UNL A   1      37.470  22.521  26.147  1.00  0.00     0.021 C 
BRANCH  34  35
ATOM     35  C   UNL A   1      38.829  21.985  25.747  1.00  0.00     0.116 C 
BRANCH  35  36
ATOM     36  N   UNL A   1      39.766  22.031  26.849  1.00  0.00    -0.352 N 
ATOM     37  C   UNL A   1      40.405  23.106  27.432  1.00  0.00     0.251 C 
ATOM     38  H   UNL A   1      39.983  21.156  27.246  1.00  0.00     0.163 HD
ATOM     39  O   UNL A   1      41.386  22.877  28.132  1.00  0.00    -0.269 OA
BRANCH  37  40
ATOM     40  C   UNL A   1      39.781  24.456  27.394  1.00  0.00     0.039 A 
ATOM     41  C   UNL A   1      40.393  25.365  26.521  1.00  0.00     0.014 A 
ATOM     42  C   UNL A   1      39.013  24.921  28.454  1.00  0.00     0.014 A 
ATOM     43  C   UNL A   1      40.552  26.681  26.922  1.00  0.00     0.010 A 
ATOM     44  C   UNL A   1      39.272  26.181  28.920  1.00  0.00     0.010 A 
ATOM     45  C   UNL A   1      40.121  27.016  28.193  1.00  0.00    -0.014 A 
BRANCH  45  46
ATOM     46  C   UNL A   1      40.402  28.263  28.857  1.00  0.00     0.031 A 
ATOM     47  C   UNL A   1      39.387  29.308  28.758  1.00  0.00     0.074 A 
ATOM     48  C   UNL A   1      41.405  28.270  29.758  1.00  0.00     0.049 A 
ATOM     49  N   UNL A   1      39.528  30.479  29.250  1.00  0.00    -0.248 NA
ATOM     50  C   UNL A   1      38.116  29.107  28.070  1.00  0.00     0.031 C 
ATOM     51  C   UNL A   1      41.597  29.137  30.913  1.00  0.00     0.029 A 
ATOM     52  N   UNL A   1      42.581  27.531  29.700  1.00  0.00    -0.354 N 
ATOM     53  C   UNL A   1      38.294  31.087  29.212  1.00  0.00     0.074 A 
ATOM     54  C   UNL A   1      37.486  30.247  28.368  1.00  0.00     0.031 C 
ATOM     55  C   UNL A   1      42.879  29.056  31.312  1.00  0.00     0.029 A 
ATOM     56  C   UNL A   1      43.592  28.308  30.291  1.00  0.00     0.049 A 
ATOM     57  H   UNL A   1      42.686  26.630  29.316  1.00  0.00     0.167 HD
ATOM     58  C   UNL A   1      38.103  32.149  30.041  1.00  0.00     0.034 A 
ATOM     59  C   UNL A   1      44.574  28.830  29.485  1.00  0.00     0.034 A 
ATOM     60  C   UNL A   1      39.390  32.527  30.664  1.00  0.00     0.049 A 
ATOM     61  C   UNL A   1      44.527  30.354  29.375  1.00  0.00     0.074 A 
ATOM     62  C   UNL A   1      39.980  32.300  31.896  1.00  0.00     0.029 A 
ATOM     63  N   UNL A   1      40.418  32.937  29.826  1.00  0.00    -0.354 N 
ATOM     64  N   UNL A   1      43.623  31.124  29.924  1.00  0.00    -0.248 NA
ATOM     65  C   UNL A   1      45.477  31.122  28.574  1.00  0.00     0.031 C 
ATOM     66  C   UNL A   1      41.382  32.558  31.771  1.00  0.00     0.029 A 
ATOM     67  C   UNL A   1      41.639  32.978  30.478  1.00  0.00     0.049 A 
ATOM     68  H   UNL A   1      40.294  33.170  28.879  1.00  0.00     0.167 HD
ATOM     69  C   UNL A   1      43.739  32.407  29.447  1.00  0.00     0.074 A 
ATOM     70  C   UNL A   1      44.940  32.353  28.623  1.00  0.00     0.031 C 
ATOM     71  C   UNL A   1      42.815  33.390  29.713  1.00  0.00     0.034 A 
BRANCH  58  72
ATOM     72  C   UNL A   1      36.765  32.722  30.478  1.00  0.00     0.023 A 
ATOM     73  C   UNL A   1      36.310  32.332  31.758  1.00  0.00     0.012 A 
ATOM     74  C   UNL A   1      35.879  33.543  29.737  1.00  0.00     0.148 A 
ATOM     75  C   UNL A   1      35.043  32.670  32.246  1.00  0.00     0.002 A 
ATOM     76  C   UNL A   1      34.607  33.875  30.217  1.00  0.00     0.091 A 
ATOM     77  F   UNL A   1      36.246  34.040  28.558  1.00  0.00    -0.205 F 
ATOM     78  C   UNL A   1      34.184  33.430  31.470  1.00  0.00     0.022 A 
BRANCH  76  79
ATOM     79  S   UNL A   1      33.419  34.846  29.265  1.00  0.00     0.127 S 
ATOM     80  O   UNL A   1      32.868  33.843  28.352  1.00  0.00    -0.237 OA
ATOM     81  O   UNL A   1      32.488  35.299  30.298  1.00  0.00    -0.237 OA
ATOM     82  O   UNL A   1      34.175  35.906  28.609  1.00  0.00    -0.744 OA
ENDBRANCH  76  79
ENDBRANCH  58  72
BRANCH  59  83
ATOM     83  C   UNL A   1      44.907  27.886  28.353  1.00  0.00     0.023 A 
ATOM     84  C   UNL A   1      44.267  28.133  27.107  1.00  0.00     0.012 A 
ATOM     85  C   UNL A   1      46.092  27.132  28.355  1.00  0.00     0.148 A 
ATOM     86  C   UNL A   1      44.920  27.855  25.903  1.00  0.00     0.002 A 
ATOM     87  C   UNL A   1      46.711  26.813  27.146  1.00  0.00     0.091 A 
ATOM     88  F   UNL A   1      46.636  26.777  29.526  1.00  0.00    -0.205 F 
ATOM     89  C   UNL A   1      46.166  27.238  25.924  1.00  0.00     0.022 A 
BRANCH  87  90
ATOM     90  S   UNL A   1      48.275  25.925  27.127  1.00  0.00     0.127 S 
ATOM     91  O   UNL A   1      49.094  26.758  28.002  1.00  0.00    -0.237 OA
ATOM     92  O   UNL A   1      47.923  24.620  27.684  1.00  0.00    -0.237 OA
ATOM     93  O   UNL A   1      48.660  25.889  25.723  1.00  0.00    -0.744 OA
ENDBRANCH  87  90
ENDBRANCH  59  83
BRANCH  71  94
ATOM     94  C   UNL A   1      42.898  34.833  29.207  1.00  0.00     0.023 A 
ATOM     95  C   UNL A   1      42.306  35.225  27.993  1.00  0.00     0.012 A 
ATOM     96  C   UNL A   1      43.647  35.842  29.879  1.00  0.00     0.148 A 
ATOM     97  C   UNL A   1      42.319  36.555  27.552  1.00  0.00     0.002 A 
ATOM     98  C   UNL A   1      43.687  37.156  29.427  1.00  0.00     0.091 A 
ATOM     99  F   UNL A   1      44.382  35.539  30.951  1.00  0.00    -0.205 F 
ATOM    100  C   UNL A   1      42.991  37.526  28.279  1.00  0.00     0.022 A 
BRANCH  98 101
ATOM    101  S   UNL A   1      44.657  38.430  30.253  1.00  0.00     0.127 S 
ATOM    102  O   UNL A   1      44.085  38.402  31.599  1.00  0.00    -0.237 OA
ATOM    103  O   UNL A   1      46.012  37.888  30.153  1.00  0.00    -0.237 OA
ATOM    104  O   UNL A   1      44.437  39.664  29.511  1.00  0.00    -0.744 OA
ENDBRANCH  98 101
ENDBRANCH  71  94
ENDBRANCH  45  46
ENDBRANCH  37  40
ENDBRANCH  35  36
ENDBRANCH  34  35
ENDBRANCH  33  34
ENDBRANCH   1  33
TORSDOF 20
ENDMDL
