MODEL 1
REMARK VINA RESULT:     -12.9      0.000      0.000
REMARK SMILES Cc1ccc(C)c(N2C(=O)S[C@H](CC(=O)Nc3ccc(C(=O)NCCCCCCNC(=O)c4ccc(-c5c6nc(c(-c7cccc(S(=O)(=O)[O-])c7F)c7ccc([nH]7)c(-c7cccc(S(=O)(=O)[O-])c7F)c7nc(c(-c8cccc(S(=O)(=O)[O-])c8F)c8ccc5[nH]8)C=C7)C=C6)cc4)c(O)c3)C2=O)c1
REMARK SMILES IDX 26 1 25 2 24 3 23 4 21 5 22 6 20 8 17 9 18 10 98 11 19 12
REMARK SMILES IDX 96 13 16 14 14 15 15 16 13 18 12 19 8 20 9 21 99 22 10 23
REMARK SMILES IDX 11 24 100 25 7 26 1 27 2 28 3 29 101 30 4 31 5 32 6 33 97 34
REMARK SMILES IDX 27 36 28 37 29 38 30 39 31 40 32 42 33 43 34 44 95 45 35 46
REMARK SMILES IDX 94 47 36 48 37 49 38 50 88 51 39 52 93 53 87 54 89 55 40 56
REMARK SMILES IDX 92 57 86 58 85 59 41 61 73 62 53 63 72 64 54 65 57 66 71 67
REMARK SMILES IDX 90 68 55 69 56 70 70 72 91 73 58 74 42 75 43 76 51 77 44 78
REMARK SMILES IDX 46 79 52 80 45 81 47 82 48 83 49 84 50 85 74 86 75 87 83 88
REMARK SMILES IDX 76 89 78 90 84 91 77 92 79 93 80 94 81 95 82 96 59 97 60 98
REMARK SMILES IDX 68 99 61 100 63 101 69 102 62 103 64 104 65 105 66 106
REMARK SMILES IDX 67 107
REMARK H PARENT 23 7 16 17 97 35 30 41 89 60 57 71
REMARK Flexibility Score: inf
ROOT
ATOM      1  C   UNL A   1      33.821  28.770  26.251  1.00  0.00     0.002 C 
ENDROOT
BRANCH   1   2
ATOM      2  C   UNL A   1      32.917  28.929  25.021  1.00  0.00     0.021 C 
BRANCH   2   3
ATOM      3  C   UNL A   1      31.410  28.899  25.223  1.00  0.00     0.116 C 
BRANCH   3   4
ATOM      4  N   UNL A   1      30.619  29.139  24.036  1.00  0.00    -0.352 N 
ATOM      5  C   UNL A   1      30.312  28.304  22.989  1.00  0.00     0.255 C 
ATOM      6  O   UNL A   1      29.507  28.729  22.156  1.00  0.00    -0.269 OA
ATOM      7  H   UNL A   1      30.240  30.045  23.967  1.00  0.00     0.163 HD
BRANCH   5   8
ATOM      8  C   UNL A   1      30.955  26.973  22.771  1.00  0.00     0.081 A 
ATOM      9  C   UNL A   1      32.667  24.746  22.537  1.00  0.00     0.044 A 
ATOM     10  C   UNL A   1      32.777  25.830  21.677  1.00  0.00     0.027 A 
ATOM     11  C   UNL A   1      31.534  24.659  23.328  1.00  0.00     0.073 A 
ATOM     12  C   UNL A   1      31.991  26.965  21.836  1.00  0.00     0.020 A 
ATOM     13  C   UNL A   1      30.646  25.747  23.375  1.00  0.00     0.130 A 
BRANCH   9  14
ATOM     14  N   UNL A   1      33.645  23.738  22.522  1.00  0.00    -0.326 N 
ATOM     15  C   UNL A   1      34.747  23.660  23.354  1.00  0.00     0.226 C 
ATOM     16  O   UNL A   1      35.788  23.121  22.970  1.00  0.00    -0.275 OA
ATOM     17  H   UNL A   1      33.536  23.019  21.858  1.00  0.00     0.169 HD
BRANCH  15  18
ATOM     18  C   UNL A   1      34.570  24.094  24.806  1.00  0.00     0.125 C 
BRANCH  18  19
ATOM     19  C   UNL A   1      34.574  22.984  25.848  1.00  0.00     0.156 C 
ATOM     20  N   UNL A   1      33.251  21.203  24.939  1.00  0.00    -0.240 N 
ATOM     21  C   UNL A   1      32.291  21.827  25.691  1.00  0.00     0.293 C 
ATOM     22  C   UNL A   1      34.557  21.616  25.171  1.00  0.00     0.248 C 
ATOM     23  O   UNL A   1      31.078  21.634  25.713  1.00  0.00    -0.261 OA
ATOM     24  S   UNL A   1      33.056  22.906  26.854  1.00  0.00    -0.050 SA
ATOM     25  O   UNL A   1      35.574  20.950  24.998  1.00  0.00    -0.273 OA
BRANCH  20  26
ATOM     26  C   UNL A   1      32.964  19.920  24.412  1.00  0.00     0.056 A 
ATOM     27  C   UNL A   1      33.519  16.258  25.364  1.00  0.00     0.044 C 
ATOM     28  C   UNL A   1      33.131  17.497  24.609  1.00  0.00    -0.049 A 
ATOM     29  C   UNL A   1      32.577  17.368  23.331  1.00  0.00     0.004 A 
ATOM     30  C   UNL A   1      33.309  18.778  25.155  1.00  0.00     0.030 A 
ATOM     31  C   UNL A   1      32.230  18.498  22.593  1.00  0.00     0.006 A 
ATOM     32  C   UNL A   1      32.432  19.785  23.113  1.00  0.00    -0.027 A 
ATOM     33  C   UNL A   1      32.061  20.950  22.238  1.00  0.00     0.046 C 
ENDBRANCH  20  26
ENDBRANCH  18  19
ENDBRANCH  15  18
ENDBRANCH   9  14
BRANCH  13  34
ATOM     34  O   UNL A   1      29.421  25.474  23.921  1.00  0.00    -0.507 OA
ATOM     35  H   UNL A   1      29.240  25.713  24.808  1.00  0.00     0.293 HD
ENDBRANCH  13  34
ENDBRANCH   5   8
ENDBRANCH   3   4
ENDBRANCH   2   3
ENDBRANCH   1   2
BRANCH   1  36
ATOM     36  C   UNL A   1      34.452  29.989  26.942  1.00  0.00     0.002 C 
BRANCH  36  37
ATOM     37  C   UNL A   1      33.602  31.044  27.660  1.00  0.00     0.021 C 
BRANCH  37  38
ATOM     38  C   UNL A   1      34.227  32.401  27.943  1.00  0.00     0.116 C 
BRANCH  38  39
ATOM     39  N   UNL A   1      34.425  32.698  29.370  1.00  0.00    -0.352 N 
ATOM     40  C   UNL A   1      35.210  32.113  30.354  1.00  0.00     0.251 C 
ATOM     41  H   UNL A   1      33.894  33.463  29.691  1.00  0.00     0.163 HD
ATOM     42  O   UNL A   1      34.983  32.365  31.535  1.00  0.00    -0.269 OA
BRANCH  40  43
ATOM     43  C   UNL A   1      36.330  31.209  30.011  1.00  0.00     0.039 A 
ATOM     44  C   UNL A   1      36.278  29.814  30.072  1.00  0.00     0.014 A 
ATOM     45  C   UNL A   1      37.559  31.786  29.798  1.00  0.00     0.014 A 
ATOM     46  C   UNL A   1      37.486  29.099  30.045  1.00  0.00     0.010 A 
ATOM     47  C   UNL A   1      38.589  31.072  29.296  1.00  0.00     0.010 A 
ATOM     48  C   UNL A   1      38.665  29.781  29.743  1.00  0.00    -0.014 A 
BRANCH  48  49
ATOM     49  C   UNL A   1      40.002  29.229  29.716  1.00  0.00     0.031 A 
ATOM     50  C   UNL A   1      40.569  29.019  31.058  1.00  0.00     0.074 A 
ATOM     51  C   UNL A   1      40.509  28.596  28.634  1.00  0.00     0.049 A 
ATOM     52  N   UNL A   1      41.369  29.808  31.694  1.00  0.00    -0.248 NA
ATOM     53  C   UNL A   1      39.994  27.946  31.887  1.00  0.00     0.031 C 
ATOM     54  C   UNL A   1      39.851  28.298  27.353  1.00  0.00     0.029 A 
ATOM     55  N   UNL A   1      41.703  27.955  28.516  1.00  0.00    -0.354 N 
ATOM     56  C   UNL A   1      41.600  29.153  32.896  1.00  0.00     0.074 A 
ATOM     57  C   UNL A   1      40.480  28.277  33.083  1.00  0.00     0.031 C 
ATOM     58  C   UNL A   1      40.577  27.373  26.681  1.00  0.00     0.029 A 
ATOM     59  C   UNL A   1      41.802  27.110  27.416  1.00  0.00     0.049 A 
ATOM     60  H   UNL A   1      42.439  28.079  29.158  1.00  0.00     0.167 HD
ATOM     61  C   UNL A   1      42.851  29.084  33.431  1.00  0.00     0.034 A 
ATOM     62  C   UNL A   1      42.800  26.222  27.179  1.00  0.00     0.034 A 
ATOM     63  C   UNL A   1      43.759  29.966  32.726  1.00  0.00     0.049 A 
ATOM     64  C   UNL A   1      43.952  26.625  28.023  1.00  0.00     0.074 A 
ATOM     65  C   UNL A   1      43.777  31.309  32.403  1.00  0.00     0.029 A 
ATOM     66  N   UNL A   1      44.660  29.361  31.882  1.00  0.00    -0.354 N 
ATOM     67  N   UNL A   1      44.629  27.725  27.849  1.00  0.00    -0.248 NA
ATOM     68  C   UNL A   1      44.112  25.994  29.323  1.00  0.00     0.031 C 
ATOM     69  C   UNL A   1      44.361  31.373  31.103  1.00  0.00     0.029 A 
ATOM     70  C   UNL A   1      44.722  30.080  30.720  1.00  0.00     0.049 A 
ATOM     71  H   UNL A   1      45.175  28.545  32.080  1.00  0.00     0.167 HD
ATOM     72  C   UNL A   1      44.916  28.161  29.136  1.00  0.00     0.074 A 
ATOM     73  C   UNL A   1      44.706  26.992  29.984  1.00  0.00     0.031 C 
ATOM     74  C   UNL A   1      44.995  29.495  29.421  1.00  0.00     0.034 A 
BRANCH  61  75
ATOM     75  C   UNL A   1      43.385  27.945  34.285  1.00  0.00     0.023 A 
ATOM     76  C   UNL A   1      43.949  28.313  35.528  1.00  0.00     0.012 A 
ATOM     77  C   UNL A   1      43.605  26.612  33.865  1.00  0.00     0.148 A 
ATOM     78  C   UNL A   1      44.759  27.440  36.260  1.00  0.00     0.002 A 
ATOM     79  C   UNL A   1      44.349  25.722  34.632  1.00  0.00     0.091 A 
ATOM     80  F   UNL A   1      43.219  26.199  32.659  1.00  0.00    -0.205 F 
ATOM     81  C   UNL A   1      44.960  26.141  35.813  1.00  0.00     0.022 A 
BRANCH  79  82
ATOM     82  S   UNL A   1      44.602  24.019  34.109  1.00  0.00     0.127 S 
ATOM     83  O   UNL A   1      43.246  23.488  34.191  1.00  0.00    -0.237 OA
ATOM     84  O   UNL A   1      45.121  24.197  32.753  1.00  0.00    -0.237 OA
ATOM     85  O   UNL A   1      45.568  23.457  35.047  1.00  0.00    -0.744 OA
ENDBRANCH  79  82
ENDBRANCH  61  75
BRANCH  62  86
ATOM     86  C   UNL A   1      42.798  24.935  26.443  1.00  0.00     0.023 A 
ATOM     87  C   UNL A   1      43.905  24.591  25.639  1.00  0.00     0.012 A 
ATOM     88  C   UNL A   1      41.852  23.928  26.735  1.00  0.00     0.148 A 
ATOM     89  C   UNL A   1      44.090  23.280  25.184  1.00  0.00     0.002 A 
ATOM     90  C   UNL A   1      42.031  22.628  26.268  1.00  0.00     0.091 A 
ATOM     91  F   UNL A   1      40.822  24.225  27.538  1.00  0.00    -0.205 F 
ATOM     92  C   UNL A   1      43.160  22.296  25.508  1.00  0.00     0.022 A 
BRANCH  90  93
ATOM     93  S   UNL A   1      40.857  21.315  26.620  1.00  0.00     0.127 S 
ATOM     94  O   UNL A   1      41.528  20.151  26.044  1.00  0.00    -0.237 OA
ATOM     95  O   UNL A   1      40.796  21.326  28.079  1.00  0.00    -0.237 OA
ATOM     96  O   UNL A   1      39.621  21.678  25.940  1.00  0.00    -0.744 OA
ENDBRANCH  90  93
ENDBRANCH  62  86
BRANCH  74  97
ATOM     97  C   UNL A   1      45.105  30.460  28.265  1.00  0.00     0.023 A 
ATOM     98  C   UNL A   1      43.981  30.903  27.538  1.00  0.00     0.012 A 
ATOM     99  C   UNL A   1      46.353  31.058  28.011  1.00  0.00     0.148 A 
ATOM    100  C   UNL A   1      44.101  31.896  26.562  1.00  0.00     0.002 A 
ATOM    101  C   UNL A   1      46.460  32.079  27.075  1.00  0.00     0.091 A 
ATOM    102  F   UNL A   1      47.416  30.629  28.710  1.00  0.00    -0.205 F 
ATOM    103  C   UNL A   1      45.339  32.495  26.341  1.00  0.00     0.022 A 
BRANCH 101 104
ATOM    104  S   UNL A   1      47.996  32.977  26.839  1.00  0.00     0.127 S 
ATOM    105  O   UNL A   1      48.918  31.910  26.457  1.00  0.00    -0.237 OA
ATOM    106  O   UNL A   1      47.655  33.907  25.761  1.00  0.00    -0.237 OA
ATOM    107  O   UNL A   1      48.278  33.626  28.114  1.00  0.00    -0.744 OA
ENDBRANCH 101 104
ENDBRANCH  74  97
ENDBRANCH  48  49
ENDBRANCH  40  43
ENDBRANCH  38  39
ENDBRANCH  37  38
ENDBRANCH  36  37
ENDBRANCH   1  36
TORSDOF 21
ENDMDL
MODEL 2
REMARK VINA RESULT:     -12.5      1.455      2.409
REMARK SMILES Cc1ccc(C)c(N2C(=O)S[C@H](CC(=O)Nc3ccc(C(=O)NCCCCCCNC(=O)c4ccc(-c5c6nc(c(-c7cccc(S(=O)(=O)[O-])c7F)c7ccc([nH]7)c(-c7cccc(S(=O)(=O)[O-])c7F)c7nc(c(-c8cccc(S(=O)(=O)[O-])c8F)c8ccc5[nH]8)C=C7)C=C6)cc4)c(O)c3)C2=O)c1
REMARK SMILES IDX 26 1 25 2 24 3 23 4 21 5 22 6 20 8 17 9 18 10 98 11 19 12
REMARK SMILES IDX 96 13 16 14 14 15 15 16 13 18 12 19 8 20 9 21 99 22 10 23
REMARK SMILES IDX 11 24 100 25 7 26 1 27 2 28 3 29 101 30 4 31 5 32 6 33 97 34
REMARK SMILES IDX 27 36 28 37 29 38 30 39 31 40 32 42 33 43 34 44 95 45 35 46
REMARK SMILES IDX 94 47 36 48 37 49 38 50 88 51 39 52 93 53 87 54 89 55 40 56
REMARK SMILES IDX 92 57 86 58 85 59 41 61 73 62 53 63 72 64 54 65 57 66 71 67
REMARK SMILES IDX 90 68 55 69 56 70 70 72 91 73 58 74 42 75 43 76 51 77 44 78
REMARK SMILES IDX 46 79 52 80 45 81 47 82 48 83 49 84 50 85 74 86 75 87 83 88
REMARK SMILES IDX 76 89 78 90 84 91 77 92 79 93 80 94 81 95 82 96 59 97 60 98
REMARK SMILES IDX 68 99 61 100 63 101 69 102 62 103 64 104 65 105 66 106
REMARK SMILES IDX 67 107
REMARK H PARENT 23 7 16 17 97 35 30 41 89 60 57 71
REMARK Flexibility Score: inf
ROOT
ATOM      1  C   UNL A   1      36.610  31.466  28.194  1.00  0.00     0.002 C 
ENDROOT
BRANCH   1   2
ATOM      2  C   UNL A   1      35.971  30.308  27.417  1.00  0.00     0.021 C 
BRANCH   2   3
ATOM      3  C   UNL A   1      34.604  29.808  27.858  1.00  0.00     0.116 C 
BRANCH   3   4
ATOM      4  N   UNL A   1      33.493  30.683  27.553  1.00  0.00    -0.352 N 
ATOM      5  C   UNL A   1      32.321  30.430  26.883  1.00  0.00     0.255 C 
ATOM      6  O   UNL A   1      31.480  31.334  26.871  1.00  0.00    -0.269 OA
ATOM      7  H   UNL A   1      33.593  31.606  27.877  1.00  0.00     0.163 HD
BRANCH   5   8
ATOM      8  C   UNL A   1      32.055  29.176  26.116  1.00  0.00     0.081 A 
ATOM      9  C   UNL A   1      30.983  26.904  24.837  1.00  0.00     0.044 A 
ATOM     10  C   UNL A   1      31.036  26.991  26.221  1.00  0.00     0.027 A 
ATOM     11  C   UNL A   1      31.710  27.826  24.101  1.00  0.00     0.073 A 
ATOM     12  C   UNL A   1      31.488  28.139  26.859  1.00  0.00     0.020 A 
ATOM     13  C   UNL A   1      32.307  28.912  24.763  1.00  0.00     0.130 A 
BRANCH   9  14
ATOM     14  N   UNL A   1      30.279  25.853  24.226  1.00  0.00    -0.326 N 
ATOM     15  C   UNL A   1      30.731  24.557  24.062  1.00  0.00     0.226 C 
ATOM     16  O   UNL A   1      30.352  23.875  23.107  1.00  0.00    -0.275 OA
ATOM     17  H   UNL A   1      29.379  26.058  23.884  1.00  0.00     0.169 HD
BRANCH  15  18
ATOM     18  C   UNL A   1      31.560  23.948  25.190  1.00  0.00     0.125 C 
BRANCH  18  19
ATOM     19  C   UNL A   1      33.048  23.775  24.916  1.00  0.00     0.156 C 
ATOM     20  N   UNL A   1      33.547  21.470  25.348  1.00  0.00    -0.240 N 
ATOM     21  C   UNL A   1      33.891  22.000  26.563  1.00  0.00     0.293 C 
ATOM     22  C   UNL A   1      33.326  22.393  24.332  1.00  0.00     0.248 C 
ATOM     23  O   UNL A   1      34.172  21.420  27.609  1.00  0.00    -0.261 OA
ATOM     24  S   UNL A   1      34.079  23.745  26.418  1.00  0.00    -0.050 SA
ATOM     25  O   UNL A   1      33.460  22.196  23.127  1.00  0.00    -0.273 OA
BRANCH  20  26
ATOM     26  C   UNL A   1      33.928  20.136  25.064  1.00  0.00     0.056 A 
ATOM     27  C   UNL A   1      32.333  16.660  25.042  1.00  0.00     0.044 C 
ATOM     28  C   UNL A   1      33.335  17.775  24.951  1.00  0.00    -0.049 A 
ATOM     29  C   UNL A   1      34.673  17.465  24.684  1.00  0.00     0.004 A 
ATOM     30  C   UNL A   1      32.962  19.117  25.125  1.00  0.00     0.030 A 
ATOM     31  C   UNL A   1      35.633  18.473  24.618  1.00  0.00     0.006 A 
ATOM     32  C   UNL A   1      35.280  19.815  24.823  1.00  0.00    -0.027 A 
ATOM     33  C   UNL A   1      36.382  20.836  24.768  1.00  0.00     0.046 C 
ENDBRANCH  20  26
ENDBRANCH  18  19
ENDBRANCH  15  18
ENDBRANCH   9  14
BRANCH  13  34
ATOM     34  O   UNL A   1      33.244  29.592  24.034  1.00  0.00    -0.507 OA
ATOM     35  H   UNL A   1      33.011  30.385  23.594  1.00  0.00     0.293 HD
ENDBRANCH  13  34
ENDBRANCH   5   8
ENDBRANCH   3   4
ENDBRANCH   2   3
ENDBRANCH   1   2
BRANCH   1  36
ATOM     36  C   UNL A   1      36.096  32.906  28.048  1.00  0.00     0.002 C 
BRANCH  36  37
ATOM     37  C   UNL A   1      35.434  33.652  29.212  1.00  0.00     0.021 C 
BRANCH  37  38
ATOM     38  C   UNL A   1      34.527  32.868  30.148  1.00  0.00     0.116 C 
BRANCH  38  39
ATOM     39  N   UNL A   1      34.923  32.914  31.564  1.00  0.00    -0.352 N 
ATOM     40  C   UNL A   1      35.811  32.160  32.319  1.00  0.00     0.251 C 
ATOM     41  H   UNL A   1      34.467  33.620  32.078  1.00  0.00     0.163 HD
ATOM     42  O   UNL A   1      35.751  32.210  33.546  1.00  0.00    -0.269 OA
BRANCH  40  43
ATOM     43  C   UNL A   1      36.843  31.315  31.680  1.00  0.00     0.039 A 
ATOM     44  C   UNL A   1      36.681  29.965  31.357  1.00  0.00     0.014 A 
ATOM     45  C   UNL A   1      38.106  31.844  31.569  1.00  0.00     0.014 A 
ATOM     46  C   UNL A   1      37.827  29.206  31.068  1.00  0.00     0.010 A 
ATOM     47  C   UNL A   1      39.058  31.231  30.835  1.00  0.00     0.010 A 
ATOM     48  C   UNL A   1      39.046  29.865  30.902  1.00  0.00    -0.014 A 
BRANCH  48  49
ATOM     49  C   UNL A   1      40.333  29.253  30.653  1.00  0.00     0.031 A 
ATOM     50  C   UNL A   1      41.048  28.884  31.885  1.00  0.00     0.074 A 
ATOM     51  C   UNL A   1      40.662  28.706  29.461  1.00  0.00     0.049 A 
ATOM     52  N   UNL A   1      41.968  29.567  32.481  1.00  0.00    -0.248 NA
ATOM     53  C   UNL A   1      40.517  27.764  32.679  1.00  0.00     0.031 C 
ATOM     54  C   UNL A   1      39.833  28.569  28.254  1.00  0.00     0.029 A 
ATOM     55  N   UNL A   1      41.791  28.022  29.130  1.00  0.00    -0.354 N 
ATOM     56  C   UNL A   1      42.307  28.786  33.578  1.00  0.00     0.074 A 
ATOM     57  C   UNL A   1      41.167  27.952  33.827  1.00  0.00     0.031 C 
ATOM     58  C   UNL A   1      40.412  27.679  27.411  1.00  0.00     0.029 A 
ATOM     59  C   UNL A   1      41.700  27.286  27.954  1.00  0.00     0.049 A 
ATOM     60  H   UNL A   1      42.607  28.046  29.680  1.00  0.00     0.167 HD
ATOM     61  C   UNL A   1      43.608  28.604  33.937  1.00  0.00     0.034 A 
ATOM     62  C   UNL A   1      42.605  26.378  27.509  1.00  0.00     0.034 A 
ATOM     63  C   UNL A   1      44.473  29.505  33.204  1.00  0.00     0.049 A 
ATOM     64  C   UNL A   1      43.875  26.639  28.230  1.00  0.00     0.074 A 
ATOM     65  C   UNL A   1      44.533  30.871  33.007  1.00  0.00     0.029 A 
ATOM     66  N   UNL A   1      45.224  28.943  32.199  1.00  0.00    -0.354 N 
ATOM     67  N   UNL A   1      44.592  27.716  28.071  1.00  0.00    -0.248 NA
ATOM     68  C   UNL A   1      44.157  25.876  29.435  1.00  0.00     0.031 C 
ATOM     69  C   UNL A   1      44.954  31.034  31.653  1.00  0.00     0.029 A 
ATOM     70  C   UNL A   1      45.185  29.769  31.110  1.00  0.00     0.049 A 
ATOM     71  H   UNL A   1      45.708  28.087  32.253  1.00  0.00     0.167 HD
ATOM     72  C   UNL A   1      45.063  28.009  29.344  1.00  0.00     0.074 A 
ATOM     73  C   UNL A   1      44.888  26.774  30.102  1.00  0.00     0.031 C 
ATOM     74  C   UNL A   1      45.258  29.303  29.738  1.00  0.00     0.034 A 
BRANCH  61  75
ATOM     75  C   UNL A   1      44.173  27.361  34.607  1.00  0.00     0.023 A 
ATOM     76  C   UNL A   1      45.049  27.586  35.693  1.00  0.00     0.012 A 
ATOM     77  C   UNL A   1      44.120  26.038  34.106  1.00  0.00     0.148 A 
ATOM     78  C   UNL A   1      45.887  26.581  36.189  1.00  0.00     0.002 A 
ATOM     79  C   UNL A   1      44.900  25.024  34.650  1.00  0.00     0.091 A 
ATOM     80  F   UNL A   1      43.418  25.746  33.012  1.00  0.00    -0.205 F 
ATOM     81  C   UNL A   1      45.812  25.297  35.667  1.00  0.00     0.022 A 
BRANCH  79  82
ATOM     82  S   UNL A   1      44.807  23.337  34.030  1.00  0.00     0.127 S 
ATOM     83  O   UNL A   1      45.952  22.723  34.692  1.00  0.00    -0.237 OA
ATOM     84  O   UNL A   1      43.497  22.909  34.522  1.00  0.00    -0.237 OA
ATOM     85  O   UNL A   1      44.889  23.446  32.577  1.00  0.00    -0.744 OA
ENDBRANCH  79  82
ENDBRANCH  61  75
BRANCH  62  86
ATOM     86  C   UNL A   1      42.433  25.171  26.664  1.00  0.00     0.023 A 
ATOM     87  C   UNL A   1      43.325  24.935  25.598  1.00  0.00     0.012 A 
ATOM     88  C   UNL A   1      41.579  24.119  27.061  1.00  0.00     0.148 A 
ATOM     89  C   UNL A   1      43.399  23.681  24.980  1.00  0.00     0.002 A 
ATOM     90  C   UNL A   1      41.645  22.877  26.433  1.00  0.00     0.091 A 
ATOM     91  F   UNL A   1      40.761  24.309  28.104  1.00  0.00    -0.205 F 
ATOM     92  C   UNL A   1      42.568  22.649  25.405  1.00  0.00     0.022 A 
BRANCH  90  93
ATOM     93  S   UNL A   1      40.583  21.509  26.908  1.00  0.00     0.127 S 
ATOM     94  O   UNL A   1      40.881  21.378  28.334  1.00  0.00    -0.237 OA
ATOM     95  O   UNL A   1      39.249  22.020  26.606  1.00  0.00    -0.237 OA
ATOM     96  O   UNL A   1      41.009  20.365  26.112  1.00  0.00    -0.744 OA
ENDBRANCH  90  93
ENDBRANCH  62  86
BRANCH  74  97
ATOM     97  C   UNL A   1      45.282  30.371  28.671  1.00  0.00     0.023 A 
ATOM     98  C   UNL A   1      44.114  31.026  28.228  1.00  0.00     0.012 A 
ATOM     99  C   UNL A   1      46.530  30.836  28.220  1.00  0.00     0.148 A 
ATOM    100  C   UNL A   1      44.187  32.100  27.337  1.00  0.00     0.002 A 
ATOM    101  C   UNL A   1      46.601  31.935  27.373  1.00  0.00     0.091 A 
ATOM    102  F   UNL A   1      47.635  30.204  28.649  1.00  0.00    -0.205 F 
ATOM    103  C   UNL A   1      45.432  32.565  26.921  1.00  0.00     0.022 A 
BRANCH 101 104
ATOM    104  S   UNL A   1      48.177  32.659  26.907  1.00  0.00     0.127 S 
ATOM    105  O   UNL A   1      47.818  33.432  25.721  1.00  0.00    -0.237 OA
ATOM    106  O   UNL A   1      48.515  33.462  28.083  1.00  0.00    -0.237 OA
ATOM    107  O   UNL A   1      49.078  31.536  26.677  1.00  0.00    -0.744 OA
ENDBRANCH 101 104
ENDBRANCH  74  97
ENDBRANCH  48  49
ENDBRANCH  40  43
ENDBRANCH  38  39
ENDBRANCH  37  38
ENDBRANCH  36  37
ENDBRANCH   1  36
TORSDOF 21
ENDMDL
MODEL 3
REMARK VINA RESULT:     -12.3      2.845      9.300
REMARK SMILES Cc1ccc(C)c(N2C(=O)S[C@H](CC(=O)Nc3ccc(C(=O)NCCCCCCNC(=O)c4ccc(-c5c6nc(c(-c7cccc(S(=O)(=O)[O-])c7F)c7ccc([nH]7)c(-c7cccc(S(=O)(=O)[O-])c7F)c7nc(c(-c8cccc(S(=O)(=O)[O-])c8F)c8ccc5[nH]8)C=C7)C=C6)cc4)c(O)c3)C2=O)c1
REMARK SMILES IDX 26 1 25 2 24 3 23 4 21 5 22 6 20 8 17 9 18 10 98 11 19 12
REMARK SMILES IDX 96 13 16 14 14 15 15 16 13 18 12 19 8 20 9 21 99 22 10 23
REMARK SMILES IDX 11 24 100 25 7 26 1 27 2 28 3 29 101 30 4 31 5 32 6 33 97 34
REMARK SMILES IDX 27 36 28 37 29 38 30 39 31 40 32 42 33 43 34 44 95 45 35 46
REMARK SMILES IDX 94 47 36 48 37 49 38 50 88 51 39 52 93 53 87 54 89 55 40 56
REMARK SMILES IDX 92 57 86 58 85 59 41 61 73 62 53 63 72 64 54 65 57 66 71 67
REMARK SMILES IDX 90 68 55 69 56 70 70 72 91 73 58 74 42 75 43 76 51 77 44 78
REMARK SMILES IDX 46 79 52 80 45 81 47 82 48 83 49 84 50 85 74 86 75 87 83 88
REMARK SMILES IDX 76 89 78 90 84 91 77 92 79 93 80 94 81 95 82 96 59 97 60 98
REMARK SMILES IDX 68 99 61 100 63 101 69 102 62 103 64 104 65 105 66 106
REMARK SMILES IDX 67 107
REMARK H PARENT 23 7 16 17 97 35 30 41 89 60 57 71
REMARK Flexibility Score: inf
ROOT
ATOM      1  C   UNL A   1      40.362  21.791  27.362  1.00  0.00     0.002 C 
ENDROOT
BRANCH   1   2
ATOM      2  C   UNL A   1      39.896  22.377  26.024  1.00  0.00     0.021 C 
BRANCH   2   3
ATOM      3  C   UNL A   1      38.444  22.180  25.614  1.00  0.00     0.116 C 
BRANCH   3   4
ATOM      4  N   UNL A   1      38.055  20.814  25.340  1.00  0.00    -0.352 N 
ATOM      5  C   UNL A   1      36.812  20.266  25.143  1.00  0.00     0.255 C 
ATOM      6  O   UNL A   1      36.772  19.081  24.801  1.00  0.00    -0.269 OA
ATOM      7  H   UNL A   1      38.802  20.174  25.287  1.00  0.00     0.163 HD
BRANCH   5   8
ATOM      8  C   UNL A   1      35.532  20.995  25.398  1.00  0.00     0.081 A 
ATOM      9  C   UNL A   1      32.904  21.821  25.994  1.00  0.00     0.044 A 
ATOM     10  C   UNL A   1      33.185  21.090  24.849  1.00  0.00     0.027 A 
ATOM     11  C   UNL A   1      33.969  22.368  26.691  1.00  0.00     0.073 A 
ATOM     12  C   UNL A   1      34.463  20.610  24.589  1.00  0.00     0.020 A 
ATOM     13  C   UNL A   1      35.279  22.009  26.332  1.00  0.00     0.130 A 
BRANCH   9  14
ATOM     14  N   UNL A   1      31.570  22.059  26.365  1.00  0.00    -0.326 N 
ATOM     15  C   UNL A   1      30.983  23.298  26.547  1.00  0.00     0.226 C 
ATOM     16  O   UNL A   1      30.058  23.444  27.349  1.00  0.00    -0.275 OA
ATOM     17  H   UNL A   1      30.999  21.269  26.509  1.00  0.00     0.169 HD
BRANCH  15  18
ATOM     18  C   UNL A   1      31.394  24.421  25.598  1.00  0.00     0.125 C 
BRANCH  18  19
ATOM     19  C   UNL A   1      32.265  25.520  26.192  1.00  0.00     0.156 C 
ATOM     20  N   UNL A   1      31.705  27.532  25.015  1.00  0.00    -0.240 N 
ATOM     21  C   UNL A   1      32.793  27.144  24.280  1.00  0.00     0.293 C 
ATOM     22  C   UNL A   1      31.513  26.847  26.210  1.00  0.00     0.248 C 
ATOM     23  O   UNL A   1      33.210  27.598  23.217  1.00  0.00    -0.261 OA
ATOM     24  S   UNL A   1      33.718  25.943  25.175  1.00  0.00    -0.050 SA
ATOM     25  O   UNL A   1      30.942  27.273  27.210  1.00  0.00    -0.273 OA
BRANCH  20  26
ATOM     26  C   UNL A   1      31.193  28.838  24.822  1.00  0.00     0.056 A 
ATOM     27  C   UNL A   1      31.464  32.279  26.470  1.00  0.00     0.044 C 
ATOM     28  C   UNL A   1      31.050  31.156  25.562  1.00  0.00    -0.049 A 
ATOM     29  C   UNL A   1      30.074  31.392  24.590  1.00  0.00     0.004 A 
ATOM     30  C   UNL A   1      31.621  29.877  25.666  1.00  0.00     0.030 A 
ATOM     31  C   UNL A   1      29.649  30.366  23.748  1.00  0.00     0.006 A 
ATOM     32  C   UNL A   1      30.187  29.076  23.862  1.00  0.00    -0.027 A 
ATOM     33  C   UNL A   1      29.649  28.019  22.938  1.00  0.00     0.046 C 
ENDBRANCH  20  26
ENDBRANCH  18  19
ENDBRANCH  15  18
ENDBRANCH   9  14
BRANCH  13  34
ATOM     34  O   UNL A   1      36.262  22.809  26.848  1.00  0.00    -0.507 OA
ATOM     35  H   UNL A   1      36.041  23.501  27.438  1.00  0.00     0.293 HD
ENDBRANCH  13  34
ENDBRANCH   5   8
ENDBRANCH   3   4
ENDBRANCH   2   3
ENDBRANCH   1   2
BRANCH   1  36
ATOM     36  C   UNL A   1      41.051  20.420  27.437  1.00  0.00     0.002 C 
BRANCH  36  37
ATOM     37  C   UNL A   1      41.742  19.792  26.221  1.00  0.00     0.021 C 
BRANCH  37  38
ATOM     38  C   UNL A   1      43.060  19.064  26.438  1.00  0.00     0.116 C 
BRANCH  38  39
ATOM     39  N   UNL A   1      44.151  19.498  25.552  1.00  0.00    -0.352 N 
ATOM     40  C   UNL A   1      44.507  20.736  25.033  1.00  0.00     0.251 C 
ATOM     41  H   UNL A   1      44.747  18.766  25.272  1.00  0.00     0.163 HD
ATOM     42  O   UNL A   1      45.291  20.788  24.087  1.00  0.00    -0.269 OA
BRANCH  40  43
ATOM     43  C   UNL A   1      43.981  21.993  25.606  1.00  0.00     0.039 A 
ATOM     44  C   UNL A   1      43.270  22.961  24.891  1.00  0.00     0.014 A 
ATOM     45  C   UNL A   1      44.381  22.316  26.880  1.00  0.00     0.014 A 
ATOM     46  C   UNL A   1      43.122  24.236  25.460  1.00  0.00     0.010 A 
ATOM     47  C   UNL A   1      43.808  23.336  27.555  1.00  0.00     0.010 A 
ATOM     48  C   UNL A   1      43.494  24.427  26.791  1.00  0.00    -0.014 A 
BRANCH  48  49
ATOM     49  C   UNL A   1      43.462  25.671  27.529  1.00  0.00     0.031 A 
ATOM     50  C   UNL A   1      44.552  26.589  27.165  1.00  0.00     0.074 A 
ATOM     51  C   UNL A   1      42.352  26.115  28.162  1.00  0.00     0.049 A 
ATOM     52  N   UNL A   1      45.674  26.747  27.786  1.00  0.00    -0.248 NA
ATOM     53  C   UNL A   1      44.505  27.219  25.834  1.00  0.00     0.031 C 
ATOM     54  C   UNL A   1      41.012  25.511  28.197  1.00  0.00     0.029 A 
ATOM     55  N   UNL A   1      42.166  27.301  28.802  1.00  0.00    -0.354 N 
ATOM     56  C   UNL A   1      46.333  27.718  27.044  1.00  0.00     0.074 A 
ATOM     57  C   UNL A   1      45.757  27.662  25.732  1.00  0.00     0.031 C 
ATOM     58  C   UNL A   1      40.120  26.426  28.648  1.00  0.00     0.029 A 
ATOM     59  C   UNL A   1      40.836  27.624  29.048  1.00  0.00     0.049 A 
ATOM     60  H   UNL A   1      42.912  27.884  29.069  1.00  0.00     0.167 HD
ATOM     61  C   UNL A   1      47.000  28.737  27.654  1.00  0.00     0.034 A 
ATOM     62  C   UNL A   1      40.374  28.821  29.494  1.00  0.00     0.034 A 
ATOM     63  C   UNL A   1      47.114  28.494  29.078  1.00  0.00     0.049 A 
ATOM     64  C   UNL A   1      41.528  29.538  30.089  1.00  0.00     0.074 A 
ATOM     65  C   UNL A   1      47.596  27.468  29.867  1.00  0.00     0.029 A 
ATOM     66  N   UNL A   1      46.298  29.246  29.890  1.00  0.00    -0.354 N 
ATOM     67  N   UNL A   1      42.141  29.154  31.174  1.00  0.00    -0.248 NA
ATOM     68  C   UNL A   1      42.265  30.477  29.257  1.00  0.00     0.031 C 
ATOM     69  C   UNL A   1      46.711  27.409  30.985  1.00  0.00     0.029 A 
ATOM     70  C   UNL A   1      45.771  28.432  30.854  1.00  0.00     0.049 A 
ATOM     71  H   UNL A   1      46.122  30.211  29.793  1.00  0.00     0.167 HD
ATOM     72  C   UNL A   1      43.481  29.423  30.927  1.00  0.00     0.074 A 
ATOM     73  C   UNL A   1      43.476  30.361  29.809  1.00  0.00     0.031 C 
ATOM     74  C   UNL A   1      44.462  28.626  31.448  1.00  0.00     0.034 A 
BRANCH  61  75
ATOM     75  C   UNL A   1      47.180  30.138  27.091  1.00  0.00     0.023 A 
ATOM     76  C   UNL A   1      48.480  30.682  27.184  1.00  0.00     0.012 A 
ATOM     77  C   UNL A   1      46.147  31.034  26.724  1.00  0.00     0.148 A 
ATOM     78  C   UNL A   1      48.724  32.049  27.015  1.00  0.00     0.002 A 
ATOM     79  C   UNL A   1      46.406  32.379  26.484  1.00  0.00     0.091 A 
ATOM     80  F   UNL A   1      44.872  30.650  26.724  1.00  0.00    -0.205 F 
ATOM     81  C   UNL A   1      47.685  32.900  26.664  1.00  0.00     0.022 A 
BRANCH  79  82
ATOM     82  S   UNL A   1      45.096  33.510  25.989  1.00  0.00     0.127 S 
ATOM     83  O   UNL A   1      44.495  32.785  24.875  1.00  0.00    -0.237 OA
ATOM     84  O   UNL A   1      44.282  33.574  27.203  1.00  0.00    -0.237 OA
ATOM     85  O   UNL A   1      45.763  34.763  25.653  1.00  0.00    -0.744 OA
ENDBRANCH  79  82
ENDBRANCH  61  75
BRANCH  62  86
ATOM     86  C   UNL A   1      39.073  29.498  29.280  1.00  0.00     0.023 A 
ATOM     87  C   UNL A   1      38.315  29.202  28.128  1.00  0.00     0.012 A 
ATOM     88  C   UNL A   1      38.446  30.219  30.320  1.00  0.00     0.148 A 
ATOM     89  C   UNL A   1      36.966  29.566  28.035  1.00  0.00     0.002 A 
ATOM     90  C   UNL A   1      37.109  30.594  30.217  1.00  0.00     0.091 A 
ATOM     91  F   UNL A   1      39.136  30.466  31.441  1.00  0.00    -0.205 F 
ATOM     92  C   UNL A   1      36.360  30.252  29.084  1.00  0.00     0.022 A 
BRANCH  90  93
ATOM     93  S   UNL A   1      36.269  31.506  31.517  1.00  0.00     0.127 S 
ATOM     94  O   UNL A   1      36.106  30.480  32.546  1.00  0.00    -0.237 OA
ATOM     95  O   UNL A   1      37.232  32.555  31.844  1.00  0.00    -0.237 OA
ATOM     96  O   UNL A   1      35.011  31.969  30.945  1.00  0.00    -0.744 OA
ENDBRANCH  90  93
ENDBRANCH  62  86
BRANCH  74  97
ATOM     97  C   UNL A   1      44.084  27.673  32.556  1.00  0.00     0.023 A 
ATOM     98  C   UNL A   1      43.995  26.279  32.359  1.00  0.00     0.012 A 
ATOM     99  C   UNL A   1      43.974  28.179  33.863  1.00  0.00     0.148 A 
ATOM    100  C   UNL A   1      43.775  25.414  33.434  1.00  0.00     0.002 A 
ATOM    101  C   UNL A   1      43.804  27.312  34.936  1.00  0.00     0.091 A 
ATOM    102  F   UNL A   1      44.061  29.508  34.038  1.00  0.00    -0.205 F 
ATOM    103  C   UNL A   1      43.693  25.930  34.726  1.00  0.00     0.022 A 
BRANCH 101 104
ATOM    104  S   UNL A   1      43.822  27.903  36.631  1.00  0.00     0.127 S 
ATOM    105  O   UNL A   1      42.672  28.803  36.653  1.00  0.00    -0.237 OA
ATOM    106  O   UNL A   1      43.648  26.668  37.397  1.00  0.00    -0.237 OA
ATOM    107  O   UNL A   1      45.122  28.538  36.817  1.00  0.00    -0.744 OA
ENDBRANCH 101 104
ENDBRANCH  74  97
ENDBRANCH  48  49
ENDBRANCH  40  43
ENDBRANCH  38  39
ENDBRANCH  37  38
ENDBRANCH  36  37
ENDBRANCH   1  36
TORSDOF 21
ENDMDL
