MODEL 1
REMARK VINA RESULT:     -11.3      0.000      0.000
REMARK SMILES O=C(NCCCCCCNC(=O)c1cc(-c2ccoc2)n[nH]1)c1ccc(-c2c3nc(c(-c4cccc(S(=O)(=O)[O-])c4F)c4ccc([nH]4)c(-c4cccc(S(=O)(=O)[O-])c4F)c4nc(c(-c5cccc(S(=O)(=O)[O-])c5F)c5ccc2[nH]5)C=C4)C=C3)cc1
REMARK SMILES IDX 5 1 4 2 3 3 1 4 2 5 23 7 24 8 85 9 25 10 84 11 26 12 27 13
REMARK SMILES IDX 28 14 78 15 29 16 83 17 77 18 79 19 30 20 82 21 76 22 75 23
REMARK SMILES IDX 31 25 63 26 43 27 62 28 44 29 47 30 61 31 80 32 45 33 46 34
REMARK SMILES IDX 60 36 81 37 48 38 32 39 33 40 41 41 34 42 36 43 42 44 35 45
REMARK SMILES IDX 37 46 38 47 39 48 40 49 64 50 65 51 73 52 66 53 68 54 74 55
REMARK SMILES IDX 67 56 69 57 70 58 71 59 72 60 49 61 50 62 58 63 51 64 53 65
REMARK SMILES IDX 59 66 52 67 54 68 55 69 56 70 57 71 6 72 7 73 8 74 9 75
REMARK SMILES IDX 10 76 11 77 12 79 13 80 14 81 22 82 15 83 21 84 16 86 17 87
REMARK SMILES IDX 20 88 18 89 19 90
REMARK H PARENT 3 6 79 24 47 35 10 78 22 85
REMARK Flexibility Score: inf
ROOT
ATOM      1  C   UNL A   1      31.212  31.817  26.505  1.00  0.00     0.021 C 
ENDROOT
BRANCH   1   2
ATOM      2  C   UNL A   1      32.521  32.487  26.903  1.00  0.00     0.116 C 
BRANCH   2   3
ATOM      3  N   UNL A   1      32.330  33.832  27.418  1.00  0.00    -0.352 N 
ATOM      4  O   UNL A   1      32.623  35.561  28.833  1.00  0.00    -0.269 OA
ATOM      5  C   UNL A   1      33.022  34.478  28.417  1.00  0.00     0.251 C 
ATOM      6  H   UNL A   1      31.607  34.351  26.997  1.00  0.00     0.163 HD
BRANCH   5   7
ATOM      7  C   UNL A   1      34.227  33.844  29.001  1.00  0.00     0.039 A 
ATOM      8  C   UNL A   1      34.109  32.750  29.859  1.00  0.00     0.014 A 
ATOM      9  C   UNL A   1      35.491  34.352  28.686  1.00  0.00     0.014 A 
ATOM     10  C   UNL A   1      35.235  32.256  30.510  1.00  0.00     0.010 A 
ATOM     11  C   UNL A   1      36.632  33.797  29.275  1.00  0.00     0.010 A 
ATOM     12  C   UNL A   1      36.512  32.762  30.215  1.00  0.00    -0.014 A 
BRANCH  12  13
ATOM     13  C   UNL A   1      37.699  32.116  30.833  1.00  0.00     0.031 A 
ATOM     14  C   UNL A   1      38.135  32.437  32.237  1.00  0.00     0.074 A 
ATOM     15  C   UNL A   1      38.374  31.200  30.109  1.00  0.00     0.049 A 
ATOM     16  N   UNL A   1      39.102  31.898  32.936  1.00  0.00    -0.248 NA
ATOM     17  C   UNL A   1      37.405  33.497  32.949  1.00  0.00     0.031 C 
ATOM     18  C   UNL A   1      38.080  30.852  28.716  1.00  0.00     0.029 A 
ATOM     19  N   UNL A   1      39.429  30.390  30.436  1.00  0.00    -0.354 N 
ATOM     20  C   UNL A   1      39.118  32.568  34.154  1.00  0.00     0.074 A 
ATOM     21  C   UNL A   1      38.068  33.563  34.097  1.00  0.00     0.031 C 
ATOM     22  C   UNL A   1      38.908  29.876  28.321  1.00  0.00     0.029 A 
ATOM     23  C   UNL A   1      39.820  29.559  29.412  1.00  0.00     0.049 A 
ATOM     24  H   UNL A   1      39.866  30.402  31.319  1.00  0.00     0.167 HD
ATOM     25  C   UNL A   1      39.919  32.357  35.227  1.00  0.00     0.034 A 
ATOM     26  C   UNL A   1      40.807  28.645  29.352  1.00  0.00     0.034 A 
ATOM     27  C   UNL A   1      40.940  31.342  35.289  1.00  0.00     0.049 A 
ATOM     28  C   UNL A   1      41.645  28.403  30.574  1.00  0.00     0.074 A 
ATOM     29  C   UNL A   1      41.771  31.022  36.349  1.00  0.00     0.029 A 
ATOM     30  N   UNL A   1      41.271  30.483  34.252  1.00  0.00    -0.354 N 
ATOM     31  N   UNL A   1      41.554  28.959  31.758  1.00  0.00    -0.248 NA
ATOM     32  C   UNL A   1      42.703  27.390  30.462  1.00  0.00     0.031 C 
ATOM     33  C   UNL A   1      42.610  29.975  35.950  1.00  0.00     0.029 A 
ATOM     34  C   UNL A   1      42.295  29.635  34.645  1.00  0.00     0.049 A 
ATOM     35  H   UNL A   1      40.842  30.478  33.366  1.00  0.00     0.167 HD
ATOM     36  C   UNL A   1      42.535  28.356  32.535  1.00  0.00     0.074 A 
ATOM     37  C   UNL A   1      43.176  27.361  31.700  1.00  0.00     0.031 C 
ATOM     38  C   UNL A   1      42.892  28.623  33.815  1.00  0.00     0.034 A 
BRANCH  25  39
ATOM     39  C   UNL A   1      39.693  33.199  36.455  1.00  0.00     0.023 A 
ATOM     40  C   UNL A   1      40.155  34.530  36.470  1.00  0.00     0.012 A 
ATOM     41  C   UNL A   1      38.943  32.715  37.546  1.00  0.00     0.148 A 
ATOM     42  C   UNL A   1      39.890  35.363  37.557  1.00  0.00     0.002 A 
ATOM     43  C   UNL A   1      38.653  33.562  38.612  1.00  0.00     0.091 A 
ATOM     44  F   UNL A   1      38.527  31.442  37.521  1.00  0.00    -0.205 F 
ATOM     45  C   UNL A   1      39.131  34.883  38.621  1.00  0.00     0.022 A 
BRANCH  43  46
ATOM     46  S   UNL A   1      37.625  33.065  39.999  1.00  0.00     0.127 S 
ATOM     47  O   UNL A   1      38.360  31.906  40.508  1.00  0.00    -0.237 OA
ATOM     48  O   UNL A   1      37.677  34.245  40.861  1.00  0.00    -0.237 OA
ATOM     49  O   UNL A   1      36.311  32.775  39.442  1.00  0.00    -0.744 OA
ENDBRANCH  43  46
ENDBRANCH  25  39
BRANCH  26  50
ATOM     50  C   UNL A   1      41.013  27.861  28.103  1.00  0.00     0.023 A 
ATOM     51  C   UNL A   1      41.614  28.475  26.987  1.00  0.00     0.012 A 
ATOM     52  C   UNL A   1      40.661  26.500  28.031  1.00  0.00     0.148 A 
ATOM     53  C   UNL A   1      41.839  27.752  25.815  1.00  0.00     0.002 A 
ATOM     54  C   UNL A   1      40.946  25.770  26.883  1.00  0.00     0.091 A 
ATOM     55  F   UNL A   1      40.068  25.936  29.092  1.00  0.00    -0.205 F 
ATOM     56  C   UNL A   1      41.519  26.397  25.767  1.00  0.00     0.022 A 
BRANCH  54  57
ATOM     57  S   UNL A   1      40.706  23.991  26.824  1.00  0.00     0.127 S 
ATOM     58  O   UNL A   1      39.284  23.889  26.506  1.00  0.00    -0.237 OA
ATOM     59  O   UNL A   1      41.609  23.589  25.743  1.00  0.00    -0.237 OA
ATOM     60  O   UNL A   1      41.110  23.514  28.140  1.00  0.00    -0.744 OA
ENDBRANCH  54  57
ENDBRANCH  26  50
BRANCH  38  61
ATOM     61  C   UNL A   1      44.034  27.826  34.385  1.00  0.00     0.023 A 
ATOM     62  C   UNL A   1      45.346  28.333  34.291  1.00  0.00     0.012 A 
ATOM     63  C   UNL A   1      43.810  26.601  35.043  1.00  0.00     0.148 A 
ATOM     64  C   UNL A   1      46.423  27.615  34.810  1.00  0.00     0.002 A 
ATOM     65  C   UNL A   1      44.885  25.912  35.596  1.00  0.00     0.091 A 
ATOM     66  F   UNL A   1      42.560  26.123  35.103  1.00  0.00    -0.205 F 
ATOM     67  C   UNL A   1      46.192  26.411  35.470  1.00  0.00     0.022 A 
BRANCH  65  68
ATOM     68  S   UNL A   1      44.662  24.396  36.533  1.00  0.00     0.127 S 
ATOM     69  O   UNL A   1      43.761  24.833  37.597  1.00  0.00    -0.237 OA
ATOM     70  O   UNL A   1      44.053  23.502  35.547  1.00  0.00    -0.237 OA
ATOM     71  O   UNL A   1      45.997  23.997  36.959  1.00  0.00    -0.744 OA
ENDBRANCH  65  68
ENDBRANCH  38  61
ENDBRANCH  12  13
ENDBRANCH   5   7
ENDBRANCH   2   3
ENDBRANCH   1   2
BRANCH   1  72
ATOM     72  C   UNL A   1      31.358  30.591  25.606  1.00  0.00     0.002 C 
BRANCH  72  73
ATOM     73  C   UNL A   1      32.667  29.809  25.760  1.00  0.00     0.002 C 
BRANCH  73  74
ATOM     74  C   UNL A   1      32.567  28.297  25.533  1.00  0.00     0.021 C 
BRANCH  74  75
ATOM     75  C   UNL A   1      31.160  27.713  25.670  1.00  0.00     0.116 C 
BRANCH  75  76
ATOM     76  N   UNL A   1      30.977  26.554  24.811  1.00  0.00    -0.351 N 
ATOM     77  C   UNL A   1      29.992  26.320  23.891  1.00  0.00     0.269 C 
ATOM     78  H   UNL A   1      31.653  25.842  24.904  1.00  0.00     0.163 HD
ATOM     79  O   UNL A   1      29.807  25.166  23.498  1.00  0.00    -0.268 OA
BRANCH  77  80
ATOM     80  C   UNL A   1      29.188  27.416  23.447  1.00  0.00     0.123 A 
ATOM     81  C   UNL A   1      29.513  28.626  22.862  1.00  0.00     0.064 A 
ATOM     82  N   UNL A   1      27.822  27.406  23.504  1.00  0.00    -0.272 N 
ATOM     83  C   UNL A   1      28.289  29.312  22.741  1.00  0.00     0.096 A 
ATOM     84  N   UNL A   1      27.255  28.577  23.158  1.00  0.00    -0.175 NA
ATOM     85  H   UNL A   1      27.302  26.616  23.773  1.00  0.00     0.190 HD
BRANCH  83  86
ATOM     86  C   UNL A   1      28.167  30.682  22.273  1.00  0.00     0.040 A 
ATOM     87  C   UNL A   1      28.117  31.103  20.921  1.00  0.00     0.052 A 
ATOM     88  C   UNL A   1      28.104  31.822  23.039  1.00  0.00     0.205 A 
ATOM     89  C   UNL A   1      28.031  32.477  20.957  1.00  0.00     0.195 A 
ATOM     90  O   UNL A   1      28.026  32.921  22.243  1.00  0.00    -0.472 OA
ENDBRANCH  83  86
ENDBRANCH  77  80
ENDBRANCH  75  76
ENDBRANCH  74  75
ENDBRANCH  73  74
ENDBRANCH  72  73
ENDBRANCH   1  72
TORSDOF 17
ENDMDL
MODEL 2
REMARK VINA RESULT:     -11.3      2.058      2.761
REMARK SMILES O=C(NCCCCCCNC(=O)c1cc(-c2ccoc2)n[nH]1)c1ccc(-c2c3nc(c(-c4cccc(S(=O)(=O)[O-])c4F)c4ccc([nH]4)c(-c4cccc(S(=O)(=O)[O-])c4F)c4nc(c(-c5cccc(S(=O)(=O)[O-])c5F)c5ccc2[nH]5)C=C4)C=C3)cc1
REMARK SMILES IDX 5 1 4 2 3 3 1 4 2 5 23 7 24 8 85 9 25 10 84 11 26 12 27 13
REMARK SMILES IDX 28 14 78 15 29 16 83 17 77 18 79 19 30 20 82 21 76 22 75 23
REMARK SMILES IDX 31 25 63 26 43 27 62 28 44 29 47 30 61 31 80 32 45 33 46 34
REMARK SMILES IDX 60 36 81 37 48 38 32 39 33 40 41 41 34 42 36 43 42 44 35 45
REMARK SMILES IDX 37 46 38 47 39 48 40 49 64 50 65 51 73 52 66 53 68 54 74 55
REMARK SMILES IDX 67 56 69 57 70 58 71 59 72 60 49 61 50 62 58 63 51 64 53 65
REMARK SMILES IDX 59 66 52 67 54 68 55 69 56 70 57 71 6 72 7 73 8 74 9 75
REMARK SMILES IDX 10 76 11 77 12 79 13 80 14 81 22 82 15 83 21 84 16 86 17 87
REMARK SMILES IDX 20 88 18 89 19 90
REMARK H PARENT 3 6 79 24 47 35 10 78 22 85
REMARK Flexibility Score: inf
ROOT
ATOM      1  C   UNL A   1      33.016  28.051  26.628  1.00  0.00     0.021 C 
ENDROOT
BRANCH   1   2
ATOM      2  C   UNL A   1      33.648  29.186  25.834  1.00  0.00     0.116 C 
BRANCH   2   3
ATOM      3  N   UNL A   1      33.200  30.496  26.273  1.00  0.00    -0.352 N 
ATOM      4  O   UNL A   1      33.133  32.318  27.599  1.00  0.00    -0.269 OA
ATOM      5  C   UNL A   1      33.735  31.307  27.248  1.00  0.00     0.251 C 
ATOM      6  H   UNL A   1      32.405  30.852  25.813  1.00  0.00     0.163 HD
BRANCH   5   7
ATOM      7  C   UNL A   1      35.019  30.936  27.885  1.00  0.00     0.039 A 
ATOM      8  C   UNL A   1      35.165  29.706  28.529  1.00  0.00     0.014 A 
ATOM      9  C   UNL A   1      36.093  31.831  27.839  1.00  0.00     0.014 A 
ATOM     10  C   UNL A   1      36.326  29.431  29.243  1.00  0.00     0.010 A 
ATOM     11  C   UNL A   1      37.293  31.515  28.485  1.00  0.00     0.010 A 
ATOM     12  C   UNL A   1      37.411  30.324  29.217  1.00  0.00    -0.014 A 
BRANCH  12  13
ATOM     13  C   UNL A   1      38.679  29.930  29.883  1.00  0.00     0.031 A 
ATOM     14  C   UNL A   1      39.059  30.454  31.241  1.00  0.00     0.074 A 
ATOM     15  C   UNL A   1      39.486  29.055  29.249  1.00  0.00     0.049 A 
ATOM     16  N   UNL A   1      40.093  30.140  31.979  1.00  0.00    -0.248 NA
ATOM     17  C   UNL A   1      38.175  31.461  31.850  1.00  0.00     0.031 C 
ATOM     18  C   UNL A   1      39.251  28.526  27.901  1.00  0.00     0.029 A 
ATOM     19  N   UNL A   1      40.650  28.449  29.643  1.00  0.00    -0.354 N 
ATOM     20  C   UNL A   1      40.004  30.927  33.123  1.00  0.00     0.074 A 
ATOM     21  C   UNL A   1      38.818  31.744  32.978  1.00  0.00     0.031 C 
ATOM     22  C   UNL A   1      40.218  27.648  27.598  1.00  0.00     0.029 A 
ATOM     23  C   UNL A   1      41.164  27.585  28.705  1.00  0.00     0.049 A 
ATOM     24  H   UNL A   1      41.077  28.617  30.514  1.00  0.00     0.167 HD
ATOM     25  C   UNL A   1      40.825  30.949  34.201  1.00  0.00     0.034 A 
ATOM     26  C   UNL A   1      42.276  26.827  28.726  1.00  0.00     0.034 A 
ATOM     27  C   UNL A   1      41.986  30.110  34.355  1.00  0.00     0.049 A 
ATOM     28  C   UNL A   1      43.137  26.840  29.956  1.00  0.00     0.074 A 
ATOM     29  C   UNL A   1      42.853  30.029  35.431  1.00  0.00     0.029 A 
ATOM     30  N   UNL A   1      42.445  29.208  33.406  1.00  0.00    -0.354 N 
ATOM     31  N   UNL A   1      42.961  27.495  31.078  1.00  0.00    -0.248 NA
ATOM     32  C   UNL A   1      44.335  25.990  29.935  1.00  0.00     0.031 C 
ATOM     33  C   UNL A   1      43.840  29.083  35.131  1.00  0.00     0.029 A 
ATOM     34  C   UNL A   1      43.583  28.568  33.871  1.00  0.00     0.049 A 
ATOM     35  H   UNL A   1      42.025  29.048  32.531  1.00  0.00     0.167 HD
ATOM     36  C   UNL A   1      44.018  27.129  31.900  1.00  0.00     0.074 A 
ATOM     37  C   UNL A   1      44.804  26.160  31.163  1.00  0.00     0.031 C 
ATOM     38  C   UNL A   1      44.328  27.576  33.142  1.00  0.00     0.034 A 
BRANCH  25  39
ATOM     39  C   UNL A   1      40.472  31.870  35.340  1.00  0.00     0.023 A 
ATOM     40  C   UNL A   1      41.201  33.064  35.510  1.00  0.00     0.012 A 
ATOM     41  C   UNL A   1      39.365  31.611  36.174  1.00  0.00     0.148 A 
ATOM     42  C   UNL A   1      40.848  33.978  36.502  1.00  0.00     0.002 A 
ATOM     43  C   UNL A   1      38.997  32.544  37.139  1.00  0.00     0.091 A 
ATOM     44  F   UNL A   1      38.695  30.463  36.008  1.00  0.00    -0.205 F 
ATOM     45  C   UNL A   1      39.741  33.724  37.307  1.00  0.00     0.022 A 
BRANCH  43  46
ATOM     46  S   UNL A   1      37.547  32.347  38.181  1.00  0.00     0.127 S 
ATOM     47  O   UNL A   1      37.967  33.037  39.402  1.00  0.00    -0.237 OA
ATOM     48  O   UNL A   1      36.517  33.044  37.412  1.00  0.00    -0.237 OA
ATOM     49  O   UNL A   1      37.341  30.912  38.316  1.00  0.00    -0.744 OA
ENDBRANCH  43  46
ENDBRANCH  25  39
BRANCH  26  50
ATOM     50  C   UNL A   1      42.601  25.959  27.561  1.00  0.00     0.023 A 
ATOM     51  C   UNL A   1      43.451  26.442  26.547  1.00  0.00     0.012 A 
ATOM     52  C   UNL A   1      42.112  24.641  27.476  1.00  0.00     0.148 A 
ATOM     53  C   UNL A   1      43.788  25.636  25.459  1.00  0.00     0.002 A 
ATOM     54  C   UNL A   1      42.503  23.823  26.422  1.00  0.00     0.091 A 
ATOM     55  F   UNL A   1      41.285  24.203  28.436  1.00  0.00    -0.205 F 
ATOM     56  C   UNL A   1      43.327  24.323  25.404  1.00  0.00     0.022 A 
BRANCH  54  57
ATOM     57  S   UNL A   1      42.073  22.079  26.385  1.00  0.00     0.127 S 
ATOM     58  O   UNL A   1      42.535  21.627  27.694  1.00  0.00    -0.237 OA
ATOM     59  O   UNL A   1      40.618  22.119  26.225  1.00  0.00    -0.237 OA
ATOM     60  O   UNL A   1      42.779  21.544  25.228  1.00  0.00    -0.744 OA
ENDBRANCH  54  57
ENDBRANCH  26  50
BRANCH  38  61
ATOM     61  C   UNL A   1      45.574  27.020  33.776  1.00  0.00     0.023 A 
ATOM     62  C   UNL A   1      46.799  27.698  33.602  1.00  0.00     0.012 A 
ATOM     63  C   UNL A   1      45.532  25.859  34.570  1.00  0.00     0.148 A 
ATOM     64  C   UNL A   1      47.970  27.205  34.178  1.00  0.00     0.002 A 
ATOM     65  C   UNL A   1      46.697  25.398  35.176  1.00  0.00     0.091 A 
ATOM     66  F   UNL A   1      44.364  25.215  34.705  1.00  0.00    -0.205 F 
ATOM     67  C   UNL A   1      47.917  26.063  34.972  1.00  0.00     0.022 A 
BRANCH  65  68
ATOM     68  S   UNL A   1      46.698  23.982  36.280  1.00  0.00     0.127 S 
ATOM     69  O   UNL A   1      46.192  22.923  35.409  1.00  0.00    -0.237 OA
ATOM     70  O   UNL A   1      48.113  23.857  36.633  1.00  0.00    -0.237 OA
ATOM     71  O   UNL A   1      45.833  24.351  37.394  1.00  0.00    -0.744 OA
ENDBRANCH  65  68
ENDBRANCH  38  61
ENDBRANCH  12  13
ENDBRANCH   5   7
ENDBRANCH   2   3
ENDBRANCH   1   2
BRANCH   1  72
ATOM     72  C   UNL A   1      32.455  26.905  25.787  1.00  0.00     0.002 C 
BRANCH  72  73
ATOM     73  C   UNL A   1      33.403  25.722  25.565  1.00  0.00     0.002 C 
BRANCH  73  74
ATOM     74  C   UNL A   1      32.739  24.417  25.113  1.00  0.00     0.021 C 
BRANCH  74  75
ATOM     75  C   UNL A   1      31.861  24.535  23.867  1.00  0.00     0.116 C 
BRANCH  75  76
ATOM     76  N   UNL A   1      32.656  24.771  22.672  1.00  0.00    -0.351 N 
ATOM     77  C   UNL A   1      32.586  25.818  21.794  1.00  0.00     0.269 C 
ATOM     78  H   UNL A   1      33.336  24.087  22.469  1.00  0.00     0.163 HD
ATOM     79  O   UNL A   1      33.098  25.695  20.680  1.00  0.00    -0.268 OA
BRANCH  77  80
ATOM     80  C   UNL A   1      31.889  27.004  22.187  1.00  0.00     0.123 A 
ATOM     81  C   UNL A   1      30.561  27.241  22.487  1.00  0.00     0.064 A 
ATOM     82  N   UNL A   1      32.517  28.202  22.388  1.00  0.00    -0.272 N 
ATOM     83  C   UNL A   1      30.481  28.628  22.716  1.00  0.00     0.096 A 
ATOM     84  N   UNL A   1      31.675  29.223  22.629  1.00  0.00    -0.175 NA
ATOM     85  H   UNL A   1      33.495  28.307  22.358  1.00  0.00     0.190 HD
BRANCH  83  86
ATOM     86  C   UNL A   1      29.240  29.343  22.958  1.00  0.00     0.040 A 
ATOM     87  C   UNL A   1      29.119  30.693  23.370  1.00  0.00     0.052 A 
ATOM     88  C   UNL A   1      27.961  28.848  22.862  1.00  0.00     0.205 A 
ATOM     89  C   UNL A   1      27.768  30.927  23.501  1.00  0.00     0.195 A 
ATOM     90  O   UNL A   1      27.058  29.807  23.197  1.00  0.00    -0.472 OA
ENDBRANCH  83  86
ENDBRANCH  77  80
ENDBRANCH  75  76
ENDBRANCH  74  75
ENDBRANCH  73  74
ENDBRANCH  72  73
ENDBRANCH   1  72
TORSDOF 17
ENDMDL
MODEL 3
REMARK VINA RESULT:     -11.2      4.211      6.952
REMARK SMILES O=C(NCCCCCCNC(=O)c1cc(-c2ccoc2)n[nH]1)c1ccc(-c2c3nc(c(-c4cccc(S(=O)(=O)[O-])c4F)c4ccc([nH]4)c(-c4cccc(S(=O)(=O)[O-])c4F)c4nc(c(-c5cccc(S(=O)(=O)[O-])c5F)c5ccc2[nH]5)C=C4)C=C3)cc1
REMARK SMILES IDX 5 1 4 2 3 3 1 4 2 5 23 7 24 8 85 9 25 10 84 11 26 12 27 13
REMARK SMILES IDX 28 14 78 15 29 16 83 17 77 18 79 19 30 20 82 21 76 22 75 23
REMARK SMILES IDX 31 25 63 26 43 27 62 28 44 29 47 30 61 31 80 32 45 33 46 34
REMARK SMILES IDX 60 36 81 37 48 38 32 39 33 40 41 41 34 42 36 43 42 44 35 45
REMARK SMILES IDX 37 46 38 47 39 48 40 49 64 50 65 51 73 52 66 53 68 54 74 55
REMARK SMILES IDX 67 56 69 57 70 58 71 59 72 60 49 61 50 62 58 63 51 64 53 65
REMARK SMILES IDX 59 66 52 67 54 68 55 69 56 70 57 71 6 72 7 73 8 74 9 75
REMARK SMILES IDX 10 76 11 77 12 79 13 80 14 81 22 82 15 83 21 84 16 86 17 87
REMARK SMILES IDX 20 88 18 89 19 90
REMARK H PARENT 3 6 79 24 47 35 10 78 22 85
REMARK Flexibility Score: inf
ROOT
ATOM      1  C   UNL A   1      34.769  32.400  30.232  1.00  0.00     0.021 C 
ENDROOT
BRANCH   1   2
ATOM      2  C   UNL A   1      34.832  32.561  28.719  1.00  0.00     0.116 C 
BRANCH   2   3
ATOM      3  N   UNL A   1      34.199  31.462  28.010  1.00  0.00    -0.352 N 
ATOM      4  O   UNL A   1      34.108  29.514  26.880  1.00  0.00    -0.269 OA
ATOM      5  C   UNL A   1      34.748  30.265  27.609  1.00  0.00     0.251 C 
ATOM      6  H   UNL A   1      33.249  31.591  27.785  1.00  0.00     0.163 HD
BRANCH   5   7
ATOM      7  C   UNL A   1      36.120  29.909  28.039  1.00  0.00     0.039 A 
ATOM      8  C   UNL A   1      37.226  30.295  27.280  1.00  0.00     0.014 A 
ATOM      9  C   UNL A   1      36.302  29.178  29.218  1.00  0.00     0.014 A 
ATOM     10  C   UNL A   1      38.494  29.833  27.619  1.00  0.00     0.010 A 
ATOM     11  C   UNL A   1      37.589  28.787  29.604  1.00  0.00     0.010 A 
ATOM     12  C   UNL A   1      38.694  29.087  28.793  1.00  0.00    -0.014 A 
BRANCH  12  13
ATOM     13  C   UNL A   1      40.081  28.728  29.185  1.00  0.00     0.031 A 
ATOM     14  C   UNL A   1      40.811  29.458  30.279  1.00  0.00     0.074 A 
ATOM     15  C   UNL A   1      40.675  27.698  28.549  1.00  0.00     0.049 A 
ATOM     16  N   UNL A   1      41.993  29.207  30.782  1.00  0.00    -0.248 NA
ATOM     17  C   UNL A   1      40.140  30.619  30.885  1.00  0.00     0.031 C 
ATOM     18  C   UNL A   1      40.088  26.955  27.429  1.00  0.00     0.029 A 
ATOM     19  N   UNL A   1      41.886  27.090  28.749  1.00  0.00    -0.354 N 
ATOM     20  C   UNL A   1      42.222  30.189  31.739  1.00  0.00     0.074 A 
ATOM     21  C   UNL A   1      41.059  31.051  31.741  1.00  0.00     0.031 C 
ATOM     22  C   UNL A   1      40.921  25.969  27.069  1.00  0.00     0.029 A 
ATOM     23  C   UNL A   1      42.119  26.037  27.896  1.00  0.00     0.049 A 
ATOM     24  H   UNL A   1      42.528  27.379  29.438  1.00  0.00     0.167 HD
ATOM     25  C   UNL A   1      43.294  30.345  32.554  1.00  0.00     0.034 A 
ATOM     26  C   UNL A   1      43.181  25.216  27.784  1.00  0.00     0.034 A 
ATOM     27  C   UNL A   1      44.434  29.464  32.571  1.00  0.00     0.049 A 
ATOM     28  C   UNL A   1      44.330  25.386  28.734  1.00  0.00     0.074 A 
ATOM     29  C   UNL A   1      45.547  29.514  33.393  1.00  0.00     0.029 A 
ATOM     30  N   UNL A   1      44.611  28.377  31.729  1.00  0.00    -0.354 N 
ATOM     31  N   UNL A   1      44.466  26.242  29.718  1.00  0.00    -0.248 NA
ATOM     32  C   UNL A   1      45.461  24.462  28.578  1.00  0.00     0.031 C 
ATOM     33  C   UNL A   1      46.400  28.461  33.043  1.00  0.00     0.029 A 
ATOM     34  C   UNL A   1      45.814  27.749  32.009  1.00  0.00     0.049 A 
ATOM     35  H   UNL A   1      43.975  28.093  31.033  1.00  0.00     0.167 HD
ATOM     36  C   UNL A   1      45.690  25.953  30.305  1.00  0.00     0.074 A 
ATOM     37  C   UNL A   1      46.235  24.814  29.595  1.00  0.00     0.031 C 
ATOM     38  C   UNL A   1      46.321  26.592  31.321  1.00  0.00     0.034 A 
BRANCH  25  39
ATOM     39  C   UNL A   1      43.269  31.477  33.548  1.00  0.00     0.023 A 
ATOM     40  C   UNL A   1      43.894  32.696  33.215  1.00  0.00     0.012 A 
ATOM     41  C   UNL A   1      42.550  31.376  34.755  1.00  0.00     0.148 A 
ATOM     42  C   UNL A   1      43.819  33.792  34.075  1.00  0.00     0.002 A 
ATOM     43  C   UNL A   1      42.451  32.484  35.592  1.00  0.00     0.091 A 
ATOM     44  F   UNL A   1      41.977  30.204  35.061  1.00  0.00    -0.205 F 
ATOM     45  C   UNL A   1      43.089  33.689  35.256  1.00  0.00     0.022 A 
BRANCH  43  46
ATOM     46  S   UNL A   1      41.477  32.479  37.102  1.00  0.00     0.127 S 
ATOM     47  O   UNL A   1      40.113  32.423  36.572  1.00  0.00    -0.237 OA
ATOM     48  O   UNL A   1      41.926  31.249  37.755  1.00  0.00    -0.237 OA
ATOM     49  O   UNL A   1      41.822  33.705  37.807  1.00  0.00    -0.744 OA
ENDBRANCH  43  46
ENDBRANCH  25  39
BRANCH  26  50
ATOM     50  C   UNL A   1      43.172  24.132  26.763  1.00  0.00     0.023 A 
ATOM     51  C   UNL A   1      43.927  24.280  25.583  1.00  0.00     0.012 A 
ATOM     52  C   UNL A   1      42.460  22.937  26.976  1.00  0.00     0.148 A 
ATOM     53  C   UNL A   1      43.953  23.267  24.624  1.00  0.00     0.002 A 
ATOM     54  C   UNL A   1      42.542  21.906  26.047  1.00  0.00     0.091 A 
ATOM     55  F   UNL A   1      41.727  22.819  28.092  1.00  0.00    -0.205 F 
ATOM     56  C   UNL A   1      43.273  22.074  24.862  1.00  0.00     0.022 A 
BRANCH  54  57
ATOM     57  S   UNL A   1      41.822  20.293  26.375  1.00  0.00     0.127 S 
ATOM     58  O   UNL A   1      42.339  19.500  25.263  1.00  0.00    -0.237 OA
ATOM     59  O   UNL A   1      42.387  19.960  27.685  1.00  0.00    -0.237 OA
ATOM     60  O   UNL A   1      40.383  20.521  26.393  1.00  0.00    -0.744 OA
ENDBRANCH  54  57
ENDBRANCH  26  50
BRANCH  38  61
ATOM     61  C   UNL A   1      47.675  26.069  31.719  1.00  0.00     0.023 A 
ATOM     62  C   UNL A   1      48.809  26.446  30.969  1.00  0.00     0.012 A 
ATOM     63  C   UNL A   1      47.835  25.243  32.847  1.00  0.00     0.148 A 
ATOM     64  C   UNL A   1      50.076  25.977  31.315  1.00  0.00     0.002 A 
ATOM     65  C   UNL A   1      49.108  24.814  33.210  1.00  0.00     0.091 A 
ATOM     66  F   UNL A   1      46.744  24.875  33.534  1.00  0.00    -0.205 F 
ATOM     67  C   UNL A   1      50.226  25.170  32.439  1.00  0.00     0.022 A 
BRANCH  65  68
ATOM     68  S   UNL A   1      49.396  23.840  34.691  1.00  0.00     0.127 S 
ATOM     69  O   UNL A   1      48.609  22.640  34.419  1.00  0.00    -0.237 OA
ATOM     70  O   UNL A   1      50.845  23.639  34.659  1.00  0.00    -0.237 OA
ATOM     71  O   UNL A   1      48.930  24.663  35.800  1.00  0.00    -0.744 OA
ENDBRANCH  65  68
ENDBRANCH  38  61
ENDBRANCH  12  13
ENDBRANCH   5   7
ENDBRANCH   2   3
ENDBRANCH   1   2
BRANCH   1  72
ATOM     72  C   UNL A   1      36.123  32.256  30.926  1.00  0.00     0.002 C 
BRANCH  72  73
ATOM     73  C   UNL A   1      36.186  31.213  32.045  1.00  0.00     0.002 C 
BRANCH  73  74
ATOM     74  C   UNL A   1      37.461  31.229  32.896  1.00  0.00     0.021 C 
BRANCH  74  75
ATOM     75  C   UNL A   1      37.844  32.596  33.462  1.00  0.00     0.116 C 
BRANCH  75  76
ATOM     76  N   UNL A   1      37.305  32.792  34.799  1.00  0.00    -0.351 N 
ATOM     77  C   UNL A   1      36.226  33.540  35.182  1.00  0.00     0.269 C 
ATOM     78  H   UNL A   1      37.779  32.322  35.523  1.00  0.00     0.163 HD
ATOM     79  O   UNL A   1      36.111  33.854  36.369  1.00  0.00    -0.268 OA
BRANCH  77  80
ATOM     80  C   UNL A   1      35.290  33.964  34.187  1.00  0.00     0.123 A 
ATOM     81  C   UNL A   1      35.328  34.985  33.256  1.00  0.00     0.064 A 
ATOM     82  N   UNL A   1      34.107  33.319  33.958  1.00  0.00    -0.272 N 
ATOM     83  C   UNL A   1      34.070  34.947  32.623  1.00  0.00     0.096 A 
ATOM     84  N   UNL A   1      33.310  33.943  33.070  1.00  0.00    -0.175 NA
ATOM     85  H   UNL A   1      33.860  32.476  34.401  1.00  0.00     0.190 HD
BRANCH  83  86
ATOM     86  C   UNL A   1      33.623  35.920  31.641  1.00  0.00     0.040 A 
ATOM     87  C   UNL A   1      33.337  35.662  30.278  1.00  0.00     0.052 A 
ATOM     88  C   UNL A   1      33.420  37.266  31.835  1.00  0.00     0.205 A 
ATOM     89  C   UNL A   1      32.982  36.874  29.732  1.00  0.00     0.195 A 
ATOM     90  O   UNL A   1      33.033  37.856  30.672  1.00  0.00    -0.472 OA
ENDBRANCH  83  86
ENDBRANCH  77  80
ENDBRANCH  75  76
ENDBRANCH  74  75
ENDBRANCH  73  74
ENDBRANCH  72  73
ENDBRANCH   1  72
TORSDOF 17
ENDMDL
