MODEL 1
REMARK VINA RESULT:     -11.1      0.000      0.000
REMARK SMILES Cc1noc(C)c1[C@H](C)NC(=O)NCC(=O)NCC(=O)NCCCCCCNC(=O)c1ccc(-c2c3nc(c(-c4cccc(S(=O)(=O)[O-])c4F)c4ccc([nH]4)c(-c4cccc(S(=O)(=O)[O-])c4F)c4nc(c(-c5cccc(S(=O)(=O)[O-])c5F)c5ccc2[nH]5)C=C4)C=C3)cc1
REMARK SMILES IDX 23 1 22 2 21 3 19 4 20 5 18 7 17 8 15 9 16 10 14 12 13 13
REMARK SMILES IDX 10 14 11 15 12 17 8 19 9 20 7 21 1 22 2 23 3 24 4 25 5 26
REMARK SMILES IDX 6 27 24 28 25 29 26 30 27 31 28 32 29 33 30 35 31 36 32 37
REMARK SMILES IDX 93 38 33 39 92 40 34 41 35 42 36 43 86 44 37 45 91 46 85 47
REMARK SMILES IDX 87 48 38 49 90 50 84 51 83 52 39 54 71 55 51 56 70 57 52 58
REMARK SMILES IDX 55 59 69 60 88 61 53 62 54 63 68 65 89 66 56 67 40 68 41 69
REMARK SMILES IDX 49 70 42 71 44 72 50 73 43 74 45 75 46 76 47 77 48 78 72 79
REMARK SMILES IDX 73 80 81 81 74 82 76 83 82 84 75 85 77 86 78 87 79 88 80 89
REMARK SMILES IDX 57 90 58 91 66 92 59 93 61 94 67 95 60 96 62 97 63 98 64 99
REMARK SMILES IDX 65 100
REMARK H PARENT 21 6 17 11 10 16 13 18 28 34 87 53 55 64
REMARK Flexibility Score: inf
ROOT
ATOM      1  C   UNL A   1      34.897  24.854  24.426  1.00  0.00     0.021 C 
ENDROOT
BRANCH   1   2
ATOM      2  C   UNL A   1      33.667  24.392  23.663  1.00  0.00     0.116 C 
BRANCH   2   3
ATOM      3  N   UNL A   1      33.734  24.813  22.293  1.00  0.00    -0.355 N 
ATOM      4  C   UNL A   1      32.981  25.768  21.694  1.00  0.00     0.239 C 
ATOM      5  O   UNL A   1      33.133  25.958  20.484  1.00  0.00    -0.273 OA
ATOM      6  H   UNL A   1      34.399  24.360  21.727  1.00  0.00     0.163 HD
BRANCH   4   7
ATOM      7  C   UNL A   1      32.122  26.719  22.535  1.00  0.00     0.216 C 
BRANCH   7   8
ATOM      8  N   UNL A   1      30.721  26.457  22.821  1.00  0.00    -0.346 N 
ATOM      9  C   UNL A   1      30.094  25.642  23.708  1.00  0.00     0.239 C 
ATOM     10  O   UNL A   1      28.925  25.955  23.970  1.00  0.00    -0.273 OA
ATOM     11  H   UNL A   1      30.101  26.975  22.258  1.00  0.00     0.164 HD
BRANCH   9  12
ATOM     12  C   UNL A   1      30.717  24.429  24.445  1.00  0.00     0.217 C 
BRANCH  12  13
ATOM     13  N   UNL A   1      30.289  24.012  25.771  1.00  0.00    -0.329 N 
ATOM     14  N   UNL A   1      31.168  21.871  26.231  1.00  0.00    -0.331 N 
ATOM     15  C   UNL A   1      30.377  22.912  26.521  1.00  0.00     0.315 C 
ATOM     16  H   UNL A   1      30.875  21.012  26.612  1.00  0.00     0.165 HD
ATOM     17  O   UNL A   1      29.658  22.841  27.519  1.00  0.00    -0.249 OA
ATOM     18  H   UNL A   1      29.806  24.731  26.239  1.00  0.00     0.165 HD
BRANCH  14  19
ATOM     19  C   UNL A   1      32.389  21.805  25.449  1.00  0.00     0.116 C 
ATOM     20  C   UNL A   1      33.590  21.908  26.387  1.00  0.00     0.036 C 
BRANCH  19  21
ATOM     21  C   UNL A   1      32.337  20.583  24.578  1.00  0.00     0.040 A 
ATOM     22  C   UNL A   1      32.026  21.691  22.219  1.00  0.00     0.071 C 
ATOM     23  C   UNL A   1      32.182  20.562  23.155  1.00  0.00     0.086 A 
ATOM     24  N   UNL A   1      32.181  19.320  22.667  1.00  0.00    -0.085 NA
ATOM     25  O   UNL A   1      32.375  18.498  23.749  1.00  0.00    -0.361 OA
ATOM     26  C   UNL A   1      32.487  19.242  24.880  1.00  0.00     0.139 A 
ATOM     27  C   UNL A   1      32.762  18.462  26.100  1.00  0.00     0.091 C 
ENDBRANCH  19  21
ENDBRANCH  14  19
ENDBRANCH  12  13
ENDBRANCH   9  12
ENDBRANCH   7   8
ENDBRANCH   4   7
ENDBRANCH   2   3
ENDBRANCH   1   2
BRANCH   1  28
ATOM     28  C   UNL A   1      34.539  25.373  25.817  1.00  0.00     0.002 C 
BRANCH  28  29
ATOM     29  C   UNL A   1      33.425  26.425  25.806  1.00  0.00     0.002 C 
BRANCH  29  30
ATOM     30  C   UNL A   1      33.919  27.859  26.022  1.00  0.00     0.021 C 
BRANCH  30  31
ATOM     31  C   UNL A   1      33.482  28.452  27.354  1.00  0.00     0.116 C 
BRANCH  31  32
ATOM     32  N   UNL A   1      33.535  29.905  27.315  1.00  0.00    -0.352 N 
ATOM     33  C   UNL A   1      34.463  30.733  27.879  1.00  0.00     0.251 C 
ATOM     34  H   UNL A   1      32.809  30.349  26.819  1.00  0.00     0.163 HD
ATOM     35  O   UNL A   1      34.224  31.929  28.030  1.00  0.00    -0.269 OA
BRANCH  33  36
ATOM     36  C   UNL A   1      35.754  30.163  28.298  1.00  0.00     0.039 A 
ATOM     37  C   UNL A   1      36.831  30.196  27.415  1.00  0.00     0.014 A 
ATOM     38  C   UNL A   1      35.890  29.613  29.578  1.00  0.00     0.014 A 
ATOM     39  C   UNL A   1      38.065  29.701  27.830  1.00  0.00     0.010 A 
ATOM     40  C   UNL A   1      37.140  29.200  30.017  1.00  0.00     0.010 A 
ATOM     41  C   UNL A   1      38.233  29.221  29.142  1.00  0.00    -0.014 A 
BRANCH  41  42
ATOM     42  C   UNL A   1      39.552  28.736  29.609  1.00  0.00     0.031 A 
ATOM     43  C   UNL A   1      40.268  29.449  30.721  1.00  0.00     0.074 A 
ATOM     44  C   UNL A   1      40.132  27.696  28.979  1.00  0.00     0.049 A 
ATOM     45  N   UNL A   1      41.433  29.184  31.251  1.00  0.00    -0.248 NA
ATOM     46  C   UNL A   1      39.604  30.631  31.299  1.00  0.00     0.031 C 
ATOM     47  C   UNL A   1      39.569  26.983  27.829  1.00  0.00     0.029 A 
ATOM     48  N   UNL A   1      41.331  27.072  29.202  1.00  0.00    -0.354 N 
ATOM     49  C   UNL A   1      41.657  30.179  32.194  1.00  0.00     0.074 A 
ATOM     50  C   UNL A   1      40.525  31.077  32.140  1.00  0.00     0.031 C 
ATOM     51  C   UNL A   1      40.417  26.014  27.455  1.00  0.00     0.029 A 
ATOM     52  C   UNL A   1      41.596  26.057  28.312  1.00  0.00     0.049 A 
ATOM     53  H   UNL A   1      41.944  27.325  29.930  1.00  0.00     0.167 HD
ATOM     54  C   UNL A   1      42.698  30.317  33.047  1.00  0.00     0.034 A 
ATOM     55  C   UNL A   1      42.673  25.258  28.197  1.00  0.00     0.034 A 
ATOM     56  C   UNL A   1      43.802  29.399  33.117  1.00  0.00     0.049 A 
ATOM     57  C   UNL A   1      43.798  25.407  29.185  1.00  0.00     0.074 A 
ATOM     58  C   UNL A   1      44.859  29.394  34.010  1.00  0.00     0.029 A 
ATOM     59  N   UNL A   1      44.002  28.335  32.253  1.00  0.00    -0.354 N 
ATOM     60  N   UNL A   1      43.912  26.251  30.182  1.00  0.00    -0.248 NA
ATOM     61  C   UNL A   1      44.922  24.471  29.056  1.00  0.00     0.031 C 
ATOM     62  C   UNL A   1      45.718  28.347  33.660  1.00  0.00     0.029 A 
ATOM     63  C   UNL A   1      45.174  27.675  32.577  1.00  0.00     0.049 A 
ATOM     64  H   UNL A   1      43.398  28.083  31.517  1.00  0.00     0.167 HD
ATOM     65  C   UNL A   1      45.105  25.927  30.819  1.00  0.00     0.074 A 
ATOM     66  C   UNL A   1      45.661  24.793  30.110  1.00  0.00     0.031 C 
ATOM     67  C   UNL A   1      45.694  26.522  31.886  1.00  0.00     0.034 A 
BRANCH  54  68
ATOM     68  C   UNL A   1      42.675  31.483  34.001  1.00  0.00     0.023 A 
ATOM     69  C   UNL A   1      43.276  32.704  33.632  1.00  0.00     0.012 A 
ATOM     70  C   UNL A   1      42.004  31.390  35.236  1.00  0.00     0.148 A 
ATOM     71  C   UNL A   1      43.241  33.802  34.490  1.00  0.00     0.002 A 
ATOM     72  C   UNL A   1      41.930  32.503  36.064  1.00  0.00     0.091 A 
ATOM     73  F   UNL A   1      41.457  30.215  35.579  1.00  0.00    -0.205 F 
ATOM     74  C   UNL A   1      42.557  33.705  35.699  1.00  0.00     0.022 A 
BRANCH  72  75
ATOM     75  S   UNL A   1      41.003  32.507  37.603  1.00  0.00     0.127 S 
ATOM     76  O   UNL A   1      41.880  31.726  38.476  1.00  0.00    -0.237 OA
ATOM     77  O   UNL A   1      40.942  33.934  37.919  1.00  0.00    -0.237 OA
ATOM     78  O   UNL A   1      39.718  31.894  37.301  1.00  0.00    -0.744 OA
ENDBRANCH  72  75
ENDBRANCH  54  68
BRANCH  55  79
ATOM     79  C   UNL A   1      42.717  24.216  27.134  1.00  0.00     0.023 A 
ATOM     80  C   UNL A   1      43.417  24.468  25.939  1.00  0.00     0.012 A 
ATOM     81  C   UNL A   1      42.089  22.967  27.313  1.00  0.00     0.148 A 
ATOM     82  C   UNL A   1      43.460  23.511  24.925  1.00  0.00     0.002 A 
ATOM     83  C   UNL A   1      42.185  21.996  26.324  1.00  0.00     0.091 A 
ATOM     84  F   UNL A   1      41.422  22.750  28.455  1.00  0.00    -0.205 F 
ATOM     85  C   UNL A   1      42.853  22.273  25.120  1.00  0.00     0.022 A 
BRANCH  83  86
ATOM     86  S   UNL A   1      41.551  20.331  26.547  1.00  0.00     0.127 S 
ATOM     87  O   UNL A   1      42.055  19.657  25.354  1.00  0.00    -0.237 OA
ATOM     88  O   UNL A   1      42.190  19.930  27.800  1.00  0.00    -0.237 OA
ATOM     89  O   UNL A   1      40.102  20.470  26.630  1.00  0.00    -0.744 OA
ENDBRANCH  83  86
ENDBRANCH  55  79
BRANCH  67  90
ATOM     90  C   UNL A   1      46.994  25.941  32.377  1.00  0.00     0.023 A 
ATOM     91  C   UNL A   1      48.216  26.406  31.853  1.00  0.00     0.012 A 
ATOM     92  C   UNL A   1      47.002  24.977  33.404  1.00  0.00     0.148 A 
ATOM     93  C   UNL A   1      49.426  25.891  32.316  1.00  0.00     0.002 A 
ATOM     94  C   UNL A   1      48.213  24.509  33.899  1.00  0.00     0.091 A 
ATOM     95  F   UNL A   1      45.828  24.534  33.878  1.00  0.00    -0.205 F 
ATOM     96  C   UNL A   1      49.425  24.953  33.346  1.00  0.00     0.022 A 
BRANCH  94  97
ATOM     97  S   UNL A   1      48.313  23.376  35.289  1.00  0.00     0.127 S 
ATOM     98  O   UNL A   1      47.540  24.085  36.307  1.00  0.00    -0.237 OA
ATOM     99  O   UNL A   1      47.664  22.177  34.757  1.00  0.00    -0.237 OA
ATOM    100  O   UNL A   1      49.732  23.218  35.578  1.00  0.00    -0.744 OA
ENDBRANCH  94  97
ENDBRANCH  67  90
ENDBRANCH  41  42
ENDBRANCH  33  36
ENDBRANCH  31  32
ENDBRANCH  30  31
ENDBRANCH  29  30
ENDBRANCH  28  29
ENDBRANCH   1  28
TORSDOF 21
ENDMDL
MODEL 2
REMARK VINA RESULT:     -10.5      3.448      5.172
REMARK SMILES Cc1noc(C)c1[C@H](C)NC(=O)NCC(=O)NCC(=O)NCCCCCCNC(=O)c1ccc(-c2c3nc(c(-c4cccc(S(=O)(=O)[O-])c4F)c4ccc([nH]4)c(-c4cccc(S(=O)(=O)[O-])c4F)c4nc(c(-c5cccc(S(=O)(=O)[O-])c5F)c5ccc2[nH]5)C=C4)C=C3)cc1
REMARK SMILES IDX 23 1 22 2 21 3 19 4 20 5 18 7 17 8 15 9 16 10 14 12 13 13
REMARK SMILES IDX 10 14 11 15 12 17 8 19 9 20 7 21 1 22 2 23 3 24 4 25 5 26
REMARK SMILES IDX 6 27 24 28 25 29 26 30 27 31 28 32 29 33 30 35 31 36 32 37
REMARK SMILES IDX 93 38 33 39 92 40 34 41 35 42 36 43 86 44 37 45 91 46 85 47
REMARK SMILES IDX 87 48 38 49 90 50 84 51 83 52 39 54 71 55 51 56 70 57 52 58
REMARK SMILES IDX 55 59 69 60 88 61 53 62 54 63 68 65 89 66 56 67 40 68 41 69
REMARK SMILES IDX 49 70 42 71 44 72 50 73 43 74 45 75 46 76 47 77 48 78 72 79
REMARK SMILES IDX 73 80 81 81 74 82 76 83 82 84 75 85 77 86 78 87 79 88 80 89
REMARK SMILES IDX 57 90 58 91 66 92 59 93 61 94 67 95 60 96 62 97 63 98 64 99
REMARK SMILES IDX 65 100
REMARK H PARENT 21 6 17 11 10 16 13 18 28 34 87 53 55 64
REMARK Flexibility Score: inf
ROOT
ATOM      1  C   UNL A   1      34.840  30.288  27.710  1.00  0.00     0.021 C 
ENDROOT
BRANCH   1   2
ATOM      2  C   UNL A   1      34.339  29.023  27.034  1.00  0.00     0.116 C 
BRANCH   2   3
ATOM      3  N   UNL A   1      33.161  28.531  27.692  1.00  0.00    -0.355 N 
ATOM      4  C   UNL A   1      31.988  28.181  27.112  1.00  0.00     0.239 C 
ATOM      5  O   UNL A   1      31.056  27.835  27.842  1.00  0.00    -0.273 OA
ATOM      6  H   UNL A   1      33.213  28.437  28.670  1.00  0.00     0.163 HD
BRANCH   4   7
ATOM      7  C   UNL A   1      31.892  28.023  25.590  1.00  0.00     0.216 C 
BRANCH   7   8
ATOM      8  N   UNL A   1      31.216  28.995  24.745  1.00  0.00    -0.346 N 
ATOM      9  C   UNL A   1      30.515  28.886  23.588  1.00  0.00     0.239 C 
ATOM     10  O   UNL A   1      29.740  29.824  23.355  1.00  0.00    -0.273 OA
ATOM     11  H   UNL A   1      31.280  29.918  25.081  1.00  0.00     0.164 HD
BRANCH   9  12
ATOM     12  C   UNL A   1      30.553  27.697  22.596  1.00  0.00     0.217 C 
BRANCH  12  13
ATOM     13  N   UNL A   1      31.785  27.226  21.982  1.00  0.00    -0.329 N 
ATOM     14  N   UNL A   1      32.638  25.422  23.242  1.00  0.00    -0.331 N 
ATOM     15  C   UNL A   1      32.739  26.338  22.271  1.00  0.00     0.315 C 
ATOM     16  H   UNL A   1      33.498  25.105  23.602  1.00  0.00     0.165 HD
ATOM     17  O   UNL A   1      33.786  26.393  21.625  1.00  0.00    -0.249 OA
ATOM     18  H   UNL A   1      31.963  27.683  21.129  1.00  0.00     0.165 HD
BRANCH  14  19
ATOM     19  C   UNL A   1      31.467  24.818  23.850  1.00  0.00     0.116 C 
ATOM     20  C   UNL A   1      30.873  23.796  22.884  1.00  0.00     0.036 C 
BRANCH  19  21
ATOM     21  C   UNL A   1      31.842  24.300  25.209  1.00  0.00     0.040 A 
ATOM     22  C   UNL A   1      29.665  24.876  26.557  1.00  0.00     0.071 C 
ATOM     23  C   UNL A   1      31.026  24.333  26.384  1.00  0.00     0.086 A 
ATOM     24  N   UNL A   1      31.637  23.786  27.437  1.00  0.00    -0.085 NA
ATOM     25  O   UNL A   1      32.851  23.345  26.971  1.00  0.00    -0.361 OA
ATOM     26  C   UNL A   1      32.969  23.630  25.648  1.00  0.00     0.139 A 
ATOM     27  C   UNL A   1      34.213  23.143  25.027  1.00  0.00     0.091 C 
ENDBRANCH  19  21
ENDBRANCH  14  19
ENDBRANCH  12  13
ENDBRANCH   9  12
ENDBRANCH   7   8
ENDBRANCH   4   7
ENDBRANCH   2   3
ENDBRANCH   1   2
BRANCH   1  28
ATOM     28  C   UNL A   1      33.780  31.387  27.713  1.00  0.00     0.002 C 
BRANCH  28  29
ATOM     29  C   UNL A   1      34.339  32.771  28.061  1.00  0.00     0.002 C 
BRANCH  29  30
ATOM     30  C   UNL A   1      33.285  33.883  28.075  1.00  0.00     0.021 C 
BRANCH  30  31
ATOM     31  C   UNL A   1      33.809  35.201  28.629  1.00  0.00     0.116 C 
BRANCH  31  32
ATOM     32  N   UNL A   1      33.097  35.570  29.843  1.00  0.00    -0.352 N 
ATOM     33  C   UNL A   1      33.245  35.057  31.099  1.00  0.00     0.251 C 
ATOM     34  H   UNL A   1      32.421  36.280  29.745  1.00  0.00     0.163 HD
ATOM     35  O   UNL A   1      32.380  35.238  31.954  1.00  0.00    -0.269 OA
BRANCH  33  36
ATOM     36  C   UNL A   1      34.462  34.289  31.408  1.00  0.00     0.039 A 
ATOM     37  C   UNL A   1      35.709  34.875  31.198  1.00  0.00     0.014 A 
ATOM     38  C   UNL A   1      34.355  32.992  31.923  1.00  0.00     0.014 A 
ATOM     39  C   UNL A   1      36.858  34.165  31.536  1.00  0.00     0.010 A 
ATOM     40  C   UNL A   1      35.497  32.322  32.338  1.00  0.00     0.010 A 
ATOM     41  C   UNL A   1      36.760  32.893  32.130  1.00  0.00    -0.014 A 
BRANCH  41  42
ATOM     42  C   UNL A   1      37.973  32.150  32.537  1.00  0.00     0.031 A 
ATOM     43  C   UNL A   1      38.700  32.523  33.798  1.00  0.00     0.074 A 
ATOM     44  C   UNL A   1      38.457  31.186  31.729  1.00  0.00     0.049 A 
ATOM     45  N   UNL A   1      39.786  32.002  34.305  1.00  0.00    -0.248 NA
ATOM     46  C   UNL A   1      38.155  33.647  34.581  1.00  0.00     0.031 C 
ATOM     47  C   UNL A   1      37.884  30.799  30.437  1.00  0.00     0.029 A 
ATOM     48  N   UNL A   1      39.550  30.372  31.864  1.00  0.00    -0.354 N 
ATOM     49  C   UNL A   1      40.073  32.749  35.440  1.00  0.00     0.074 A 
ATOM     50  C   UNL A   1      39.069  33.787  35.529  1.00  0.00     0.031 C 
ATOM     51  C   UNL A   1      38.625  29.818  29.904  1.00  0.00     0.029 A 
ATOM     52  C   UNL A   1      39.742  29.527  30.796  1.00  0.00     0.049 A 
ATOM     53  H   UNL A   1      40.142  30.389  32.651  1.00  0.00     0.167 HD
ATOM     54  C   UNL A   1      41.066  32.572  36.342  1.00  0.00     0.034 A 
ATOM     55  C   UNL A   1      40.715  28.627  30.560  1.00  0.00     0.034 A 
ATOM     56  C   UNL A   1      42.038  31.516  36.264  1.00  0.00     0.049 A 
ATOM     57  C   UNL A   1      41.783  28.422  31.599  1.00  0.00     0.074 A 
ATOM     58  C   UNL A   1      43.026  31.189  37.176  1.00  0.00     0.029 A 
ATOM     59  N   UNL A   1      42.157  30.627  35.207  1.00  0.00    -0.354 N 
ATOM     60  N   UNL A   1      41.938  29.027  32.751  1.00  0.00    -0.248 NA
ATOM     61  C   UNL A   1      42.786  27.386  31.323  1.00  0.00     0.031 C 
ATOM     62  C   UNL A   1      43.766  30.124  36.651  1.00  0.00     0.029 A 
ATOM     63  C   UNL A   1      43.213  29.762  35.433  1.00  0.00     0.049 A 
ATOM     64  H   UNL A   1      41.575  30.612  34.413  1.00  0.00     0.167 HD
ATOM     65  C   UNL A   1      43.037  28.424  33.353  1.00  0.00     0.074 A 
ATOM     66  C   UNL A   1      43.490  27.388  32.448  1.00  0.00     0.031 C 
ATOM     67  C   UNL A   1      43.627  28.709  34.540  1.00  0.00     0.034 A 
BRANCH  54  68
ATOM     68  C   UNL A   1      41.129  33.517  37.514  1.00  0.00     0.023 A 
ATOM     69  C   UNL A   1      42.044  34.590  37.501  1.00  0.00     0.012 A 
ATOM     70  C   UNL A   1      40.239  33.381  38.597  1.00  0.00     0.148 A 
ATOM     71  C   UNL A   1      42.098  35.491  38.564  1.00  0.00     0.002 A 
ATOM     72  C   UNL A   1      40.264  34.312  39.628  1.00  0.00     0.091 A 
ATOM     73  F   UNL A   1      39.391  32.343  38.601  1.00  0.00    -0.205 F 
ATOM     74  C   UNL A   1      41.200  35.359  39.620  1.00  0.00     0.022 A 
BRANCH  72  75
ATOM     75  S   UNL A   1      39.096  34.279  40.993  1.00  0.00     0.127 S 
ATOM     76  O   UNL A   1      37.880  33.807  40.328  1.00  0.00    -0.237 OA
ATOM     77  O   UNL A   1      39.711  33.309  41.899  1.00  0.00    -0.237 OA
ATOM     78  O   UNL A   1      39.037  35.640  41.505  1.00  0.00    -0.744 OA
ENDBRANCH  72  75
ENDBRANCH  54  68
BRANCH  55  79
ATOM     79  C   UNL A   1      40.695  27.821  29.308  1.00  0.00     0.023 A 
ATOM     80  C   UNL A   1      39.768  26.770  29.170  1.00  0.00     0.012 A 
ATOM     81  C   UNL A   1      41.572  28.107  28.244  1.00  0.00     0.148 A 
ATOM     82  C   UNL A   1      39.740  25.994  28.011  1.00  0.00     0.002 A 
ATOM     83  C   UNL A   1      41.500  27.369  27.069  1.00  0.00     0.091 A 
ATOM     84  F   UNL A   1      42.452  29.107  28.399  1.00  0.00    -0.205 F 
ATOM     85  C   UNL A   1      40.599  26.299  26.958  1.00  0.00     0.022 A 
BRANCH  83  86
ATOM     86  S   UNL A   1      42.472  27.778  25.616  1.00  0.00     0.127 S 
ATOM     87  O   UNL A   1      41.851  29.026  25.181  1.00  0.00    -0.237 OA
ATOM     88  O   UNL A   1      43.814  27.920  26.180  1.00  0.00    -0.237 OA
ATOM     89  O   UNL A   1      42.320  26.647  24.709  1.00  0.00    -0.744 OA
ENDBRANCH  83  86
ENDBRANCH  55  79
BRANCH  67  90
ATOM     90  C   UNL A   1      44.808  27.869  34.950  1.00  0.00     0.023 A 
ATOM     91  C   UNL A   1      44.609  26.691  35.696  1.00  0.00     0.012 A 
ATOM     92  C   UNL A   1      46.110  28.219  34.541  1.00  0.00     0.148 A 
ATOM     93  C   UNL A   1      45.693  25.894  36.062  1.00  0.00     0.002 A 
ATOM     94  C   UNL A   1      47.177  27.391  34.862  1.00  0.00     0.091 A 
ATOM     95  F   UNL A   1      46.280  29.353  33.846  1.00  0.00    -0.205 F 
ATOM     96  C   UNL A   1      46.974  26.237  35.635  1.00  0.00     0.022 A 
BRANCH  94  97
ATOM     97  S   UNL A   1      48.846  27.698  34.272  1.00  0.00     0.127 S 
ATOM     98  O   UNL A   1      49.170  28.957  34.939  1.00  0.00    -0.237 OA
ATOM     99  O   UNL A   1      49.573  26.534  34.780  1.00  0.00    -0.237 OA
ATOM    100  O   UNL A   1      48.753  27.766  32.819  1.00  0.00    -0.744 OA
ENDBRANCH  94  97
ENDBRANCH  67  90
ENDBRANCH  41  42
ENDBRANCH  33  36
ENDBRANCH  31  32
ENDBRANCH  30  31
ENDBRANCH  29  30
ENDBRANCH  28  29
ENDBRANCH   1  28
TORSDOF 21
ENDMDL
MODEL 3
REMARK VINA RESULT:     -10.3      5.153      9.688
REMARK SMILES Cc1noc(C)c1[C@H](C)NC(=O)NCC(=O)NCC(=O)NCCCCCCNC(=O)c1ccc(-c2c3nc(c(-c4cccc(S(=O)(=O)[O-])c4F)c4ccc([nH]4)c(-c4cccc(S(=O)(=O)[O-])c4F)c4nc(c(-c5cccc(S(=O)(=O)[O-])c5F)c5ccc2[nH]5)C=C4)C=C3)cc1
REMARK SMILES IDX 23 1 22 2 21 3 19 4 20 5 18 7 17 8 15 9 16 10 14 12 13 13
REMARK SMILES IDX 10 14 11 15 12 17 8 19 9 20 7 21 1 22 2 23 3 24 4 25 5 26
REMARK SMILES IDX 6 27 24 28 25 29 26 30 27 31 28 32 29 33 30 35 31 36 32 37
REMARK SMILES IDX 93 38 33 39 92 40 34 41 35 42 36 43 86 44 37 45 91 46 85 47
REMARK SMILES IDX 87 48 38 49 90 50 84 51 83 52 39 54 71 55 51 56 70 57 52 58
REMARK SMILES IDX 55 59 69 60 88 61 53 62 54 63 68 65 89 66 56 67 40 68 41 69
REMARK SMILES IDX 49 70 42 71 44 72 50 73 43 74 45 75 46 76 47 77 48 78 72 79
REMARK SMILES IDX 73 80 81 81 74 82 76 83 82 84 75 85 77 86 78 87 79 88 80 89
REMARK SMILES IDX 57 90 58 91 66 92 59 93 61 94 67 95 60 96 62 97 63 98 64 99
REMARK SMILES IDX 65 100
REMARK H PARENT 21 6 17 11 10 16 13 18 28 34 87 53 55 64
REMARK Flexibility Score: inf
ROOT
ATOM      1  C   UNL A   1      35.989  21.635  24.684  1.00  0.00     0.021 C 
ENDROOT
BRANCH   1   2
ATOM      2  C   UNL A   1      34.946  21.411  25.765  1.00  0.00     0.116 C 
BRANCH   2   3
ATOM      3  N   UNL A   1      34.064  20.338  25.403  1.00  0.00    -0.355 N 
ATOM      4  C   UNL A   1      32.713  20.384  25.321  1.00  0.00     0.239 C 
ATOM      5  O   UNL A   1      32.108  19.343  25.053  1.00  0.00    -0.273 OA
ATOM      6  H   UNL A   1      34.488  19.476  25.191  1.00  0.00     0.163 HD
BRANCH   4   7
ATOM      7  C   UNL A   1      31.979  21.730  25.357  1.00  0.00     0.216 C 
BRANCH   7   8
ATOM      8  N   UNL A   1      31.140  22.132  26.474  1.00  0.00    -0.346 N 
ATOM      9  C   UNL A   1      30.409  23.248  26.728  1.00  0.00     0.239 C 
ATOM     10  O   UNL A   1      29.504  23.102  27.562  1.00  0.00    -0.273 OA
ATOM     11  H   UNL A   1      31.091  21.459  27.191  1.00  0.00     0.164 HD
BRANCH   9  12
ATOM     12  C   UNL A   1      30.566  24.628  26.042  1.00  0.00     0.217 C 
BRANCH  12  13
ATOM     13  N   UNL A   1      29.533  25.205  25.194  1.00  0.00    -0.329 N 
ATOM     14  N   UNL A   1      30.520  26.766  23.725  1.00  0.00    -0.331 N 
ATOM     15  C   UNL A   1      29.454  26.170  24.276  1.00  0.00     0.315 C 
ATOM     16  H   UNL A   1      30.352  27.673  23.380  1.00  0.00     0.165 HD
ATOM     17  O   UNL A   1      28.332  26.555  23.945  1.00  0.00    -0.249 OA
ATOM     18  H   UNL A   1      28.662  24.769  25.336  1.00  0.00     0.165 HD
BRANCH  14  19
ATOM     19  C   UNL A   1      31.880  26.292  23.552  1.00  0.00     0.116 C 
ATOM     20  C   UNL A   1      32.307  26.512  22.103  1.00  0.00     0.036 C 
BRANCH  19  21
ATOM     21  C   UNL A   1      32.749  26.929  24.598  1.00  0.00     0.040 A 
ATOM     22  C   UNL A   1      31.708  29.337  24.683  1.00  0.00     0.071 C 
ATOM     23  C   UNL A   1      32.647  28.272  25.082  1.00  0.00     0.086 A 
ATOM     24  N   UNL A   1      33.558  28.540  26.021  1.00  0.00    -0.085 NA
ATOM     25  O   UNL A   1      34.253  27.371  26.204  1.00  0.00    -0.361 OA
ATOM     26  C   UNL A   1      33.765  26.409  25.378  1.00  0.00     0.139 A 
ATOM     27  C   UNL A   1      34.400  25.088  25.537  1.00  0.00     0.091 C 
ENDBRANCH  19  21
ENDBRANCH  14  19
ENDBRANCH  12  13
ENDBRANCH   9  12
ENDBRANCH   7   8
ENDBRANCH   4   7
ENDBRANCH   2   3
ENDBRANCH   1   2
BRANCH   1  28
ATOM     28  C   UNL A   1      37.281  20.875  24.976  1.00  0.00     0.002 C 
BRANCH  28  29
ATOM     29  C   UNL A   1      38.263  21.659  25.853  1.00  0.00     0.002 C 
BRANCH  29  30
ATOM     30  C   UNL A   1      39.727  21.247  25.672  1.00  0.00     0.021 C 
BRANCH  30  31
ATOM     31  C   UNL A   1      40.213  20.269  26.732  1.00  0.00     0.116 C 
BRANCH  31  32
ATOM     32  N   UNL A   1      41.312  19.461  26.225  1.00  0.00    -0.352 N 
ATOM     33  C   UNL A   1      42.539  19.878  25.795  1.00  0.00     0.251 C 
ATOM     34  H   UNL A   1      41.150  18.491  26.187  1.00  0.00     0.163 HD
ATOM     35  O   UNL A   1      43.246  19.138  25.114  1.00  0.00    -0.269 OA
BRANCH  33  36
ATOM     36  C   UNL A   1      42.995  21.226  26.166  1.00  0.00     0.039 A 
ATOM     37  C   UNL A   1      43.194  22.177  25.166  1.00  0.00     0.014 A 
ATOM     38  C   UNL A   1      43.208  21.545  27.512  1.00  0.00     0.014 A 
ATOM     39  C   UNL A   1      43.579  23.467  25.524  1.00  0.00     0.010 A 
ATOM     40  C   UNL A   1      43.507  22.851  27.870  1.00  0.00     0.010 A 
ATOM     41  C   UNL A   1      43.715  23.819  26.878  1.00  0.00    -0.014 A 
BRANCH  41  42
ATOM     42  C   UNL A   1      44.078  25.200  27.271  1.00  0.00     0.031 A 
ATOM     43  C   UNL A   1      45.516  25.635  27.259  1.00  0.00     0.074 A 
ATOM     44  C   UNL A   1      43.115  26.034  27.707  1.00  0.00     0.049 A 
ATOM     45  N   UNL A   1      46.026  26.793  27.587  1.00  0.00    -0.248 NA
ATOM     46  C   UNL A   1      46.518  24.634  26.852  1.00  0.00     0.031 C 
ATOM     47  C   UNL A   1      41.697  25.691  27.845  1.00  0.00     0.029 A 
ATOM     48  N   UNL A   1      43.184  27.335  28.133  1.00  0.00    -0.354 N 
ATOM     49  C   UNL A   1      47.402  26.652  27.460  1.00  0.00     0.074 A 
ATOM     50  C   UNL A   1      47.653  25.284  27.062  1.00  0.00     0.031 C 
ATOM     51  C   UNL A   1      41.030  26.756  28.315  1.00  0.00     0.029 A 
ATOM     52  C   UNL A   1      41.973  27.845  28.542  1.00  0.00     0.049 A 
ATOM     53  H   UNL A   1      44.020  27.854  28.147  1.00  0.00     0.167 HD
ATOM     54  C   UNL A   1      48.368  27.584  27.633  1.00  0.00     0.034 A 
ATOM     55  C   UNL A   1      41.663  29.052  29.050  1.00  0.00     0.034 A 
ATOM     56  C   UNL A   1      48.106  28.950  27.995  1.00  0.00     0.049 A 
ATOM     57  C   UNL A   1      42.750  30.081  29.193  1.00  0.00     0.074 A 
ATOM     58  C   UNL A   1      49.003  29.998  28.101  1.00  0.00     0.029 A 
ATOM     59  N   UNL A   1      46.858  29.455  28.325  1.00  0.00    -0.354 N 
ATOM     60  N   UNL A   1      44.025  29.980  28.905  1.00  0.00    -0.248 NA
ATOM     61  C   UNL A   1      42.350  31.403  29.694  1.00  0.00     0.031 C 
ATOM     62  C   UNL A   1      48.302  31.128  28.533  1.00  0.00     0.029 A 
ATOM     63  C   UNL A   1      46.963  30.795  28.655  1.00  0.00     0.049 A 
ATOM     64  H   UNL A   1      46.020  28.938  28.324  1.00  0.00     0.167 HD
ATOM     65  C   UNL A   1      44.574  31.231  29.159  1.00  0.00     0.074 A 
ATOM     66  C   UNL A   1      43.486  32.081  29.598  1.00  0.00     0.031 C 
ATOM     67  C   UNL A   1      45.863  31.638  29.051  1.00  0.00     0.034 A 
BRANCH  54  68
ATOM     68  C   UNL A   1      49.797  27.168  27.395  1.00  0.00     0.023 A 
ATOM     69  C   UNL A   1      50.556  26.630  28.454  1.00  0.00     0.012 A 
ATOM     70  C   UNL A   1      50.367  27.251  26.110  1.00  0.00     0.148 A 
ATOM     71  C   UNL A   1      51.870  26.214  28.248  1.00  0.00     0.002 A 
ATOM     72  C   UNL A   1      51.660  26.788  25.900  1.00  0.00     0.091 A 
ATOM     73  F   UNL A   1      49.637  27.785  25.120  1.00  0.00    -0.205 F 
ATOM     74  C   UNL A   1      52.417  26.281  26.969  1.00  0.00     0.022 A 
BRANCH  72  75
ATOM     75  S   UNL A   1      52.425  26.754  24.275  1.00  0.00     0.127 S 
ATOM     76  O   UNL A   1      53.352  27.883  24.363  1.00  0.00    -0.237 OA
ATOM     77  O   UNL A   1      53.066  25.438  24.267  1.00  0.00    -0.237 OA
ATOM     78  O   UNL A   1      51.342  26.911  23.316  1.00  0.00    -0.744 OA
ENDBRANCH  72  75
ENDBRANCH  54  68
BRANCH  55  79
ATOM     79  C   UNL A   1      40.254  29.365  29.417  1.00  0.00     0.023 A 
ATOM     80  C   UNL A   1      39.341  29.748  28.415  1.00  0.00     0.012 A 
ATOM     81  C   UNL A   1      39.808  29.260  30.748  1.00  0.00     0.148 A 
ATOM     82  C   UNL A   1      38.020  30.058  28.738  1.00  0.00     0.002 A 
ATOM     83  C   UNL A   1      38.477  29.512  31.055  1.00  0.00     0.091 A 
ATOM     84  F   UNL A   1      40.695  28.900  31.688  1.00  0.00    -0.205 F 
ATOM     85  C   UNL A   1      37.585  29.931  30.055  1.00  0.00     0.022 A 
BRANCH  83  86
ATOM     86  S   UNL A   1      37.801  29.244  32.697  1.00  0.00     0.127 S 
ATOM     87  O   UNL A   1      37.976  27.803  32.861  1.00  0.00    -0.237 OA
ATOM     88  O   UNL A   1      38.680  30.070  33.524  1.00  0.00    -0.237 OA
ATOM     89  O   UNL A   1      36.422  29.710  32.636  1.00  0.00    -0.744 OA
ENDBRANCH  83  86
ENDBRANCH  55  79
BRANCH  67  90
ATOM     90  C   UNL A   1      46.169  33.076  29.382  1.00  0.00     0.023 A 
ATOM     91  C   UNL A   1      46.538  33.433  30.694  1.00  0.00     0.012 A 
ATOM     92  C   UNL A   1      46.150  34.060  28.375  1.00  0.00     0.148 A 
ATOM     93  C   UNL A   1      46.845  34.757  31.007  1.00  0.00     0.002 A 
ATOM     94  C   UNL A   1      46.511  35.366  28.682  1.00  0.00     0.091 A 
ATOM     95  F   UNL A   1      45.780  33.703  27.136  1.00  0.00    -0.205 F 
ATOM     96  C   UNL A   1      46.843  35.719  30.000  1.00  0.00     0.022 A 
BRANCH  94  97
ATOM     97  S   UNL A   1      46.634  36.651  27.433  1.00  0.00     0.127 S 
ATOM     98  O   UNL A   1      45.231  37.010  27.236  1.00  0.00    -0.237 OA
ATOM     99  O   UNL A   1      47.435  37.668  28.114  1.00  0.00    -0.237 OA
ATOM    100  O   UNL A   1      47.288  36.035  26.286  1.00  0.00    -0.744 OA
ENDBRANCH  94  97
ENDBRANCH  67  90
ENDBRANCH  41  42
ENDBRANCH  33  36
ENDBRANCH  31  32
ENDBRANCH  30  31
ENDBRANCH  29  30
ENDBRANCH  28  29
ENDBRANCH   1  28
TORSDOF 21
ENDMDL
