MODEL 1
REMARK VINA RESULT:      -9.8      0.000      0.000
REMARK SMILES CC[NH+](CC)CC[N@H+]1CC[C@@H](C(=O)NCCCCCCNC(=O)c2ccc(-c3c4nc(c(-c5cccc(S(=O)(=O)[O-])c5F)c5ccc([nH]5)c(-c5cccc(S(=O)(=O)[O-])c5F)c5nc(c(-c6cccc(S(=O)(=O)[O-])c6F)c6ccc3[nH]6)C=C5)C=C4)cc2)[C@@H]1C
REMARK SMILES IDX 17 1 16 2 15 3 14 4 12 5 13 6 11 8 8 9 9 10 87 11 10 13
REMARK SMILES IDX 88 14 7 15 6 16 3 17 2 19 1 20 4 21 5 22 18 23 19 24 20 25
REMARK SMILES IDX 21 26 22 27 23 29 24 30 25 31 86 32 26 33 85 34 27 35 28 36
REMARK SMILES IDX 29 37 79 38 30 39 84 40 78 41 80 42 31 43 83 44 77 45 76 46
REMARK SMILES IDX 32 48 64 49 44 50 63 51 45 52 48 53 62 54 81 55 46 56 47 57
REMARK SMILES IDX 61 59 82 60 49 61 33 62 34 63 42 64 35 65 37 66 43 67 36 68
REMARK SMILES IDX 38 69 39 70 40 71 41 72 65 73 66 74 74 75 67 76 69 77 75 78
REMARK SMILES IDX 68 79 70 80 71 81 72 82 73 83 50 84 51 85 59 86 52 87 54 88
REMARK SMILES IDX 60 89 53 90 55 91 56 92 57 93 58 94
REMARK H PARENT 14 7 8 12 3 18 21 28 80 47 48 58
REMARK Flexibility Score: inf
ROOT
ATOM      1  C   UNL A   1      30.974  27.436  27.084  1.00  0.00     0.002 C 
ENDROOT
BRANCH   1   2
ATOM      2  C   UNL A   1      30.869  27.073  25.603  1.00  0.00     0.021 C 
BRANCH   2   3
ATOM      3  C   UNL A   1      29.842  25.977  25.334  1.00  0.00     0.116 C 
BRANCH   3   4
ATOM      4  N   UNL A   1      29.834  24.987  26.391  1.00  0.00    -0.356 N 
ATOM      5  C   UNL A   1      30.433  23.765  26.446  1.00  0.00     0.229 C 
ATOM      6  O   UNL A   1      30.233  23.076  27.450  1.00  0.00    -0.275 OA
ATOM      7  H   UNL A   1      29.320  25.236  27.193  1.00  0.00     0.163 HD
BRANCH   5   8
ATOM      8  C   UNL A   1      31.338  23.258  25.331  1.00  0.00     0.142 C 
ATOM      9  N   UNL A   1      33.477  22.132  25.231  1.00  0.00    -0.327 N 
ATOM     10  C   UNL A   1      32.464  21.212  24.715  1.00  0.00     0.263 C 
ATOM     11  C   UNL A   1      32.832  23.388  25.642  1.00  0.00     0.193 C 
ATOM     12  H   UNL A   1      34.125  22.342  24.472  1.00  0.00     0.348 HD
ATOM     13  C   UNL A   1      31.093  21.802  24.978  1.00  0.00     0.081 C 
ATOM     14  C   UNL A   1      33.457  24.537  24.847  1.00  0.00     0.076 C 
BRANCH   9  15
ATOM     15  C   UNL A   1      34.363  21.547  26.252  1.00  0.00     0.324 C 
BRANCH  15  16
ATOM     16  C   UNL A   1      35.867  21.947  26.230  1.00  0.00     0.324 C 
BRANCH  16  17
ATOM     17  N   UNL A   1      36.514  22.422  25.000  1.00  0.00    -0.331 N 
ATOM     18  H   UNL A   1      35.705  22.689  24.440  1.00  0.00     0.348 HD
BRANCH  17  19
ATOM     19  C   UNL A   1      37.271  23.666  25.106  1.00  0.00     0.258 C 
ATOM     20  C   UNL A   1      37.872  23.885  26.493  1.00  0.00     0.071 C 
ENDBRANCH  17  19
BRANCH  17  21
ATOM     21  C   UNL A   1      37.185  21.387  24.209  1.00  0.00     0.258 C 
ATOM     22  C   UNL A   1      37.411  20.030  24.862  1.00  0.00     0.071 C 
ENDBRANCH  17  21
ENDBRANCH  16  17
ENDBRANCH  15  16
ENDBRANCH   9  15
ENDBRANCH   5   8
ENDBRANCH   3   4
ENDBRANCH   2   3
ENDBRANCH   1   2
BRANCH   1  23
ATOM     23  C   UNL A   1      32.186  28.309  27.431  1.00  0.00     0.002 C 
BRANCH  23  24
ATOM     24  C   UNL A   1      33.492  27.890  26.751  1.00  0.00     0.021 C 
BRANCH  24  25
ATOM     25  C   UNL A   1      34.224  29.034  26.056  1.00  0.00     0.116 C 
BRANCH  25  26
ATOM     26  N   UNL A   1      33.977  30.305  26.722  1.00  0.00    -0.352 N 
ATOM     27  C   UNL A   1      34.619  30.860  27.798  1.00  0.00     0.251 C 
ATOM     28  H   UNL A   1      33.244  30.842  26.345  1.00  0.00     0.163 HD
ATOM     29  O   UNL A   1      34.119  31.808  28.392  1.00  0.00    -0.269 OA
BRANCH  27  30
ATOM     30  C   UNL A   1      35.917  30.304  28.234  1.00  0.00     0.039 A 
ATOM     31  C   UNL A   1      37.055  30.551  27.464  1.00  0.00     0.014 A 
ATOM     32  C   UNL A   1      35.999  29.527  29.393  1.00  0.00     0.014 A 
ATOM     33  C   UNL A   1      38.288  30.048  27.882  1.00  0.00     0.010 A 
ATOM     34  C   UNL A   1      37.241  29.097  29.849  1.00  0.00     0.010 A 
ATOM     35  C   UNL A   1      38.395  29.338  29.090  1.00  0.00    -0.014 A 
BRANCH  35  36
ATOM     36  C   UNL A   1      39.703  28.829  29.570  1.00  0.00     0.031 A 
ATOM     37  C   UNL A   1      40.426  29.539  30.683  1.00  0.00     0.074 A 
ATOM     38  C   UNL A   1      40.274  27.777  28.952  1.00  0.00     0.049 A 
ATOM     39  N   UNL A   1      41.597  29.279  31.201  1.00  0.00    -0.248 NA
ATOM     40  C   UNL A   1      39.758  30.711  31.276  1.00  0.00     0.031 C 
ATOM     41  C   UNL A   1      39.706  27.053  27.813  1.00  0.00     0.029 A 
ATOM     42  N   UNL A   1      41.473  27.149  29.179  1.00  0.00    -0.354 N 
ATOM     43  C   UNL A   1      41.824  30.271  32.148  1.00  0.00     0.074 A 
ATOM     44  C   UNL A   1      40.683  31.159  32.111  1.00  0.00     0.031 C 
ATOM     45  C   UNL A   1      40.552  26.078  27.444  1.00  0.00     0.029 A 
ATOM     46  C   UNL A   1      41.737  26.128  28.295  1.00  0.00     0.049 A 
ATOM     47  H   UNL A   1      42.087  27.406  29.904  1.00  0.00     0.167 HD
ATOM     48  C   UNL A   1      42.871  30.413  32.993  1.00  0.00     0.034 A 
ATOM     49  C   UNL A   1      42.816  25.331  28.177  1.00  0.00     0.034 A 
ATOM     50  C   UNL A   1      43.983  29.503  33.055  1.00  0.00     0.049 A 
ATOM     51  C   UNL A   1      43.952  25.493  29.151  1.00  0.00     0.074 A 
ATOM     52  C   UNL A   1      45.050  29.509  33.935  1.00  0.00     0.029 A 
ATOM     53  N   UNL A   1      44.177  28.432  32.197  1.00  0.00    -0.354 N 
ATOM     54  N   UNL A   1      44.074  26.340  30.144  1.00  0.00    -0.248 NA
ATOM     55  C   UNL A   1      45.084  24.565  29.011  1.00  0.00     0.031 C 
ATOM     56  C   UNL A   1      45.907  28.460  33.588  1.00  0.00     0.029 A 
ATOM     57  C   UNL A   1      45.352  27.776  32.518  1.00  0.00     0.049 A 
ATOM     58  H   UNL A   1      43.567  28.175  31.468  1.00  0.00     0.167 HD
ATOM     59  C   UNL A   1      45.274  26.021  30.771  1.00  0.00     0.074 A 
ATOM     60  C   UNL A   1      45.830  24.891  30.058  1.00  0.00     0.031 C 
ATOM     61  C   UNL A   1      45.867  26.619  31.833  1.00  0.00     0.034 A 
BRANCH  48  62
ATOM     62  C   UNL A   1      42.850  31.574  33.954  1.00  0.00     0.023 A 
ATOM     63  C   UNL A   1      43.392  32.815  33.562  1.00  0.00     0.012 A 
ATOM     64  C   UNL A   1      42.234  31.457  35.215  1.00  0.00     0.148 A 
ATOM     65  C   UNL A   1      43.350  33.912  34.422  1.00  0.00     0.002 A 
ATOM     66  C   UNL A   1      42.154  32.567  36.048  1.00  0.00     0.091 A 
ATOM     67  F   UNL A   1      41.742  30.264  35.578  1.00  0.00    -0.205 F 
ATOM     68  C   UNL A   1      42.723  33.791  35.659  1.00  0.00     0.022 A 
BRANCH  66  69
ATOM     69  S   UNL A   1      41.294  32.538  37.624  1.00  0.00     0.127 S 
ATOM     70  O   UNL A   1      41.370  33.942  38.027  1.00  0.00    -0.237 OA
ATOM     71  O   UNL A   1      39.959  32.087  37.236  1.00  0.00    -0.237 OA
ATOM     72  O   UNL A   1      42.031  31.609  38.470  1.00  0.00    -0.744 OA
ENDBRANCH  66  69
ENDBRANCH  48  62
BRANCH  49  73
ATOM     73  C   UNL A   1      42.854  24.270  27.130  1.00  0.00     0.023 A 
ATOM     74  C   UNL A   1      43.559  24.501  25.933  1.00  0.00     0.012 A 
ATOM     75  C   UNL A   1      42.205  23.034  27.317  1.00  0.00     0.148 A 
ATOM     76  C   UNL A   1      43.581  23.538  24.923  1.00  0.00     0.002 A 
ATOM     77  C   UNL A   1      42.280  22.058  26.331  1.00  0.00     0.091 A 
ATOM     78  F   UNL A   1      41.533  22.837  28.460  1.00  0.00    -0.205 F 
ATOM     79  C   UNL A   1      42.950  22.315  25.125  1.00  0.00     0.022 A 
BRANCH  77  80
ATOM     80  S   UNL A   1      41.610  20.407  26.560  1.00  0.00     0.127 S 
ATOM     81  O   UNL A   1      40.173  20.667  26.576  1.00  0.00    -0.237 OA
ATOM     82  O   UNL A   1      42.099  19.715  25.368  1.00  0.00    -0.237 OA
ATOM     83  O   UNL A   1      42.180  19.921  27.810  1.00  0.00    -0.744 OA
ENDBRANCH  77  80
ENDBRANCH  49  73
BRANCH  61  84
ATOM     84  C   UNL A   1      47.165  26.037  32.329  1.00  0.00     0.023 A 
ATOM     85  C   UNL A   1      48.392  26.533  31.845  1.00  0.00     0.012 A 
ATOM     86  C   UNL A   1      47.167  25.048  33.333  1.00  0.00     0.148 A 
ATOM     87  C   UNL A   1      49.600  26.028  32.326  1.00  0.00     0.002 A 
ATOM     88  C   UNL A   1      48.372  24.589  33.846  1.00  0.00     0.091 A 
ATOM     89  F   UNL A   1      45.989  24.577  33.768  1.00  0.00    -0.205 F 
ATOM     90  C   UNL A   1      49.590  25.067  33.334  1.00  0.00     0.022 A 
BRANCH  88  91
ATOM     91  S   UNL A   1      48.458  23.428  35.214  1.00  0.00     0.127 S 
ATOM     92  O   UNL A   1      49.902  23.294  35.401  1.00  0.00    -0.237 OA
ATOM     93  O   UNL A   1      47.769  24.155  36.280  1.00  0.00    -0.237 OA
ATOM     94  O   UNL A   1      47.774  22.223  34.763  1.00  0.00    -0.744 OA
ENDBRANCH  88  91
ENDBRANCH  61  84
ENDBRANCH  35  36
ENDBRANCH  27  30
ENDBRANCH  25  26
ENDBRANCH  24  25
ENDBRANCH  23  24
ENDBRANCH   1  23
TORSDOF 21
ENDMDL
MODEL 2
REMARK VINA RESULT:      -9.5      4.859      9.939
REMARK SMILES CC[NH+](CC)CC[N@H+]1CC[C@@H](C(=O)NCCCCCCNC(=O)c2ccc(-c3c4nc(c(-c5cccc(S(=O)(=O)[O-])c5F)c5ccc([nH]5)c(-c5cccc(S(=O)(=O)[O-])c5F)c5nc(c(-c6cccc(S(=O)(=O)[O-])c6F)c6ccc3[nH]6)C=C5)C=C4)cc2)[C@@H]1C
REMARK SMILES IDX 17 1 16 2 15 3 14 4 12 5 13 6 11 8 8 9 9 10 87 11 10 13
REMARK SMILES IDX 88 14 7 15 6 16 3 17 2 19 1 20 4 21 5 22 18 23 19 24 20 25
REMARK SMILES IDX 21 26 22 27 23 29 24 30 25 31 86 32 26 33 85 34 27 35 28 36
REMARK SMILES IDX 29 37 79 38 30 39 84 40 78 41 80 42 31 43 83 44 77 45 76 46
REMARK SMILES IDX 32 48 64 49 44 50 63 51 45 52 48 53 62 54 81 55 46 56 47 57
REMARK SMILES IDX 61 59 82 60 49 61 33 62 34 63 42 64 35 65 37 66 43 67 36 68
REMARK SMILES IDX 38 69 39 70 40 71 41 72 65 73 66 74 74 75 67 76 69 77 75 78
REMARK SMILES IDX 68 79 70 80 71 81 72 82 73 83 50 84 51 85 59 86 52 87 54 88
REMARK SMILES IDX 60 89 53 90 55 91 56 92 57 93 58 94
REMARK H PARENT 14 7 8 12 3 18 21 28 80 47 48 58
REMARK Flexibility Score: inf
ROOT
ATOM      1  C   UNL A   1      34.522  20.412  24.870  1.00  0.00     0.002 C 
ENDROOT
BRANCH   1   2
ATOM      2  C   UNL A   1      33.419  20.491  25.925  1.00  0.00     0.021 C 
BRANCH   2   3
ATOM      3  C   UNL A   1      33.738  21.482  27.041  1.00  0.00     0.116 C 
BRANCH   3   4
ATOM      4  N   UNL A   1      32.566  22.239  27.428  1.00  0.00    -0.356 N 
ATOM      5  C   UNL A   1      31.996  23.327  26.839  1.00  0.00     0.229 C 
ATOM      6  O   UNL A   1      31.017  23.830  27.395  1.00  0.00    -0.275 OA
ATOM      7  H   UNL A   1      32.110  21.918  28.239  1.00  0.00     0.163 HD
BRANCH   5   8
ATOM      8  C   UNL A   1      32.518  23.902  25.528  1.00  0.00     0.142 C 
ATOM      9  N   UNL A   1      31.853  25.701  24.054  1.00  0.00    -0.327 N 
ATOM     10  C   UNL A   1      33.150  26.053  24.630  1.00  0.00     0.263 C 
ATOM     11  C   UNL A   1      31.415  24.404  24.592  1.00  0.00     0.193 C 
ATOM     12  H   UNL A   1      31.975  25.601  23.046  1.00  0.00     0.348 HD
ATOM     13  C   UNL A   1      33.481  25.059  25.726  1.00  0.00     0.081 C 
ATOM     14  C   UNL A   1      31.210  23.438  23.422  1.00  0.00     0.076 C 
BRANCH   9  15
ATOM     15  C   UNL A   1      30.839  26.765  24.147  1.00  0.00     0.324 C 
BRANCH  15  16
ATOM     16  C   UNL A   1      31.000  28.011  23.229  1.00  0.00     0.324 C 
BRANCH  16  17
ATOM     17  N   UNL A   1      30.948  29.374  23.773  1.00  0.00    -0.331 N 
ATOM     18  H   UNL A   1      31.673  29.835  23.224  1.00  0.00     0.348 HD
BRANCH  17  19
ATOM     19  C   UNL A   1      29.751  30.150  23.462  1.00  0.00     0.258 C 
ATOM     20  C   UNL A   1      28.645  29.313  22.822  1.00  0.00     0.071 C 
ENDBRANCH  17  19
BRANCH  17  21
ATOM     21  C   UNL A   1      31.396  29.508  25.161  1.00  0.00     0.258 C 
ATOM     22  C   UNL A   1      32.885  29.705  25.411  1.00  0.00     0.071 C 
ENDBRANCH  17  21
ENDBRANCH  16  17
ENDBRANCH  15  16
ENDBRANCH   9  15
ENDBRANCH   5   8
ENDBRANCH   3   4
ENDBRANCH   2   3
ENDBRANCH   1   2
BRANCH   1  23
ATOM     23  C   UNL A   1      35.558  21.538  24.959  1.00  0.00     0.002 C 
BRANCH  23  24
ATOM     24  C   UNL A   1      36.983  21.128  24.577  1.00  0.00     0.021 C 
BRANCH  24  25
ATOM     25  C   UNL A   1      38.068  21.814  25.402  1.00  0.00     0.116 C 
BRANCH  25  26
ATOM     26  N   UNL A   1      38.885  20.844  26.115  1.00  0.00    -0.352 N 
ATOM     27  C   UNL A   1      40.098  21.016  26.732  1.00  0.00     0.251 C 
ATOM     28  H   UNL A   1      38.515  19.933  26.161  1.00  0.00     0.163 HD
ATOM     29  O   UNL A   1      40.768  20.043  27.056  1.00  0.00    -0.269 OA
BRANCH  27  30
ATOM     30  C   UNL A   1      40.586  22.384  27.000  1.00  0.00     0.039 A 
ATOM     31  C   UNL A   1      40.220  23.418  26.137  1.00  0.00     0.014 A 
ATOM     32  C   UNL A   1      41.418  22.635  28.095  1.00  0.00     0.014 A 
ATOM     33  C   UNL A   1      40.658  24.718  26.398  1.00  0.00     0.010 A 
ATOM     34  C   UNL A   1      41.786  23.942  28.396  1.00  0.00     0.010 A 
ATOM     35  C   UNL A   1      41.425  24.993  27.542  1.00  0.00    -0.014 A 
BRANCH  35  36
ATOM     36  C   UNL A   1      41.868  26.374  27.857  1.00  0.00     0.031 A 
ATOM     37  C   UNL A   1      43.276  26.803  27.545  1.00  0.00     0.074 A 
ATOM     38  C   UNL A   1      41.027  27.213  28.494  1.00  0.00     0.049 A 
ATOM     39  N   UNL A   1      43.863  27.945  27.792  1.00  0.00    -0.248 NA
ATOM     40  C   UNL A   1      44.149  25.813  26.891  1.00  0.00     0.031 C 
ATOM     41  C   UNL A   1      39.664  26.887  28.916  1.00  0.00     0.029 A 
ATOM     42  N   UNL A   1      41.206  28.505  28.920  1.00  0.00    -0.354 N 
ATOM     43  C   UNL A   1      45.177  27.799  27.364  1.00  0.00     0.074 A 
ATOM     44  C   UNL A   1      45.313  26.446  26.871  1.00  0.00     0.031 C 
ATOM     45  C   UNL A   1      39.129  27.950  29.537  1.00  0.00     0.029 A 
ATOM     46  C   UNL A   1      40.119  29.021  29.587  1.00  0.00     0.049 A 
ATOM     47  H   UNL A   1      42.034  29.014  28.766  1.00  0.00     0.167 HD
ATOM     48  C   UNL A   1      46.172  28.716  27.354  1.00  0.00     0.034 A 
ATOM     49  C   UNL A   1      39.945  30.217  30.182  1.00  0.00     0.034 A 
ATOM     50  C   UNL A   1      46.019  30.072  27.806  1.00  0.00     0.049 A 
ATOM     51  C   UNL A   1      41.059  31.228  30.126  1.00  0.00     0.074 A 
ATOM     52  C   UNL A   1      46.940  31.104  27.756  1.00  0.00     0.029 A 
ATOM     53  N   UNL A   1      44.878  30.583  28.402  1.00  0.00    -0.354 N 
ATOM     54  N   UNL A   1      42.243  31.123  29.574  1.00  0.00    -0.248 NA
ATOM     55  C   UNL A   1      40.800  32.535  30.747  1.00  0.00     0.031 C 
ATOM     56  C   UNL A   1      46.366  32.230  28.352  1.00  0.00     0.029 A 
ATOM     57  C   UNL A   1      45.073  31.912  28.736  1.00  0.00     0.049 A 
ATOM     58  H   UNL A   1      44.049  30.076  28.563  1.00  0.00     0.167 HD
ATOM     59  C   UNL A   1      42.854  32.360  29.742  1.00  0.00     0.074 A 
ATOM     60  C   UNL A   1      41.900  33.205  30.431  1.00  0.00     0.031 C 
ATOM     61  C   UNL A   1      44.096  32.757  29.373  1.00  0.00     0.034 A 
BRANCH  48  62
ATOM     62  C   UNL A   1      47.509  28.300  26.796  1.00  0.00     0.023 A 
ATOM     63  C   UNL A   1      48.590  28.070  27.672  1.00  0.00     0.012 A 
ATOM     64  C   UNL A   1      47.676  28.070  25.417  1.00  0.00     0.148 A 
ATOM     65  C   UNL A   1      49.825  27.651  27.181  1.00  0.00     0.002 A 
ATOM     66  C   UNL A   1      48.897  27.605  24.940  1.00  0.00     0.091 A 
ATOM     67  F   UNL A   1      46.643  28.312  24.598  1.00  0.00    -0.205 F 
ATOM     68  C   UNL A   1      49.975  27.408  25.818  1.00  0.00     0.022 A 
BRANCH  66  69
ATOM     69  S   UNL A   1      49.169  27.182  23.216  1.00  0.00     0.127 S 
ATOM     70  O   UNL A   1      50.603  26.895  23.206  1.00  0.00    -0.237 OA
ATOM     71  O   UNL A   1      48.311  26.010  23.050  1.00  0.00    -0.237 OA
ATOM     72  O   UNL A   1      48.763  28.349  22.445  1.00  0.00    -0.744 OA
ENDBRANCH  66  69
ENDBRANCH  48  62
BRANCH  49  73
ATOM     73  C   UNL A   1      38.646  30.549  30.834  1.00  0.00     0.023 A 
ATOM     74  C   UNL A   1      38.421  30.161  32.169  1.00  0.00     0.012 A 
ATOM     75  C   UNL A   1      37.639  31.251  30.144  1.00  0.00     0.148 A 
ATOM     76  C   UNL A   1      37.201  30.428  32.792  1.00  0.00     0.002 A 
ATOM     77  C   UNL A   1      36.449  31.565  30.789  1.00  0.00     0.091 A 
ATOM     78  F   UNL A   1      37.869  31.604  28.871  1.00  0.00    -0.205 F 
ATOM     79  C   UNL A   1      36.219  31.137  32.106  1.00  0.00     0.022 A 
BRANCH  77  80
ATOM     80  S   UNL A   1      35.183  32.587  30.028  1.00  0.00     0.127 S 
ATOM     81  O   UNL A   1      35.957  33.747  29.593  1.00  0.00    -0.237 OA
ATOM     82  O   UNL A   1      34.705  31.724  28.949  1.00  0.00    -0.237 OA
ATOM     83  O   UNL A   1      34.200  32.838  31.074  1.00  0.00    -0.744 OA
ENDBRANCH  77  80
ENDBRANCH  49  73
BRANCH  61  84
ATOM     84  C   UNL A   1      44.488  34.184  29.656  1.00  0.00     0.023 A 
ATOM     85  C   UNL A   1      45.186  34.502  30.838  1.00  0.00     0.012 A 
ATOM     86  C   UNL A   1      44.229  35.196  28.711  1.00  0.00     0.148 A 
ATOM     87  C   UNL A   1      45.589  35.813  31.091  1.00  0.00     0.002 A 
ATOM     88  C   UNL A   1      44.680  36.488  28.945  1.00  0.00     0.091 A 
ATOM     89  F   UNL A   1      43.549  34.876  27.601  1.00  0.00    -0.205 F 
ATOM     90  C   UNL A   1      45.347  36.802  30.140  1.00  0.00     0.022 A 
BRANCH  88  91
ATOM     91  S   UNL A   1      44.505  37.804  27.734  1.00  0.00     0.127 S 
ATOM     92  O   UNL A   1      44.742  38.994  28.551  1.00  0.00    -0.237 OA
ATOM     93  O   UNL A   1      45.573  37.494  26.784  1.00  0.00    -0.237 OA
ATOM     94  O   UNL A   1      43.158  37.678  27.194  1.00  0.00    -0.744 OA
ENDBRANCH  88  91
ENDBRANCH  61  84
ENDBRANCH  35  36
ENDBRANCH  27  30
ENDBRANCH  25  26
ENDBRANCH  24  25
ENDBRANCH  23  24
ENDBRANCH   1  23
TORSDOF 21
ENDMDL
MODEL 3
REMARK VINA RESULT:      -9.4      5.203      8.592
REMARK SMILES CC[NH+](CC)CC[N@H+]1CC[C@@H](C(=O)NCCCCCCNC(=O)c2ccc(-c3c4nc(c(-c5cccc(S(=O)(=O)[O-])c5F)c5ccc([nH]5)c(-c5cccc(S(=O)(=O)[O-])c5F)c5nc(c(-c6cccc(S(=O)(=O)[O-])c6F)c6ccc3[nH]6)C=C5)C=C4)cc2)[C@@H]1C
REMARK SMILES IDX 17 1 16 2 15 3 14 4 12 5 13 6 11 8 8 9 9 10 87 11 10 13
REMARK SMILES IDX 88 14 7 15 6 16 3 17 2 19 1 20 4 21 5 22 18 23 19 24 20 25
REMARK SMILES IDX 21 26 22 27 23 29 24 30 25 31 86 32 26 33 85 34 27 35 28 36
REMARK SMILES IDX 29 37 79 38 30 39 84 40 78 41 80 42 31 43 83 44 77 45 76 46
REMARK SMILES IDX 32 48 64 49 44 50 63 51 45 52 48 53 62 54 81 55 46 56 47 57
REMARK SMILES IDX 61 59 82 60 49 61 33 62 34 63 42 64 35 65 37 66 43 67 36 68
REMARK SMILES IDX 38 69 39 70 40 71 41 72 65 73 66 74 74 75 67 76 69 77 75 78
REMARK SMILES IDX 68 79 70 80 71 81 72 82 73 83 50 84 51 85 59 86 52 87 54 88
REMARK SMILES IDX 60 89 53 90 55 91 56 92 57 93 58 94
REMARK H PARENT 14 7 8 12 3 18 21 28 80 47 48 58
REMARK Flexibility Score: inf
ROOT
ATOM      1  C   UNL A   1      35.910  21.257  24.812  1.00  0.00     0.002 C 
ENDROOT
BRANCH   1   2
ATOM      2  C   UNL A   1      35.330  19.848  24.928  1.00  0.00     0.021 C 
BRANCH   2   3
ATOM      3  C   UNL A   1      33.807  19.840  25.026  1.00  0.00     0.116 C 
BRANCH   3   4
ATOM      4  N   UNL A   1      33.211  20.762  24.082  1.00  0.00    -0.356 N 
ATOM      5  C   UNL A   1      32.360  21.802  24.297  1.00  0.00     0.229 C 
ATOM      6  O   UNL A   1      31.947  22.415  23.309  1.00  0.00    -0.275 OA
ATOM      7  H   UNL A   1      33.461  20.615  23.140  1.00  0.00     0.163 HD
BRANCH   5   8
ATOM      8  C   UNL A   1      31.940  22.226  25.699  1.00  0.00     0.142 C 
ATOM      9  N   UNL A   1      31.771  24.330  26.880  1.00  0.00    -0.327 N 
ATOM     10  C   UNL A   1      30.419  23.796  26.726  1.00  0.00     0.263 C 
ATOM     11  C   UNL A   1      32.733  23.416  26.247  1.00  0.00     0.193 C 
ATOM     12  H   UNL A   1      31.980  24.368  27.878  1.00  0.00     0.348 HD
ATOM     13  C   UNL A   1      30.472  22.601  25.794  1.00  0.00     0.081 C 
ATOM     14  C   UNL A   1      33.739  22.958  27.307  1.00  0.00     0.076 C 
BRANCH   9  15
ATOM     15  C   UNL A   1      31.918  25.737  26.472  1.00  0.00     0.324 C 
BRANCH  15  16
ATOM     16  C   UNL A   1      32.769  26.046  25.205  1.00  0.00     0.324 C 
BRANCH  16  17
ATOM     17  N   UNL A   1      32.181  26.706  24.032  1.00  0.00    -0.331 N 
ATOM     18  H   UNL A   1      32.445  26.060  23.288  1.00  0.00     0.348 HD
BRANCH  17  19
ATOM     19  C   UNL A   1      30.723  26.717  23.959  1.00  0.00     0.258 C 
ATOM     20  C   UNL A   1      30.178  27.793  23.022  1.00  0.00     0.071 C 
ENDBRANCH  17  19
BRANCH  17  21
ATOM     21  C   UNL A   1      32.802  27.977  23.655  1.00  0.00     0.258 C 
ATOM     22  C   UNL A   1      33.653  28.005  22.393  1.00  0.00     0.071 C 
ENDBRANCH  17  21
ENDBRANCH  16  17
ENDBRANCH  15  16
ENDBRANCH   9  15
ENDBRANCH   5   8
ENDBRANCH   3   4
ENDBRANCH   2   3
ENDBRANCH   1   2
BRANCH   1  23
ATOM     23  C   UNL A   1      37.406  21.294  24.479  1.00  0.00     0.002 C 
BRANCH  23  24
ATOM     24  C   UNL A   1      38.165  20.003  24.800  1.00  0.00     0.021 C 
BRANCH  24  25
ATOM     25  C   UNL A   1      38.886  20.025  26.143  1.00  0.00     0.116 C 
BRANCH  25  26
ATOM     26  N   UNL A   1      40.066  19.174  26.126  1.00  0.00    -0.352 N 
ATOM     27  C   UNL A   1      41.391  19.527  26.099  1.00  0.00     0.251 C 
ATOM     28  H   UNL A   1      39.888  18.206  26.135  1.00  0.00     0.163 HD
ATOM     29  O   UNL A   1      42.245  18.692  25.824  1.00  0.00    -0.269 OA
BRANCH  27  30
ATOM     30  C   UNL A   1      41.776  20.920  26.404  1.00  0.00     0.039 A 
ATOM     31  C   UNL A   1      42.192  21.243  27.697  1.00  0.00     0.014 A 
ATOM     32  C   UNL A   1      41.708  21.905  25.414  1.00  0.00     0.014 A 
ATOM     33  C   UNL A   1      42.580  22.552  27.986  1.00  0.00     0.010 A 
ATOM     34  C   UNL A   1      42.172  23.188  25.684  1.00  0.00     0.010 A 
ATOM     35  C   UNL A   1      42.596  23.529  26.976  1.00  0.00    -0.014 A 
BRANCH  35  36
ATOM     36  C   UNL A   1      43.041  24.917  27.255  1.00  0.00     0.031 A 
ATOM     37  C   UNL A   1      42.108  25.888  27.926  1.00  0.00     0.074 A 
ATOM     38  C   UNL A   1      44.256  25.322  26.834  1.00  0.00     0.049 A 
ATOM     39  N   UNL A   1      42.295  27.151  28.204  1.00  0.00    -0.248 NA
ATOM     40  C   UNL A   1      40.780  25.382  28.313  1.00  0.00     0.031 C 
ATOM     41  C   UNL A   1      45.219  24.494  26.106  1.00  0.00     0.029 A 
ATOM     42  N   UNL A   1      44.876  26.542  26.935  1.00  0.00    -0.354 N 
ATOM     43  C   UNL A   1      41.103  27.600  28.760  1.00  0.00     0.074 A 
ATOM     44  C   UNL A   1      40.185  26.482  28.749  1.00  0.00     0.031 C 
ATOM     45  C   UNL A   1      46.310  25.227  25.830  1.00  0.00     0.029 A 
ATOM     46  C   UNL A   1      46.112  26.584  26.330  1.00  0.00     0.049 A 
ATOM     47  H   UNL A   1      44.475  27.314  27.395  1.00  0.00     0.167 HD
ATOM     48  C   UNL A   1      40.808  28.822  29.261  1.00  0.00     0.034 A 
ATOM     49  C   UNL A   1      46.979  27.604  26.184  1.00  0.00     0.034 A 
ATOM     50  C   UNL A   1      41.739  29.917  29.307  1.00  0.00     0.049 A 
ATOM     51  C   UNL A   1      46.636  28.943  26.780  1.00  0.00     0.074 A 
ATOM     52  C   UNL A   1      41.567  31.167  29.874  1.00  0.00     0.029 A 
ATOM     53  N   UNL A   1      43.010  29.898  28.756  1.00  0.00    -0.354 N 
ATOM     54  N   UNL A   1      45.565  29.302  27.443  1.00  0.00    -0.248 NA
ATOM     55  C   UNL A   1      47.639  30.009  26.637  1.00  0.00     0.031 C 
ATOM     56  C   UNL A   1      42.723  31.916  29.637  1.00  0.00     0.029 A 
ATOM     57  C   UNL A   1      43.631  31.119  28.958  1.00  0.00     0.049 A 
ATOM     58  H   UNL A   1      43.413  29.130  28.291  1.00  0.00     0.167 HD
ATOM     59  C   UNL A   1      45.780  30.619  27.832  1.00  0.00     0.074 A 
ATOM     60  C   UNL A   1      47.094  30.987  27.347  1.00  0.00     0.031 C 
ATOM     61  C   UNL A   1      44.960  31.453  28.517  1.00  0.00     0.034 A 
BRANCH  48  62
ATOM     62  C   UNL A   1      39.434  29.033  29.842  1.00  0.00     0.023 A 
ATOM     63  C   UNL A   1      39.170  28.641  31.171  1.00  0.00     0.012 A 
ATOM     64  C   UNL A   1      38.426  29.678  29.099  1.00  0.00     0.148 A 
ATOM     65  C   UNL A   1      37.917  28.859  31.740  1.00  0.00     0.002 A 
ATOM     66  C   UNL A   1      37.194  29.935  29.690  1.00  0.00     0.091 A 
ATOM     67  F   UNL A   1      38.689  30.025  27.831  1.00  0.00    -0.205 F 
ATOM     68  C   UNL A   1      36.934  29.515  31.004  1.00  0.00     0.022 A 
BRANCH  66  69
ATOM     69  S   UNL A   1      35.890  30.848  28.857  1.00  0.00     0.127 S 
ATOM     70  O   UNL A   1      35.186  29.777  28.152  1.00  0.00    -0.237 OA
ATOM     71  O   UNL A   1      35.154  31.424  29.982  1.00  0.00    -0.237 OA
ATOM     72  O   UNL A   1      36.558  31.819  28.003  1.00  0.00    -0.744 OA
ENDBRANCH  66  69
ENDBRANCH  48  62
BRANCH  49  73
ATOM     73  C   UNL A   1      48.282  27.387  25.492  1.00  0.00     0.023 A 
ATOM     74  C   UNL A   1      49.414  27.019  26.243  1.00  0.00     0.012 A 
ATOM     75  C   UNL A   1      48.402  27.534  24.097  1.00  0.00     0.148 A 
ATOM     76  C   UNL A   1      50.653  26.844  25.624  1.00  0.00     0.002 A 
ATOM     77  C   UNL A   1      49.624  27.302  23.479  1.00  0.00     0.091 A 
ATOM     78  F   UNL A   1      47.314  27.893  23.400  1.00  0.00    -0.205 F 
ATOM     79  C   UNL A   1      50.756  26.977  24.243  1.00  0.00     0.022 A 
BRANCH  77  80
ATOM     80  S   UNL A   1      49.820  27.320  21.694  1.00  0.00     0.127 S 
ATOM     81  O   UNL A   1      51.213  26.911  21.541  1.00  0.00    -0.237 OA
ATOM     82  O   UNL A   1      48.835  26.324  21.272  1.00  0.00    -0.237 OA
ATOM     83  O   UNL A   1      49.509  28.682  21.278  1.00  0.00    -0.744 OA
ENDBRANCH  77  80
ENDBRANCH  49  73
BRANCH  61  84
ATOM     84  C   UNL A   1      45.471  32.835  28.833  1.00  0.00     0.023 A 
ATOM     85  C   UNL A   1      46.206  33.063  30.014  1.00  0.00     0.012 A 
ATOM     86  C   UNL A   1      45.286  33.891  27.919  1.00  0.00     0.148 A 
ATOM     87  C   UNL A   1      46.717  34.329  30.296  1.00  0.00     0.002 A 
ATOM     88  C   UNL A   1      45.844  35.135  28.180  1.00  0.00     0.091 A 
ATOM     89  F   UNL A   1      44.570  33.657  26.810  1.00  0.00    -0.205 F 
ATOM     90  C   UNL A   1      46.547  35.360  29.375  1.00  0.00     0.022 A 
BRANCH  88  91
ATOM     91  S   UNL A   1      45.764  36.493  27.008  1.00  0.00     0.127 S 
ATOM     92  O   UNL A   1      46.396  35.904  25.827  1.00  0.00    -0.237 OA
ATOM     93  O   UNL A   1      44.323  36.710  26.884  1.00  0.00    -0.237 OA
ATOM     94  O   UNL A   1      46.492  37.597  27.619  1.00  0.00    -0.744 OA
ENDBRANCH  88  91
ENDBRANCH  61  84
ENDBRANCH  35  36
ENDBRANCH  27  30
ENDBRANCH  25  26
ENDBRANCH  24  25
ENDBRANCH  23  24
ENDBRANCH   1  23
TORSDOF 21
ENDMDL
