MODEL 1
REMARK VINA RESULT:     -10.7      0.000      0.000
REMARK SMILES O=C(CCC(=O)Nc1ccc(C(=O)N2CCOCC2)cc1)NCCCCCCNC(=O)c1ccc(-c2c3nc(c(-c4cccc(S(=O)(=O)[O-])c4F)c4ccc([nH]4)c(-c4cccc(S(=O)(=O)[O-])c4F)c4nc(c(-c5cccc(S(=O)(=O)[O-])c5F)c5ccc2[nH]5)C=C4)C=C3)cc1
REMARK SMILES IDX 25 1 24 2 23 3 22 4 1 5 2 6 3 8 4 9 5 10 6 11 7 12 8 14 9 15
REMARK SMILES IDX 21 16 10 17 20 18 11 19 12 20 13 21 14 22 15 23 19 24 16 25
REMARK SMILES IDX 18 26 17 27 26 28 27 29 28 30 29 31 30 32 31 34 32 35 33 36
REMARK SMILES IDX 94 37 34 38 93 39 35 40 36 41 37 42 87 43 38 44 92 45 86 46
REMARK SMILES IDX 88 47 39 48 91 49 85 50 84 51 40 53 72 54 52 55 71 56 53 57
REMARK SMILES IDX 56 58 70 59 89 60 54 61 55 62 69 64 90 65 57 66 41 67 42 68
REMARK SMILES IDX 50 69 43 70 45 71 51 72 44 73 46 74 47 75 48 76 49 77 73 78
REMARK SMILES IDX 74 79 82 80 75 81 77 82 83 83 76 84 78 85 79 86 80 87 81 88
REMARK SMILES IDX 58 89 59 90 67 91 60 92 62 93 68 94 61 95 63 96 64 97 65 98
REMARK SMILES IDX 66 99
REMARK H PARENT 22 7 7 13 29 33 88 52 56 63
REMARK Flexibility Score: inf
ROOT
ATOM      1  C   UNL A   1      35.254  31.351  28.352  1.00  0.00     0.002 C 
ENDROOT
BRANCH   1   2
ATOM      2  C   UNL A   1      35.702  30.156  27.503  1.00  0.00     0.021 C 
BRANCH   2   3
ATOM      3  C   UNL A   1      34.606  29.162  27.130  1.00  0.00     0.116 C 
BRANCH   3   4
ATOM      4  N   UNL A   1      34.173  29.283  25.752  1.00  0.00    -0.356 N 
ATOM      5  O   UNL A   1      33.511  27.096  25.476  1.00  0.00    -0.275 OA
ATOM      6  C   UNL A   1      33.599  28.246  25.056  1.00  0.00     0.220 C 
ATOM      7  H   UNL A   1      34.295  30.146  25.295  1.00  0.00     0.163 HD
BRANCH   6   8
ATOM      8  C   UNL A   1      33.057  28.651  23.701  1.00  0.00     0.110 C 
BRANCH   8   9
ATOM      9  C   UNL A   1      31.620  29.164  23.697  1.00  0.00     0.110 C 
BRANCH   9  10
ATOM     10  C   UNL A   1      30.706  28.499  22.691  1.00  0.00     0.224 C 
ATOM     11  O   UNL A   1      30.153  29.209  21.841  1.00  0.00    -0.275 OA
ATOM     12  N   UNL A   1      30.385  27.175  22.686  1.00  0.00    -0.326 N 
ATOM     13  H   UNL A   1      29.898  26.903  21.875  1.00  0.00     0.169 HD
BRANCH  12  14
ATOM     14  C   UNL A   1      30.595  26.113  23.583  1.00  0.00     0.041 A 
ATOM     15  C   UNL A   1      30.038  26.249  24.868  1.00  0.00     0.027 A 
ATOM     16  C   UNL A   1      31.390  25.004  23.329  1.00  0.00     0.027 A 
ATOM     17  C   UNL A   1      30.417  25.394  25.915  1.00  0.00     0.016 A 
ATOM     18  C   UNL A   1      31.777  24.158  24.365  1.00  0.00     0.016 A 
ATOM     19  C   UNL A   1      31.348  24.388  25.672  1.00  0.00     0.040 A 
BRANCH  19  20
ATOM     20  C   UNL A   1      31.801  23.466  26.743  1.00  0.00     0.254 C 
ATOM     21  O   UNL A   1      31.005  23.092  27.595  1.00  0.00    -0.269 OA
ATOM     22  N   UNL A   1      33.070  22.936  26.589  1.00  0.00    -0.334 N 
ATOM     23  C   UNL A   1      34.291  23.740  26.497  1.00  0.00     0.148 C 
ATOM     24  C   UNL A   1      33.284  21.510  26.765  1.00  0.00     0.148 C 
ATOM     25  C   UNL A   1      35.283  23.141  25.491  1.00  0.00     0.181 C 
ATOM     26  C   UNL A   1      34.234  21.018  25.667  1.00  0.00     0.181 C 
ATOM     27  O   UNL A   1      35.483  21.731  25.710  1.00  0.00    -0.378 OA
ENDBRANCH  19  20
ENDBRANCH  12  14
ENDBRANCH   9  10
ENDBRANCH   8   9
ENDBRANCH   6   8
ENDBRANCH   3   4
ENDBRANCH   2   3
ENDBRANCH   1   2
BRANCH   1  28
ATOM     28  C   UNL A   1      35.873  32.706  27.996  1.00  0.00     0.002 C 
BRANCH  28  29
ATOM     29  C   UNL A   1      34.931  33.911  28.035  1.00  0.00     0.021 C 
BRANCH  29  30
ATOM     30  C   UNL A   1      33.475  33.614  28.389  1.00  0.00     0.116 C 
BRANCH  30  31
ATOM     31  N   UNL A   1      32.920  34.521  29.380  1.00  0.00    -0.352 N 
ATOM     32  C   UNL A   1      33.355  34.808  30.651  1.00  0.00     0.251 C 
ATOM     33  H   UNL A   1      32.110  35.004  29.097  1.00  0.00     0.163 HD
ATOM     34  O   UNL A   1      32.696  35.576  31.351  1.00  0.00    -0.269 OA
BRANCH  32  35
ATOM     35  C   UNL A   1      34.576  34.174  31.201  1.00  0.00     0.039 A 
ATOM     36  C   UNL A   1      34.460  32.906  31.780  1.00  0.00     0.014 A 
ATOM     37  C   UNL A   1      35.820  34.808  31.166  1.00  0.00     0.014 A 
ATOM     38  C   UNL A   1      35.597  32.251  32.261  1.00  0.00     0.010 A 
ATOM     39  C   UNL A   1      36.964  34.127  31.586  1.00  0.00     0.010 A 
ATOM     40  C   UNL A   1      36.865  32.841  32.136  1.00  0.00    -0.014 A 
BRANCH  40  41
ATOM     41  C   UNL A   1      38.090  32.099  32.533  1.00  0.00     0.031 A 
ATOM     42  C   UNL A   1      38.807  32.416  33.816  1.00  0.00     0.074 A 
ATOM     43  C   UNL A   1      38.601  31.179  31.692  1.00  0.00     0.049 A 
ATOM     44  N   UNL A   1      39.870  31.846  34.326  1.00  0.00    -0.248 NA
ATOM     45  C   UNL A   1      38.282  33.531  34.620  1.00  0.00     0.031 C 
ATOM     46  C   UNL A   1      38.056  30.846  30.373  1.00  0.00     0.029 A 
ATOM     47  N   UNL A   1      39.699  30.366  31.811  1.00  0.00    -0.354 N 
ATOM     48  C   UNL A   1      40.161  32.550  35.488  1.00  0.00     0.074 A 
ATOM     49  C   UNL A   1      39.180  33.609  35.594  1.00  0.00     0.031 C 
ATOM     50  C   UNL A   1      38.810  29.887  29.815  1.00  0.00     0.029 A 
ATOM     51  C   UNL A   1      39.899  29.545  30.724  1.00  0.00     0.049 A 
ATOM     52  H   UNL A   1      40.289  30.368  32.599  1.00  0.00     0.167 HD
ATOM     53  C   UNL A   1      41.136  32.319  36.401  1.00  0.00     0.034 A 
ATOM     54  C   UNL A   1      40.844  28.614  30.493  1.00  0.00     0.034 A 
ATOM     55  C   UNL A   1      42.077  31.233  36.322  1.00  0.00     0.049 A 
ATOM     56  C   UNL A   1      41.874  28.333  31.552  1.00  0.00     0.074 A 
ATOM     57  C   UNL A   1      43.021  30.842  37.255  1.00  0.00     0.029 A 
ATOM     58  N   UNL A   1      42.202  30.371  35.244  1.00  0.00    -0.354 N 
ATOM     59  N   UNL A   1      42.008  28.876  32.736  1.00  0.00    -0.248 NA
ATOM     60  C   UNL A   1      42.859  27.282  31.256  1.00  0.00     0.031 C 
ATOM     61  C   UNL A   1      43.728  29.752  36.733  1.00  0.00     0.029 A 
ATOM     62  C   UNL A   1      43.217  29.457  35.479  1.00  0.00     0.049 A 
ATOM     63  H   UNL A   1      41.650  30.403  34.429  1.00  0.00     0.167 HD
ATOM     64  C   UNL A   1      43.073  28.216  33.340  1.00  0.00     0.074 A 
ATOM     65  C   UNL A   1      43.527  27.212  32.399  1.00  0.00     0.031 C 
ATOM     66  C   UNL A   1      43.634  28.434  34.556  1.00  0.00     0.034 A 
BRANCH  53  67
ATOM     67  C   UNL A   1      41.192  33.223  37.605  1.00  0.00     0.023 A 
ATOM     68  C   UNL A   1      40.383  32.936  38.724  1.00  0.00     0.012 A 
ATOM     69  C   UNL A   1      42.073  34.321  37.653  1.00  0.00     0.148 A 
ATOM     70  C   UNL A   1      40.425  33.746  39.858  1.00  0.00     0.002 A 
ATOM     71  C   UNL A   1      42.137  35.100  38.804  1.00  0.00     0.091 A 
ATOM     72  F   UNL A   1      42.816  34.596  36.573  1.00  0.00    -0.205 F 
ATOM     73  C   UNL A   1      41.307  34.821  39.901  1.00  0.00     0.022 A 
BRANCH  71  74
ATOM     74  S   UNL A   1      43.296  36.462  38.978  1.00  0.00     0.127 S 
ATOM     75  O   UNL A   1      42.865  37.357  37.905  1.00  0.00    -0.237 OA
ATOM     76  O   UNL A   1      43.008  36.948  40.328  1.00  0.00    -0.237 OA
ATOM     77  O   UNL A   1      44.620  35.877  38.820  1.00  0.00    -0.744 OA
ENDBRANCH  71  74
ENDBRANCH  53  67
BRANCH  54  78
ATOM     78  C   UNL A   1      40.791  27.802  29.243  1.00  0.00     0.023 A 
ATOM     79  C   UNL A   1      39.795  26.813  29.114  1.00  0.00     0.012 A 
ATOM     80  C   UNL A   1      41.680  28.027  28.176  1.00  0.00     0.148 A 
ATOM     81  C   UNL A   1      39.701  26.046  27.953  1.00  0.00     0.002 A 
ATOM     82  C   UNL A   1      41.548  27.294  27.002  1.00  0.00     0.091 A 
ATOM     83  F   UNL A   1      42.628  28.962  28.324  1.00  0.00    -0.205 F 
ATOM     84  C   UNL A   1      40.569  26.294  26.894  1.00  0.00     0.022 A 
BRANCH  82  85
ATOM     85  S   UNL A   1      42.534  27.633  25.539  1.00  0.00     0.127 S 
ATOM     86  O   UNL A   1      43.882  27.701  26.097  1.00  0.00    -0.237 OA
ATOM     87  O   UNL A   1      42.267  26.454  24.714  1.00  0.00    -0.237 OA
ATOM     88  O   UNL A   1      42.008  28.877  24.994  1.00  0.00    -0.744 OA
ENDBRANCH  82  85
ENDBRANCH  54  78
BRANCH  66  89
ATOM     89  C   UNL A   1      44.802  27.565  34.944  1.00  0.00     0.023 A 
ATOM     90  C   UNL A   1      46.113  27.995  34.655  1.00  0.00     0.012 A 
ATOM     91  C   UNL A   1      44.611  26.352  35.633  1.00  0.00     0.148 A 
ATOM     92  C   UNL A   1      47.212  27.215  35.013  1.00  0.00     0.002 A 
ATOM     93  C   UNL A   1      45.713  25.601  36.028  1.00  0.00     0.091 A 
ATOM     94  F   UNL A   1      43.357  25.944  35.880  1.00  0.00    -0.205 F 
ATOM     95  C   UNL A   1      47.013  26.026  35.708  1.00  0.00     0.022 A 
BRANCH  93  96
ATOM     96  S   UNL A   1      45.542  24.104  37.006  1.00  0.00     0.127 S 
ATOM     97  O   UNL A   1      44.841  23.218  36.079  1.00  0.00    -0.237 OA
ATOM     98  O   UNL A   1      46.934  23.734  37.267  1.00  0.00    -0.237 OA
ATOM     99  O   UNL A   1      44.795  24.497  38.194  1.00  0.00    -0.744 OA
ENDBRANCH  93  96
ENDBRANCH  66  89
ENDBRANCH  40  41
ENDBRANCH  32  35
ENDBRANCH  30  31
ENDBRANCH  29  30
ENDBRANCH  28  29
ENDBRANCH   1  28
TORSDOF 20
ENDMDL
MODEL 2
REMARK VINA RESULT:     -10.2      1.064      7.467
REMARK SMILES O=C(CCC(=O)Nc1ccc(C(=O)N2CCOCC2)cc1)NCCCCCCNC(=O)c1ccc(-c2c3nc(c(-c4cccc(S(=O)(=O)[O-])c4F)c4ccc([nH]4)c(-c4cccc(S(=O)(=O)[O-])c4F)c4nc(c(-c5cccc(S(=O)(=O)[O-])c5F)c5ccc2[nH]5)C=C4)C=C3)cc1
REMARK SMILES IDX 25 1 24 2 23 3 22 4 1 5 2 6 3 8 4 9 5 10 6 11 7 12 8 14 9 15
REMARK SMILES IDX 21 16 10 17 20 18 11 19 12 20 13 21 14 22 15 23 19 24 16 25
REMARK SMILES IDX 18 26 17 27 26 28 27 29 28 30 29 31 30 32 31 34 32 35 33 36
REMARK SMILES IDX 94 37 34 38 93 39 35 40 36 41 37 42 87 43 38 44 92 45 86 46
REMARK SMILES IDX 88 47 39 48 91 49 85 50 84 51 40 53 72 54 52 55 71 56 53 57
REMARK SMILES IDX 56 58 70 59 89 60 54 61 55 62 69 64 90 65 57 66 41 67 42 68
REMARK SMILES IDX 50 69 43 70 45 71 51 72 44 73 46 74 47 75 48 76 49 77 73 78
REMARK SMILES IDX 74 79 82 80 75 81 77 82 83 83 76 84 78 85 79 86 80 87 81 88
REMARK SMILES IDX 58 89 59 90 67 91 60 92 62 93 68 94 61 95 63 96 64 97 65 98
REMARK SMILES IDX 66 99
REMARK H PARENT 22 7 7 13 29 33 88 52 56 63
REMARK Flexibility Score: inf
ROOT
ATOM      1  C   UNL A   1      35.171  31.252  28.192  1.00  0.00     0.002 C 
ENDROOT
BRANCH   1   2
ATOM      2  C   UNL A   1      35.754  30.060  27.424  1.00  0.00     0.021 C 
BRANCH   2   3
ATOM      3  C   UNL A   1      34.777  28.927  27.123  1.00  0.00     0.116 C 
BRANCH   3   4
ATOM      4  N   UNL A   1      33.846  29.246  26.059  1.00  0.00    -0.356 N 
ATOM      5  O   UNL A   1      31.917  28.795  27.233  1.00  0.00    -0.275 OA
ATOM      6  C   UNL A   1      32.481  29.213  26.226  1.00  0.00     0.220 C 
ATOM      7  H   UNL A   1      34.206  29.499  25.179  1.00  0.00     0.163 HD
BRANCH   6   8
ATOM      8  C   UNL A   1      31.712  29.762  25.043  1.00  0.00     0.110 C 
BRANCH   8   9
ATOM      9  C   UNL A   1      30.901  28.736  24.257  1.00  0.00     0.110 C 
BRANCH   9  10
ATOM     10  C   UNL A   1      31.167  28.716  22.767  1.00  0.00     0.224 C 
ATOM     11  O   UNL A   1      30.519  29.484  22.044  1.00  0.00    -0.275 OA
ATOM     12  N   UNL A   1      32.024  27.863  22.140  1.00  0.00    -0.326 N 
ATOM     13  H   UNL A   1      32.173  28.095  21.196  1.00  0.00     0.169 HD
BRANCH  12  14
ATOM     14  C   UNL A   1      32.742  26.723  22.545  1.00  0.00     0.041 A 
ATOM     15  C   UNL A   1      32.477  25.528  21.851  1.00  0.00     0.027 A 
ATOM     16  C   UNL A   1      33.602  26.670  23.633  1.00  0.00     0.027 A 
ATOM     17  C   UNL A   1      32.920  24.290  22.347  1.00  0.00     0.016 A 
ATOM     18  C   UNL A   1      34.036  25.447  24.135  1.00  0.00     0.016 A 
ATOM     19  C   UNL A   1      33.643  24.250  23.536  1.00  0.00     0.040 A 
BRANCH  19  20
ATOM     20  C   UNL A   1      34.119  22.971  24.118  1.00  0.00     0.254 C 
ATOM     21  O   UNL A   1      35.055  22.380  23.594  1.00  0.00    -0.269 OA
ATOM     22  N   UNL A   1      33.583  22.629  25.346  1.00  0.00    -0.334 N 
ATOM     23  C   UNL A   1      32.153  22.431  25.593  1.00  0.00     0.148 C 
ATOM     24  C   UNL A   1      34.458  22.193  26.421  1.00  0.00     0.148 C 
ATOM     25  C   UNL A   1      31.741  22.965  26.972  1.00  0.00     0.181 C 
ATOM     26  C   UNL A   1      33.988  22.842  27.728  1.00  0.00     0.181 C 
ATOM     27  O   UNL A   1      32.621  22.497  28.013  1.00  0.00    -0.378 OA
ENDBRANCH  19  20
ENDBRANCH  12  14
ENDBRANCH   9  10
ENDBRANCH   8   9
ENDBRANCH   6   8
ENDBRANCH   3   4
ENDBRANCH   2   3
ENDBRANCH   1   2
BRANCH   1  28
ATOM     28  C   UNL A   1      35.893  32.591  28.014  1.00  0.00     0.002 C 
BRANCH  28  29
ATOM     29  C   UNL A   1      35.005  33.836  27.975  1.00  0.00     0.021 C 
BRANCH  29  30
ATOM     30  C   UNL A   1      33.511  33.604  28.190  1.00  0.00     0.116 C 
BRANCH  30  31
ATOM     31  N   UNL A   1      32.906  34.536  29.128  1.00  0.00    -0.352 N 
ATOM     32  C   UNL A   1      33.277  34.858  30.410  1.00  0.00     0.251 C 
ATOM     33  H   UNL A   1      32.110  35.008  28.792  1.00  0.00     0.163 HD
ATOM     34  O   UNL A   1      32.583  35.643  31.056  1.00  0.00    -0.269 OA
BRANCH  32  35
ATOM     35  C   UNL A   1      34.472  34.245  31.036  1.00  0.00     0.039 A 
ATOM     36  C   UNL A   1      34.358  32.947  31.546  1.00  0.00     0.014 A 
ATOM     37  C   UNL A   1      35.687  34.926  31.139  1.00  0.00     0.014 A 
ATOM     38  C   UNL A   1      35.475  32.312  32.095  1.00  0.00     0.010 A 
ATOM     39  C   UNL A   1      36.817  34.268  31.628  1.00  0.00     0.010 A 
ATOM     40  C   UNL A   1      36.724  32.954  32.109  1.00  0.00    -0.014 A 
BRANCH  40  41
ATOM     41  C   UNL A   1      37.939  32.240  32.579  1.00  0.00     0.031 A 
ATOM     42  C   UNL A   1      38.577  31.161  31.748  1.00  0.00     0.074 A 
ATOM     43  C   UNL A   1      38.431  32.519  33.803  1.00  0.00     0.049 A 
ATOM     44  N   UNL A   1      39.655  30.461  31.996  1.00  0.00    -0.248 NA
ATOM     45  C   UNL A   1      37.907  30.802  30.488  1.00  0.00     0.031 C 
ATOM     46  C   UNL A   1      37.849  33.475  34.749  1.00  0.00     0.029 A 
ATOM     47  N   UNL A   1      39.521  32.017  34.468  1.00  0.00    -0.354 N 
ATOM     48  C   UNL A   1      39.775  29.559  30.946  1.00  0.00     0.074 A 
ATOM     49  C   UNL A   1      38.643  29.780  30.072  1.00  0.00     0.031 C 
ATOM     50  C   UNL A   1      38.598  33.503  35.862  1.00  0.00     0.029 A 
ATOM     51  C   UNL A   1      39.703  32.560  35.719  1.00  0.00     0.049 A 
ATOM     52  H   UNL A   1      40.118  31.333  34.086  1.00  0.00     0.167 HD
ATOM     53  C   UNL A   1      40.753  28.651  30.713  1.00  0.00     0.034 A 
ATOM     54  C   UNL A   1      40.659  32.334  36.641  1.00  0.00     0.034 A 
ATOM     55  C   UNL A   1      41.906  28.469  31.555  1.00  0.00     0.049 A 
ATOM     56  C   UNL A   1      41.768  31.369  36.328  1.00  0.00     0.074 A 
ATOM     57  C   UNL A   1      43.011  27.664  31.342  1.00  0.00     0.029 A 
ATOM     58  N   UNL A   1      42.099  29.093  32.778  1.00  0.00    -0.354 N 
ATOM     59  N   UNL A   1      41.972  30.673  35.237  1.00  0.00    -0.248 NA
ATOM     60  C   UNL A   1      42.801  31.190  37.359  1.00  0.00     0.031 C 
ATOM     61  C   UNL A   1      43.864  27.789  32.444  1.00  0.00     0.029 A 
ATOM     62  C   UNL A   1      43.297  28.681  33.339  1.00  0.00     0.049 A 
ATOM     63  H   UNL A   1      41.475  29.736  33.188  1.00  0.00     0.167 HD
ATOM     64  C   UNL A   1      43.169  29.994  35.437  1.00  0.00     0.074 A 
ATOM     65  C   UNL A   1      43.658  30.388  36.742  1.00  0.00     0.031 C 
ATOM     66  C   UNL A   1      43.797  29.112  34.620  1.00  0.00     0.034 A 
BRANCH  53  67
ATOM     67  C   UNL A   1      40.653  27.825  29.457  1.00  0.00     0.023 A 
ATOM     68  C   UNL A   1      39.675  26.812  29.371  1.00  0.00     0.012 A 
ATOM     69  C   UNL A   1      41.483  28.078  28.347  1.00  0.00     0.148 A 
ATOM     70  C   UNL A   1      39.549  26.042  28.216  1.00  0.00     0.002 A 
ATOM     71  C   UNL A   1      41.324  27.331  27.185  1.00  0.00     0.091 A 
ATOM     72  F   UNL A   1      42.425  29.026  28.454  1.00  0.00    -0.205 F 
ATOM     73  C   UNL A   1      40.365  26.307  27.121  1.00  0.00     0.022 A 
BRANCH  71  74
ATOM     74  S   UNL A   1      42.282  27.651  25.699  1.00  0.00     0.127 S 
ATOM     75  O   UNL A   1      43.649  27.620  26.217  1.00  0.00    -0.237 OA
ATOM     76  O   UNL A   1      41.929  26.514  24.847  1.00  0.00    -0.237 OA
ATOM     77  O   UNL A   1      41.823  28.940  25.202  1.00  0.00    -0.744 OA
ENDBRANCH  71  74
ENDBRANCH  53  67
BRANCH  54  78
ATOM     78  C   UNL A   1      40.664  33.122  37.907  1.00  0.00     0.023 A 
ATOM     79  C   UNL A   1      39.908  32.659  39.002  1.00  0.00     0.012 A 
ATOM     80  C   UNL A   1      41.437  34.290  38.049  1.00  0.00     0.148 A 
ATOM     81  C   UNL A   1      39.901  33.357  40.209  1.00  0.00     0.002 A 
ATOM     82  C   UNL A   1      41.466  34.953  39.271  1.00  0.00     0.091 A 
ATOM     83  F   UNL A   1      42.138  34.721  36.991  1.00  0.00    -0.205 F 
ATOM     84  C   UNL A   1      40.689  34.497  40.347  1.00  0.00     0.022 A 
BRANCH  82  85
ATOM     85  S   UNL A   1      42.551  36.351  39.581  1.00  0.00     0.127 S 
ATOM     86  O   UNL A   1      42.003  37.360  38.678  1.00  0.00    -0.237 OA
ATOM     87  O   UNL A   1      42.318  36.605  41.004  1.00  0.00    -0.237 OA
ATOM     88  O   UNL A   1      43.893  35.879  39.269  1.00  0.00    -0.744 OA
ENDBRANCH  82  85
ENDBRANCH  54  78
BRANCH  66  89
ATOM     89  C   UNL A   1      45.089  28.512  35.111  1.00  0.00     0.023 A 
ATOM     90  C   UNL A   1      46.305  29.174  34.851  1.00  0.00     0.012 A 
ATOM     91  C   UNL A   1      45.098  27.324  35.868  1.00  0.00     0.148 A 
ATOM     92  C   UNL A   1      47.513  28.646  35.305  1.00  0.00     0.002 A 
ATOM     93  C   UNL A   1      46.302  26.827  36.357  1.00  0.00     0.091 A 
ATOM     94  F   UNL A   1      43.936  26.692  36.088  1.00  0.00    -0.205 F 
ATOM     95  C   UNL A   1      47.511  27.480  36.066  1.00  0.00     0.022 A 
BRANCH  93  96
ATOM     96  S   UNL A   1      46.371  25.382  37.421  1.00  0.00     0.127 S 
ATOM     97  O   UNL A   1      45.255  25.627  38.333  1.00  0.00    -0.237 OA
ATOM     98  O   UNL A   1      46.156  24.283  36.478  1.00  0.00    -0.237 OA
ATOM     99  O   UNL A   1      47.697  25.401  38.022  1.00  0.00    -0.744 OA
ENDBRANCH  93  96
ENDBRANCH  66  89
ENDBRANCH  40  41
ENDBRANCH  32  35
ENDBRANCH  30  31
ENDBRANCH  29  30
ENDBRANCH  28  29
ENDBRANCH   1  28
TORSDOF 20
ENDMDL
MODEL 3
REMARK VINA RESULT:     -10.1      2.772      7.901
REMARK SMILES O=C(CCC(=O)Nc1ccc(C(=O)N2CCOCC2)cc1)NCCCCCCNC(=O)c1ccc(-c2c3nc(c(-c4cccc(S(=O)(=O)[O-])c4F)c4ccc([nH]4)c(-c4cccc(S(=O)(=O)[O-])c4F)c4nc(c(-c5cccc(S(=O)(=O)[O-])c5F)c5ccc2[nH]5)C=C4)C=C3)cc1
REMARK SMILES IDX 25 1 24 2 23 3 22 4 1 5 2 6 3 8 4 9 5 10 6 11 7 12 8 14 9 15
REMARK SMILES IDX 21 16 10 17 20 18 11 19 12 20 13 21 14 22 15 23 19 24 16 25
REMARK SMILES IDX 18 26 17 27 26 28 27 29 28 30 29 31 30 32 31 34 32 35 33 36
REMARK SMILES IDX 94 37 34 38 93 39 35 40 36 41 37 42 87 43 38 44 92 45 86 46
REMARK SMILES IDX 88 47 39 48 91 49 85 50 84 51 40 53 72 54 52 55 71 56 53 57
REMARK SMILES IDX 56 58 70 59 89 60 54 61 55 62 69 64 90 65 57 66 41 67 42 68
REMARK SMILES IDX 50 69 43 70 45 71 51 72 44 73 46 74 47 75 48 76 49 77 73 78
REMARK SMILES IDX 74 79 82 80 75 81 77 82 83 83 76 84 78 85 79 86 80 87 81 88
REMARK SMILES IDX 58 89 59 90 67 91 60 92 62 93 68 94 61 95 63 96 64 97 65 98
REMARK SMILES IDX 66 99
REMARK H PARENT 22 7 7 13 29 33 88 52 56 63
REMARK Flexibility Score: inf
ROOT
ATOM      1  C   UNL A   1      33.011  29.694  27.296  1.00  0.00     0.002 C 
ENDROOT
BRANCH   1   2
ATOM      2  C   UNL A   1      33.378  28.259  26.900  1.00  0.00     0.021 C 
BRANCH   2   3
ATOM      3  C   UNL A   1      32.210  27.282  26.802  1.00  0.00     0.116 C 
BRANCH   3   4
ATOM      4  N   UNL A   1      32.096  26.661  25.497  1.00  0.00    -0.356 N 
ATOM      5  O   UNL A   1      30.262  25.353  25.971  1.00  0.00    -0.275 OA
ATOM      6  C   UNL A   1      31.084  25.789  25.171  1.00  0.00     0.220 C 
ATOM      7  H   UNL A   1      32.772  26.874  24.814  1.00  0.00     0.163 HD
BRANCH   6   8
ATOM      8  C   UNL A   1      31.057  25.412  23.704  1.00  0.00     0.110 C 
BRANCH   8   9
ATOM      9  C   UNL A   1      32.164  26.025  22.851  1.00  0.00     0.110 C 
BRANCH   9  10
ATOM     10  C   UNL A   1      32.409  25.332  21.528  1.00  0.00     0.224 C 
ATOM     11  O   UNL A   1      32.039  25.897  20.491  1.00  0.00    -0.275 OA
ATOM     12  N   UNL A   1      32.949  24.089  21.388  1.00  0.00    -0.326 N 
ATOM     13  H   UNL A   1      33.164  23.868  20.454  1.00  0.00     0.169 HD
BRANCH  12  14
ATOM     14  C   UNL A   1      33.266  23.052  22.284  1.00  0.00     0.041 A 
ATOM     15  C   UNL A   1      32.339  21.999  22.389  1.00  0.00     0.027 A 
ATOM     16  C   UNL A   1      34.360  23.047  23.138  1.00  0.00     0.027 A 
ATOM     17  C   UNL A   1      32.415  21.070  23.439  1.00  0.00     0.016 A 
ATOM     18  C   UNL A   1      34.436  22.136  24.188  1.00  0.00     0.016 A 
ATOM     19  C   UNL A   1      33.432  21.188  24.383  1.00  0.00     0.040 A 
BRANCH  19  20
ATOM     20  C   UNL A   1      33.551  20.248  25.526  1.00  0.00     0.254 C 
ATOM     21  O   UNL A   1      33.439  20.670  26.669  1.00  0.00    -0.269 OA
ATOM     22  N   UNL A   1      33.593  18.904  25.202  1.00  0.00    -0.334 N 
ATOM     23  C   UNL A   1      34.614  18.296  24.345  1.00  0.00     0.148 C 
ATOM     24  C   UNL A   1      32.749  17.962  25.915  1.00  0.00     0.148 C 
ATOM     25  C   UNL A   1      34.017  17.207  23.445  1.00  0.00     0.181 C 
ATOM     26  C   UNL A   1      32.159  16.970  24.904  1.00  0.00     0.181 C 
ATOM     27  O   UNL A   1      33.201  16.282  24.191  1.00  0.00    -0.378 OA
ENDBRANCH  19  20
ENDBRANCH  12  14
ENDBRANCH   9  10
ENDBRANCH   8   9
ENDBRANCH   6   8
ENDBRANCH   3   4
ENDBRANCH   2   3
ENDBRANCH   1   2
BRANCH   1  28
ATOM     28  C   UNL A   1      34.182  30.633  27.600  1.00  0.00     0.002 C 
BRANCH  28  29
ATOM     29  C   UNL A   1      33.964  32.112  27.272  1.00  0.00     0.021 C 
BRANCH  29  30
ATOM     30  C   UNL A   1      32.513  32.591  27.260  1.00  0.00     0.116 C 
BRANCH  30  31
ATOM     31  N   UNL A   1      32.361  33.994  27.612  1.00  0.00    -0.352 N 
ATOM     32  C   UNL A   1      33.094  34.768  28.478  1.00  0.00     0.251 C 
ATOM     33  H   UNL A   1      31.621  34.459  27.160  1.00  0.00     0.163 HD
ATOM     34  O   UNL A   1      32.756  35.935  28.672  1.00  0.00    -0.269 OA
BRANCH  32  35
ATOM     35  C   UNL A   1      34.255  34.206  29.208  1.00  0.00     0.039 A 
ATOM     36  C   UNL A   1      34.006  33.381  30.310  1.00  0.00     0.014 A 
ATOM     37  C   UNL A   1      35.571  34.487  28.836  1.00  0.00     0.014 A 
ATOM     38  C   UNL A   1      35.071  32.788  30.992  1.00  0.00     0.010 A 
ATOM     39  C   UNL A   1      36.631  33.843  29.477  1.00  0.00     0.010 A 
ATOM     40  C   UNL A   1      36.392  32.985  30.560  1.00  0.00    -0.014 A 
BRANCH  40  41
ATOM     41  C   UNL A   1      37.518  32.261  31.205  1.00  0.00     0.031 A 
ATOM     42  C   UNL A   1      38.345  31.268  30.436  1.00  0.00     0.074 A 
ATOM     43  C   UNL A   1      37.752  32.449  32.519  1.00  0.00     0.049 A 
ATOM     44  N   UNL A   1      39.380  30.573  30.838  1.00  0.00    -0.248 NA
ATOM     45  C   UNL A   1      37.948  30.999  29.045  1.00  0.00     0.031 C 
ATOM     46  C   UNL A   1      36.961  33.311  33.402  1.00  0.00     0.029 A 
ATOM     47  N   UNL A   1      38.709  31.917  33.346  1.00  0.00    -0.354 N 
ATOM     48  C   UNL A   1      39.736  29.763  29.766  1.00  0.00     0.074 A 
ATOM     49  C   UNL A   1      38.789  30.031  28.705  1.00  0.00     0.031 C 
ATOM     50  C   UNL A   1      37.477  33.264  34.639  1.00  0.00     0.029 A 
ATOM     51  C   UNL A   1      38.623  32.359  34.646  1.00  0.00     0.049 A 
ATOM     52  H   UNL A   1      39.393  31.280  33.038  1.00  0.00     0.167 HD
ATOM     53  C   UNL A   1      40.774  28.898  29.663  1.00  0.00     0.034 A 
ATOM     54  C   UNL A   1      39.388  32.080  35.719  1.00  0.00     0.034 A 
ATOM     55  C   UNL A   1      41.746  28.673  30.700  1.00  0.00     0.049 A 
ATOM     56  C   UNL A   1      40.572  31.167  35.558  1.00  0.00     0.074 A 
ATOM     57  C   UNL A   1      42.900  27.911  30.647  1.00  0.00     0.029 A 
ATOM     58  N   UNL A   1      41.673  29.198  31.980  1.00  0.00    -0.354 N 
ATOM     59  N   UNL A   1      41.011  30.568  34.479  1.00  0.00    -0.248 NA
ATOM     60  C   UNL A   1      41.390  30.927  36.756  1.00  0.00     0.031 C 
ATOM     61  C   UNL A   1      43.517  27.964  31.903  1.00  0.00     0.029 A 
ATOM     62  C   UNL A   1      42.753  28.767  32.734  1.00  0.00     0.049 A 
ATOM     63  H   UNL A   1      40.958  29.792  32.307  1.00  0.00     0.167 HD
ATOM     64  C   UNL A   1      42.170  29.901  34.859  1.00  0.00     0.074 A 
ATOM     65  C   UNL A   1      42.381  30.197  36.261  1.00  0.00     0.031 C 
ATOM     66  C   UNL A   1      42.978  29.102  34.117  1.00  0.00     0.034 A 
BRANCH  53  67
ATOM     67  C   UNL A   1      40.951  28.176  28.352  1.00  0.00     0.023 A 
ATOM     68  C   UNL A   1      41.531  28.856  27.261  1.00  0.00     0.012 A 
ATOM     69  C   UNL A   1      40.594  26.821  28.210  1.00  0.00     0.148 A 
ATOM     70  C   UNL A   1      41.722  28.210  26.041  1.00  0.00     0.002 A 
ATOM     71  C   UNL A   1      40.824  26.173  27.001  1.00  0.00     0.091 A 
ATOM     72  F   UNL A   1      40.021  26.196  29.248  1.00  0.00    -0.205 F 
ATOM     73  C   UNL A   1      41.377  26.867  25.913  1.00  0.00     0.022 A 
BRANCH  71  74
ATOM     74  S   UNL A   1      40.480  24.425  26.768  1.00  0.00     0.127 S 
ATOM     75  O   UNL A   1      40.759  23.889  28.099  1.00  0.00    -0.237 OA
ATOM     76  O   UNL A   1      39.063  24.431  26.399  1.00  0.00    -0.237 OA
ATOM     77  O   UNL A   1      41.374  23.983  25.707  1.00  0.00    -0.744 OA
ENDBRANCH  71  74
ENDBRANCH  53  67
BRANCH  54  78
ATOM     78  C   UNL A   1      39.117  32.760  37.017  1.00  0.00     0.023 A 
ATOM     79  C   UNL A   1      39.797  33.957  37.315  1.00  0.00     0.012 A 
ATOM     80  C   UNL A   1      38.169  32.261  37.931  1.00  0.00     0.148 A 
ATOM     81  C   UNL A   1      39.558  34.633  38.511  1.00  0.00     0.002 A 
ATOM     82  C   UNL A   1      37.898  32.967  39.097  1.00  0.00     0.091 A 
ATOM     83  F   UNL A   1      37.543  31.114  37.634  1.00  0.00    -0.205 F 
ATOM     84  C   UNL A   1      38.600  34.145  39.396  1.00  0.00     0.022 A 
BRANCH  82  85
ATOM     85  S   UNL A   1      36.590  32.485  40.231  1.00  0.00     0.127 S 
ATOM     86  O   UNL A   1      37.109  31.230  40.769  1.00  0.00    -0.237 OA
ATOM     87  O   UNL A   1      36.581  33.604  41.175  1.00  0.00    -0.237 OA
ATOM     88  O   UNL A   1      35.387  32.380  39.417  1.00  0.00    -0.744 OA
ENDBRANCH  82  85
ENDBRANCH  54  78
BRANCH  66  89
ATOM     89  C   UNL A   1      44.170  28.492  34.807  1.00  0.00     0.023 A 
ATOM     90  C   UNL A   1      45.398  29.184  34.813  1.00  0.00     0.012 A 
ATOM     91  C   UNL A   1      44.068  27.262  35.486  1.00  0.00     0.148 A 
ATOM     92  C   UNL A   1      46.513  28.646  35.455  1.00  0.00     0.002 A 
ATOM     93  C   UNL A   1      45.172  26.753  36.162  1.00  0.00     0.091 A 
ATOM     94  F   UNL A   1      42.900  26.603  35.451  1.00  0.00    -0.205 F 
ATOM     95  C   UNL A   1      46.398  27.438  36.137  1.00  0.00     0.022 A 
BRANCH  93  96
ATOM     96  S   UNL A   1      45.077  25.250  37.140  1.00  0.00     0.127 S 
ATOM     97  O   UNL A   1      43.995  25.565  38.070  1.00  0.00    -0.237 OA
ATOM     98  O   UNL A   1      44.741  24.239  36.136  1.00  0.00    -0.237 OA
ATOM     99  O   UNL A   1      46.397  25.085  37.735  1.00  0.00    -0.744 OA
ENDBRANCH  93  96
ENDBRANCH  66  89
ENDBRANCH  40  41
ENDBRANCH  32  35
ENDBRANCH  30  31
ENDBRANCH  29  30
ENDBRANCH  28  29
ENDBRANCH   1  28
TORSDOF 20
ENDMDL
