MODEL 1
REMARK VINA RESULT:     -10.8      0.000      0.000
REMARK SMILES CS(=O)(=O)c1ccc(-c2cc(Cl)cnc2-c2ccc(C(=O)NCCCCCCNC(=O)c3ccc(-c4c5nc(c(-c6cccc(S(=O)(=O)[O-])c6F)c6ccc([nH]6)c(-c6cccc(S(=O)(=O)[O-])c6F)c6nc(c(-c7cccc(S(=O)(=O)[O-])c7F)c7ccc4[nH]7)C=C6)C=C5)cc3)nc2)cc1
REMARK SMILES IDX 25 1 24 2 23 3 22 4 20 5 21 6 19 8 16 9 17 10 96 11 18 12
REMARK SMILES IDX 95 13 15 14 9 15 10 16 11 17 14 18 12 19 13 20 8 21 5 22
REMARK SMILES IDX 6 23 98 24 7 25 97 26 2 27 1 28 3 29 4 30 26 31 27 32 28 33
REMARK SMILES IDX 29 34 30 35 31 37 32 38 33 39 94 40 34 41 93 42 35 43 36 44
REMARK SMILES IDX 37 45 87 46 38 47 92 48 86 49 88 50 39 51 91 52 85 53 84 54
REMARK SMILES IDX 40 56 72 57 52 58 71 59 53 60 56 61 70 62 89 63 54 64 55 65
REMARK SMILES IDX 69 67 90 68 57 69 41 70 42 71 50 72 43 73 45 74 51 75 44 76
REMARK SMILES IDX 46 77 47 78 48 79 49 80 73 81 74 82 82 83 75 84 77 85 83 86
REMARK SMILES IDX 76 87 78 88 79 89 80 90 81 91 58 92 59 93 67 94 60 95 62 96
REMARK SMILES IDX 68 97 61 98 63 99 64 100 65 101 66 102
REMARK H PARENT 22 7 29 36 88 55 56 66
REMARK Flexibility Score: inf
ROOT
ATOM      1  C   UNL A   1      38.908  28.031  28.216  1.00  0.00     0.002 C 
ENDROOT
BRANCH   1   2
ATOM      2  C   UNL A   1      37.658  28.855  28.558  1.00  0.00     0.021 C 
BRANCH   2   3
ATOM      3  C   UNL A   1      37.049  29.576  27.354  1.00  0.00     0.116 C 
BRANCH   3   4
ATOM      4  N   UNL A   1      35.820  30.246  27.738  1.00  0.00    -0.351 N 
ATOM      5  C   UNL A   1      34.498  30.045  27.407  1.00  0.00     0.269 C 
ATOM      6  O   UNL A   1      33.684  30.813  27.926  1.00  0.00    -0.268 OA
ATOM      7  H   UNL A   1      35.960  30.994  28.361  1.00  0.00     0.163 HD
BRANCH   5   8
ATOM      8  C   UNL A   1      34.017  28.930  26.517  1.00  0.00     0.128 A 
ATOM      9  C   UNL A   1      33.200  26.682  25.115  1.00  0.00     0.019 A 
ATOM     10  C   UNL A   1      33.894  27.703  24.460  1.00  0.00     0.014 A 
ATOM     11  C   UNL A   1      32.876  26.905  26.447  1.00  0.00     0.122 A 
ATOM     12  C   UNL A   1      34.279  28.851  25.156  1.00  0.00     0.035 A 
ATOM     13  N   UNL A   1      33.288  27.979  27.162  1.00  0.00    -0.250 NA
BRANCH   9  14
ATOM     14  C   UNL A   1      32.889  25.414  24.454  1.00  0.00     0.080 A 
ATOM     15  C   UNL A   1      31.737  25.241  23.655  1.00  0.00     0.010 A 
ATOM     16  C   UNL A   1      31.506  23.959  23.132  1.00  0.00     0.033 A 
ATOM     17  C   UNL A   1      32.402  22.929  23.394  1.00  0.00     0.060 A 
ATOM     18  N   UNL A   1      33.785  24.420  24.697  1.00  0.00    -0.254 NA
ATOM     19  Cl  UNL A   1      32.136  21.356  22.762  1.00  0.00    -0.083 Cl
ATOM     20  C   UNL A   1      33.517  23.204  24.167  1.00  0.00     0.132 A 
BRANCH  15  21
ATOM     21  C   UNL A   1      30.803  26.343  23.354  1.00  0.00    -0.016 A 
ATOM     22  C   UNL A   1      29.056  28.481  22.830  1.00  0.00     0.067 A 
ATOM     23  C   UNL A   1      30.328  28.476  22.261  1.00  0.00     0.021 A 
ATOM     24  C   UNL A   1      28.637  27.425  23.641  1.00  0.00     0.021 A 
ATOM     25  C   UNL A   1      31.192  27.409  22.521  1.00  0.00     0.010 A 
ATOM     26  C   UNL A   1      29.507  26.361  23.896  1.00  0.00     0.010 A 
BRANCH  22  27
ATOM     27  S   UNL A   1      27.949  29.835  22.507  1.00  0.00     0.175 S 
ATOM     28  C   UNL A   1      28.659  31.228  23.343  1.00  0.00     0.163 C 
ATOM     29  O   UNL A   1      26.700  29.537  23.169  1.00  0.00    -0.224 OA
ATOM     30  O   UNL A   1      28.016  30.086  21.077  1.00  0.00    -0.224 OA
ENDBRANCH  22  27
ENDBRANCH  15  21
ENDBRANCH   9  14
ENDBRANCH   5   8
ENDBRANCH   3   4
ENDBRANCH   2   3
ENDBRANCH   1   2
BRANCH   1  31
ATOM     31  C   UNL A   1      39.195  26.860  29.163  1.00  0.00     0.002 C 
BRANCH  31  32
ATOM     32  C   UNL A   1      39.588  25.546  28.481  1.00  0.00     0.021 C 
BRANCH  32  33
ATOM     33  C   UNL A   1      39.339  25.507  26.974  1.00  0.00     0.116 C 
BRANCH  33  34
ATOM     34  N   UNL A   1      40.484  24.982  26.249  1.00  0.00    -0.352 N 
ATOM     35  C   UNL A   1      41.690  25.577  25.977  1.00  0.00     0.251 C 
ATOM     36  H   UNL A   1      40.378  24.067  25.901  1.00  0.00     0.163 HD
ATOM     37  O   UNL A   1      42.455  25.058  25.168  1.00  0.00    -0.269 OA
BRANCH  35  38
ATOM     38  C   UNL A   1      42.068  26.841  26.647  1.00  0.00     0.039 A 
ATOM     39  C   UNL A   1      41.674  28.053  26.074  1.00  0.00     0.014 A 
ATOM     40  C   UNL A   1      42.839  26.836  27.814  1.00  0.00     0.014 A 
ATOM     41  C   UNL A   1      42.015  29.258  26.693  1.00  0.00     0.010 A 
ATOM     42  C   UNL A   1      43.125  28.035  28.464  1.00  0.00     0.010 A 
ATOM     43  C   UNL A   1      42.725  29.258  27.905  1.00  0.00    -0.014 A 
BRANCH  43  44
ATOM     44  C   UNL A   1      43.050  30.530  28.601  1.00  0.00     0.031 A 
ATOM     45  C   UNL A   1      42.184  31.028  29.726  1.00  0.00     0.074 A 
ATOM     46  C   UNL A   1      44.086  31.275  28.168  1.00  0.00     0.049 A 
ATOM     47  N   UNL A   1      42.306  32.120  30.437  1.00  0.00    -0.248 NA
ATOM     48  C   UNL A   1      41.015  30.208  30.085  1.00  0.00     0.031 C 
ATOM     49  C   UNL A   1      44.946  30.945  27.029  1.00  0.00     0.029 A 
ATOM     50  N   UNL A   1      44.578  32.474  28.619  1.00  0.00    -0.354 N 
ATOM     51  C   UNL A   1      41.216  32.136  31.300  1.00  0.00     0.074 A 
ATOM     52  C   UNL A   1      40.426  30.961  31.003  1.00  0.00     0.031 C 
ATOM     53  C   UNL A   1      45.860  31.917  26.874  1.00  0.00     0.029 A 
ATOM     54  C   UNL A   1      45.644  32.943  27.889  1.00  0.00     0.049 A 
ATOM     55  H   UNL A   1      44.201  32.954  29.392  1.00  0.00     0.167 HD
ATOM     56  C   UNL A   1      40.919  33.028  32.274  1.00  0.00     0.034 A 
ATOM     57  C   UNL A   1      46.371  34.069  28.026  1.00  0.00     0.034 A 
ATOM     58  C   UNL A   1      41.735  34.165  32.604  1.00  0.00     0.049 A 
ATOM     59  C   UNL A   1      46.060  35.008  29.159  1.00  0.00     0.074 A 
ATOM     60  C   UNL A   1      41.573  35.071  33.638  1.00  0.00     0.029 A 
ATOM     61  N   UNL A   1      42.869  34.553  31.907  1.00  0.00    -0.354 N 
ATOM     62  N   UNL A   1      45.129  34.912  30.076  1.00  0.00    -0.248 NA
ATOM     63  C   UNL A   1      46.925  36.189  29.301  1.00  0.00     0.031 C 
ATOM     64  C   UNL A   1      42.604  36.014  33.557  1.00  0.00     0.029 A 
ATOM     65  C   UNL A   1      43.414  35.686  32.482  1.00  0.00     0.049 A 
ATOM     66  H   UNL A   1      43.232  34.089  31.118  1.00  0.00     0.167 HD
ATOM     67  C   UNL A   1      45.314  35.998  30.923  1.00  0.00     0.074 A 
ATOM     68  C   UNL A   1      46.462  36.728  30.422  1.00  0.00     0.031 C 
ATOM     69  C   UNL A   1      44.590  36.370  32.007  1.00  0.00     0.034 A 
BRANCH  56  70
ATOM     70  C   UNL A   1      39.689  32.772  33.106  1.00  0.00     0.023 A 
ATOM     71  C   UNL A   1      39.801  32.006  34.284  1.00  0.00     0.012 A 
ATOM     72  C   UNL A   1      38.443  33.331  32.762  1.00  0.00     0.148 A 
ATOM     73  C   UNL A   1      38.687  31.774  35.091  1.00  0.00     0.002 A 
ATOM     74  C   UNL A   1      37.345  33.130  33.592  1.00  0.00     0.091 A 
ATOM     75  F   UNL A   1      38.349  34.038  31.626  1.00  0.00    -0.205 F 
ATOM     76  C   UNL A   1      37.464  32.344  34.751  1.00  0.00     0.022 A 
BRANCH  74  77
ATOM     77  S   UNL A   1      35.745  33.883  33.278  1.00  0.00     0.127 S 
ATOM     78  O   UNL A   1      35.064  33.670  34.554  1.00  0.00    -0.237 OA
ATOM     79  O   UNL A   1      36.104  35.275  33.004  1.00  0.00    -0.237 OA
ATOM     80  O   UNL A   1      35.185  33.169  32.139  1.00  0.00    -0.744 OA
ENDBRANCH  74  77
ENDBRANCH  56  70
BRANCH  57  81
ATOM     81  C   UNL A   1      47.521  34.321  27.114  1.00  0.00     0.023 A 
ATOM     82  C   UNL A   1      47.319  35.080  25.944  1.00  0.00     0.012 A 
ATOM     83  C   UNL A   1      48.815  33.855  27.415  1.00  0.00     0.148 A 
ATOM     84  C   UNL A   1      48.380  35.347  25.078  1.00  0.00     0.002 A 
ATOM     85  C   UNL A   1      49.876  34.168  26.575  1.00  0.00     0.091 A 
ATOM     86  F   UNL A   1      48.983  33.121  28.525  1.00  0.00    -0.205 F 
ATOM     87  C   UNL A   1      49.659  34.903  25.398  1.00  0.00     0.022 A 
BRANCH  85  88
ATOM     88  S   UNL A   1      51.574  33.748  26.981  1.00  0.00     0.127 S 
ATOM     89  O   UNL A   1      51.698  34.283  28.334  1.00  0.00    -0.237 OA
ATOM     90  O   UNL A   1      51.557  32.288  26.893  1.00  0.00    -0.237 OA
ATOM     91  O   UNL A   1      52.387  34.399  25.961  1.00  0.00    -0.744 OA
ENDBRANCH  85  88
ENDBRANCH  57  81
BRANCH  69  92
ATOM     92  C   UNL A   1      45.024  37.607  32.746  1.00  0.00     0.023 A 
ATOM     93  C   UNL A   1      46.002  37.508  33.755  1.00  0.00     0.012 A 
ATOM     94  C   UNL A   1      44.520  38.874  32.393  1.00  0.00     0.148 A 
ATOM     95  C   UNL A   1      46.453  38.647  34.420  1.00  0.00     0.002 A 
ATOM     96  C   UNL A   1      45.007  40.010  33.029  1.00  0.00     0.091 A 
ATOM     97  F   UNL A   1      43.573  38.947  31.445  1.00  0.00    -0.205 F 
ATOM     98  C   UNL A   1      45.964  39.898  34.049  1.00  0.00     0.022 A 
BRANCH  96  99
ATOM     99  S   UNL A   1      44.499  41.666  32.551  1.00  0.00     0.127 S 
ATOM    100  O   UNL A   1      44.823  41.679  31.126  1.00  0.00    -0.237 OA
ATOM    101  O   UNL A   1      43.067  41.654  32.851  1.00  0.00    -0.237 OA
ATOM    102  O   UNL A   1      45.278  42.575  33.383  1.00  0.00    -0.744 OA
ENDBRANCH  96  99
ENDBRANCH  69  92
ENDBRANCH  43  44
ENDBRANCH  35  38
ENDBRANCH  33  34
ENDBRANCH  32  33
ENDBRANCH  31  32
ENDBRANCH   1  31
TORSDOF 19
ENDMDL
MODEL 2
REMARK VINA RESULT:     -10.5      3.179      6.727
REMARK SMILES CS(=O)(=O)c1ccc(-c2cc(Cl)cnc2-c2ccc(C(=O)NCCCCCCNC(=O)c3ccc(-c4c5nc(c(-c6cccc(S(=O)(=O)[O-])c6F)c6ccc([nH]6)c(-c6cccc(S(=O)(=O)[O-])c6F)c6nc(c(-c7cccc(S(=O)(=O)[O-])c7F)c7ccc4[nH]7)C=C6)C=C5)cc3)nc2)cc1
REMARK SMILES IDX 25 1 24 2 23 3 22 4 20 5 21 6 19 8 16 9 17 10 96 11 18 12
REMARK SMILES IDX 95 13 15 14 9 15 10 16 11 17 14 18 12 19 13 20 8 21 5 22
REMARK SMILES IDX 6 23 98 24 7 25 97 26 2 27 1 28 3 29 4 30 26 31 27 32 28 33
REMARK SMILES IDX 29 34 30 35 31 37 32 38 33 39 94 40 34 41 93 42 35 43 36 44
REMARK SMILES IDX 37 45 87 46 38 47 92 48 86 49 88 50 39 51 91 52 85 53 84 54
REMARK SMILES IDX 40 56 72 57 52 58 71 59 53 60 56 61 70 62 89 63 54 64 55 65
REMARK SMILES IDX 69 67 90 68 57 69 41 70 42 71 50 72 43 73 45 74 51 75 44 76
REMARK SMILES IDX 46 77 47 78 48 79 49 80 73 81 74 82 82 83 75 84 77 85 83 86
REMARK SMILES IDX 76 87 78 88 79 89 80 90 81 91 58 92 59 93 67 94 60 95 62 96
REMARK SMILES IDX 68 97 61 98 63 99 64 100 65 101 66 102
REMARK H PARENT 22 7 29 36 88 55 56 66
REMARK Flexibility Score: inf
ROOT
ATOM      1  C   UNL A   1      35.409  32.302  30.301  1.00  0.00     0.002 C 
ENDROOT
BRANCH   1   2
ATOM      2  C   UNL A   1      35.876  30.889  29.919  1.00  0.00     0.021 C 
BRANCH   2   3
ATOM      3  C   UNL A   1      35.540  30.501  28.477  1.00  0.00     0.116 C 
BRANCH   3   4
ATOM      4  N   UNL A   1      34.293  31.121  28.068  1.00  0.00    -0.351 N 
ATOM      5  C   UNL A   1      33.207  30.665  27.354  1.00  0.00     0.269 C 
ATOM      6  O   UNL A   1      32.291  31.472  27.180  1.00  0.00    -0.268 OA
ATOM      7  H   UNL A   1      34.206  32.056  28.361  1.00  0.00     0.163 HD
BRANCH   5   8
ATOM      8  C   UNL A   1      33.072  29.255  26.843  1.00  0.00     0.128 A 
ATOM      9  C   UNL A   1      32.872  26.777  25.615  1.00  0.00     0.019 A 
ATOM     10  C   UNL A   1      32.024  27.104  26.676  1.00  0.00     0.014 A 
ATOM     11  C   UNL A   1      33.849  27.709  25.290  1.00  0.00     0.122 A 
ATOM     12  C   UNL A   1      32.144  28.339  27.319  1.00  0.00     0.035 A 
ATOM     13  N   UNL A   1      33.950  28.936  25.853  1.00  0.00    -0.250 NA
BRANCH   9  14
ATOM     14  C   UNL A   1      32.697  25.549  24.839  1.00  0.00     0.080 A 
ATOM     15  C   UNL A   1      31.690  25.412  23.858  1.00  0.00     0.010 A 
ATOM     16  C   UNL A   1      31.572  24.162  23.230  1.00  0.00     0.033 A 
ATOM     17  C   UNL A   1      32.438  23.129  23.569  1.00  0.00     0.060 A 
ATOM     18  N   UNL A   1      33.566  24.553  25.161  1.00  0.00    -0.254 NA
ATOM     19  Cl  UNL A   1      32.309  21.595  22.811  1.00  0.00    -0.083 Cl
ATOM     20  C   UNL A   1      33.411  23.369  24.524  1.00  0.00     0.132 A 
BRANCH  15  21
ATOM     21  C   UNL A   1      30.791  26.519  23.479  1.00  0.00    -0.016 A 
ATOM     22  C   UNL A   1      29.104  28.665  22.811  1.00  0.00     0.067 A 
ATOM     23  C   UNL A   1      30.437  28.685  22.405  1.00  0.00     0.021 A 
ATOM     24  C   UNL A   1      28.596  27.580  23.529  1.00  0.00     0.021 A 
ATOM     25  C   UNL A   1      31.271  27.614  22.737  1.00  0.00     0.010 A 
ATOM     26  C   UNL A   1      29.437  26.512  23.856  1.00  0.00     0.010 A 
BRANCH  22  27
ATOM     27  S   UNL A   1      28.034  30.023  22.396  1.00  0.00     0.175 S 
ATOM     28  C   UNL A   1      28.891  31.476  22.942  1.00  0.00     0.163 C 
ATOM     29  O   UNL A   1      26.847  29.902  23.213  1.00  0.00    -0.224 OA
ATOM     30  O   UNL A   1      27.963  30.060  20.945  1.00  0.00    -0.224 OA
ENDBRANCH  22  27
ENDBRANCH  15  21
ENDBRANCH   9  14
ENDBRANCH   5   8
ENDBRANCH   3   4
ENDBRANCH   2   3
ENDBRANCH   1   2
BRANCH   1  31
ATOM     31  C   UNL A   1      34.638  32.397  31.623  1.00  0.00     0.002 C 
BRANCH  31  32
ATOM     32  C   UNL A   1      35.462  32.852  32.831  1.00  0.00     0.021 C 
BRANCH  32  33
ATOM     33  C   UNL A   1      36.932  32.437  32.797  1.00  0.00     0.116 C 
BRANCH  33  34
ATOM     34  N   UNL A   1      37.114  31.055  33.210  1.00  0.00    -0.352 N 
ATOM     35  C   UNL A   1      38.109  30.171  32.878  1.00  0.00     0.251 C 
ATOM     36  H   UNL A   1      36.422  30.703  33.815  1.00  0.00     0.163 HD
ATOM     37  O   UNL A   1      37.981  28.980  33.154  1.00  0.00    -0.269 OA
BRANCH  35  38
ATOM     38  C   UNL A   1      39.328  30.643  32.184  1.00  0.00     0.039 A 
ATOM     39  C   UNL A   1      39.382  30.569  30.789  1.00  0.00     0.014 A 
ATOM     40  C   UNL A   1      40.427  31.121  32.904  1.00  0.00     0.014 A 
ATOM     41  C   UNL A   1      40.521  31.015  30.114  1.00  0.00     0.010 A 
ATOM     42  C   UNL A   1      41.537  31.623  32.226  1.00  0.00     0.010 A 
ATOM     43  C   UNL A   1      41.599  31.565  30.826  1.00  0.00    -0.014 A 
BRANCH  43  44
ATOM     44  C   UNL A   1      42.794  32.091  30.117  1.00  0.00     0.031 A 
ATOM     45  C   UNL A   1      42.847  33.525  29.665  1.00  0.00     0.074 A 
ATOM     46  C   UNL A   1      43.806  31.253  29.815  1.00  0.00     0.049 A 
ATOM     47  N   UNL A   1      43.799  34.151  29.022  1.00  0.00    -0.248 NA
ATOM     48  C   UNL A   1      41.666  34.359  29.948  1.00  0.00     0.031 C 
ATOM     49  C   UNL A   1      43.835  29.820  30.119  1.00  0.00     0.029 A 
ATOM     50  N   UNL A   1      44.993  31.478  29.166  1.00  0.00    -0.354 N 
ATOM     51  C   UNL A   1      43.323  35.437  28.794  1.00  0.00     0.074 A 
ATOM     52  C   UNL A   1      41.984  35.494  29.339  1.00  0.00     0.031 C 
ATOM     53  C   UNL A   1      44.984  29.298  29.660  1.00  0.00     0.029 A 
ATOM     54  C   UNL A   1      45.764  30.349  29.018  1.00  0.00     0.049 A 
ATOM     55  H   UNL A   1      45.267  32.365  28.836  1.00  0.00     0.167 HD
ATOM     56  C   UNL A   1      43.954  36.486  28.216  1.00  0.00     0.034 A 
ATOM     57  C   UNL A   1      46.968  30.182  28.435  1.00  0.00     0.034 A 
ATOM     58  C   UNL A   1      45.305  36.443  27.725  1.00  0.00     0.049 A 
ATOM     59  C   UNL A   1      47.676  31.379  27.861  1.00  0.00     0.074 A 
ATOM     60  C   UNL A   1      46.069  37.477  27.212  1.00  0.00     0.029 A 
ATOM     61  N   UNL A   1      46.095  35.305  27.684  1.00  0.00    -0.354 N 
ATOM     62  N   UNL A   1      47.280  32.627  27.814  1.00  0.00    -0.248 NA
ATOM     63  C   UNL A   1      49.015  31.152  27.296  1.00  0.00     0.031 C 
ATOM     64  C   UNL A   1      47.318  36.961  26.851  1.00  0.00     0.029 A 
ATOM     65  C   UNL A   1      47.336  35.608  27.152  1.00  0.00     0.049 A 
ATOM     66  H   UNL A   1      45.815  34.412  27.989  1.00  0.00     0.167 HD
ATOM     67  C   UNL A   1      48.329  33.340  27.247  1.00  0.00     0.074 A 
ATOM     68  C   UNL A   1      49.389  32.386  26.987  1.00  0.00     0.031 C 
ATOM     69  C   UNL A   1      48.403  34.660  26.950  1.00  0.00     0.034 A 
BRANCH  56  70
ATOM     70  C   UNL A   1      43.214  37.796  28.144  1.00  0.00     0.023 A 
ATOM     71  C   UNL A   1      42.392  38.063  27.030  1.00  0.00     0.012 A 
ATOM     72  C   UNL A   1      43.280  38.733  29.194  1.00  0.00     0.148 A 
ATOM     73  C   UNL A   1      41.672  39.255  26.947  1.00  0.00     0.002 A 
ATOM     74  C   UNL A   1      42.528  39.900  29.123  1.00  0.00     0.091 A 
ATOM     75  F   UNL A   1      44.085  38.473  30.235  1.00  0.00    -0.205 F 
ATOM     76  C   UNL A   1      41.732  40.167  27.996  1.00  0.00     0.022 A 
BRANCH  74  77
ATOM     77  S   UNL A   1      42.482  41.103  30.457  1.00  0.00     0.127 S 
ATOM     78  O   UNL A   1      41.069  41.479  30.465  1.00  0.00    -0.237 OA
ATOM     79  O   UNL A   1      42.907  40.306  31.608  1.00  0.00    -0.237 OA
ATOM     80  O   UNL A   1      43.411  42.157  30.076  1.00  0.00    -0.744 OA
ENDBRANCH  74  77
ENDBRANCH  56  70
BRANCH  57  81
ATOM     81  C   UNL A   1      47.616  28.841  28.450  1.00  0.00     0.023 A 
ATOM     82  C   UNL A   1      48.447  28.490  29.532  1.00  0.00     0.012 A 
ATOM     83  C   UNL A   1      47.382  27.901  27.429  1.00  0.00     0.148 A 
ATOM     84  C   UNL A   1      49.055  27.235  29.582  1.00  0.00     0.002 A 
ATOM     85  C   UNL A   1      47.949  26.635  27.511  1.00  0.00     0.091 A 
ATOM     86  F   UNL A   1      46.600  28.261  26.400  1.00  0.00    -0.205 F 
ATOM     87  C   UNL A   1      48.798  26.304  28.580  1.00  0.00     0.022 A 
BRANCH  85  88
ATOM     88  S   UNL A   1      47.563  25.335  26.334  1.00  0.00     0.127 S 
ATOM     89  O   UNL A   1      48.506  25.619  25.257  1.00  0.00    -0.237 OA
ATOM     90  O   UNL A   1      47.854  24.127  27.108  1.00  0.00    -0.237 OA
ATOM     91  O   UNL A   1      46.153  25.513  26.012  1.00  0.00    -0.744 OA
ENDBRANCH  85  88
ENDBRANCH  57  81
BRANCH  69  92
ATOM     92  C   UNL A   1      49.678  35.167  26.332  1.00  0.00     0.023 A 
ATOM     93  C   UNL A   1      49.795  35.226  24.930  1.00  0.00     0.012 A 
ATOM     94  C   UNL A   1      50.728  35.653  27.136  1.00  0.00     0.148 A 
ATOM     95  C   UNL A   1      50.949  35.736  24.336  1.00  0.00     0.002 A 
ATOM     96  C   UNL A   1      51.856  36.201  26.537  1.00  0.00     0.091 A 
ATOM     97  F   UNL A   1      50.606  35.569  28.470  1.00  0.00    -0.205 F 
ATOM     98  C   UNL A   1      51.973  36.233  25.139  1.00  0.00     0.022 A 
BRANCH  96  99
ATOM     99  S   UNL A   1      53.180  36.947  27.495  1.00  0.00     0.127 S 
ATOM    100  O   UNL A   1      54.187  37.201  26.466  1.00  0.00    -0.237 OA
ATOM    101  O   UNL A   1      52.541  38.149  28.031  1.00  0.00    -0.237 OA
ATOM    102  O   UNL A   1      53.545  35.961  28.504  1.00  0.00    -0.744 OA
ENDBRANCH  96  99
ENDBRANCH  69  92
ENDBRANCH  43  44
ENDBRANCH  35  38
ENDBRANCH  33  34
ENDBRANCH  32  33
ENDBRANCH  31  32
ENDBRANCH   1  31
TORSDOF 19
ENDMDL
MODEL 3
REMARK VINA RESULT:     -10.3      1.104      7.492
REMARK SMILES CS(=O)(=O)c1ccc(-c2cc(Cl)cnc2-c2ccc(C(=O)NCCCCCCNC(=O)c3ccc(-c4c5nc(c(-c6cccc(S(=O)(=O)[O-])c6F)c6ccc([nH]6)c(-c6cccc(S(=O)(=O)[O-])c6F)c6nc(c(-c7cccc(S(=O)(=O)[O-])c7F)c7ccc4[nH]7)C=C6)C=C5)cc3)nc2)cc1
REMARK SMILES IDX 25 1 24 2 23 3 22 4 20 5 21 6 19 8 16 9 17 10 96 11 18 12
REMARK SMILES IDX 95 13 15 14 9 15 10 16 11 17 14 18 12 19 13 20 8 21 5 22
REMARK SMILES IDX 6 23 98 24 7 25 97 26 2 27 1 28 3 29 4 30 26 31 27 32 28 33
REMARK SMILES IDX 29 34 30 35 31 37 32 38 33 39 94 40 34 41 93 42 35 43 36 44
REMARK SMILES IDX 37 45 87 46 38 47 92 48 86 49 88 50 39 51 91 52 85 53 84 54
REMARK SMILES IDX 40 56 72 57 52 58 71 59 53 60 56 61 70 62 89 63 54 64 55 65
REMARK SMILES IDX 69 67 90 68 57 69 41 70 42 71 50 72 43 73 45 74 51 75 44 76
REMARK SMILES IDX 46 77 47 78 48 79 49 80 73 81 74 82 82 83 75 84 77 85 83 86
REMARK SMILES IDX 76 87 78 88 79 89 80 90 81 91 58 92 59 93 67 94 60 95 62 96
REMARK SMILES IDX 68 97 61 98 63 99 64 100 65 101 66 102
REMARK H PARENT 22 7 29 36 88 55 56 66
REMARK Flexibility Score: inf
ROOT
ATOM      1  C   UNL A   1      38.956  28.121  28.218  1.00  0.00     0.002 C 
ENDROOT
BRANCH   1   2
ATOM      2  C   UNL A   1      37.681  28.906  28.558  1.00  0.00     0.021 C 
BRANCH   2   3
ATOM      3  C   UNL A   1      37.056  29.614  27.354  1.00  0.00     0.116 C 
BRANCH   3   4
ATOM      4  N   UNL A   1      35.824  30.275  27.743  1.00  0.00    -0.351 N 
ATOM      5  C   UNL A   1      34.502  30.066  27.418  1.00  0.00     0.269 C 
ATOM      6  O   UNL A   1      33.685  30.828  27.940  1.00  0.00    -0.268 OA
ATOM      7  H   UNL A   1      35.961  31.024  28.367  1.00  0.00     0.163 HD
BRANCH   5   8
ATOM      8  C   UNL A   1      34.025  28.949  26.528  1.00  0.00     0.128 A 
ATOM      9  C   UNL A   1      33.216  26.697  25.127  1.00  0.00     0.019 A 
ATOM     10  C   UNL A   1      33.905  27.721  24.471  1.00  0.00     0.014 A 
ATOM     11  C   UNL A   1      32.894  26.919  26.459  1.00  0.00     0.122 A 
ATOM     12  C   UNL A   1      34.285  28.872  25.167  1.00  0.00     0.035 A 
ATOM     13  N   UNL A   1      33.302  27.994  27.174  1.00  0.00    -0.250 NA
BRANCH   9  14
ATOM     14  C   UNL A   1      32.910  25.428  24.466  1.00  0.00     0.080 A 
ATOM     15  C   UNL A   1      31.759  25.250  23.667  1.00  0.00     0.010 A 
ATOM     16  C   UNL A   1      31.533  23.967  23.145  1.00  0.00     0.033 A 
ATOM     17  C   UNL A   1      32.432  22.941  23.407  1.00  0.00     0.060 A 
ATOM     18  N   UNL A   1      33.810  24.438  24.709  1.00  0.00    -0.254 NA
ATOM     19  Cl  UNL A   1      32.173  21.366  22.776  1.00  0.00    -0.083 Cl
ATOM     20  C   UNL A   1      33.546  23.220  24.180  1.00  0.00     0.132 A 
BRANCH  15  21
ATOM     21  C   UNL A   1      30.821  26.348  23.366  1.00  0.00    -0.016 A 
ATOM     22  C   UNL A   1      29.067  28.481  22.839  1.00  0.00     0.067 A 
ATOM     23  C   UNL A   1      30.319  28.451  22.226  1.00  0.00     0.021 A 
ATOM     24  C   UNL A   1      28.671  27.452  23.696  1.00  0.00     0.021 A 
ATOM     25  C   UNL A   1      31.185  27.387  22.489  1.00  0.00     0.010 A 
ATOM     26  C   UNL A   1      29.545  26.390  23.953  1.00  0.00     0.010 A 
BRANCH  22  27
ATOM     27  S   UNL A   1      27.957  29.831  22.515  1.00  0.00     0.175 S 
ATOM     28  C   UNL A   1      28.700  31.243  23.287  1.00  0.00     0.163 C 
ATOM     29  O   UNL A   1      26.729  29.559  23.226  1.00  0.00    -0.224 OA
ATOM     30  O   UNL A   1      27.977  30.041  21.076  1.00  0.00    -0.224 OA
ENDBRANCH  22  27
ENDBRANCH  15  21
ENDBRANCH   9  14
ENDBRANCH   5   8
ENDBRANCH   3   4
ENDBRANCH   2   3
ENDBRANCH   1   2
BRANCH   1  31
ATOM     31  C   UNL A   1      39.258  26.937  29.144  1.00  0.00     0.002 C 
BRANCH  31  32
ATOM     32  C   UNL A   1      39.661  25.639  28.439  1.00  0.00     0.021 C 
BRANCH  32  33
ATOM     33  C   UNL A   1      39.404  25.622  26.933  1.00  0.00     0.116 C 
BRANCH  33  34
ATOM     34  N   UNL A   1      40.553  25.127  26.193  1.00  0.00    -0.352 N 
ATOM     35  C   UNL A   1      41.750  25.744  25.929  1.00  0.00     0.251 C 
ATOM     36  H   UNL A   1      40.458  24.218  25.827  1.00  0.00     0.163 HD
ATOM     37  O   UNL A   1      42.519  25.252  25.106  1.00  0.00    -0.269 OA
BRANCH  35  38
ATOM     38  C   UNL A   1      42.114  26.999  26.623  1.00  0.00     0.039 A 
ATOM     39  C   UNL A   1      41.720  28.218  26.063  1.00  0.00     0.014 A 
ATOM     40  C   UNL A   1      42.870  26.980  27.799  1.00  0.00     0.014 A 
ATOM     41  C   UNL A   1      42.047  29.415  26.706  1.00  0.00     0.010 A 
ATOM     42  C   UNL A   1      43.142  28.170  28.471  1.00  0.00     0.010 A 
ATOM     43  C   UNL A   1      42.742  29.400  27.925  1.00  0.00    -0.014 A 
BRANCH  43  44
ATOM     44  C   UNL A   1      43.052  30.662  28.645  1.00  0.00     0.031 A 
ATOM     45  C   UNL A   1      44.227  31.507  28.237  1.00  0.00     0.074 A 
ATOM     46  C   UNL A   1      42.314  31.010  29.719  1.00  0.00     0.049 A 
ATOM     47  N   UNL A   1      44.656  32.629  28.758  1.00  0.00    -0.248 NA
ATOM     48  C   UNL A   1      45.045  31.018  27.113  1.00  0.00     0.031 C 
ATOM     49  C   UNL A   1      41.204  30.228  30.269  1.00  0.00     0.029 A 
ATOM     50  N   UNL A   1      42.400  32.096  30.551  1.00  0.00    -0.354 N 
ATOM     51  C   UNL A   1      45.806  32.962  28.052  1.00  0.00     0.074 A 
ATOM     52  C   UNL A   1      46.028  31.907  27.086  1.00  0.00     0.031 C 
ATOM     53  C   UNL A   1      40.712  30.863  31.345  1.00  0.00     0.029 A 
ATOM     54  C   UNL A   1      41.476  32.085  31.570  1.00  0.00     0.049 A 
ATOM     55  H   UNL A   1      43.062  32.816  30.431  1.00  0.00     0.167 HD
ATOM     56  C   UNL A   1      46.587  34.061  28.172  1.00  0.00     0.034 A 
ATOM     57  C   UNL A   1      41.265  32.964  32.570  1.00  0.00     0.034 A 
ATOM     58  C   UNL A   1      46.333  35.134  29.095  1.00  0.00     0.049 A 
ATOM     59  C   UNL A   1      42.105  34.210  32.639  1.00  0.00     0.074 A 
ATOM     60  C   UNL A   1      47.008  36.336  29.227  1.00  0.00     0.029 A 
ATOM     61  N   UNL A   1      45.325  35.136  30.047  1.00  0.00    -0.354 N 
ATOM     62  N   UNL A   1      43.079  34.592  31.849  1.00  0.00    -0.248 NA
ATOM     63  C   UNL A   1      41.790  35.166  33.711  1.00  0.00     0.031 C 
ATOM     64  C   UNL A   1      46.412  37.060  30.265  1.00  0.00     0.029 A 
ATOM     65  C   UNL A   1      45.359  36.314  30.771  1.00  0.00     0.049 A 
ATOM     66  H   UNL A   1      44.678  34.407  30.186  1.00  0.00     0.167 HD
ATOM     67  C   UNL A   1      43.472  35.844  32.306  1.00  0.00     0.074 A 
ATOM     68  C   UNL A   1      42.614  36.167  33.429  1.00  0.00     0.031 C 
ATOM     69  C   UNL A   1      44.464  36.647  31.850  1.00  0.00     0.034 A 
BRANCH  56  70
ATOM     70  C   UNL A   1      47.757  34.195  27.233  1.00  0.00     0.023 A 
ATOM     71  C   UNL A   1      47.588  34.886  26.016  1.00  0.00     0.012 A 
ATOM     72  C   UNL A   1      49.030  33.696  27.572  1.00  0.00     0.148 A 
ATOM     73  C   UNL A   1      48.658  35.052  25.137  1.00  0.00     0.002 A 
ATOM     74  C   UNL A   1      50.101  33.900  26.709  1.00  0.00     0.091 A 
ATOM     75  F   UNL A   1      49.168  33.021  28.723  1.00  0.00    -0.205 F 
ATOM     76  C   UNL A   1      49.915  34.568  25.488  1.00  0.00     0.022 A 
BRANCH  74  77
ATOM     77  S   UNL A   1      51.774  33.379  27.106  1.00  0.00     0.127 S 
ATOM     78  O   UNL A   1      51.626  31.925  27.157  1.00  0.00    -0.237 OA
ATOM     79  O   UNL A   1      52.535  33.874  25.958  1.00  0.00    -0.237 OA
ATOM     80  O   UNL A   1      52.103  34.023  28.370  1.00  0.00    -0.744 OA
ENDBRANCH  74  77
ENDBRANCH  56  70
BRANCH  57  81
ATOM     81  C   UNL A   1      40.152  32.735  33.532  1.00  0.00     0.023 A 
ATOM     82  C   UNL A   1      40.420  32.081  34.751  1.00  0.00     0.012 A 
ATOM     83  C   UNL A   1      38.848  33.194  33.270  1.00  0.00     0.148 A 
ATOM     84  C   UNL A   1      39.401  31.865  35.681  1.00  0.00     0.002 A 
ATOM     85  C   UNL A   1      37.850  33.021  34.222  1.00  0.00     0.091 A 
ATOM     86  F   UNL A   1      38.611  33.799  32.098  1.00  0.00    -0.205 F 
ATOM     87  C   UNL A   1      38.121  32.345  35.422  1.00  0.00     0.022 A 
BRANCH  85  88
ATOM     88  S   UNL A   1      36.209  33.725  34.026  1.00  0.00     0.127 S 
ATOM     89  O   UNL A   1      36.517  35.082  33.587  1.00  0.00    -0.237 OA
ATOM     90  O   UNL A   1      35.627  32.860  32.999  1.00  0.00    -0.237 OA
ATOM     91  O   UNL A   1      35.579  33.604  35.335  1.00  0.00    -0.744 OA
ENDBRANCH  85  88
ENDBRANCH  57  81
BRANCH  69  92
ATOM     92  C   UNL A   1      44.668  37.967  32.544  1.00  0.00     0.023 A 
ATOM     93  C   UNL A   1      43.964  39.103  32.098  1.00  0.00     0.012 A 
ATOM     94  C   UNL A   1      45.498  38.067  33.678  1.00  0.00     0.148 A 
ATOM     95  C   UNL A   1      44.103  40.325  32.755  1.00  0.00     0.002 A 
ATOM     96  C   UNL A   1      45.595  39.277  34.354  1.00  0.00     0.091 A 
ATOM     97  F   UNL A   1      46.176  36.979  34.074  1.00  0.00    -0.205 F 
ATOM     98  C   UNL A   1      44.908  40.409  33.888  1.00  0.00     0.022 A 
BRANCH  96  99
ATOM     99  S   UNL A   1      46.538  39.450  35.874  1.00  0.00     0.127 S 
ATOM    100  O   UNL A   1      45.972  38.385  36.700  1.00  0.00    -0.237 OA
ATOM    101  O   UNL A   1      47.909  39.209  35.422  1.00  0.00    -0.237 OA
ATOM    102  O   UNL A   1      46.290  40.808  36.342  1.00  0.00    -0.744 OA
ENDBRANCH  96  99
ENDBRANCH  69  92
ENDBRANCH  43  44
ENDBRANCH  35  38
ENDBRANCH  33  34
ENDBRANCH  32  33
ENDBRANCH  31  32
ENDBRANCH   1  31
TORSDOF 19
ENDMDL
