MODEL 1
REMARK VINA RESULT:     -11.6      0.000      0.000
REMARK SMILES CC[C@@H](Oc1ccccc1/C=C1/SC(=O)N(c2ccc(C)c(C)c2)C1=O)C(=O)NCCCCCCNC(=O)c1ccc(-c2c3nc(c(-c4cccc(S(=O)(=O)[O-])c4F)c4ccc([nH]4)c(-c4cccc(S(=O)(=O)[O-])c4F)c4nc(c(-c5cccc(S(=O)(=O)[O-])c5F)c5ccc2[nH]5)C=C4)C=C3)cc1
REMARK SMILES IDX 32 1 31 2 30 3 29 4 27 5 28 6 3 8 2 9 1 10 4 11 5 12 6 13
REMARK SMILES IDX 10 14 7 15 9 16 8 17 11 18 12 19 13 20 25 21 14 22 16 23
REMARK SMILES IDX 26 24 15 25 17 26 18 27 24 28 19 29 22 30 20 31 23 32 21 33
REMARK SMILES IDX 33 34 34 35 35 36 36 37 37 38 38 40 39 41 40 42 101 43 41 44
REMARK SMILES IDX 100 45 42 46 43 47 44 48 94 49 45 50 99 51 93 52 95 53 46 54
REMARK SMILES IDX 98 55 92 56 91 57 47 59 79 60 59 61 78 62 60 63 63 64 77 65
REMARK SMILES IDX 96 66 61 67 62 68 76 70 97 71 64 72 48 73 49 74 57 75 50 76
REMARK SMILES IDX 52 77 58 78 51 79 53 80 54 81 55 82 56 83 80 84 81 85 89 86
REMARK SMILES IDX 82 87 84 88 90 89 83 90 85 91 86 92 87 93 88 94 65 95 66 96
REMARK SMILES IDX 74 97 67 98 69 99 75 100 68 101 70 102 71 103 72 104 73 105
REMARK H PARENT 29 7 36 39 95 58 63 69
REMARK Flexibility Score: inf
ROOT
ATOM      1  C   UNL A   1      32.740  30.298  25.941  1.00  0.00     0.002 C 
ENDROOT
BRANCH   1   2
ATOM      2  C   UNL A   1      33.570  29.445  26.926  1.00  0.00     0.021 C 
BRANCH   2   3
ATOM      3  C   UNL A   1      33.449  27.917  26.833  1.00  0.00     0.116 C 
BRANCH   3   4
ATOM      4  N   UNL A   1      32.096  27.394  26.749  1.00  0.00    -0.353 N 
ATOM      5  C   UNL A   1      31.434  26.855  25.671  1.00  0.00     0.261 C 
ATOM      6  O   UNL A   1      30.461  26.132  25.918  1.00  0.00    -0.271 OA
ATOM      7  H   UNL A   1      31.579  27.430  27.585  1.00  0.00     0.163 HD
BRANCH   5   8
ATOM      8  C   UNL A   1      31.759  27.245  24.198  1.00  0.00     0.261 C 
BRANCH   8   9
ATOM      9  C   UNL A   1      33.282  27.078  24.032  1.00  0.00     0.052 C 
ATOM     10  C   UNL A   1      33.938  28.240  23.294  1.00  0.00     0.008 C 
ENDBRANCH   8   9
BRANCH   8  11
ATOM     11  O   UNL A   1      31.028  26.476  23.237  1.00  0.00    -0.480 OA
BRANCH  11  12
ATOM     12  C   UNL A   1      31.799  25.733  22.365  1.00  0.00     0.127 A 
ATOM     13  C   UNL A   1      31.972  26.196  21.059  1.00  0.00     0.047 A 
ATOM     14  C   UNL A   1      32.168  24.405  22.674  1.00  0.00     0.018 A 
ATOM     15  C   UNL A   1      32.551  25.364  20.090  1.00  0.00     0.004 A 
ATOM     16  C   UNL A   1      32.799  23.601  21.715  1.00  0.00     0.012 A 
ATOM     17  C   UNL A   1      32.980  24.079  20.421  1.00  0.00     0.001 A 
BRANCH  14  18
ATOM     18  C   UNL A   1      31.755  23.757  23.919  1.00  0.00     0.033 C 
ATOM     19  C   UNL A   1      32.656  23.302  24.797  1.00  0.00     0.084 C 
ATOM     20  S   UNL A   1      32.247  22.357  26.173  1.00  0.00    -0.022 SA
ATOM     21  C   UNL A   1      34.140  23.441  24.688  1.00  0.00     0.272 C 
ATOM     22  C   UNL A   1      33.931  21.941  26.475  1.00  0.00     0.298 C 
ATOM     23  N   UNL A   1      34.740  22.557  25.550  1.00  0.00    -0.236 N 
ATOM     24  O   UNL A   1      34.713  24.264  23.989  1.00  0.00    -0.268 OA
ATOM     25  O   UNL A   1      34.237  21.162  27.367  1.00  0.00    -0.260 OA
BRANCH  23  26
ATOM     26  C   UNL A   1      36.142  22.456  25.602  1.00  0.00     0.053 A 
ATOM     27  C   UNL A   1      36.882  23.503  26.130  1.00  0.00     0.027 A 
ATOM     28  C   UNL A   1      36.792  21.292  25.171  1.00  0.00     0.030 A 
ATOM     29  C   UNL A   1      38.250  23.345  26.319  1.00  0.00     0.006 A 
ATOM     30  C   UNL A   1      38.160  21.090  25.420  1.00  0.00    -0.046 A 
ATOM     31  C   UNL A   1      38.885  22.122  26.040  1.00  0.00    -0.048 A 
ATOM     32  C   UNL A   1      38.778  19.747  25.127  1.00  0.00     0.044 C 
ATOM     33  C   UNL A   1      40.335  21.981  26.406  1.00  0.00     0.044 C 
ENDBRANCH  23  26
ENDBRANCH  14  18
ENDBRANCH  11  12
ENDBRANCH   8  11
ENDBRANCH   5   8
ENDBRANCH   3   4
ENDBRANCH   2   3
ENDBRANCH   1   2
BRANCH   1  34
ATOM     34  C   UNL A   1      31.422  30.935  26.428  1.00  0.00     0.002 C 
BRANCH  34  35
ATOM     35  C   UNL A   1      31.467  32.403  26.861  1.00  0.00     0.021 C 
BRANCH  35  36
ATOM     36  C   UNL A   1      32.821  33.043  27.150  1.00  0.00     0.116 C 
BRANCH  36  37
ATOM     37  N   UNL A   1      32.679  34.389  27.695  1.00  0.00    -0.352 N 
ATOM     38  C   UNL A   1      33.176  35.000  28.823  1.00  0.00     0.251 C 
ATOM     39  H   UNL A   1      32.114  34.978  27.144  1.00  0.00     0.163 HD
ATOM     40  O   UNL A   1      32.651  36.067  29.156  1.00  0.00    -0.269 OA
BRANCH  38  41
ATOM     41  C   UNL A   1      34.306  34.473  29.647  1.00  0.00     0.039 A 
ATOM     42  C   UNL A   1      35.607  34.567  29.119  1.00  0.00     0.014 A 
ATOM     43  C   UNL A   1      34.136  33.778  30.843  1.00  0.00     0.014 A 
ATOM     44  C   UNL A   1      36.699  33.973  29.772  1.00  0.00     0.010 A 
ATOM     45  C   UNL A   1      35.239  33.278  31.548  1.00  0.00     0.010 A 
ATOM     46  C   UNL A   1      36.529  33.324  31.002  1.00  0.00    -0.014 A 
BRANCH  46  47
ATOM     47  C   UNL A   1      37.663  32.633  31.690  1.00  0.00     0.031 A 
ATOM     48  C   UNL A   1      38.393  31.496  31.008  1.00  0.00     0.074 A 
ATOM     49  C   UNL A   1      38.012  32.981  32.945  1.00  0.00     0.049 A 
ATOM     50  N   UNL A   1      39.375  30.753  31.455  1.00  0.00    -0.248 NA
ATOM     51  C   UNL A   1      37.942  31.127  29.656  1.00  0.00     0.031 C 
ATOM     52  C   UNL A   1      37.358  34.017  33.748  1.00  0.00     0.029 A 
ATOM     53  N   UNL A   1      38.991  32.490  33.775  1.00  0.00    -0.354 N 
ATOM     54  C   UNL A   1      39.617  29.801  30.468  1.00  0.00     0.074 A 
ATOM     55  C   UNL A   1      38.659  30.039  29.413  1.00  0.00     0.031 C 
ATOM     56  C   UNL A   1      37.966  34.097  34.942  1.00  0.00     0.029 A 
ATOM     57  C   UNL A   1      39.026  33.096  35.010  1.00  0.00     0.049 A 
ATOM     58  H   UNL A   1      39.609  31.771  33.511  1.00  0.00     0.167 HD
ATOM     59  C   UNL A   1      40.565  28.832  30.425  1.00  0.00     0.034 A 
ATOM     60  C   UNL A   1      39.818  32.872  36.078  1.00  0.00     0.034 A 
ATOM     61  C   UNL A   1      41.554  28.628  31.449  1.00  0.00     0.049 A 
ATOM     62  C   UNL A   1      40.888  31.816  35.992  1.00  0.00     0.074 A 
ATOM     63  C   UNL A   1      42.618  27.742  31.456  1.00  0.00     0.029 A 
ATOM     64  N   UNL A   1      41.594  29.309  32.656  1.00  0.00    -0.354 N 
ATOM     65  N   UNL A   1      41.195  31.029  34.989  1.00  0.00    -0.248 NA
ATOM     66  C   UNL A   1      41.745  31.641  37.174  1.00  0.00     0.031 C 
ATOM     67  C   UNL A   1      43.276  27.858  32.685  1.00  0.00     0.029 A 
ATOM     68  C   UNL A   1      42.652  28.850  33.424  1.00  0.00     0.049 A 
ATOM     69  H   UNL A   1      40.963  30.014  32.928  1.00  0.00     0.167 HD
ATOM     70  C   UNL A   1      42.306  30.301  35.401  1.00  0.00     0.074 A 
ATOM     71  C   UNL A   1      42.627  30.753  36.739  1.00  0.00     0.031 C 
ATOM     72  C   UNL A   1      42.993  29.340  34.736  1.00  0.00     0.034 A 
BRANCH  59  73
ATOM     73  C   UNL A   1      40.600  27.933  29.212  1.00  0.00     0.023 A 
ATOM     74  C   UNL A   1      39.699  26.853  29.105  1.00  0.00     0.012 A 
ATOM     75  C   UNL A   1      41.495  28.187  28.151  1.00  0.00     0.148 A 
ATOM     76  C   UNL A   1      39.721  26.012  27.993  1.00  0.00     0.002 A 
ATOM     77  C   UNL A   1      41.475  27.376  27.021  1.00  0.00     0.091 A 
ATOM     78  F   UNL A   1      42.355  29.208  28.270  1.00  0.00    -0.205 F 
ATOM     79  C   UNL A   1      40.602  26.278  26.949  1.00  0.00     0.022 A 
BRANCH  77  80
ATOM     80  S   UNL A   1      42.508  27.687  25.585  1.00  0.00     0.127 S 
ATOM     81  O   UNL A   1      43.838  27.756  26.187  1.00  0.00    -0.237 OA
ATOM     82  O   UNL A   1      42.269  26.495  24.771  1.00  0.00    -0.237 OA
ATOM     83  O   UNL A   1      42.021  28.929  25.001  1.00  0.00    -0.744 OA
ENDBRANCH  77  80
ENDBRANCH  59  73
BRANCH  60  84
ATOM     84  C   UNL A   1      39.681  33.714  37.302  1.00  0.00     0.023 A 
ATOM     85  C   UNL A   1      38.717  33.372  38.272  1.00  0.00     0.012 A 
ATOM     86  C   UNL A   1      40.505  34.834  37.521  1.00  0.00     0.148 A 
ATOM     87  C   UNL A   1      38.553  34.149  39.419  1.00  0.00     0.002 A 
ATOM     88  C   UNL A   1      40.375  35.570  38.693  1.00  0.00     0.091 A 
ATOM     89  F   UNL A   1      41.409  35.149  36.583  1.00  0.00    -0.205 F 
ATOM     90  C   UNL A   1      39.388  35.242  39.635  1.00  0.00     0.022 A 
BRANCH  88  91
ATOM     91  S   UNL A   1      41.489  36.915  39.116  1.00  0.00     0.127 S 
ATOM     92  O   UNL A   1      42.257  36.334  40.214  1.00  0.00    -0.237 OA
ATOM     93  O   UNL A   1      42.232  37.091  37.868  1.00  0.00    -0.237 OA
ATOM     94  O   UNL A   1      40.632  38.039  39.470  1.00  0.00    -0.744 OA
ENDBRANCH  88  91
ENDBRANCH  60  84
BRANCH  72  95
ATOM     95  C   UNL A   1      44.199  28.744  35.414  1.00  0.00     0.023 A 
ATOM     96  C   UNL A   1      45.487  29.254  35.153  1.00  0.00     0.012 A 
ATOM     97  C   UNL A   1      44.045  27.712  36.363  1.00  0.00     0.148 A 
ATOM     98  C   UNL A   1      46.605  28.716  35.792  1.00  0.00     0.002 A 
ATOM     99  C   UNL A   1      45.157  27.222  37.037  1.00  0.00     0.091 A 
ATOM    100  F   UNL A   1      42.815  27.228  36.586  1.00  0.00    -0.205 F 
ATOM    101  C   UNL A   1      46.438  27.710  36.741  1.00  0.00     0.022 A 
BRANCH  99 102
ATOM    102  S   UNL A   1      45.025  26.001  38.348  1.00  0.00     0.127 S 
ATOM    103  O   UNL A   1      44.063  26.634  39.248  1.00  0.00    -0.237 OA
ATOM    104  O   UNL A   1      44.513  24.833  37.633  1.00  0.00    -0.237 OA
ATOM    105  O   UNL A   1      46.370  25.840  38.885  1.00  0.00    -0.744 OA
ENDBRANCH  99 102
ENDBRANCH  72  95
ENDBRANCH  46  47
ENDBRANCH  38  41
ENDBRANCH  36  37
ENDBRANCH  35  36
ENDBRANCH  34  35
ENDBRANCH   1  34
TORSDOF 21
ENDMDL
MODEL 2
REMARK VINA RESULT:     -11.5      1.055      7.195
REMARK SMILES CC[C@@H](Oc1ccccc1/C=C1/SC(=O)N(c2ccc(C)c(C)c2)C1=O)C(=O)NCCCCCCNC(=O)c1ccc(-c2c3nc(c(-c4cccc(S(=O)(=O)[O-])c4F)c4ccc([nH]4)c(-c4cccc(S(=O)(=O)[O-])c4F)c4nc(c(-c5cccc(S(=O)(=O)[O-])c5F)c5ccc2[nH]5)C=C4)C=C3)cc1
REMARK SMILES IDX 32 1 31 2 30 3 29 4 27 5 28 6 3 8 2 9 1 10 4 11 5 12 6 13
REMARK SMILES IDX 10 14 7 15 9 16 8 17 11 18 12 19 13 20 25 21 14 22 16 23
REMARK SMILES IDX 26 24 15 25 17 26 18 27 24 28 19 29 22 30 20 31 23 32 21 33
REMARK SMILES IDX 33 34 34 35 35 36 36 37 37 38 38 40 39 41 40 42 101 43 41 44
REMARK SMILES IDX 100 45 42 46 43 47 44 48 94 49 45 50 99 51 93 52 95 53 46 54
REMARK SMILES IDX 98 55 92 56 91 57 47 59 79 60 59 61 78 62 60 63 63 64 77 65
REMARK SMILES IDX 96 66 61 67 62 68 76 70 97 71 64 72 48 73 49 74 57 75 50 76
REMARK SMILES IDX 52 77 58 78 51 79 53 80 54 81 55 82 56 83 80 84 81 85 89 86
REMARK SMILES IDX 82 87 84 88 90 89 83 90 85 91 86 92 87 93 88 94 65 95 66 96
REMARK SMILES IDX 74 97 67 98 69 99 75 100 68 101 70 102 71 103 72 104 73 105
REMARK H PARENT 29 7 36 39 95 58 63 69
REMARK Flexibility Score: inf
ROOT
ATOM      1  C   UNL A   1      32.961  30.150  26.009  1.00  0.00     0.002 C 
ENDROOT
BRANCH   1   2
ATOM      2  C   UNL A   1      33.835  29.182  26.838  1.00  0.00     0.021 C 
BRANCH   2   3
ATOM      3  C   UNL A   1      33.667  27.675  26.593  1.00  0.00     0.116 C 
BRANCH   3   4
ATOM      4  N   UNL A   1      32.299  27.187  26.568  1.00  0.00    -0.353 N 
ATOM      5  C   UNL A   1      31.559  26.717  25.509  1.00  0.00     0.261 C 
ATOM      6  O   UNL A   1      30.585  26.004  25.781  1.00  0.00    -0.271 OA
ATOM      7  H   UNL A   1      31.835  27.191  27.436  1.00  0.00     0.163 HD
BRANCH   5   8
ATOM      8  C   UNL A   1      31.802  27.174  24.040  1.00  0.00     0.261 C 
BRANCH   8   9
ATOM      9  C   UNL A   1      33.322  27.083  23.804  1.00  0.00     0.052 C 
ATOM     10  C   UNL A   1      33.895  28.304  23.094  1.00  0.00     0.008 C 
ENDBRANCH   8   9
BRANCH   8  11
ATOM     11  O   UNL A   1      31.064  26.407  23.081  1.00  0.00    -0.480 OA
BRANCH  11  12
ATOM     12  C   UNL A   1      31.829  25.666  22.203  1.00  0.00     0.127 A 
ATOM     13  C   UNL A   1      32.022  26.149  20.907  1.00  0.00     0.047 A 
ATOM     14  C   UNL A   1      32.171  24.327  22.491  1.00  0.00     0.018 A 
ATOM     15  C   UNL A   1      32.594  25.324  19.928  1.00  0.00     0.004 A 
ATOM     16  C   UNL A   1      32.796  23.528  21.524  1.00  0.00     0.012 A 
ATOM     17  C   UNL A   1      32.997  24.026  20.240  1.00  0.00     0.001 A 
BRANCH  14  18
ATOM     18  C   UNL A   1      31.735  23.664  23.720  1.00  0.00     0.033 C 
ATOM     19  C   UNL A   1      32.619  23.221  24.622  1.00  0.00     0.084 C 
ATOM     20  S   UNL A   1      32.189  22.260  25.980  1.00  0.00    -0.022 SA
ATOM     21  C   UNL A   1      34.103  23.388  24.555  1.00  0.00     0.272 C 
ATOM     22  C   UNL A   1      33.871  21.874  26.328  1.00  0.00     0.298 C 
ATOM     23  N   UNL A   1      34.694  22.509  25.430  1.00  0.00    -0.236 N 
ATOM     24  O   UNL A   1      34.680  24.225  23.877  1.00  0.00    -0.268 OA
ATOM     25  O   UNL A   1      34.167  21.096  27.224  1.00  0.00    -0.260 OA
BRANCH  23  26
ATOM     26  C   UNL A   1      36.096  22.434  25.521  1.00  0.00     0.053 A 
ATOM     27  C   UNL A   1      36.802  23.496  26.065  1.00  0.00     0.027 A 
ATOM     28  C   UNL A   1      36.779  21.280  25.113  1.00  0.00     0.030 A 
ATOM     29  C   UNL A   1      38.168  23.363  26.292  1.00  0.00     0.006 A 
ATOM     30  C   UNL A   1      38.142  21.104  25.400  1.00  0.00    -0.046 A 
ATOM     31  C   UNL A   1      38.832  22.151  26.035  1.00  0.00    -0.048 A 
ATOM     32  C   UNL A   1      38.793  19.771  25.129  1.00  0.00     0.044 C 
ATOM     33  C   UNL A   1      40.273  22.038  26.442  1.00  0.00     0.044 C 
ENDBRANCH  23  26
ENDBRANCH  14  18
ENDBRANCH  11  12
ENDBRANCH   8  11
ENDBRANCH   5   8
ENDBRANCH   3   4
ENDBRANCH   2   3
ENDBRANCH   1   2
BRANCH   1  34
ATOM     34  C   UNL A   1      31.650  30.687  26.620  1.00  0.00     0.002 C 
BRANCH  34  35
ATOM     35  C   UNL A   1      31.614  32.164  27.025  1.00  0.00     0.021 C 
BRANCH  35  36
ATOM     36  C   UNL A   1      32.927  32.933  27.116  1.00  0.00     0.116 C 
BRANCH  36  37
ATOM     37  N   UNL A   1      32.756  34.221  27.778  1.00  0.00    -0.352 N 
ATOM     38  C   UNL A   1      33.256  34.747  28.948  1.00  0.00     0.251 C 
ATOM     39  H   UNL A   1      32.164  34.838  27.291  1.00  0.00     0.163 HD
ATOM     40  O   UNL A   1      32.706  35.765  29.381  1.00  0.00    -0.269 OA
BRANCH  38  41
ATOM     41  C   UNL A   1      34.417  34.186  29.704  1.00  0.00     0.039 A 
ATOM     42  C   UNL A   1      35.712  34.500  29.253  1.00  0.00     0.014 A 
ATOM     43  C   UNL A   1      34.293  33.267  30.745  1.00  0.00     0.014 A 
ATOM     44  C   UNL A   1      36.845  33.901  29.827  1.00  0.00     0.010 A 
ATOM     45  C   UNL A   1      35.426  32.752  31.388  1.00  0.00     0.010 A 
ATOM     46  C   UNL A   1      36.716  33.021  30.910  1.00  0.00    -0.014 A 
BRANCH  46  47
ATOM     47  C   UNL A   1      37.899  32.326  31.502  1.00  0.00     0.031 A 
ATOM     48  C   UNL A   1      38.472  32.783  32.827  1.00  0.00     0.074 A 
ATOM     49  C   UNL A   1      38.501  31.319  30.837  1.00  0.00     0.049 A 
ATOM     50  N   UNL A   1      39.512  32.331  33.482  1.00  0.00    -0.248 NA
ATOM     51  C   UNL A   1      37.804  33.916  33.489  1.00  0.00     0.031 C 
ATOM     52  C   UNL A   1      38.096  30.812  29.524  1.00  0.00     0.029 A 
ATOM     53  N   UNL A   1      39.594  30.551  31.164  1.00  0.00    -0.354 N 
ATOM     54  C   UNL A   1      39.654  33.155  34.595  1.00  0.00     0.074 A 
ATOM     55  C   UNL A   1      38.613  34.155  34.511  1.00  0.00     0.031 C 
ATOM     56  C   UNL A   1      38.913  29.807  29.168  1.00  0.00     0.029 A 
ATOM     57  C   UNL A   1      39.924  29.621  30.205  1.00  0.00     0.049 A 
ATOM     58  H   UNL A   1      40.093  30.657  32.006  1.00  0.00     0.167 HD
ATOM     59  C   UNL A   1      40.548  33.077  35.612  1.00  0.00     0.034 A 
ATOM     60  C   UNL A   1      40.927  28.722  30.161  1.00  0.00     0.034 A 
ATOM     61  C   UNL A   1      41.549  32.051  35.727  1.00  0.00     0.049 A 
ATOM     62  C   UNL A   1      41.885  28.629  31.320  1.00  0.00     0.074 A 
ATOM     63  C   UNL A   1      42.436  31.824  36.765  1.00  0.00     0.029 A 
ATOM     64  N   UNL A   1      41.807  31.088  34.764  1.00  0.00    -0.354 N 
ATOM     65  N   UNL A   1      41.906  29.322  32.433  1.00  0.00    -0.248 NA
ATOM     66  C   UNL A   1      42.936  27.605  31.232  1.00  0.00     0.031 C 
ATOM     67  C   UNL A   1      43.259  30.749  36.411  1.00  0.00     0.029 A 
ATOM     68  C   UNL A   1      42.852  30.276  35.174  1.00  0.00     0.049 A 
ATOM     69  H   UNL A   1      41.321  30.995  33.913  1.00  0.00     0.167 HD
ATOM     70  C   UNL A   1      42.939  28.789  33.195  1.00  0.00     0.074 A 
ATOM     71  C   UNL A   1      43.509  27.704  32.423  1.00  0.00     0.031 C 
ATOM     72  C   UNL A   1      43.381  29.168  34.420  1.00  0.00     0.034 A 
BRANCH  59  73
ATOM     73  C   UNL A   1      40.464  34.116  36.706  1.00  0.00     0.023 A 
ATOM     74  C   UNL A   1      40.963  35.417  36.485  1.00  0.00     0.012 A 
ATOM     75  C   UNL A   1      39.846  33.819  37.938  1.00  0.00     0.148 A 
ATOM     76  C   UNL A   1      40.897  36.386  37.486  1.00  0.00     0.002 A 
ATOM     77  C   UNL A   1      39.736  34.806  38.912  1.00  0.00     0.091 A 
ATOM     78  F   UNL A   1      39.388  32.576  38.141  1.00  0.00    -0.205 F 
ATOM     79  C   UNL A   1      40.276  36.084  38.694  1.00  0.00     0.022 A 
BRANCH  77  80
ATOM     80  S   UNL A   1      38.876  34.543  40.467  1.00  0.00     0.127 S 
ATOM     81  O   UNL A   1      37.675  33.837  40.025  1.00  0.00    -0.237 OA
ATOM     82  O   UNL A   1      39.830  33.717  41.209  1.00  0.00    -0.237 OA
ATOM     83  O   UNL A   1      38.651  35.867  41.031  1.00  0.00    -0.744 OA
ENDBRANCH  77  80
ENDBRANCH  59  73
BRANCH  60  84
ATOM     84  C   UNL A   1      41.040  27.780  29.009  1.00  0.00     0.023 A 
ATOM     85  C   UNL A   1      40.252  26.611  28.991  1.00  0.00     0.012 A 
ATOM     86  C   UNL A   1      41.903  28.041  27.927  1.00  0.00     0.148 A 
ATOM     87  C   UNL A   1      40.348  25.703  27.936  1.00  0.00     0.002 A 
ATOM     88  C   UNL A   1      41.950  27.162  26.852  1.00  0.00     0.091 A 
ATOM     89  F   UNL A   1      42.650  29.153  27.967  1.00  0.00    -0.205 F 
ATOM     90  C   UNL A   1      41.188  25.983  26.862  1.00  0.00     0.022 A 
BRANCH  88  91
ATOM     91  S   UNL A   1      42.906  27.500  25.369  1.00  0.00     0.127 S 
ATOM     92  O   UNL A   1      42.855  26.213  24.680  1.00  0.00    -0.237 OA
ATOM     93  O   UNL A   1      42.120  28.566  24.745  1.00  0.00    -0.237 OA
ATOM     94  O   UNL A   1      44.222  27.916  25.836  1.00  0.00    -0.744 OA
ENDBRANCH  88  91
ENDBRANCH  60  84
BRANCH  72  95
ATOM     95  C   UNL A   1      44.504  28.373  35.036  1.00  0.00     0.023 A 
ATOM     96  C   UNL A   1      45.829  28.850  34.975  1.00  0.00     0.012 A 
ATOM     97  C   UNL A   1      44.232  27.178  35.733  1.00  0.00     0.148 A 
ATOM     98  C   UNL A   1      46.869  28.127  35.560  1.00  0.00     0.002 A 
ATOM     99  C   UNL A   1      45.265  26.494  36.361  1.00  0.00     0.091 A 
ATOM    100  F   UNL A   1      42.968  26.731  35.766  1.00  0.00    -0.205 F 
ATOM    101  C   UNL A   1      46.585  26.957  36.261  1.00  0.00     0.022 A 
BRANCH  99 102
ATOM    102  S   UNL A   1      44.979  25.038  37.372  1.00  0.00     0.127 S 
ATOM    103  O   UNL A   1      44.240  25.600  38.501  1.00  0.00    -0.237 OA
ATOM    104  O   UNL A   1      44.182  24.194  36.482  1.00  0.00    -0.237 OA
ATOM    105  O   UNL A   1      46.297  24.504  37.692  1.00  0.00    -0.744 OA
ENDBRANCH  99 102
ENDBRANCH  72  95
ENDBRANCH  46  47
ENDBRANCH  38  41
ENDBRANCH  36  37
ENDBRANCH  35  36
ENDBRANCH  34  35
ENDBRANCH   1  34
TORSDOF 21
ENDMDL
MODEL 3
REMARK VINA RESULT:     -11.4      4.921     11.124
REMARK SMILES CC[C@@H](Oc1ccccc1/C=C1/SC(=O)N(c2ccc(C)c(C)c2)C1=O)C(=O)NCCCCCCNC(=O)c1ccc(-c2c3nc(c(-c4cccc(S(=O)(=O)[O-])c4F)c4ccc([nH]4)c(-c4cccc(S(=O)(=O)[O-])c4F)c4nc(c(-c5cccc(S(=O)(=O)[O-])c5F)c5ccc2[nH]5)C=C4)C=C3)cc1
REMARK SMILES IDX 32 1 31 2 30 3 29 4 27 5 28 6 3 8 2 9 1 10 4 11 5 12 6 13
REMARK SMILES IDX 10 14 7 15 9 16 8 17 11 18 12 19 13 20 25 21 14 22 16 23
REMARK SMILES IDX 26 24 15 25 17 26 18 27 24 28 19 29 22 30 20 31 23 32 21 33
REMARK SMILES IDX 33 34 34 35 35 36 36 37 37 38 38 40 39 41 40 42 101 43 41 44
REMARK SMILES IDX 100 45 42 46 43 47 44 48 94 49 45 50 99 51 93 52 95 53 46 54
REMARK SMILES IDX 98 55 92 56 91 57 47 59 79 60 59 61 78 62 60 63 63 64 77 65
REMARK SMILES IDX 96 66 61 67 62 68 76 70 97 71 64 72 48 73 49 74 57 75 50 76
REMARK SMILES IDX 52 77 58 78 51 79 53 80 54 81 55 82 56 83 80 84 81 85 89 86
REMARK SMILES IDX 82 87 84 88 90 89 83 90 85 91 86 92 87 93 88 94 65 95 66 96
REMARK SMILES IDX 74 97 67 98 69 99 75 100 68 101 70 102 71 103 72 104 73 105
REMARK H PARENT 29 7 36 39 95 58 63 69
REMARK Flexibility Score: inf
ROOT
ATOM      1  C   UNL A   1      48.572  24.983  26.623  1.00  0.00     0.002 C 
ENDROOT
BRANCH   1   2
ATOM      2  C   UNL A   1      47.623  25.167  27.828  1.00  0.00     0.021 C 
BRANCH   2   3
ATOM      3  C   UNL A   1      46.112  25.191  27.556  1.00  0.00     0.116 C 
BRANCH   3   4
ATOM      4  N   UNL A   1      45.258  25.213  28.731  1.00  0.00    -0.353 N 
ATOM      5  C   UNL A   1      43.946  24.823  28.864  1.00  0.00     0.261 C 
ATOM      6  O   UNL A   1      43.554  24.563  30.008  1.00  0.00    -0.271 OA
ATOM      7  H   UNL A   1      45.680  25.555  29.551  1.00  0.00     0.163 HD
BRANCH   5   8
ATOM      8  C   UNL A   1      42.930  24.857  27.683  1.00  0.00     0.261 C 
BRANCH   8   9
ATOM      9  C   UNL A   1      42.383  23.424  27.542  1.00  0.00     0.052 C 
ATOM     10  C   UNL A   1      42.744  22.770  26.213  1.00  0.00     0.008 C 
ENDBRANCH   8   9
BRANCH   8  11
ATOM     11  O   UNL A   1      41.882  25.815  27.868  1.00  0.00    -0.480 OA
BRANCH  11  12
ATOM     12  C   UNL A   1      42.230  27.128  27.619  1.00  0.00     0.127 A 
ATOM     13  C   UNL A   1      43.106  27.404  26.568  1.00  0.00     0.047 A 
ATOM     14  C   UNL A   1      41.950  28.143  28.560  1.00  0.00     0.018 A 
ATOM     15  C   UNL A   1      43.656  28.686  26.430  1.00  0.00     0.004 A 
ATOM     16  C   UNL A   1      42.455  29.438  28.381  1.00  0.00     0.012 A 
ATOM     17  C   UNL A   1      43.317  29.705  27.322  1.00  0.00     0.001 A 
BRANCH  14  18
ATOM     18  C   UNL A   1      41.288  27.857  29.833  1.00  0.00     0.033 C 
ATOM     19  C   UNL A   1      40.001  28.167  30.032  1.00  0.00     0.084 C 
ATOM     20  S   UNL A   1      39.221  28.046  31.558  1.00  0.00    -0.022 SA
ATOM     21  C   UNL A   1      39.070  28.753  29.020  1.00  0.00     0.272 C 
ATOM     22  C   UNL A   1      37.815  28.942  30.989  1.00  0.00     0.298 C 
ATOM     23  N   UNL A   1      37.972  29.269  29.664  1.00  0.00    -0.236 N 
ATOM     24  O   UNL A   1      39.240  28.711  27.811  1.00  0.00    -0.268 OA
ATOM     25  O   UNL A   1      36.905  29.236  31.752  1.00  0.00    -0.260 OA
BRANCH  23  26
ATOM     26  C   UNL A   1      36.964  29.925  28.934  1.00  0.00     0.053 A 
ATOM     27  C   UNL A   1      35.912  29.189  28.410  1.00  0.00     0.027 A 
ATOM     28  C   UNL A   1      36.987  31.317  28.773  1.00  0.00     0.030 A 
ATOM     29  C   UNL A   1      34.842  29.851  27.819  1.00  0.00     0.006 A 
ATOM     30  C   UNL A   1      35.883  32.004  28.243  1.00  0.00    -0.046 A 
ATOM     31  C   UNL A   1      34.781  31.256  27.797  1.00  0.00    -0.048 A 
ATOM     32  C   UNL A   1      35.862  33.512  28.274  1.00  0.00     0.044 C 
ATOM     33  C   UNL A   1      33.528  31.898  27.273  1.00  0.00     0.044 C 
ENDBRANCH  23  26
ENDBRANCH  14  18
ENDBRANCH  11  12
ENDBRANCH   8  11
ENDBRANCH   5   8
ENDBRANCH   3   4
ENDBRANCH   2   3
ENDBRANCH   1   2
BRANCH   1  34
ATOM     34  C   UNL A   1      48.434  25.926  25.410  1.00  0.00     0.002 C 
BRANCH  34  35
ATOM     35  C   UNL A   1      49.706  26.613  24.903  1.00  0.00     0.021 C 
BRANCH  35  36
ATOM     36  C   UNL A   1      50.106  27.955  25.504  1.00  0.00     0.116 C 
BRANCH  36  37
ATOM     37  N   UNL A   1      50.808  27.793  26.773  1.00  0.00    -0.352 N 
ATOM     38  C   UNL A   1      50.574  28.271  28.041  1.00  0.00     0.251 C 
ATOM     39  H   UNL A   1      51.612  27.228  26.707  1.00  0.00     0.163 HD
ATOM     40  O   UNL A   1      51.503  28.186  28.850  1.00  0.00    -0.269 OA
BRANCH  38  41
ATOM     41  C   UNL A   1      49.278  28.858  28.502  1.00  0.00     0.039 A 
ATOM     42  C   UNL A   1      49.304  29.727  29.607  1.00  0.00     0.014 A 
ATOM     43  C   UNL A   1      48.035  28.493  27.987  1.00  0.00     0.014 A 
ATOM     44  C   UNL A   1      48.115  30.208  30.180  1.00  0.00     0.010 A 
ATOM     45  C   UNL A   1      46.855  29.056  28.490  1.00  0.00     0.010 A 
ATOM     46  C   UNL A   1      46.871  29.882  29.622  1.00  0.00    -0.014 A 
BRANCH  46  47
ATOM     47  C   UNL A   1      45.589  30.331  30.245  1.00  0.00     0.031 A 
ATOM     48  C   UNL A   1      44.927  31.616  29.793  1.00  0.00     0.074 A 
ATOM     49  C   UNL A   1      45.036  29.625  31.253  1.00  0.00     0.049 A 
ATOM     50  N   UNL A   1      43.835  32.187  30.236  1.00  0.00    -0.248 NA
ATOM     51  C   UNL A   1      45.596  32.371  28.721  1.00  0.00     0.031 C 
ATOM     52  C   UNL A   1      45.595  28.401  31.833  1.00  0.00     0.029 A 
ATOM     53  N   UNL A   1      43.892  29.843  31.982  1.00  0.00    -0.354 N 
ATOM     54  C   UNL A   1      43.720  33.388  29.539  1.00  0.00     0.074 A 
ATOM     55  C   UNL A   1      44.869  33.478  28.668  1.00  0.00     0.031 C 
ATOM     56  C   UNL A   1      44.783  27.968  32.810  1.00  0.00     0.029 A 
ATOM     57  C   UNL A   1      43.667  28.898  32.957  1.00  0.00     0.049 A 
ATOM     58  H   UNL A   1      43.289  30.605  31.822  1.00  0.00     0.167 HD
ATOM     59  C   UNL A   1      42.737  34.320  29.595  1.00  0.00     0.034 A 
ATOM     60  C   UNL A   1      42.679  28.792  33.867  1.00  0.00     0.034 A 
ATOM     61  C   UNL A   1      41.565  34.207  30.421  1.00  0.00     0.049 A 
ATOM     62  C   UNL A   1      41.579  29.821  33.884  1.00  0.00     0.074 A 
ATOM     63  C   UNL A   1      40.465  35.046  30.476  1.00  0.00     0.029 A 
ATOM     64  N   UNL A   1      41.345  33.199  31.347  1.00  0.00    -0.354 N 
ATOM     65  N   UNL A   1      41.414  30.867  33.113  1.00  0.00    -0.248 NA
ATOM     66  C   UNL A   1      40.510  29.632  34.875  1.00  0.00     0.031 C 
ATOM     67  C   UNL A   1      39.599  34.567  31.466  1.00  0.00     0.029 A 
ATOM     68  C   UNL A   1      40.137  33.404  31.993  1.00  0.00     0.049 A 
ATOM     69  H   UNL A   1      41.958  32.448  31.520  1.00  0.00     0.167 HD
ATOM     70  C   UNL A   1      40.203  31.434  33.493  1.00  0.00     0.074 A 
ATOM     71  C   UNL A   1      39.669  30.605  34.553  1.00  0.00     0.031 C 
ATOM     72  C   UNL A   1      39.591  32.545  33.013  1.00  0.00     0.034 A 
BRANCH  59  73
ATOM     73  C   UNL A   1      42.870  35.538  28.711  1.00  0.00     0.023 A 
ATOM     74  C   UNL A   1      42.414  35.497  27.376  1.00  0.00     0.012 A 
ATOM     75  C   UNL A   1      43.404  36.742  29.216  1.00  0.00     0.148 A 
ATOM     76  C   UNL A   1      42.534  36.612  26.546  1.00  0.00     0.002 A 
ATOM     77  C   UNL A   1      43.471  37.865  28.398  1.00  0.00     0.091 A 
ATOM     78  F   UNL A   1      43.846  36.765  30.481  1.00  0.00    -0.205 F 
ATOM     79  C   UNL A   1      43.053  37.796  27.059  1.00  0.00     0.022 A 
BRANCH  77  80
ATOM     80  S   UNL A   1      44.042  39.463  28.988  1.00  0.00     0.127 S 
ATOM     81  O   UNL A   1      43.949  40.276  27.777  1.00  0.00    -0.237 OA
ATOM     82  O   UNL A   1      43.049  39.784  30.014  1.00  0.00    -0.237 OA
ATOM     83  O   UNL A   1      45.390  39.247  29.494  1.00  0.00    -0.744 OA
ENDBRANCH  77  80
ENDBRANCH  59  73
BRANCH  60  84
ATOM     84  C   UNL A   1      42.640  27.626  34.798  1.00  0.00     0.023 A 
ATOM     85  C   UNL A   1      41.725  26.581  34.560  1.00  0.00     0.012 A 
ATOM     86  C   UNL A   1      43.511  27.536  35.902  1.00  0.00     0.148 A 
ATOM     87  C   UNL A   1      41.653  25.486  35.421  1.00  0.00     0.002 A 
ATOM     88  C   UNL A   1      43.473  26.415  36.722  1.00  0.00     0.091 A 
ATOM     89  F   UNL A   1      44.367  28.544  36.117  1.00  0.00    -0.205 F 
ATOM     90  C   UNL A   1      42.534  25.398  36.496  1.00  0.00     0.022 A 
BRANCH  88  91
ATOM     91  S   UNL A   1      44.651  26.154  38.054  1.00  0.00     0.127 S 
ATOM     92  O   UNL A   1      44.124  27.032  39.096  1.00  0.00    -0.237 OA
ATOM     93  O   UNL A   1      44.492  24.723  38.315  1.00  0.00    -0.237 OA
ATOM     94  O   UNL A   1      45.949  26.527  37.510  1.00  0.00    -0.744 OA
ENDBRANCH  88  91
ENDBRANCH  60  84
BRANCH  72  95
ATOM     95  C   UNL A   1      38.245  32.908  33.587  1.00  0.00     0.023 A 
ATOM     96  C   UNL A   1      38.139  33.368  34.915  1.00  0.00     0.012 A 
ATOM     97  C   UNL A   1      37.089  32.848  32.783  1.00  0.00     0.148 A 
ATOM     98  C   UNL A   1      36.898  33.721  35.445  1.00  0.00     0.002 A 
ATOM     99  C   UNL A   1      35.866  33.256  33.300  1.00  0.00     0.091 A 
ATOM    100  F   UNL A   1      37.206  32.392  31.527  1.00  0.00    -0.205 F 
ATOM    101  C   UNL A   1      35.765  33.676  34.635  1.00  0.00     0.022 A 
BRANCH  99 102
ATOM    102  S   UNL A   1      34.375  33.330  32.301  1.00  0.00     0.127 S 
ATOM    103  O   UNL A   1      34.617  34.526  31.495  1.00  0.00    -0.237 OA
ATOM    104  O   UNL A   1      34.437  32.072  31.558  1.00  0.00    -0.237 OA
ATOM    105  O   UNL A   1      33.265  33.424  33.239  1.00  0.00    -0.744 OA
ENDBRANCH  99 102
ENDBRANCH  72  95
ENDBRANCH  46  47
ENDBRANCH  38  41
ENDBRANCH  36  37
ENDBRANCH  35  36
ENDBRANCH  34  35
ENDBRANCH   1  34
TORSDOF 21
ENDMDL
