MODEL 1
REMARK VINA RESULT:     -10.2      0.000      0.000
REMARK SMILES CCCc1sc(C(=O)NCCC(=O)NCCCCCCNC(=O)c2ccc(-c3c4nc(c(-c5cccc(S(=O)(=O)[O-])c5F)c5ccc([nH]5)c(-c5cccc(S(=O)(=O)[O-])c5F)c5nc(c(-c6cccc(S(=O)(=O)[O-])c6F)c6ccc3[nH]6)C=C5)C=C4)cc2)cc1CC
REMARK SMILES IDX 16 1 15 2 14 3 12 4 13 5 11 7 10 8 9 9 7 10 8 11 6 13 4 14
REMARK SMILES IDX 5 15 88 16 87 17 3 18 2 19 1 20 89 21 90 22 17 23 18 24
REMARK SMILES IDX 19 25 20 26 21 27 22 28 23 30 24 31 25 32 86 33 26 34 85 35
REMARK SMILES IDX 27 36 28 37 29 38 79 39 30 40 84 41 78 42 80 43 31 44 83 45
REMARK SMILES IDX 77 46 76 47 32 49 64 50 44 51 63 52 45 53 48 54 62 55 81 56
REMARK SMILES IDX 46 57 47 58 61 60 82 61 49 62 33 63 34 64 42 65 35 66 37 67
REMARK SMILES IDX 43 68 36 69 38 70 39 71 40 72 41 73 65 74 66 75 74 76 67 77
REMARK SMILES IDX 69 78 75 79 68 80 70 81 71 82 72 83 73 84 50 85 51 86 59 87
REMARK SMILES IDX 52 88 54 89 60 90 53 91 55 92 56 93 57 94 58 95
REMARK H PARENT 14 6 9 12 21 29 80 48 48 59
REMARK Flexibility Score: inf
ROOT
ATOM      1  C   UNL A   1      32.898  28.585  26.530  1.00  0.00     0.021 C 
ENDROOT
BRANCH   1   2
ATOM      2  C   UNL A   1      31.880  27.937  25.592  1.00  0.00     0.116 C 
BRANCH   2   3
ATOM      3  N   UNL A   1      31.235  26.806  26.233  1.00  0.00    -0.356 N 
ATOM      4  C   UNL A   1      30.307  25.947  25.734  1.00  0.00     0.221 C 
ATOM      5  O   UNL A   1      29.810  25.106  26.486  1.00  0.00    -0.275 OA
ATOM      6  H   UNL A   1      31.509  26.637  27.164  1.00  0.00     0.163 HD
BRANCH   4   7
ATOM      7  C   UNL A   1      29.890  26.026  24.280  1.00  0.00     0.121 C 
BRANCH   7   8
ATOM      8  C   UNL A   1      30.573  24.959  23.428  1.00  0.00     0.126 C 
BRANCH   8   9
ATOM      9  N   UNL A   1      31.744  25.455  22.729  1.00  0.00    -0.351 N 
ATOM     10  C   UNL A   1      33.096  25.302  22.911  1.00  0.00     0.261 C 
ATOM     11  O   UNL A   1      33.783  26.023  22.178  1.00  0.00    -0.268 OA
ATOM     12  H   UNL A   1      31.520  26.025  21.958  1.00  0.00     0.163 HD
BRANCH  10  13
ATOM     13  C   UNL A   1      33.649  24.343  23.856  1.00  0.00     0.092 A 
ATOM     14  C   UNL A   1      34.541  22.182  24.782  1.00  0.00     0.009 A 
ATOM     15  S   UNL A   1      34.295  22.893  23.225  1.00  0.00    -0.135 S 
ATOM     16  C   UNL A   1      34.238  23.090  25.793  1.00  0.00    -0.034 A 
ATOM     17  C   UNL A   1      33.763  24.333  25.227  1.00  0.00     0.029 A 
BRANCH  14  18
ATOM     18  C   UNL A   1      35.042  20.750  24.732  1.00  0.00     0.047 C 
BRANCH  18  19
ATOM     19  C   UNL A   1      34.039  19.613  24.865  1.00  0.00     0.002 C 
ATOM     20  C   UNL A   1      32.587  20.060  24.779  1.00  0.00     0.004 C 
ENDBRANCH  18  19
ENDBRANCH  14  18
BRANCH  16  21
ATOM     21  C   UNL A   1      34.270  22.888  27.288  1.00  0.00     0.033 C 
ATOM     22  C   UNL A   1      32.973  22.362  27.890  1.00  0.00     0.009 C 
ENDBRANCH  16  21
ENDBRANCH  10  13
ENDBRANCH   8   9
ENDBRANCH   7   8
ENDBRANCH   4   7
ENDBRANCH   2   3
ENDBRANCH   1   2
BRANCH   1  23
ATOM     23  C   UNL A   1      32.428  29.884  27.187  1.00  0.00     0.002 C 
BRANCH  23  24
ATOM     24  C   UNL A   1      31.464  30.729  26.353  1.00  0.00     0.002 C 
BRANCH  24  25
ATOM     25  C   UNL A   1      31.445  32.226  26.680  1.00  0.00     0.021 C 
BRANCH  25  26
ATOM     26  C   UNL A   1      32.755  32.792  27.221  1.00  0.00     0.116 C 
BRANCH  26  27
ATOM     27  N   UNL A   1      32.603  34.153  27.706  1.00  0.00    -0.352 N 
ATOM     28  C   UNL A   1      33.169  34.765  28.793  1.00  0.00     0.251 C 
ATOM     29  H   UNL A   1      32.003  34.722  27.171  1.00  0.00     0.163 HD
ATOM     30  O   UNL A   1      32.757  35.867  29.147  1.00  0.00    -0.269 OA
BRANCH  28  31
ATOM     31  C   UNL A   1      34.265  34.111  29.542  1.00  0.00     0.039 A 
ATOM     32  C   UNL A   1      35.586  34.385  29.174  1.00  0.00     0.014 A 
ATOM     33  C   UNL A   1      34.002  33.191  30.561  1.00  0.00     0.014 A 
ATOM     34  C   UNL A   1      36.639  33.755  29.839  1.00  0.00     0.010 A 
ATOM     35  C   UNL A   1      35.055  32.615  31.271  1.00  0.00     0.010 A 
ATOM     36  C   UNL A   1      36.384  32.870  30.900  1.00  0.00    -0.014 A 
BRANCH  36  37
ATOM     37  C   UNL A   1      37.495  32.180  31.601  1.00  0.00     0.031 A 
ATOM     38  C   UNL A   1      38.253  31.074  30.914  1.00  0.00     0.074 A 
ATOM     39  C   UNL A   1      37.789  32.510  32.874  1.00  0.00     0.049 A 
ATOM     40  N   UNL A   1      39.253  30.359  31.361  1.00  0.00    -0.248 NA
ATOM     41  C   UNL A   1      37.815  30.705  29.557  1.00  0.00     0.031 C 
ATOM     42  C   UNL A   1      37.074  33.502  33.677  1.00  0.00     0.029 A 
ATOM     43  N   UNL A   1      38.756  32.030  33.722  1.00  0.00    -0.354 N 
ATOM     44  C   UNL A   1      39.539  29.436  30.360  1.00  0.00     0.074 A 
ATOM     45  C   UNL A   1      38.585  29.659  29.297  1.00  0.00     0.031 C 
ATOM     46  C   UNL A   1      37.631  33.563  34.898  1.00  0.00     0.029 A 
ATOM     47  C   UNL A   1      38.732  32.608  34.969  1.00  0.00     0.049 A 
ATOM     48  H   UNL A   1      39.407  31.338  33.461  1.00  0.00     0.167 HD
ATOM     49  C   UNL A   1      40.528  28.511  30.313  1.00  0.00     0.034 A 
ATOM     50  C   UNL A   1      39.516  32.398  36.045  1.00  0.00     0.034 A 
ATOM     51  C   UNL A   1      41.509  28.329  31.349  1.00  0.00     0.049 A 
ATOM     52  C   UNL A   1      40.659  31.424  35.936  1.00  0.00     0.074 A 
ATOM     53  C   UNL A   1      42.598  27.477  31.365  1.00  0.00     0.029 A 
ATOM     54  N   UNL A   1      41.521  29.017  32.553  1.00  0.00    -0.354 N 
ATOM     55  N   UNL A   1      41.014  30.679  34.918  1.00  0.00    -0.248 NA
ATOM     56  C   UNL A   1      41.540  31.300  37.106  1.00  0.00     0.031 C 
ATOM     57  C   UNL A   1      43.266  27.645  32.583  1.00  0.00     0.029 A 
ATOM     58  C   UNL A   1      42.602  28.614  33.317  1.00  0.00     0.049 A 
ATOM     59  H   UNL A   1      40.858  29.692  32.825  1.00  0.00     0.167 HD
ATOM     60  C   UNL A   1      42.181  30.031  35.307  1.00  0.00     0.074 A 
ATOM     61  C   UNL A   1      42.484  30.488  36.648  1.00  0.00     0.031 C 
ATOM     62  C   UNL A   1      42.927  29.128  34.623  1.00  0.00     0.034 A 
BRANCH  49  63
ATOM     63  C   UNL A   1      40.639  27.669  29.068  1.00  0.00     0.023 A 
ATOM     64  C   UNL A   1      39.780  26.562  28.903  1.00  0.00     0.012 A 
ATOM     65  C   UNL A   1      41.547  27.996  28.041  1.00  0.00     0.148 A 
ATOM     66  C   UNL A   1      39.848  25.772  27.756  1.00  0.00     0.002 A 
ATOM     67  C   UNL A   1      41.578  27.230  26.882  1.00  0.00     0.091 A 
ATOM     68  F   UNL A   1      42.370  29.039  28.223  1.00  0.00    -0.205 F 
ATOM     69  C   UNL A   1      40.739  26.111  26.743  1.00  0.00     0.022 A 
BRANCH  67  70
ATOM     70  S   UNL A   1      42.633  27.632  25.484  1.00  0.00     0.127 S 
ATOM     71  O   UNL A   1      43.951  27.695  26.116  1.00  0.00    -0.237 OA
ATOM     72  O   UNL A   1      42.437  26.478  24.605  1.00  0.00    -0.237 OA
ATOM     73  O   UNL A   1      42.131  28.890  24.952  1.00  0.00    -0.744 OA
ENDBRANCH  67  70
ENDBRANCH  49  63
BRANCH  50  74
ATOM     74  C   UNL A   1      39.311  33.202  37.282  1.00  0.00     0.023 A 
ATOM     75  C   UNL A   1      38.366  32.772  38.235  1.00  0.00     0.012 A 
ATOM     76  C   UNL A   1      40.061  34.367  37.538  1.00  0.00     0.148 A 
ATOM     77  C   UNL A   1      38.146  33.503  39.402  1.00  0.00     0.002 A 
ATOM     78  C   UNL A   1      39.874  35.062  38.728  1.00  0.00     0.091 A 
ATOM     79  F   UNL A   1      40.948  34.768  36.616  1.00  0.00    -0.205 F 
ATOM     80  C   UNL A   1      38.907  34.642  39.654  1.00  0.00     0.022 A 
BRANCH  78  81
ATOM     81  S   UNL A   1      40.899  36.463  39.192  1.00  0.00     0.127 S 
ATOM     82  O   UNL A   1      42.241  35.955  38.926  1.00  0.00    -0.237 OA
ATOM     83  O   UNL A   1      40.436  37.498  38.265  1.00  0.00    -0.237 OA
ATOM     84  O   UNL A   1      40.584  36.732  40.589  1.00  0.00    -0.744 OA
ENDBRANCH  78  81
ENDBRANCH  50  74
BRANCH  62  85
ATOM     85  C   UNL A   1      44.173  28.605  35.289  1.00  0.00     0.023 A 
ATOM     86  C   UNL A   1      45.424  29.176  34.982  1.00  0.00     0.012 A 
ATOM     87  C   UNL A   1      44.095  27.593  36.265  1.00  0.00     0.148 A 
ATOM     88  C   UNL A   1      46.583  28.720  35.608  1.00  0.00     0.002 A 
ATOM     89  C   UNL A   1      45.249  27.177  36.920  1.00  0.00     0.091 A 
ATOM     90  F   UNL A   1      42.900  27.045  36.529  1.00  0.00    -0.205 F 
ATOM     91  C   UNL A   1      46.495  27.730  36.584  1.00  0.00     0.022 A 
BRANCH  89  92
ATOM     92  S   UNL A   1      45.202  25.975  38.255  1.00  0.00     0.127 S 
ATOM     93  O   UNL A   1      44.075  26.454  39.051  1.00  0.00    -0.237 OA
ATOM     94  O   UNL A   1      44.954  24.721  37.541  1.00  0.00    -0.237 OA
ATOM     95  O   UNL A   1      46.508  26.048  38.896  1.00  0.00    -0.744 OA
ENDBRANCH  89  92
ENDBRANCH  62  85
ENDBRANCH  36  37
ENDBRANCH  28  31
ENDBRANCH  26  27
ENDBRANCH  25  26
ENDBRANCH  24  25
ENDBRANCH  23  24
ENDBRANCH   1  23
TORSDOF 22
ENDMDL
MODEL 2
REMARK VINA RESULT:     -10.0      1.279      7.591
REMARK SMILES CCCc1sc(C(=O)NCCC(=O)NCCCCCCNC(=O)c2ccc(-c3c4nc(c(-c5cccc(S(=O)(=O)[O-])c5F)c5ccc([nH]5)c(-c5cccc(S(=O)(=O)[O-])c5F)c5nc(c(-c6cccc(S(=O)(=O)[O-])c6F)c6ccc3[nH]6)C=C5)C=C4)cc2)cc1CC
REMARK SMILES IDX 16 1 15 2 14 3 12 4 13 5 11 7 10 8 9 9 7 10 8 11 6 13 4 14
REMARK SMILES IDX 5 15 88 16 87 17 3 18 2 19 1 20 89 21 90 22 17 23 18 24
REMARK SMILES IDX 19 25 20 26 21 27 22 28 23 30 24 31 25 32 86 33 26 34 85 35
REMARK SMILES IDX 27 36 28 37 29 38 79 39 30 40 84 41 78 42 80 43 31 44 83 45
REMARK SMILES IDX 77 46 76 47 32 49 64 50 44 51 63 52 45 53 48 54 62 55 81 56
REMARK SMILES IDX 46 57 47 58 61 60 82 61 49 62 33 63 34 64 42 65 35 66 37 67
REMARK SMILES IDX 43 68 36 69 38 70 39 71 40 72 41 73 65 74 66 75 74 76 67 77
REMARK SMILES IDX 69 78 75 79 68 80 70 81 71 82 72 83 73 84 50 85 51 86 59 87
REMARK SMILES IDX 52 88 54 89 60 90 53 91 55 92 56 93 57 94 58 95
REMARK H PARENT 14 6 9 12 21 29 80 48 48 59
REMARK Flexibility Score: inf
ROOT
ATOM      1  C   UNL A   1      32.754  28.829  27.063  1.00  0.00     0.021 C 
ENDROOT
BRANCH   1   2
ATOM      2  C   UNL A   1      31.393  28.173  27.297  1.00  0.00     0.116 C 
BRANCH   2   3
ATOM      3  N   UNL A   1      31.436  26.762  26.962  1.00  0.00    -0.356 N 
ATOM      4  C   UNL A   1      31.162  26.148  25.779  1.00  0.00     0.221 C 
ATOM      5  O   UNL A   1      31.164  24.917  25.734  1.00  0.00    -0.275 OA
ATOM      6  H   UNL A   1      31.702  26.162  27.696  1.00  0.00     0.163 HD
BRANCH   4   7
ATOM      7  C   UNL A   1      30.858  26.967  24.542  1.00  0.00     0.121 C 
BRANCH   7   8
ATOM      8  C   UNL A   1      30.594  26.088  23.322  1.00  0.00     0.126 C 
BRANCH   8   9
ATOM      9  N   UNL A   1      31.686  26.102  22.367  1.00  0.00    -0.351 N 
ATOM     10  C   UNL A   1      32.817  25.342  22.203  1.00  0.00     0.261 C 
ATOM     11  O   UNL A   1      33.589  25.775  21.340  1.00  0.00    -0.268 OA
ATOM     12  H   UNL A   1      31.596  26.811  21.689  1.00  0.00     0.163 HD
BRANCH  10  13
ATOM     13  C   UNL A   1      33.046  24.118  22.957  1.00  0.00     0.092 A 
ATOM     14  C   UNL A   1      34.184  22.426  24.430  1.00  0.00     0.009 A 
ATOM     15  S   UNL A   1      34.318  24.119  24.099  1.00  0.00    -0.135 S 
ATOM     16  C   UNL A   1      33.097  21.876  23.757  1.00  0.00    -0.034 A 
ATOM     17  C   UNL A   1      32.444  22.881  22.949  1.00  0.00     0.029 A 
BRANCH  14  18
ATOM     18  C   UNL A   1      35.246  21.900  25.378  1.00  0.00     0.047 C 
BRANCH  18  19
ATOM     19  C   UNL A   1      36.162  20.777  24.911  1.00  0.00     0.002 C 
ATOM     20  C   UNL A   1      37.644  21.082  25.078  1.00  0.00     0.004 C 
ENDBRANCH  18  19
ENDBRANCH  14  18
BRANCH  16  21
ATOM     21  C   UNL A   1      32.633  20.441  23.722  1.00  0.00     0.033 C 
ATOM     22  C   UNL A   1      32.553  19.761  25.083  1.00  0.00     0.009 C 
ENDBRANCH  16  21
ENDBRANCH  10  13
ENDBRANCH   8   9
ENDBRANCH   7   8
ENDBRANCH   4   7
ENDBRANCH   2   3
ENDBRANCH   1   2
BRANCH   1  23
ATOM     23  C   UNL A   1      32.719  30.091  26.198  1.00  0.00     0.002 C 
BRANCH  23  24
ATOM     24  C   UNL A   1      31.400  30.866  26.225  1.00  0.00     0.002 C 
BRANCH  24  25
ATOM     25  C   UNL A   1      31.515  32.351  26.583  1.00  0.00     0.021 C 
BRANCH  25  26
ATOM     26  C   UNL A   1      32.791  32.748  27.322  1.00  0.00     0.116 C 
BRANCH  26  27
ATOM     27  N   UNL A   1      32.705  34.087  27.879  1.00  0.00    -0.352 N 
ATOM     28  C   UNL A   1      33.433  34.667  28.884  1.00  0.00     0.251 C 
ATOM     29  H   UNL A   1      32.021  34.665  27.471  1.00  0.00     0.163 HD
ATOM     30  O   UNL A   1      33.072  35.747  29.345  1.00  0.00    -0.269 OA
BRANCH  28  31
ATOM     31  C   UNL A   1      34.642  34.002  29.421  1.00  0.00     0.039 A 
ATOM     32  C   UNL A   1      34.495  33.093  30.473  1.00  0.00     0.014 A 
ATOM     33  C   UNL A   1      35.917  34.309  28.938  1.00  0.00     0.014 A 
ATOM     34  C   UNL A   1      35.622  32.478  31.023  1.00  0.00     0.010 A 
ATOM     35  C   UNL A   1      37.034  33.643  29.440  1.00  0.00     0.010 A 
ATOM     36  C   UNL A   1      36.901  32.742  30.506  1.00  0.00    -0.014 A 
BRANCH  36  37
ATOM     37  C   UNL A   1      38.107  32.107  31.096  1.00  0.00     0.031 A 
ATOM     38  C   UNL A   1      38.726  32.676  32.346  1.00  0.00     0.074 A 
ATOM     39  C   UNL A   1      38.677  31.054  30.481  1.00  0.00     0.049 A 
ATOM     40  N   UNL A   1      39.774  32.261  33.010  1.00  0.00    -0.248 NA
ATOM     41  C   UNL A   1      38.103  33.885  32.912  1.00  0.00     0.031 C 
ATOM     42  C   UNL A   1      38.224  30.464  29.220  1.00  0.00     0.029 A 
ATOM     43  N   UNL A   1      39.774  30.304  30.823  1.00  0.00    -0.354 N 
ATOM     44  C   UNL A   1      39.956  33.172  34.044  1.00  0.00     0.074 A 
ATOM     45  C   UNL A   1      38.932  34.183  33.900  1.00  0.00     0.031 C 
ATOM     46  C   UNL A   1      39.031  29.440  28.899  1.00  0.00     0.029 A 
ATOM     47  C   UNL A   1      40.065  29.308  29.921  1.00  0.00     0.049 A 
ATOM     48  H   UNL A   1      40.303  30.463  31.638  1.00  0.00     0.167 HD
ATOM     49  C   UNL A   1      40.870  33.154  35.045  1.00  0.00     0.034 A 
ATOM     50  C   UNL A   1      41.047  28.385  29.924  1.00  0.00     0.034 A 
ATOM     51  C   UNL A   1      41.853  32.117  35.215  1.00  0.00     0.049 A 
ATOM     52  C   UNL A   1      41.998  28.336  31.090  1.00  0.00     0.074 A 
ATOM     53  C   UNL A   1      42.771  31.960  36.238  1.00  0.00     0.029 A 
ATOM     54  N   UNL A   1      42.042  31.057  34.342  1.00  0.00    -0.354 N 
ATOM     55  N   UNL A   1      42.049  29.109  32.147  1.00  0.00    -0.248 NA
ATOM     56  C   UNL A   1      42.992  27.254  31.091  1.00  0.00     0.031 C 
ATOM     57  C   UNL A   1      43.520  30.807  35.978  1.00  0.00     0.029 A 
ATOM     58  C   UNL A   1      43.057  30.238  34.804  1.00  0.00     0.049 A 
ATOM     59  H   UNL A   1      41.529  30.910  33.514  1.00  0.00     0.167 HD
ATOM     60  C   UNL A   1      43.050  28.585  32.957  1.00  0.00     0.074 A 
ATOM     61  C   UNL A   1      43.564  27.413  32.277  1.00  0.00     0.031 C 
ATOM     62  C   UNL A   1      43.512  29.038  34.149  1.00  0.00     0.034 A 
BRANCH  49  63
ATOM     63  C   UNL A   1      40.804  34.253  36.073  1.00  0.00     0.023 A 
ATOM     64  C   UNL A   1      39.661  34.365  36.891  1.00  0.00     0.012 A 
ATOM     65  C   UNL A   1      41.881  35.139  36.269  1.00  0.00     0.148 A 
ATOM     66  C   UNL A   1      39.574  35.363  37.862  1.00  0.00     0.002 A 
ATOM     67  C   UNL A   1      41.806  36.103  37.267  1.00  0.00     0.091 A 
ATOM     68  F   UNL A   1      42.951  35.032  35.468  1.00  0.00    -0.205 F 
ATOM     69  C   UNL A   1      40.649  36.224  38.056  1.00  0.00     0.022 A 
BRANCH  67  70
ATOM     70  S   UNL A   1      43.169  37.209  37.650  1.00  0.00     0.127 S 
ATOM     71  O   UNL A   1      44.220  36.264  38.025  1.00  0.00    -0.237 OA
ATOM     72  O   UNL A   1      43.389  37.886  36.371  1.00  0.00    -0.237 OA
ATOM     73  O   UNL A   1      42.694  38.075  38.719  1.00  0.00    -0.744 OA
ENDBRANCH  67  70
ENDBRANCH  49  63
BRANCH  50  74
ATOM     74  C   UNL A   1      41.115  27.369  28.836  1.00  0.00     0.023 A 
ATOM     75  C   UNL A   1      40.241  26.265  28.870  1.00  0.00     0.012 A 
ATOM     76  C   UNL A   1      42.012  27.500  27.758  1.00  0.00     0.148 A 
ATOM     77  C   UNL A   1      40.280  25.294  27.871  1.00  0.00     0.002 A 
ATOM     78  C   UNL A   1      42.010  26.556  26.738  1.00  0.00     0.091 A 
ATOM     79  F   UNL A   1      42.845  28.551  27.749  1.00  0.00    -0.205 F 
ATOM     80  C   UNL A   1      41.157  25.443  26.799  1.00  0.00     0.022 A 
BRANCH  78  81
ATOM     81  S   UNL A   1      43.014  26.738  25.259  1.00  0.00     0.127 S 
ATOM     82  O   UNL A   1      44.343  26.955  25.823  1.00  0.00    -0.237 OA
ATOM     83  O   UNL A   1      42.827  25.442  24.603  1.00  0.00    -0.237 OA
ATOM     84  O   UNL A   1      42.439  27.862  24.532  1.00  0.00    -0.744 OA
ENDBRANCH  78  81
ENDBRANCH  50  74
BRANCH  62  85
ATOM     85  C   UNL A   1      44.599  28.244  34.823  1.00  0.00     0.023 A 
ATOM     86  C   UNL A   1      45.951  28.555  34.576  1.00  0.00     0.012 A 
ATOM     87  C   UNL A   1      44.280  27.232  35.749  1.00  0.00     0.148 A 
ATOM     88  C   UNL A   1      46.969  27.845  35.212  1.00  0.00     0.002 A 
ATOM     89  C   UNL A   1      45.300  26.561  36.415  1.00  0.00     0.091 A 
ATOM     90  F   UNL A   1      42.989  26.932  35.955  1.00  0.00    -0.205 F 
ATOM     91  C   UNL A   1      46.644  26.858  36.138  1.00  0.00     0.022 A 
BRANCH  89  92
ATOM     92  S   UNL A   1      44.960  25.342  37.691  1.00  0.00     0.127 S 
ATOM     93  O   UNL A   1      44.306  26.154  38.715  1.00  0.00    -0.237 OA
ATOM     94  O   UNL A   1      44.076  24.402  37.002  1.00  0.00    -0.237 OA
ATOM     95  O   UNL A   1      46.255  24.785  38.058  1.00  0.00    -0.744 OA
ENDBRANCH  89  92
ENDBRANCH  62  85
ENDBRANCH  36  37
ENDBRANCH  28  31
ENDBRANCH  26  27
ENDBRANCH  25  26
ENDBRANCH  24  25
ENDBRANCH  23  24
ENDBRANCH   1  23
TORSDOF 22
ENDMDL
MODEL 3
REMARK VINA RESULT:      -9.9      3.549      9.238
REMARK SMILES CCCc1sc(C(=O)NCCC(=O)NCCCCCCNC(=O)c2ccc(-c3c4nc(c(-c5cccc(S(=O)(=O)[O-])c5F)c5ccc([nH]5)c(-c5cccc(S(=O)(=O)[O-])c5F)c5nc(c(-c6cccc(S(=O)(=O)[O-])c6F)c6ccc3[nH]6)C=C5)C=C4)cc2)cc1CC
REMARK SMILES IDX 16 1 15 2 14 3 12 4 13 5 11 7 10 8 9 9 7 10 8 11 6 13 4 14
REMARK SMILES IDX 5 15 88 16 87 17 3 18 2 19 1 20 89 21 90 22 17 23 18 24
REMARK SMILES IDX 19 25 20 26 21 27 22 28 23 30 24 31 25 32 86 33 26 34 85 35
REMARK SMILES IDX 27 36 28 37 29 38 79 39 30 40 84 41 78 42 80 43 31 44 83 45
REMARK SMILES IDX 77 46 76 47 32 49 64 50 44 51 63 52 45 53 48 54 62 55 81 56
REMARK SMILES IDX 46 57 47 58 61 60 82 61 49 62 33 63 34 64 42 65 35 66 37 67
REMARK SMILES IDX 43 68 36 69 38 70 39 71 40 72 41 73 65 74 66 75 74 76 67 77
REMARK SMILES IDX 69 78 75 79 68 80 70 81 71 82 72 83 73 84 50 85 51 86 59 87
REMARK SMILES IDX 52 88 54 89 60 90 53 91 55 92 56 93 57 94 58 95
REMARK H PARENT 14 6 9 12 21 29 80 48 48 59
REMARK Flexibility Score: inf
ROOT
ATOM      1  C   UNL A   1      34.168  24.102  25.935  1.00  0.00     0.021 C 
ENDROOT
BRANCH   1   2
ATOM      2  C   UNL A   1      33.796  22.931  25.025  1.00  0.00     0.116 C 
BRANCH   2   3
ATOM      3  N   UNL A   1      32.435  23.068  24.540  1.00  0.00    -0.356 N 
ATOM      4  C   UNL A   1      31.992  23.465  23.317  1.00  0.00     0.221 C 
ATOM      5  O   UNL A   1      30.780  23.609  23.142  1.00  0.00    -0.275 OA
ATOM      6  H   UNL A   1      31.731  22.842  25.191  1.00  0.00     0.163 HD
BRANCH   4   7
ATOM      7  C   UNL A   1      32.972  23.727  22.193  1.00  0.00     0.121 C 
BRANCH   7   8
ATOM      8  C   UNL A   1      32.633  24.998  21.420  1.00  0.00     0.126 C 
BRANCH   8   9
ATOM      9  N   UNL A   1      33.380  26.155  21.877  1.00  0.00    -0.351 N 
ATOM     10  C   UNL A   1      33.023  27.414  22.292  1.00  0.00     0.261 C 
ATOM     11  O   UNL A   1      33.984  28.175  22.460  1.00  0.00    -0.268 OA
ATOM     12  H   UNL A   1      34.353  26.005  21.892  1.00  0.00     0.163 HD
BRANCH  10  13
ATOM     13  C   UNL A   1      31.639  27.786  22.546  1.00  0.00     0.092 A 
ATOM     14  C   UNL A   1      29.630  29.204  23.073  1.00  0.00     0.009 A 
ATOM     15  S   UNL A   1      31.246  29.448  22.506  1.00  0.00    -0.135 S 
ATOM     16  C   UNL A   1      29.347  27.845  23.187  1.00  0.00    -0.034 A 
ATOM     17  C   UNL A   1      30.510  27.058  22.842  1.00  0.00     0.029 A 
BRANCH  14  18
ATOM     18  C   UNL A   1      28.862  30.491  23.311  1.00  0.00     0.047 C 
BRANCH  18  19
ATOM     19  C   UNL A   1      28.030  31.074  22.178  1.00  0.00     0.002 C 
ATOM     20  C   UNL A   1      28.432  32.489  21.785  1.00  0.00     0.004 C 
ENDBRANCH  18  19
ENDBRANCH  14  18
BRANCH  16  21
ATOM     21  C   UNL A   1      28.086  27.179  23.678  1.00  0.00     0.033 C 
ATOM     22  C   UNL A   1      26.839  28.054  23.630  1.00  0.00     0.009 C 
ENDBRANCH  16  21
ENDBRANCH  10  13
ENDBRANCH   8   9
ENDBRANCH   7   8
ENDBRANCH   4   7
ENDBRANCH   2   3
ENDBRANCH   1   2
BRANCH   1  23
ATOM     23  C   UNL A   1      33.768  25.480  25.403  1.00  0.00     0.002 C 
BRANCH  23  24
ATOM     24  C   UNL A   1      33.590  26.565  26.465  1.00  0.00     0.002 C 
BRANCH  24  25
ATOM     25  C   UNL A   1      33.089  27.918  25.949  1.00  0.00     0.021 C 
BRANCH  25  26
ATOM     26  C   UNL A   1      34.163  28.991  25.781  1.00  0.00     0.116 C 
BRANCH  26  27
ATOM     27  N   UNL A   1      33.859  30.190  26.542  1.00  0.00    -0.352 N 
ATOM     28  C   UNL A   1      34.497  30.722  27.632  1.00  0.00     0.251 C 
ATOM     29  H   UNL A   1      33.078  30.698  26.226  1.00  0.00     0.163 HD
ATOM     30  O   UNL A   1      33.965  31.638  28.254  1.00  0.00    -0.269 OA
BRANCH  28  31
ATOM     31  C   UNL A   1      35.813  30.202  28.066  1.00  0.00     0.039 A 
ATOM     32  C   UNL A   1      35.897  29.528  29.288  1.00  0.00     0.014 A 
ATOM     33  C   UNL A   1      36.968  30.421  27.309  1.00  0.00     0.014 A 
ATOM     34  C   UNL A   1      37.132  29.057  29.740  1.00  0.00     0.010 A 
ATOM     35  C   UNL A   1      38.187  29.890  27.727  1.00  0.00     0.010 A 
ATOM     36  C   UNL A   1      38.287  29.227  28.959  1.00  0.00    -0.014 A 
BRANCH  36  37
ATOM     37  C   UNL A   1      39.607  28.746  29.439  1.00  0.00     0.031 A 
ATOM     38  C   UNL A   1      40.311  29.463  30.562  1.00  0.00     0.074 A 
ATOM     39  C   UNL A   1      40.199  27.700  28.832  1.00  0.00     0.049 A 
ATOM     40  N   UNL A   1      41.464  29.193  31.118  1.00  0.00    -0.248 NA
ATOM     41  C   UNL A   1      39.647  30.656  31.115  1.00  0.00     0.031 C 
ATOM     42  C   UNL A   1      39.660  26.976  27.679  1.00  0.00     0.029 A 
ATOM     43  N   UNL A   1      41.395  27.076  29.087  1.00  0.00    -0.354 N 
ATOM     44  C   UNL A   1      41.678  30.196  32.057  1.00  0.00     0.074 A 
ATOM     45  C   UNL A   1      40.554  31.101  31.971  1.00  0.00     0.031 C 
ATOM     46  C   UNL A   1      40.517  26.002  27.333  1.00  0.00     0.029 A 
ATOM     47  C   UNL A   1      41.671  26.040  28.226  1.00  0.00     0.049 A 
ATOM     48  H   UNL A   1      41.997  27.343  29.818  1.00  0.00     0.167 HD
ATOM     49  C   UNL A   1      42.700  30.334  32.937  1.00  0.00     0.034 A 
ATOM     50  C   UNL A   1      42.729  25.207  28.172  1.00  0.00     0.034 A 
ATOM     51  C   UNL A   1      43.789  29.402  33.056  1.00  0.00     0.049 A 
ATOM     52  C   UNL A   1      43.809  25.332  29.214  1.00  0.00     0.074 A 
ATOM     53  C   UNL A   1      44.830  29.405  33.967  1.00  0.00     0.029 A 
ATOM     54  N   UNL A   1      43.974  28.296  32.241  1.00  0.00    -0.354 N 
ATOM     55  N   UNL A   1      43.910  26.188  30.201  1.00  0.00    -0.248 NA
ATOM     56  C   UNL A   1      44.894  24.342  29.166  1.00  0.00     0.031 C 
ATOM     57  C   UNL A   1      45.650  28.303  33.697  1.00  0.00     0.029 A 
ATOM     58  C   UNL A   1      45.108  27.606  32.630  1.00  0.00     0.049 A 
ATOM     59  H   UNL A   1      43.385  28.040  31.494  1.00  0.00     0.167 HD
ATOM     60  C   UNL A   1      45.043  25.816  30.916  1.00  0.00     0.074 A 
ATOM     61  C   UNL A   1      45.583  24.643  30.259  1.00  0.00     0.031 C 
ATOM     62  C   UNL A   1      45.595  26.401  32.008  1.00  0.00     0.034 A 
BRANCH  49  63
ATOM     63  C   UNL A   1      42.650  31.502  33.888  1.00  0.00     0.023 A 
ATOM     64  C   UNL A   1      43.171  32.748  33.480  1.00  0.00     0.012 A 
ATOM     65  C   UNL A   1      42.049  31.389  35.157  1.00  0.00     0.148 A 
ATOM     66  C   UNL A   1      43.128  33.852  34.331  1.00  0.00     0.002 A 
ATOM     67  C   UNL A   1      41.970  32.505  35.982  1.00  0.00     0.091 A 
ATOM     68  F   UNL A   1      41.578  30.192  35.537  1.00  0.00    -0.205 F 
ATOM     69  C   UNL A   1      42.519  33.733  35.576  1.00  0.00     0.022 A 
BRANCH  67  70
ATOM     70  S   UNL A   1      41.134  32.475  37.573  1.00  0.00     0.127 S 
ATOM     71  O   UNL A   1      42.014  31.605  38.353  1.00  0.00    -0.237 OA
ATOM     72  O   UNL A   1      41.168  33.884  37.967  1.00  0.00    -0.237 OA
ATOM     73  O   UNL A   1      39.801  31.951  37.314  1.00  0.00    -0.744 OA
ENDBRANCH  67  70
ENDBRANCH  49  63
BRANCH  50  74
ATOM     74  C   UNL A   1      42.766  24.117  27.157  1.00  0.00     0.023 A 
ATOM     75  C   UNL A   1      43.505  24.304  25.972  1.00  0.00     0.012 A 
ATOM     76  C   UNL A   1      42.106  22.891  27.367  1.00  0.00     0.148 A 
ATOM     77  C   UNL A   1      43.557  23.306  25.000  1.00  0.00     0.002 A 
ATOM     78  C   UNL A   1      42.205  21.880  26.416  1.00  0.00     0.091 A 
ATOM     79  F   UNL A   1      41.398  22.735  28.495  1.00  0.00    -0.205 F 
ATOM     80  C   UNL A   1      42.916  22.091  25.226  1.00  0.00     0.022 A 
BRANCH  78  81
ATOM     81  S   UNL A   1      41.520  20.241  26.683  1.00  0.00     0.127 S 
ATOM     82  O   UNL A   1      40.093  20.528  26.804  1.00  0.00    -0.237 OA
ATOM     83  O   UNL A   1      41.907  19.545  25.454  1.00  0.00    -0.237 OA
ATOM     84  O   UNL A   1      42.172  19.736  27.884  1.00  0.00    -0.744 OA
ENDBRANCH  78  81
ENDBRANCH  50  74
BRANCH  62  85
ATOM     85  C   UNL A   1      46.823  25.758  32.597  1.00  0.00     0.023 A 
ATOM     86  C   UNL A   1      48.102  26.164  32.166  1.00  0.00     0.012 A 
ATOM     87  C   UNL A   1      46.711  24.798  33.620  1.00  0.00     0.148 A 
ATOM     88  C   UNL A   1      49.249  25.596  32.719  1.00  0.00     0.002 A 
ATOM     89  C   UNL A   1      47.860  24.271  34.200  1.00  0.00     0.091 A 
ATOM     90  F   UNL A   1      45.487  24.406  34.002  1.00  0.00    -0.205 F 
ATOM     91  C   UNL A   1      49.129  24.660  33.743  1.00  0.00     0.022 A 
BRANCH  89  92
ATOM     92  S   UNL A   1      47.786  23.132  35.588  1.00  0.00     0.127 S 
ATOM     93  O   UNL A   1      49.059  22.425  35.464  1.00  0.00    -0.237 OA
ATOM     94  O   UNL A   1      47.701  24.037  36.735  1.00  0.00    -0.237 OA
ATOM     95  O   UNL A   1      46.592  22.326  35.372  1.00  0.00    -0.744 OA
ENDBRANCH  89  92
ENDBRANCH  62  85
ENDBRANCH  36  37
ENDBRANCH  28  31
ENDBRANCH  26  27
ENDBRANCH  25  26
ENDBRANCH  24  25
ENDBRANCH  23  24
ENDBRANCH   1  23
TORSDOF 22
ENDMDL
