MODEL 1
REMARK VINA RESULT:      -8.1      0.000      0.000
REMARK SMILES COc1ccc(Br)cc1CNc1ccc(N2CCOCC2)c(C(=O)NCCCCCCNC(=O)c2ccc(-c3c4nc(c(-c5cccc(S(=O)(=O)[O-])c5F)c5ccc([nH]5)c(-c5cccc(S(=O)(=O)[O-])c5F)c5nc(c(-c6cccc(S(=O)(=O)[O-])c6F)c6ccc3[nH]6)C=C5)C=C4)cc2)c1
REMARK SMILES IDX 28 1 27 2 26 3 25 4 23 5 24 6 22 8 12 9 13 10 98 11 14 12
REMARK SMILES IDX 15 13 11 14 10 16 9 17 3 18 4 19 5 20 8 21 6 22 7 23 2 24
REMARK SMILES IDX 1 25 16 26 17 27 21 28 18 29 20 30 19 31 29 32 30 33 31 34
REMARK SMILES IDX 32 35 33 36 34 38 35 39 36 40 97 41 37 42 96 43 38 44 39 45
REMARK SMILES IDX 40 46 90 47 41 48 95 49 89 50 91 51 42 52 94 53 88 54 87 55
REMARK SMILES IDX 43 57 75 58 55 59 74 60 56 61 59 62 73 63 92 64 57 65 58 66
REMARK SMILES IDX 72 68 93 69 60 70 44 71 45 72 53 73 46 74 48 75 54 76 47 77
REMARK SMILES IDX 49 78 50 79 51 80 52 81 76 82 77 83 85 84 78 85 80 86 86 87
REMARK SMILES IDX 79 88 81 89 82 90 83 91 84 92 61 93 62 94 70 95 63 96 65 97
REMARK SMILES IDX 71 98 64 99 66 100 67 101 68 102 69 103
REMARK H PARENT 25 7 11 15 32 37 91 56 59 67
REMARK Flexibility Score: inf
ROOT
ATOM      1  C   UNL A   1      39.660  34.076  33.283  1.00  0.00     0.002 C 
ENDROOT
BRANCH   1   2
ATOM      2  C   UNL A   1      39.239  34.576  31.903  1.00  0.00     0.021 C 
BRANCH   2   3
ATOM      3  C   UNL A   1      38.439  33.607  31.044  1.00  0.00     0.116 C 
BRANCH   3   4
ATOM      4  N   UNL A   1      37.481  32.789  31.775  1.00  0.00    -0.352 N 
ATOM      5  C   UNL A   1      36.921  31.551  31.503  1.00  0.00     0.253 C 
ATOM      6  O   UNL A   1      36.226  31.054  32.387  1.00  0.00    -0.269 OA
ATOM      7  H   UNL A   1      37.173  33.191  32.619  1.00  0.00     0.163 HD
BRANCH   5   8
ATOM      8  C   UNL A   1      37.130  30.865  30.188  1.00  0.00     0.065 A 
ATOM      9  C   UNL A   1      38.351  29.089  29.018  1.00  0.00     0.035 A 
ATOM     10  C   UNL A   1      37.864  29.591  27.816  1.00  0.00     0.028 A 
ATOM     11  C   UNL A   1      37.882  29.680  30.185  1.00  0.00     0.041 A 
ATOM     12  C   UNL A   1      36.954  30.652  27.799  1.00  0.00     0.029 A 
ATOM     13  C   UNL A   1      36.565  31.314  28.978  1.00  0.00     0.050 A 
BRANCH   9  14
ATOM     14  N   UNL A   1      39.212  28.019  29.010  1.00  0.00    -0.381 N 
ATOM     15  H   UNL A   1      39.857  27.961  29.750  1.00  0.00     0.160 HD
BRANCH  14  16
ATOM     16  C   UNL A   1      39.260  26.959  28.009  1.00  0.00     0.152 C 
BRANCH  16  17
ATOM     17  C   UNL A   1      40.683  26.472  27.888  1.00  0.00     0.014 A 
ATOM     18  C   UNL A   1      41.699  27.288  27.366  1.00  0.00     0.123 A 
ATOM     19  C   UNL A   1      43.006  26.795  27.300  1.00  0.00     0.048 A 
ATOM     20  C   UNL A   1      43.304  25.500  27.743  1.00  0.00     0.019 A 
ATOM     21  C   UNL A   1      41.003  25.184  28.364  1.00  0.00     0.025 A 
ATOM     22  C   UNL A   1      42.300  24.700  28.275  1.00  0.00     0.018 A 
ATOM     23  Br  UNL A   1      42.689  22.954  28.883  1.00  0.00    -0.051 Br
BRANCH  18  24
ATOM     24  O   UNL A   1      41.329  28.556  27.002  1.00  0.00    -0.496 OA
ATOM     25  C   UNL A   1      42.277  29.313  26.257  1.00  0.00     0.278 C 
ENDBRANCH  18  24
ENDBRANCH  16  17
ENDBRANCH  14  16
ENDBRANCH   9  14
BRANCH  13  26
ATOM     26  N   UNL A   1      35.596  32.289  28.884  1.00  0.00    -0.366 N 
ATOM     27  C   UNL A   1      35.492  33.210  27.756  1.00  0.00     0.145 C 
ATOM     28  C   UNL A   1      34.512  32.328  29.867  1.00  0.00     0.145 C 
ATOM     29  C   UNL A   1      35.084  34.618  28.238  1.00  0.00     0.181 C 
ATOM     30  C   UNL A   1      34.263  33.784  30.279  1.00  0.00     0.181 C 
ATOM     31  O   UNL A   1      33.951  34.592  29.129  1.00  0.00    -0.378 OA
ENDBRANCH  13  26
ENDBRANCH   5   8
ENDBRANCH   3   4
ENDBRANCH   2   3
ENDBRANCH   1   2
BRANCH   1  32
ATOM     32  C   UNL A   1      39.716  35.122  34.399  1.00  0.00     0.002 C 
BRANCH  32  33
ATOM     33  C   UNL A   1      38.937  34.795  35.674  1.00  0.00     0.021 C 
BRANCH  33  34
ATOM     34  C   UNL A   1      37.778  33.818  35.507  1.00  0.00     0.116 C 
BRANCH  34  35
ATOM     35  N   UNL A   1      37.775  32.774  36.518  1.00  0.00    -0.352 N 
ATOM     36  C   UNL A   1      38.384  31.543  36.500  1.00  0.00     0.251 C 
ATOM     37  H   UNL A   1      37.263  32.979  37.334  1.00  0.00     0.163 HD
ATOM     38  O   UNL A   1      38.136  30.724  37.376  1.00  0.00    -0.269 OA
BRANCH  36  39
ATOM     39  C   UNL A   1      39.323  31.200  35.408  1.00  0.00     0.039 A 
ATOM     40  C   UNL A   1      40.673  31.527  35.554  1.00  0.00     0.014 A 
ATOM     41  C   UNL A   1      38.877  30.566  34.244  1.00  0.00     0.014 A 
ATOM     42  C   UNL A   1      41.583  31.168  34.558  1.00  0.00     0.010 A 
ATOM     43  C   UNL A   1      39.798  30.139  33.290  1.00  0.00     0.010 A 
ATOM     44  C   UNL A   1      41.160  30.444  33.432  1.00  0.00    -0.014 A 
BRANCH  44  45
ATOM     45  C   UNL A   1      42.132  29.983  32.407  1.00  0.00     0.031 A 
ATOM     46  C   UNL A   1      42.810  28.646  32.544  1.00  0.00     0.074 A 
ATOM     47  C   UNL A   1      42.464  30.803  31.391  1.00  0.00     0.049 A 
ATOM     48  N   UNL A   1      43.706  28.095  31.766  1.00  0.00    -0.248 NA
ATOM     49  C   UNL A   1      42.457  27.834  33.719  1.00  0.00     0.031 C 
ATOM     50  C   UNL A   1      41.943  32.158  31.195  1.00  0.00     0.029 A 
ATOM     51  N   UNL A   1      43.339  30.630  30.347  1.00  0.00    -0.354 N 
ATOM     52  C   UNL A   1      44.052  26.893  32.374  1.00  0.00     0.074 A 
ATOM     53  C   UNL A   1      43.291  26.810  33.602  1.00  0.00     0.031 C 
ATOM     54  C   UNL A   1      42.504  32.691  30.098  1.00  0.00     0.029 A 
ATOM     55  C   UNL A   1      43.448  31.733  29.532  1.00  0.00     0.049 A 
ATOM     56  H   UNL A   1      43.840  29.797  30.196  1.00  0.00     0.167 HD
ATOM     57  C   UNL A   1      44.904  25.936  31.940  1.00  0.00     0.034 A 
ATOM     58  C   UNL A   1      44.230  31.956  28.457  1.00  0.00     0.034 A 
ATOM     59  C   UNL A   1      45.632  26.005  30.701  1.00  0.00     0.049 A 
ATOM     60  C   UNL A   1      45.137  30.859  27.971  1.00  0.00     0.074 A 
ATOM     61  C   UNL A   1      46.441  25.043  30.124  1.00  0.00     0.029 A 
ATOM     62  N   UNL A   1      45.655  27.105  29.856  1.00  0.00    -0.354 N 
ATOM     63  N   UNL A   1      45.324  29.661  28.470  1.00  0.00    -0.248 NA
ATOM     64  C   UNL A   1      45.916  31.131  26.754  1.00  0.00     0.031 C 
ATOM     65  C   UNL A   1      46.987  25.577  28.951  1.00  0.00     0.029 A 
ATOM     66  C   UNL A   1      46.482  26.854  28.774  1.00  0.00     0.049 A 
ATOM     67  H   UNL A   1      45.156  27.941  30.005  1.00  0.00     0.167 HD
ATOM     68  C   UNL A   1      46.212  29.025  27.611  1.00  0.00     0.074 A 
ATOM     69  C   UNL A   1      46.511  29.963  26.549  1.00  0.00     0.031 C 
ATOM     70  C   UNL A   1      46.742  27.780  27.701  1.00  0.00     0.034 A 
BRANCH  57  71
ATOM     71  C   UNL A   1      45.075  24.706  32.795  1.00  0.00     0.023 A 
ATOM     72  C   UNL A   1      44.144  23.651  32.704  1.00  0.00     0.012 A 
ATOM     73  C   UNL A   1      46.188  24.572  33.649  1.00  0.00     0.148 A 
ATOM     74  C   UNL A   1      44.296  22.499  33.475  1.00  0.00     0.002 A 
ATOM     75  C   UNL A   1      46.360  23.400  34.377  1.00  0.00     0.091 A 
ATOM     76  F   UNL A   1      47.051  25.593  33.740  1.00  0.00    -0.205 F 
ATOM     77  C   UNL A   1      45.409  22.369  34.302  1.00  0.00     0.022 A 
BRANCH  75  78
ATOM     78  S   UNL A   1      47.802  23.103  35.406  1.00  0.00     0.127 S 
ATOM     79  O   UNL A   1      47.729  21.656  35.604  1.00  0.00    -0.237 OA
ATOM     80  O   UNL A   1      48.894  23.545  34.538  1.00  0.00    -0.237 OA
ATOM     81  O   UNL A   1      47.613  23.908  36.605  1.00  0.00    -0.744 OA
ENDBRANCH  75  78
ENDBRANCH  57  71
BRANCH  58  82
ATOM     82  C   UNL A   1      44.156  33.262  27.745  1.00  0.00     0.023 A 
ATOM     83  C   UNL A   1      43.431  33.363  26.543  1.00  0.00     0.012 A 
ATOM     84  C   UNL A   1      44.774  34.411  28.276  1.00  0.00     0.148 A 
ATOM     85  C   UNL A   1      43.349  34.580  25.864  1.00  0.00     0.002 A 
ATOM     86  C   UNL A   1      44.639  35.631  27.625  1.00  0.00     0.091 A 
ATOM     87  F   UNL A   1      45.465  34.290  29.417  1.00  0.00    -0.205 F 
ATOM     88  C   UNL A   1      43.943  35.714  26.409  1.00  0.00     0.022 A 
BRANCH  86  89
ATOM     89  S   UNL A   1      45.259  37.166  28.322  1.00  0.00     0.127 S 
ATOM     90  O   UNL A   1      44.697  37.131  29.670  1.00  0.00    -0.237 OA
ATOM     91  O   UNL A   1      46.705  36.963  28.250  1.00  0.00    -0.237 OA
ATOM     92  O   UNL A   1      44.754  38.226  27.458  1.00  0.00    -0.744 OA
ENDBRANCH  86  89
ENDBRANCH  58  82
BRANCH  70  93
ATOM     93  C   UNL A   1      47.677  27.336  26.606  1.00  0.00     0.023 A 
ATOM     94  C   UNL A   1      47.169  26.687  25.464  1.00  0.00     0.012 A 
ATOM     95  C   UNL A   1      49.054  27.625  26.682  1.00  0.00     0.148 A 
ATOM     96  C   UNL A   1      48.022  26.301  24.430  1.00  0.00     0.002 A 
ATOM     97  C   UNL A   1      49.888  27.287  25.624  1.00  0.00     0.091 A 
ATOM     98  F   UNL A   1      49.522  28.229  27.785  1.00  0.00    -0.205 F 
ATOM     99  C   UNL A   1      49.379  26.612  24.504  1.00  0.00     0.022 A 
BRANCH  97 100
ATOM    100  S   UNL A   1      51.628  27.735  25.588  1.00  0.00     0.127 S 
ATOM    101  O   UNL A   1      52.156  26.967  26.715  1.00  0.00    -0.237 OA
ATOM    102  O   UNL A   1      52.045  27.251  24.272  1.00  0.00    -0.237 OA
ATOM    103  O   UNL A   1      51.674  29.182  25.743  1.00  0.00    -0.744 OA
ENDBRANCH  97 100
ENDBRANCH  70  93
ENDBRANCH  44  45
ENDBRANCH  36  39
ENDBRANCH  34  35
ENDBRANCH  33  34
ENDBRANCH  32  33
ENDBRANCH   1  32
TORSDOF 21
ENDMDL
MODEL 2
REMARK VINA RESULT:      -7.9      3.736      7.757
REMARK SMILES COc1ccc(Br)cc1CNc1ccc(N2CCOCC2)c(C(=O)NCCCCCCNC(=O)c2ccc(-c3c4nc(c(-c5cccc(S(=O)(=O)[O-])c5F)c5ccc([nH]5)c(-c5cccc(S(=O)(=O)[O-])c5F)c5nc(c(-c6cccc(S(=O)(=O)[O-])c6F)c6ccc3[nH]6)C=C5)C=C4)cc2)c1
REMARK SMILES IDX 28 1 27 2 26 3 25 4 23 5 24 6 22 8 12 9 13 10 98 11 14 12
REMARK SMILES IDX 15 13 11 14 10 16 9 17 3 18 4 19 5 20 8 21 6 22 7 23 2 24
REMARK SMILES IDX 1 25 16 26 17 27 21 28 18 29 20 30 19 31 29 32 30 33 31 34
REMARK SMILES IDX 32 35 33 36 34 38 35 39 36 40 97 41 37 42 96 43 38 44 39 45
REMARK SMILES IDX 40 46 90 47 41 48 95 49 89 50 91 51 42 52 94 53 88 54 87 55
REMARK SMILES IDX 43 57 75 58 55 59 74 60 56 61 59 62 73 63 92 64 57 65 58 66
REMARK SMILES IDX 72 68 93 69 60 70 44 71 45 72 53 73 46 74 48 75 54 76 47 77
REMARK SMILES IDX 49 78 50 79 51 80 52 81 76 82 77 83 85 84 78 85 80 86 86 87
REMARK SMILES IDX 79 88 81 89 82 90 83 91 84 92 61 93 62 94 70 95 63 96 65 97
REMARK SMILES IDX 71 98 64 99 66 100 67 101 68 102 69 103
REMARK H PARENT 25 7 11 15 32 37 91 56 59 67
REMARK Flexibility Score: inf
ROOT
ATOM      1  C   UNL A   1      40.320  27.778  29.697  1.00  0.00     0.002 C 
ENDROOT
BRANCH   1   2
ATOM      2  C   UNL A   1      39.327  27.052  28.794  1.00  0.00     0.021 C 
BRANCH   2   3
ATOM      3  C   UNL A   1      39.796  25.739  28.184  1.00  0.00     0.116 C 
BRANCH   3   4
ATOM      4  N   UNL A   1      40.715  25.879  27.062  1.00  0.00    -0.352 N 
ATOM      5  C   UNL A   1      42.015  25.443  26.870  1.00  0.00     0.253 C 
ATOM      6  O   UNL A   1      42.493  25.610  25.749  1.00  0.00    -0.269 OA
ATOM      7  H   UNL A   1      40.343  26.378  26.300  1.00  0.00     0.163 HD
BRANCH   5   8
ATOM      8  C   UNL A   1      42.810  24.822  27.978  1.00  0.00     0.065 A 
ATOM      9  C   UNL A   1      44.278  25.262  29.892  1.00  0.00     0.035 A 
ATOM     10  C   UNL A   1      44.542  23.899  29.961  1.00  0.00     0.028 A 
ATOM     11  C   UNL A   1      43.330  25.674  28.962  1.00  0.00     0.041 A 
ATOM     12  C   UNL A   1      43.886  22.997  29.118  1.00  0.00     0.029 A 
ATOM     13  C   UNL A   1      43.007  23.432  28.108  1.00  0.00     0.050 A 
BRANCH   9  14
ATOM     14  N   UNL A   1      44.904  26.122  30.760  1.00  0.00    -0.381 N 
ATOM     15  H   UNL A   1      45.865  26.279  30.616  1.00  0.00     0.160 HD
BRANCH  14  16
ATOM     16  C   UNL A   1      44.281  26.826  31.875  1.00  0.00     0.152 C 
BRANCH  16  17
ATOM     17  C   UNL A   1      44.349  25.947  33.100  1.00  0.00     0.014 A 
ATOM     18  C   UNL A   1      45.561  25.396  33.546  1.00  0.00     0.123 A 
ATOM     19  C   UNL A   1      45.571  24.609  34.701  1.00  0.00     0.048 A 
ATOM     20  C   UNL A   1      44.387  24.363  35.408  1.00  0.00     0.019 A 
ATOM     21  C   UNL A   1      43.170  25.721  33.841  1.00  0.00     0.025 A 
ATOM     22  C   UNL A   1      43.191  24.922  34.975  1.00  0.00     0.018 A 
ATOM     23  Br  UNL A   1      41.587  24.606  35.923  1.00  0.00    -0.051 Br
BRANCH  18  24
ATOM     24  O   UNL A   1      46.676  25.727  32.823  1.00  0.00    -0.496 OA
ATOM     25  C   UNL A   1      47.690  26.457  33.504  1.00  0.00     0.278 C 
ENDBRANCH  18  24
ENDBRANCH  16  17
ENDBRANCH  14  16
ENDBRANCH   9  14
BRANCH  13  26
ATOM     26  N   UNL A   1      42.333  22.477  27.381  1.00  0.00    -0.366 N 
ATOM     27  C   UNL A   1      41.008  21.979  27.743  1.00  0.00     0.145 C 
ATOM     28  C   UNL A   1      42.872  22.034  26.094  1.00  0.00     0.145 C 
ATOM     29  C   UNL A   1      40.901  20.465  27.464  1.00  0.00     0.181 C 
ATOM     30  C   UNL A   1      42.736  20.510  25.992  1.00  0.00     0.181 C 
ATOM     31  O   UNL A   1      41.361  20.111  26.144  1.00  0.00    -0.378 OA
ENDBRANCH  13  26
ENDBRANCH   5   8
ENDBRANCH   3   4
ENDBRANCH   2   3
ENDBRANCH   1   2
BRANCH   1  32
ATOM     32  C   UNL A   1      40.046  27.715  31.201  1.00  0.00     0.002 C 
BRANCH  32  33
ATOM     33  C   UNL A   1      38.586  27.518  31.616  1.00  0.00     0.021 C 
BRANCH  33  34
ATOM     34  C   UNL A   1      38.209  28.074  32.985  1.00  0.00     0.116 C 
BRANCH  34  35
ATOM     35  N   UNL A   1      37.218  29.135  32.904  1.00  0.00    -0.352 N 
ATOM     36  C   UNL A   1      37.362  30.430  32.468  1.00  0.00     0.251 C 
ATOM     37  H   UNL A   1      36.314  28.890  33.207  1.00  0.00     0.163 HD
ATOM     38  O   UNL A   1      36.453  31.233  32.627  1.00  0.00    -0.269 OA
BRANCH  36  39
ATOM     39  C   UNL A   1      38.627  30.855  31.826  1.00  0.00     0.039 A 
ATOM     40  C   UNL A   1      38.671  30.963  30.435  1.00  0.00     0.014 A 
ATOM     41  C   UNL A   1      39.763  31.141  32.589  1.00  0.00     0.014 A 
ATOM     42  C   UNL A   1      39.838  31.412  29.812  1.00  0.00     0.010 A 
ATOM     43  C   UNL A   1      40.898  31.662  31.973  1.00  0.00     0.010 A 
ATOM     44  C   UNL A   1      40.952  31.795  30.577  1.00  0.00    -0.014 A 
BRANCH  44  45
ATOM     45  C   UNL A   1      42.169  32.353  29.932  1.00  0.00     0.031 A 
ATOM     46  C   UNL A   1      43.354  31.470  29.644  1.00  0.00     0.074 A 
ATOM     47  C   UNL A   1      42.238  33.674  29.676  1.00  0.00     0.049 A 
ATOM     48  N   UNL A   1      44.508  31.789  29.118  1.00  0.00    -0.248 NA
ATOM     49  C   UNL A   1      43.239  30.052  30.020  1.00  0.00     0.031 C 
ATOM     50  C   UNL A   1      41.192  34.650  29.988  1.00  0.00     0.029 A 
ATOM     51  N   UNL A   1      43.241  34.429  29.120  1.00  0.00    -0.354 N 
ATOM     52  C   UNL A   1      45.269  30.626  29.133  1.00  0.00     0.074 A 
ATOM     53  C   UNL A   1      44.455  29.600  29.750  1.00  0.00     0.031 C 
ATOM     54  C   UNL A   1      41.605  35.872  29.617  1.00  0.00     0.029 A 
ATOM     55  C   UNL A   1      42.955  35.774  29.072  1.00  0.00     0.049 A 
ATOM     56  H   UNL A   1      44.084  34.045  28.788  1.00  0.00     0.167 HD
ATOM     57  C   UNL A   1      46.519  30.421  28.657  1.00  0.00     0.034 A 
ATOM     58  C   UNL A   1      43.700  36.815  28.652  1.00  0.00     0.034 A 
ATOM     59  C   UNL A   1      47.311  31.434  28.011  1.00  0.00     0.049 A 
ATOM     60  C   UNL A   1      45.070  36.555  28.088  1.00  0.00     0.074 A 
ATOM     61  C   UNL A   1      48.548  31.302  27.404  1.00  0.00     0.029 A 
ATOM     62  N   UNL A   1      46.956  32.771  27.906  1.00  0.00    -0.354 N 
ATOM     63  N   UNL A   1      45.706  35.416  27.958  1.00  0.00    -0.248 NA
ATOM     64  C   UNL A   1      45.811  37.719  27.578  1.00  0.00     0.031 C 
ATOM     65  C   UNL A   1      48.958  32.566  26.968  1.00  0.00     0.029 A 
ATOM     66  C   UNL A   1      47.958  33.478  27.263  1.00  0.00     0.049 A 
ATOM     67  H   UNL A   1      46.114  33.159  28.238  1.00  0.00     0.167 HD
ATOM     68  C   UNL A   1      46.904  35.719  27.323  1.00  0.00     0.074 A 
ATOM     69  C   UNL A   1      46.897  37.147  27.076  1.00  0.00     0.031 C 
ATOM     70  C   UNL A   1      47.925  34.891  26.986  1.00  0.00     0.034 A 
BRANCH  57  71
ATOM     71  C   UNL A   1      47.102  29.037  28.782  1.00  0.00     0.023 A 
ATOM     72  C   UNL A   1      47.763  28.657  29.968  1.00  0.00     0.012 A 
ATOM     73  C   UNL A   1      46.947  28.093  27.747  1.00  0.00     0.148 A 
ATOM     74  C   UNL A   1      48.294  27.375  30.108  1.00  0.00     0.002 A 
ATOM     75  C   UNL A   1      47.433  26.802  27.913  1.00  0.00     0.091 A 
ATOM     76  F   UNL A   1      46.334  28.478  26.618  1.00  0.00    -0.205 F 
ATOM     77  C   UNL A   1      48.119  26.446  29.086  1.00  0.00     0.022 A 
BRANCH  75  78
ATOM     78  S   UNL A   1      47.186  25.510  26.691  1.00  0.00     0.127 S 
ATOM     79  O   UNL A   1      48.053  25.962  25.604  1.00  0.00    -0.237 OA
ATOM     80  O   UNL A   1      47.667  24.322  27.399  1.00  0.00    -0.237 OA
ATOM     81  O   UNL A   1      45.761  25.506  26.392  1.00  0.00    -0.744 OA
ENDBRANCH  75  78
ENDBRANCH  57  71
BRANCH  58  82
ATOM     82  C   UNL A   1      43.145  38.196  28.713  1.00  0.00     0.023 A 
ATOM     83  C   UNL A   1      42.307  38.659  27.680  1.00  0.00     0.012 A 
ATOM     84  C   UNL A   1      43.418  39.038  29.808  1.00  0.00     0.148 A 
ATOM     85  C   UNL A   1      41.776  39.949  27.723  1.00  0.00     0.002 A 
ATOM     86  C   UNL A   1      42.839  40.299  29.872  1.00  0.00     0.091 A 
ATOM     87  F   UNL A   1      44.224  38.579  30.775  1.00  0.00    -0.205 F 
ATOM     88  C   UNL A   1      42.033  40.764  28.822  1.00  0.00     0.022 A 
BRANCH  86  89
ATOM     89  S   UNL A   1      43.010  41.364  31.309  1.00  0.00     0.127 S 
ATOM     90  O   UNL A   1      42.477  40.517  32.373  1.00  0.00    -0.237 OA
ATOM     91  O   UNL A   1      44.456  41.575  31.353  1.00  0.00    -0.237 OA
ATOM     92  O   UNL A   1      42.233  42.560  31.010  1.00  0.00    -0.744 OA
ENDBRANCH  86  89
ENDBRANCH  58  82
BRANCH  70  93
ATOM     93  C   UNL A   1      49.111  35.494  26.281  1.00  0.00     0.023 A 
ATOM     94  C   UNL A   1      49.103  35.636  24.879  1.00  0.00     0.012 A 
ATOM     95  C   UNL A   1      50.208  35.983  27.018  1.00  0.00     0.148 A 
ATOM     96  C   UNL A   1      50.184  36.222  24.219  1.00  0.00     0.002 A 
ATOM     97  C   UNL A   1      51.255  36.615  26.359  1.00  0.00     0.091 A 
ATOM     98  F   UNL A   1      50.206  35.824  28.350  1.00  0.00    -0.205 F 
ATOM     99  C   UNL A   1      51.253  36.722  24.960  1.00  0.00     0.022 A 
BRANCH  97 100
ATOM    100  S   UNL A   1      52.625  37.378  27.237  1.00  0.00     0.127 S 
ATOM    101  O   UNL A   1      51.936  38.377  28.053  1.00  0.00    -0.237 OA
ATOM    102  O   UNL A   1      53.176  36.252  27.989  1.00  0.00    -0.237 OA
ATOM    103  O   UNL A   1      53.511  37.913  26.213  1.00  0.00    -0.744 OA
ENDBRANCH  97 100
ENDBRANCH  70  93
ENDBRANCH  44  45
ENDBRANCH  36  39
ENDBRANCH  34  35
ENDBRANCH  33  34
ENDBRANCH  32  33
ENDBRANCH   1  32
TORSDOF 21
ENDMDL
MODEL 3
REMARK VINA RESULT:      -7.6      5.318     12.348
REMARK SMILES COc1ccc(Br)cc1CNc1ccc(N2CCOCC2)c(C(=O)NCCCCCCNC(=O)c2ccc(-c3c4nc(c(-c5cccc(S(=O)(=O)[O-])c5F)c5ccc([nH]5)c(-c5cccc(S(=O)(=O)[O-])c5F)c5nc(c(-c6cccc(S(=O)(=O)[O-])c6F)c6ccc3[nH]6)C=C5)C=C4)cc2)c1
REMARK SMILES IDX 28 1 27 2 26 3 25 4 23 5 24 6 22 8 12 9 13 10 98 11 14 12
REMARK SMILES IDX 15 13 11 14 10 16 9 17 3 18 4 19 5 20 8 21 6 22 7 23 2 24
REMARK SMILES IDX 1 25 16 26 17 27 21 28 18 29 20 30 19 31 29 32 30 33 31 34
REMARK SMILES IDX 32 35 33 36 34 38 35 39 36 40 97 41 37 42 96 43 38 44 39 45
REMARK SMILES IDX 40 46 90 47 41 48 95 49 89 50 91 51 42 52 94 53 88 54 87 55
REMARK SMILES IDX 43 57 75 58 55 59 74 60 56 61 59 62 73 63 92 64 57 65 58 66
REMARK SMILES IDX 72 68 93 69 60 70 44 71 45 72 53 73 46 74 48 75 54 76 47 77
REMARK SMILES IDX 49 78 50 79 51 80 52 81 76 82 77 83 85 84 78 85 80 86 86 87
REMARK SMILES IDX 79 88 81 89 82 90 83 91 84 92 61 93 62 94 70 95 63 96 65 97
REMARK SMILES IDX 71 98 64 99 66 100 67 101 68 102 69 103
REMARK H PARENT 25 7 11 15 32 37 91 56 59 67
REMARK Flexibility Score: inf
ROOT
ATOM      1  C   UNL A   1      44.308  31.893  27.997  1.00  0.00     0.002 C 
ENDROOT
BRANCH   1   2
ATOM      2  C   UNL A   1      43.399  30.707  28.313  1.00  0.00     0.021 C 
BRANCH   2   3
ATOM      3  C   UNL A   1      43.869  29.343  27.829  1.00  0.00     0.116 C 
BRANCH   3   4
ATOM      4  N   UNL A   1      43.491  29.016  26.460  1.00  0.00    -0.352 N 
ATOM      5  C   UNL A   1      42.316  28.525  25.916  1.00  0.00     0.253 C 
ATOM      6  O   UNL A   1      42.258  28.468  24.689  1.00  0.00    -0.269 OA
ATOM      7  H   UNL A   1      44.204  29.173  25.800  1.00  0.00     0.163 HD
BRANCH   5   8
ATOM      8  C   UNL A   1      41.183  28.060  26.778  1.00  0.00     0.065 A 
ATOM      9  C   UNL A   1      39.080  28.710  27.858  1.00  0.00     0.035 A 
ATOM     10  C   UNL A   1      39.100  27.504  28.550  1.00  0.00     0.028 A 
ATOM     11  C   UNL A   1      40.073  28.908  26.907  1.00  0.00     0.041 A 
ATOM     12  C   UNL A   1      40.090  26.550  28.298  1.00  0.00     0.029 A 
ATOM     13  C   UNL A   1      41.152  26.801  27.410  1.00  0.00     0.050 A 
BRANCH   9  14
ATOM     14  N   UNL A   1      38.072  29.613  28.094  1.00  0.00    -0.381 N 
ATOM     15  H   UNL A   1      38.085  30.442  27.565  1.00  0.00     0.160 HD
BRANCH  14  16
ATOM     16  C   UNL A   1      36.984  29.459  29.053  1.00  0.00     0.152 C 
BRANCH  16  17
ATOM     17  C   UNL A   1      35.967  30.547  28.809  1.00  0.00     0.014 A 
ATOM     18  C   UNL A   1      35.084  30.499  27.718  1.00  0.00     0.123 A 
ATOM     19  C   UNL A   1      34.144  31.522  27.554  1.00  0.00     0.048 A 
ATOM     20  C   UNL A   1      34.084  32.588  28.459  1.00  0.00     0.019 A 
ATOM     21  C   UNL A   1      35.872  31.608  29.733  1.00  0.00     0.025 A 
ATOM     22  C   UNL A   1      34.948  32.626  29.547  1.00  0.00     0.018 A 
ATOM     23  Br  UNL A   1      34.872  34.055  30.780  1.00  0.00    -0.051 Br
BRANCH  18  24
ATOM     24  O   UNL A   1      35.181  29.397  26.911  1.00  0.00    -0.496 OA
ATOM     25  C   UNL A   1      34.102  28.469  26.960  1.00  0.00     0.278 C 
ENDBRANCH  18  24
ENDBRANCH  16  17
ENDBRANCH  14  16
ENDBRANCH   9  14
BRANCH  13  26
ATOM     26  N   UNL A   1      42.035  25.776  27.149  1.00  0.00    -0.366 N 
ATOM     27  C   UNL A   1      43.189  25.476  27.993  1.00  0.00     0.145 C 
ATOM     28  C   UNL A   1      41.744  24.826  26.074  1.00  0.00     0.145 C 
ATOM     29  C   UNL A   1      44.398  25.057  27.132  1.00  0.00     0.181 C 
ATOM     30  C   UNL A   1      43.031  24.552  25.286  1.00  0.00     0.181 C 
ATOM     31  O   UNL A   1      44.062  24.051  26.157  1.00  0.00    -0.378 OA
ENDBRANCH  13  26
ENDBRANCH   5   8
ENDBRANCH   3   4
ENDBRANCH   2   3
ENDBRANCH   1   2
BRANCH   1  32
ATOM     32  C   UNL A   1      43.846  32.825  26.875  1.00  0.00     0.002 C 
BRANCH  32  33
ATOM     33  C   UNL A   1      44.829  33.036  25.722  1.00  0.00     0.021 C 
BRANCH  33  34
ATOM     34  C   UNL A   1      44.696  34.359  24.975  1.00  0.00     0.116 C 
BRANCH  34  35
ATOM     35  N   UNL A   1      45.895  35.176  25.065  1.00  0.00    -0.352 N 
ATOM     36  C   UNL A   1      46.350  35.944  26.109  1.00  0.00     0.251 C 
ATOM     37  H   UNL A   1      46.463  35.178  24.261  1.00  0.00     0.163 HD
ATOM     38  O   UNL A   1      47.301  36.698  25.945  1.00  0.00    -0.269 OA
BRANCH  36  39
ATOM     39  C   UNL A   1      45.674  35.875  27.424  1.00  0.00     0.039 A 
ATOM     40  C   UNL A   1      46.227  35.070  28.423  1.00  0.00     0.014 A 
ATOM     41  C   UNL A   1      44.500  36.593  27.672  1.00  0.00     0.014 A 
ATOM     42  C   UNL A   1      45.634  35.030  29.687  1.00  0.00     0.010 A 
ATOM     43  C   UNL A   1      43.957  36.613  28.955  1.00  0.00     0.010 A 
ATOM     44  C   UNL A   1      44.512  35.825  29.974  1.00  0.00    -0.014 A 
BRANCH  44  45
ATOM     45  C   UNL A   1      43.923  35.855  31.338  1.00  0.00     0.031 A 
ATOM     46  C   UNL A   1      44.506  36.745  32.402  1.00  0.00     0.074 A 
ATOM     47  C   UNL A   1      42.909  35.021  31.641  1.00  0.00     0.049 A 
ATOM     48  N   UNL A   1      44.145  36.878  33.652  1.00  0.00    -0.248 NA
ATOM     49  C   UNL A   1      45.662  37.574  32.022  1.00  0.00     0.031 C 
ATOM     50  C   UNL A   1      42.313  34.048  30.723  1.00  0.00     0.029 A 
ATOM     51  N   UNL A   1      42.218  34.838  32.813  1.00  0.00    -0.354 N 
ATOM     52  C   UNL A   1      45.046  37.772  34.218  1.00  0.00     0.074 A 
ATOM     53  C   UNL A   1      45.992  38.126  33.181  1.00  0.00     0.031 C 
ATOM     54  C   UNL A   1      41.345  33.374  31.364  1.00  0.00     0.029 A 
ATOM     55  C   UNL A   1      41.273  33.840  32.745  1.00  0.00     0.049 A 
ATOM     56  H   UNL A   1      42.383  35.369  33.626  1.00  0.00     0.167 HD
ATOM     57  C   UNL A   1      45.072  38.272  35.475  1.00  0.00     0.034 A 
ATOM     58  C   UNL A   1      40.450  33.345  33.690  1.00  0.00     0.034 A 
ATOM     59  C   UNL A   1      44.109  37.946  36.492  1.00  0.00     0.049 A 
ATOM     60  C   UNL A   1      40.470  33.947  35.068  1.00  0.00     0.074 A 
ATOM     61  C   UNL A   1      43.989  38.476  37.765  1.00  0.00     0.029 A 
ATOM     62  N   UNL A   1      43.112  36.990  36.363  1.00  0.00    -0.354 N 
ATOM     63  N   UNL A   1      41.223  34.914  35.534  1.00  0.00    -0.248 NA
ATOM     64  C   UNL A   1      39.503  33.417  36.040  1.00  0.00     0.031 C 
ATOM     65  C   UNL A   1      42.945  37.812  38.419  1.00  0.00     0.029 A 
ATOM     66  C   UNL A   1      42.386  36.900  37.539  1.00  0.00     0.049 A 
ATOM     67  H   UNL A   1      42.944  36.456  35.553  1.00  0.00     0.167 HD
ATOM     68  C   UNL A   1      40.799  35.131  36.840  1.00  0.00     0.074 A 
ATOM     69  C   UNL A   1      39.709  34.208  37.084  1.00  0.00     0.031 C 
ATOM     70  C   UNL A   1      41.278  36.007  37.759  1.00  0.00     0.034 A 
BRANCH  57  71
ATOM     71  C   UNL A   1      46.160  39.257  35.818  1.00  0.00     0.023 A 
ATOM     72  C   UNL A   1      45.945  40.638  35.629  1.00  0.00     0.012 A 
ATOM     73  C   UNL A   1      47.377  38.820  36.379  1.00  0.00     0.148 A 
ATOM     74  C   UNL A   1      46.934  41.564  35.958  1.00  0.00     0.002 A 
ATOM     75  C   UNL A   1      48.339  39.752  36.750  1.00  0.00     0.091 A 
ATOM     76  F   UNL A   1      47.574  37.502  36.532  1.00  0.00    -0.205 F 
ATOM     77  C   UNL A   1      48.125  41.123  36.527  1.00  0.00     0.022 A 
BRANCH  75  78
ATOM     78  S   UNL A   1      49.870  39.290  37.567  1.00  0.00     0.127 S 
ATOM     79  O   UNL A   1      50.532  38.503  36.529  1.00  0.00    -0.237 OA
ATOM     80  O   UNL A   1      50.484  40.594  37.827  1.00  0.00    -0.237 OA
ATOM     81  O   UNL A   1      49.482  38.551  38.760  1.00  0.00    -0.744 OA
ENDBRANCH  75  78
ENDBRANCH  57  71
BRANCH  58  82
ATOM     82  C   UNL A   1      39.509  32.242  33.348  1.00  0.00     0.023 A 
ATOM     83  C   UNL A   1      38.154  32.530  33.103  1.00  0.00     0.012 A 
ATOM     84  C   UNL A   1      39.963  30.914  33.234  1.00  0.00     0.148 A 
ATOM     85  C   UNL A   1      37.259  31.509  32.780  1.00  0.00     0.002 A 
ATOM     86  C   UNL A   1      39.079  29.912  32.854  1.00  0.00     0.091 A 
ATOM     87  F   UNL A   1      41.256  30.662  33.479  1.00  0.00    -0.205 F 
ATOM     88  C   UNL A   1      37.723  30.203  32.645  1.00  0.00     0.022 A 
BRANCH  86  89
ATOM     89  S   UNL A   1      39.616  28.228  32.530  1.00  0.00     0.127 S 
ATOM     90  O   UNL A   1      38.362  27.584  32.145  1.00  0.00    -0.237 OA
ATOM     91  O   UNL A   1      40.570  28.424  31.439  1.00  0.00    -0.237 OA
ATOM     92  O   UNL A   1      40.209  27.755  33.774  1.00  0.00    -0.744 OA
ENDBRANCH  86  89
ENDBRANCH  58  82
BRANCH  70  93
ATOM     93  C   UNL A   1      40.608  36.041  39.108  1.00  0.00     0.023 A 
ATOM     94  C   UNL A   1      39.489  36.869  39.320  1.00  0.00     0.012 A 
ATOM     95  C   UNL A   1      41.052  35.199  40.147  1.00  0.00     0.148 A 
ATOM     96  C   UNL A   1      38.842  36.884  40.556  1.00  0.00     0.002 A 
ATOM     97  C   UNL A   1      40.370  35.179  41.357  1.00  0.00     0.091 A 
ATOM     98  F   UNL A   1      42.131  34.431  39.932  1.00  0.00    -0.205 F 
ATOM     99  C   UNL A   1      39.275  36.031  41.570  1.00  0.00     0.022 A 
BRANCH  97 100
ATOM    100  S   UNL A   1      40.793  34.043  42.683  1.00  0.00     0.127 S 
ATOM    101  O   UNL A   1      39.794  34.384  43.696  1.00  0.00    -0.237 OA
ATOM    102  O   UNL A   1      40.598  32.740  42.048  1.00  0.00    -0.237 OA
ATOM    103  O   UNL A   1      42.172  34.340  43.044  1.00  0.00    -0.744 OA
ENDBRANCH  97 100
ENDBRANCH  70  93
ENDBRANCH  44  45
ENDBRANCH  36  39
ENDBRANCH  34  35
ENDBRANCH  33  34
ENDBRANCH  32  33
ENDBRANCH   1  32
TORSDOF 21
ENDMDL
