MODEL 1
REMARK VINA RESULT:     -10.4      0.000      0.000
REMARK SMILES C[C@H](C1CCCC1)[N@@H+](CC(=O)NCCCCCCNC(=O)c1ccc(-c2c3nc(c(-c4cccc(S(=O)(=O)[O-])c4F)c4ccc([nH]4)c(-c4cccc(S(=O)(=O)[O-])c4F)c4nc(c(-c5cccc(S(=O)(=O)[O-])c5F)c5ccc2[nH]5)C=C4)C=C3)cc1)CC(F)(F)F
REMARK SMILES IDX 15 1 14 2 13 3 12 4 10 5 11 6 9 8 8 9 2 11 1 12 3 13 4 14
REMARK SMILES IDX 7 15 5 16 6 17 85 18 86 19 87 20 88 21 89 22 16 23 17 24
REMARK SMILES IDX 18 25 19 26 20 27 21 29 22 30 23 31 84 32 24 33 83 34 25 35
REMARK SMILES IDX 26 36 27 37 77 38 28 39 82 40 76 41 78 42 29 43 81 44 75 45
REMARK SMILES IDX 74 46 30 48 62 49 42 50 61 51 43 52 46 53 60 54 79 55 44 56
REMARK SMILES IDX 45 57 59 59 80 60 47 61 31 62 32 63 40 64 33 65 35 66 41 67
REMARK SMILES IDX 34 68 36 69 37 70 38 71 39 72 63 73 64 74 72 75 65 76 67 77
REMARK SMILES IDX 73 78 66 79 68 80 69 81 70 82 71 83 48 84 49 85 57 86 50 87
REMARK SMILES IDX 52 88 58 89 51 90 53 91 54 92 55 93 56 94
REMARK H PARENT 12 7 8 10 19 28 78 47 46 58
REMARK Flexibility Score: inf
ROOT
ATOM      1  C   UNL A   1      34.166  23.514  26.373  1.00  0.00     0.002 C 
ENDROOT
BRANCH   1   2
ATOM      2  C   UNL A   1      33.061  24.547  26.153  1.00  0.00     0.021 C 
BRANCH   2   3
ATOM      3  C   UNL A   1      32.751  24.985  24.722  1.00  0.00     0.116 C 
BRANCH   3   4
ATOM      4  N   UNL A   1      31.329  25.164  24.484  1.00  0.00    -0.351 N 
ATOM      5  C   UNL A   1      30.464  26.156  24.847  1.00  0.00     0.275 C 
ATOM      6  O   UNL A   1      29.330  26.093  24.361  1.00  0.00    -0.269 OA
ATOM      7  H   UNL A   1      30.913  24.435  23.968  1.00  0.00     0.163 HD
BRANCH   5   8
ATOM      8  C   UNL A   1      30.861  27.344  25.737  1.00  0.00     0.364 C 
BRANCH   8   9
ATOM      9  N   UNL A   1      31.300  28.597  25.069  1.00  0.00    -0.317 N 
ATOM     10  H   UNL A   1      30.623  29.286  25.394  1.00  0.00     0.349 HD
BRANCH   9  11
ATOM     11  C   UNL A   1      31.018  28.685  23.634  1.00  0.00     0.184 C 
ATOM     12  C   UNL A   1      32.277  28.934  22.815  1.00  0.00     0.075 C 
BRANCH  11  13
ATOM     13  C   UNL A   1      29.892  29.631  23.111  1.00  0.00     0.047 C 
ATOM     14  C   UNL A   1      28.504  29.064  22.822  1.00  0.00     0.010 C 
ATOM     15  C   UNL A   1      29.563  30.859  23.968  1.00  0.00     0.010 C 
ATOM     16  C   UNL A   1      27.690  30.323  22.508  1.00  0.00     0.001 C 
ATOM     17  C   UNL A   1      28.294  31.439  23.360  1.00  0.00     0.001 C 
ENDBRANCH  11  13
ENDBRANCH   9  11
BRANCH   9  18
ATOM     18  C   UNL A   1      32.476  29.291  25.635  1.00  0.00     0.379 C 
BRANCH  18  19
ATOM     19  C   UNL A   1      33.737  28.632  26.256  1.00  0.00     0.438 C 
ATOM     20  F   UNL A   1      33.476  27.860  27.327  1.00  0.00    -0.165 F 
ATOM     21  F   UNL A   1      34.307  27.813  25.329  1.00  0.00    -0.165 F 
ATOM     22  F   UNL A   1      34.687  29.518  26.601  1.00  0.00    -0.165 F 
ENDBRANCH  18  19
ENDBRANCH   9  18
ENDBRANCH   8   9
ENDBRANCH   5   8
ENDBRANCH   3   4
ENDBRANCH   2   3
ENDBRANCH   1   2
BRANCH   1  23
ATOM     23  C   UNL A   1      35.127  23.303  25.204  1.00  0.00     0.002 C 
BRANCH  23  24
ATOM     24  C   UNL A   1      35.704  21.892  25.034  1.00  0.00     0.021 C 
BRANCH  24  25
ATOM     25  C   UNL A   1      37.143  21.798  24.524  1.00  0.00     0.116 C 
BRANCH  25  26
ATOM     26  N   UNL A   1      37.886  20.711  25.133  1.00  0.00    -0.352 N 
ATOM     27  C   UNL A   1      39.032  20.762  25.889  1.00  0.00     0.251 C 
ATOM     28  H   UNL A   1      37.518  19.811  24.984  1.00  0.00     0.163 HD
ATOM     29  O   UNL A   1      39.622  19.726  26.185  1.00  0.00    -0.269 OA
BRANCH  27  30
ATOM     30  C   UNL A   1      39.569  22.069  26.329  1.00  0.00     0.039 A 
ATOM     31  C   UNL A   1      40.691  22.088  27.160  1.00  0.00     0.014 A 
ATOM     32  C   UNL A   1      38.964  23.265  25.936  1.00  0.00     0.014 A 
ATOM     33  C   UNL A   1      41.240  23.312  27.556  1.00  0.00     0.010 A 
ATOM     34  C   UNL A   1      39.544  24.485  26.286  1.00  0.00     0.010 A 
ATOM     35  C   UNL A   1      40.686  24.521  27.103  1.00  0.00    -0.014 A 
BRANCH  35  36
ATOM     36  C   UNL A   1      41.299  25.827  27.465  1.00  0.00     0.031 A 
ATOM     37  C   UNL A   1      42.731  26.124  27.107  1.00  0.00     0.074 A 
ATOM     38  C   UNL A   1      40.588  26.718  28.185  1.00  0.00     0.049 A 
ATOM     39  N   UNL A   1      43.440  27.192  27.367  1.00  0.00    -0.248 NA
ATOM     40  C   UNL A   1      43.471  25.078  26.381  1.00  0.00     0.031 C 
ATOM     41  C   UNL A   1      39.219  26.519  28.665  1.00  0.00     0.029 A 
ATOM     42  N   UNL A   1      40.929  27.961  28.664  1.00  0.00    -0.354 N 
ATOM     43  C   UNL A   1      44.712  26.937  26.870  1.00  0.00     0.074 A 
ATOM     44  C   UNL A   1      44.687  25.602  26.313  1.00  0.00     0.031 C 
ATOM     45  C   UNL A   1      38.838  27.595  29.371  1.00  0.00     0.029 A 
ATOM     46  C   UNL A   1      39.940  28.554  29.414  1.00  0.00     0.049 A 
ATOM     47  H   UNL A   1      41.798  28.386  28.487  1.00  0.00     0.167 HD
ATOM     48  C   UNL A   1      45.796  27.749  26.852  1.00  0.00     0.034 A 
ATOM     49  C   UNL A   1      39.921  29.733  30.066  1.00  0.00     0.034 A 
ATOM     50  C   UNL A   1      45.805  29.096  27.358  1.00  0.00     0.049 A 
ATOM     51  C   UNL A   1      41.122  30.637  29.982  1.00  0.00     0.074 A 
ATOM     52  C   UNL A   1      46.825  30.030  27.293  1.00  0.00     0.029 A 
ATOM     53  N   UNL A   1      44.752  29.701  28.024  1.00  0.00    -0.354 N 
ATOM     54  N   UNL A   1      42.255  30.446  29.351  1.00  0.00    -0.248 NA
ATOM     55  C   UNL A   1      41.028  31.936  30.665  1.00  0.00     0.031 C 
ATOM     56  C   UNL A   1      46.392  31.195  27.936  1.00  0.00     0.029 A 
ATOM     57  C   UNL A   1      45.098  30.991  28.385  1.00  0.00     0.049 A 
ATOM     58  H   UNL A   1      43.884  29.274  28.212  1.00  0.00     0.167 HD
ATOM     59  C   UNL A   1      42.992  31.611  29.531  1.00  0.00     0.074 A 
ATOM     60  C   UNL A   1      42.168  32.511  30.310  1.00  0.00     0.031 C 
ATOM     61  C   UNL A   1      44.247  31.901  29.106  1.00  0.00     0.034 A 
BRANCH  48  62
ATOM     62  C   UNL A   1      47.055  27.233  26.207  1.00  0.00     0.023 A 
ATOM     63  C   UNL A   1      47.309  27.529  24.853  1.00  0.00     0.012 A 
ATOM     64  C   UNL A   1      48.023  26.538  26.958  1.00  0.00     0.148 A 
ATOM     65  C   UNL A   1      48.498  27.121  24.247  1.00  0.00     0.002 A 
ATOM     66  C   UNL A   1      49.223  26.169  26.358  1.00  0.00     0.091 A 
ATOM     67  F   UNL A   1      47.754  26.250  28.239  1.00  0.00    -0.205 F 
ATOM     68  C   UNL A   1      49.457  26.453  25.003  1.00  0.00     0.022 A 
BRANCH  66  69
ATOM     69  S   UNL A   1      50.555  25.373  27.266  1.00  0.00     0.127 S 
ATOM     70  O   UNL A   1      51.472  25.013  26.181  1.00  0.00    -0.237 OA
ATOM     71  O   UNL A   1      51.031  26.460  28.126  1.00  0.00    -0.237 OA
ATOM     72  O   UNL A   1      49.954  24.258  27.970  1.00  0.00    -0.744 OA
ENDBRANCH  66  69
ENDBRANCH  48  62
BRANCH  49  73
ATOM     73  C   UNL A   1      38.696  30.162  30.801  1.00  0.00     0.023 A 
ATOM     74  C   UNL A   1      38.532  29.785  32.148  1.00  0.00     0.012 A 
ATOM     75  C   UNL A   1      37.705  30.947  30.183  1.00  0.00     0.148 A 
ATOM     76  C   UNL A   1      37.386  30.152  32.855  1.00  0.00     0.002 A 
ATOM     77  C   UNL A   1      36.593  31.357  30.910  1.00  0.00     0.091 A 
ATOM     78  F   UNL A   1      37.868  31.281  28.895  1.00  0.00    -0.205 F 
ATOM     79  C   UNL A   1      36.422  30.946  32.240  1.00  0.00     0.022 A 
BRANCH  77  80
ATOM     80  S   UNL A   1      35.378  32.493  30.229  1.00  0.00     0.127 S 
ATOM     81  O   UNL A   1      34.839  31.724  29.112  1.00  0.00    -0.237 OA
ATOM     82  O   UNL A   1      34.458  32.671  31.355  1.00  0.00    -0.237 OA
ATOM     83  O   UNL A   1      36.126  33.693  29.880  1.00  0.00    -0.744 OA
ENDBRANCH  77  80
ENDBRANCH  49  73
BRANCH  61  84
ATOM     84  C   UNL A   1      44.803  33.260  29.440  1.00  0.00     0.023 A 
ATOM     85  C   UNL A   1      45.536  33.441  30.629  1.00  0.00     0.012 A 
ATOM     86  C   UNL A   1      44.667  34.336  28.541  1.00  0.00     0.148 A 
ATOM     87  C   UNL A   1      46.100  34.679  30.932  1.00  0.00     0.002 A 
ATOM     88  C   UNL A   1      45.271  35.554  28.827  1.00  0.00     0.091 A 
ATOM     89  F   UNL A   1      43.949  34.150  27.423  1.00  0.00    -0.205 F 
ATOM     90  C   UNL A   1      45.978  35.732  30.028  1.00  0.00     0.022 A 
BRANCH  88  91
ATOM     91  S   UNL A   1      45.245  36.933  27.676  1.00  0.00     0.127 S 
ATOM     92  O   UNL A   1      45.714  36.304  26.443  1.00  0.00    -0.237 OA
ATOM     93  O   UNL A   1      43.830  37.307  27.669  1.00  0.00    -0.237 OA
ATOM     94  O   UNL A   1      46.130  37.942  28.242  1.00  0.00    -0.744 OA
ENDBRANCH  88  91
ENDBRANCH  61  84
ENDBRANCH  35  36
ENDBRANCH  27  30
ENDBRANCH  25  26
ENDBRANCH  24  25
ENDBRANCH  23  24
ENDBRANCH   1  23
TORSDOF 21
ENDMDL
MODEL 2
REMARK VINA RESULT:     -10.0      1.861      2.248
REMARK SMILES C[C@H](C1CCCC1)[N@@H+](CC(=O)NCCCCCCNC(=O)c1ccc(-c2c3nc(c(-c4cccc(S(=O)(=O)[O-])c4F)c4ccc([nH]4)c(-c4cccc(S(=O)(=O)[O-])c4F)c4nc(c(-c5cccc(S(=O)(=O)[O-])c5F)c5ccc2[nH]5)C=C4)C=C3)cc1)CC(F)(F)F
REMARK SMILES IDX 15 1 14 2 13 3 12 4 10 5 11 6 9 8 8 9 2 11 1 12 3 13 4 14
REMARK SMILES IDX 7 15 5 16 6 17 85 18 86 19 87 20 88 21 89 22 16 23 17 24
REMARK SMILES IDX 18 25 19 26 20 27 21 29 22 30 23 31 84 32 24 33 83 34 25 35
REMARK SMILES IDX 26 36 27 37 77 38 28 39 82 40 76 41 78 42 29 43 81 44 75 45
REMARK SMILES IDX 74 46 30 48 62 49 42 50 61 51 43 52 46 53 60 54 79 55 44 56
REMARK SMILES IDX 45 57 59 59 80 60 47 61 31 62 32 63 40 64 33 65 35 66 41 67
REMARK SMILES IDX 34 68 36 69 37 70 38 71 39 72 63 73 64 74 72 75 65 76 67 77
REMARK SMILES IDX 73 78 66 79 68 80 69 81 70 82 71 83 48 84 49 85 57 86 50 87
REMARK SMILES IDX 52 88 58 89 51 90 53 91 54 92 55 93 56 94
REMARK H PARENT 12 7 8 10 19 28 78 47 46 58
REMARK Flexibility Score: inf
ROOT
ATOM      1  C   UNL A   1      34.272  23.526  26.346  1.00  0.00     0.002 C 
ENDROOT
BRANCH   1   2
ATOM      2  C   UNL A   1      33.182  24.542  26.009  1.00  0.00     0.021 C 
BRANCH   2   3
ATOM      3  C   UNL A   1      32.968  24.919  24.544  1.00  0.00     0.116 C 
BRANCH   3   4
ATOM      4  N   UNL A   1      31.563  25.059  24.199  1.00  0.00    -0.351 N 
ATOM      5  C   UNL A   1      30.616  25.961  24.593  1.00  0.00     0.275 C 
ATOM      6  O   UNL A   1      29.533  25.905  24.002  1.00  0.00    -0.269 OA
ATOM      7  H   UNL A   1      31.234  24.379  23.568  1.00  0.00     0.163 HD
BRANCH   5   8
ATOM      8  C   UNL A   1      30.869  27.051  25.646  1.00  0.00     0.364 C 
BRANCH   8   9
ATOM      9  N   UNL A   1      31.103  28.439  25.167  1.00  0.00    -0.317 N 
ATOM     10  H   UNL A   1      30.296  28.950  25.526  1.00  0.00     0.349 HD
BRANCH   9  11
ATOM     11  C   UNL A   1      30.877  28.666  23.737  1.00  0.00     0.184 C 
ATOM     12  C   UNL A   1      32.152  29.071  23.010  1.00  0.00     0.075 C 
BRANCH  11  13
ATOM     13  C   UNL A   1      29.718  29.597  23.263  1.00  0.00     0.047 C 
ATOM     14  C   UNL A   1      29.538  30.967  23.910  1.00  0.00     0.010 C 
ATOM     15  C   UNL A   1      29.669  29.940  21.770  1.00  0.00     0.010 C 
ATOM     16  C   UNL A   1      28.432  31.596  23.055  1.00  0.00     0.001 C 
ATOM     17  C   UNL A   1      28.617  31.033  21.647  1.00  0.00     0.001 C 
ENDBRANCH  11  13
ENDBRANCH   9  11
BRANCH   9  18
ATOM     18  C   UNL A   1      32.104  29.248  25.894  1.00  0.00     0.379 C 
BRANCH  18  19
ATOM     19  C   UNL A   1      33.475  28.764  26.436  1.00  0.00     0.438 C 
ATOM     20  F   UNL A   1      34.114  27.909  25.618  1.00  0.00    -0.165 F 
ATOM     21  F   UNL A   1      34.298  29.841  26.576  1.00  0.00    -0.165 F 
ATOM     22  F   UNL A   1      33.398  28.199  27.654  1.00  0.00    -0.165 F 
ENDBRANCH  18  19
ENDBRANCH   9  18
ENDBRANCH   8   9
ENDBRANCH   5   8
ENDBRANCH   3   4
ENDBRANCH   2   3
ENDBRANCH   1   2
BRANCH   1  23
ATOM     23  C   UNL A   1      35.313  23.276  25.256  1.00  0.00     0.002 C 
BRANCH  23  24
ATOM     24  C   UNL A   1      35.965  21.887  25.233  1.00  0.00     0.021 C 
BRANCH  24  25
ATOM     25  C   UNL A   1      37.396  21.811  24.697  1.00  0.00     0.116 C 
BRANCH  25  26
ATOM     26  N   UNL A   1      38.177  20.763  25.326  1.00  0.00    -0.352 N 
ATOM     27  C   UNL A   1      39.321  20.868  26.078  1.00  0.00     0.251 C 
ATOM     28  H   UNL A   1      37.840  19.847  25.195  1.00  0.00     0.163 HD
ATOM     29  O   UNL A   1      39.947  19.859  26.393  1.00  0.00    -0.269 OA
BRANCH  27  30
ATOM     30  C   UNL A   1      39.814  22.200  26.491  1.00  0.00     0.039 A 
ATOM     31  C   UNL A   1      40.968  22.277  27.274  1.00  0.00     0.014 A 
ATOM     32  C   UNL A   1      39.135  23.365  26.122  1.00  0.00     0.014 A 
ATOM     33  C   UNL A   1      41.474  23.528  27.643  1.00  0.00     0.010 A 
ATOM     34  C   UNL A   1      39.670  24.612  26.445  1.00  0.00     0.010 A 
ATOM     35  C   UNL A   1      40.843  24.707  27.211  1.00  0.00    -0.014 A 
BRANCH  35  36
ATOM     36  C   UNL A   1      41.408  26.042  27.544  1.00  0.00     0.031 A 
ATOM     37  C   UNL A   1      42.812  26.401  27.137  1.00  0.00     0.074 A 
ATOM     38  C   UNL A   1      40.682  26.906  28.281  1.00  0.00     0.049 A 
ATOM     39  N   UNL A   1      43.481  27.502  27.366  1.00  0.00    -0.248 NA
ATOM     40  C   UNL A   1      43.575  25.383  26.394  1.00  0.00     0.031 C 
ATOM     41  C   UNL A   1      39.339  26.649  28.807  1.00  0.00     0.029 A 
ATOM     42  N   UNL A   1      40.981  28.167  28.739  1.00  0.00    -0.354 N 
ATOM     43  C   UNL A   1      44.746  27.300  26.829  1.00  0.00     0.074 A 
ATOM     44  C   UNL A   1      44.763  25.960  26.282  1.00  0.00     0.031 C 
ATOM     45  C   UNL A   1      38.933  27.713  29.518  1.00  0.00     0.029 A 
ATOM     46  C   UNL A   1      39.991  28.721  29.518  1.00  0.00     0.049 A 
ATOM     47  H   UNL A   1      41.824  28.630  28.531  1.00  0.00     0.167 HD
ATOM     48  C   UNL A   1      45.791  28.160  26.770  1.00  0.00     0.034 A 
ATOM     49  C   UNL A   1      39.940  29.904  30.161  1.00  0.00     0.034 A 
ATOM     50  C   UNL A   1      45.755  29.510  27.265  1.00  0.00     0.049 A 
ATOM     51  C   UNL A   1      41.095  30.860  30.032  1.00  0.00     0.074 A 
ATOM     52  C   UNL A   1      46.729  30.488  27.160  1.00  0.00     0.029 A 
ATOM     53  N   UNL A   1      44.698  30.072  27.961  1.00  0.00    -0.354 N 
ATOM     54  N   UNL A   1      42.214  30.715  29.365  1.00  0.00    -0.248 NA
ATOM     55  C   UNL A   1      40.965  32.160  30.709  1.00  0.00     0.031 C 
ATOM     56  C   UNL A   1      46.265  31.638  27.809  1.00  0.00     0.029 A 
ATOM     57  C   UNL A   1      44.997  31.380  28.302  1.00  0.00     0.049 A 
ATOM     58  H   UNL A   1      43.857  29.608  28.181  1.00  0.00     0.167 HD
ATOM     59  C   UNL A   1      42.904  31.913  29.512  1.00  0.00     0.074 A 
ATOM     60  C   UNL A   1      42.066  32.782  30.312  1.00  0.00     0.031 C 
ATOM     61  C   UNL A   1      44.129  32.256  29.044  1.00  0.00     0.034 A 
BRANCH  48  62
ATOM     62  C   UNL A   1      47.050  27.695  26.087  1.00  0.00     0.023 A 
ATOM     63  C   UNL A   1      48.007  26.967  26.823  1.00  0.00     0.012 A 
ATOM     64  C   UNL A   1      47.245  27.897  24.707  1.00  0.00     0.148 A 
ATOM     65  C   UNL A   1      49.151  26.467  26.201  1.00  0.00     0.002 A 
ATOM     66  C   UNL A   1      48.369  27.361  24.086  1.00  0.00     0.091 A 
ATOM     67  F   UNL A   1      46.332  28.607  24.029  1.00  0.00    -0.205 F 
ATOM     68  C   UNL A   1      49.325  26.654  24.833  1.00  0.00     0.022 A 
BRANCH  66  69
ATOM     69  S   UNL A   1      48.645  27.481  22.314  1.00  0.00     0.127 S 
ATOM     70  O   UNL A   1      49.891  28.251  22.265  1.00  0.00    -0.237 OA
ATOM     71  O   UNL A   1      48.789  26.073  21.931  1.00  0.00    -0.237 OA
ATOM     72  O   UNL A   1      47.479  28.144  21.766  1.00  0.00    -0.744 OA
ENDBRANCH  66  69
ENDBRANCH  48  62
BRANCH  49  73
ATOM     73  C   UNL A   1      38.722  30.283  30.934  1.00  0.00     0.023 A 
ATOM     74  C   UNL A   1      38.610  29.893  32.283  1.00  0.00     0.012 A 
ATOM     75  C   UNL A   1      37.685  31.033  30.349  1.00  0.00     0.148 A 
ATOM     76  C   UNL A   1      37.472  30.214  33.025  1.00  0.00     0.002 A 
ATOM     77  C   UNL A   1      36.580  31.399  31.110  1.00  0.00     0.091 A 
ATOM     78  F   UNL A   1      37.799  31.380  29.059  1.00  0.00    -0.205 F 
ATOM     79  C   UNL A   1      36.462  30.975  32.442  1.00  0.00     0.022 A 
BRANCH  77  80
ATOM     80  S   UNL A   1      35.305  32.492  30.471  1.00  0.00     0.127 S 
ATOM     81  O   UNL A   1      34.371  32.553  31.591  1.00  0.00    -0.237 OA
ATOM     82  O   UNL A   1      36.053  33.726  30.224  1.00  0.00    -0.237 OA
ATOM     83  O   UNL A   1      34.813  31.845  29.261  1.00  0.00    -0.744 OA
ENDBRANCH  77  80
ENDBRANCH  49  73
BRANCH  61  84
ATOM     84  C   UNL A   1      44.634  33.642  29.350  1.00  0.00     0.023 A 
ATOM     85  C   UNL A   1      44.352  34.699  28.463  1.00  0.00     0.012 A 
ATOM     86  C   UNL A   1      45.317  33.912  30.552  1.00  0.00     0.148 A 
ATOM     87  C   UNL A   1      44.768  35.998  28.753  1.00  0.00     0.002 A 
ATOM     88  C   UNL A   1      45.688  35.216  30.857  1.00  0.00     0.091 A 
ATOM     89  F   UNL A   1      45.594  32.889  31.375  1.00  0.00    -0.205 F 
ATOM     90  C   UNL A   1      45.425  36.258  29.953  1.00  0.00     0.022 A 
BRANCH  88  91
ATOM     91  S   UNL A   1      46.454  35.656  32.421  1.00  0.00     0.127 S 
ATOM     92  O   UNL A   1      45.453  35.199  33.383  1.00  0.00    -0.237 OA
ATOM     93  O   UNL A   1      47.684  34.864  32.400  1.00  0.00    -0.237 OA
ATOM     94  O   UNL A   1      46.665  37.096  32.370  1.00  0.00    -0.744 OA
ENDBRANCH  88  91
ENDBRANCH  61  84
ENDBRANCH  35  36
ENDBRANCH  27  30
ENDBRANCH  25  26
ENDBRANCH  24  25
ENDBRANCH  23  24
ENDBRANCH   1  23
TORSDOF 21
ENDMDL
MODEL 3
REMARK VINA RESULT:      -9.9      1.940      2.601
REMARK SMILES C[C@H](C1CCCC1)[N@@H+](CC(=O)NCCCCCCNC(=O)c1ccc(-c2c3nc(c(-c4cccc(S(=O)(=O)[O-])c4F)c4ccc([nH]4)c(-c4cccc(S(=O)(=O)[O-])c4F)c4nc(c(-c5cccc(S(=O)(=O)[O-])c5F)c5ccc2[nH]5)C=C4)C=C3)cc1)CC(F)(F)F
REMARK SMILES IDX 15 1 14 2 13 3 12 4 10 5 11 6 9 8 8 9 2 11 1 12 3 13 4 14
REMARK SMILES IDX 7 15 5 16 6 17 85 18 86 19 87 20 88 21 89 22 16 23 17 24
REMARK SMILES IDX 18 25 19 26 20 27 21 29 22 30 23 31 84 32 24 33 83 34 25 35
REMARK SMILES IDX 26 36 27 37 77 38 28 39 82 40 76 41 78 42 29 43 81 44 75 45
REMARK SMILES IDX 74 46 30 48 62 49 42 50 61 51 43 52 46 53 60 54 79 55 44 56
REMARK SMILES IDX 45 57 59 59 80 60 47 61 31 62 32 63 40 64 33 65 35 66 41 67
REMARK SMILES IDX 34 68 36 69 37 70 38 71 39 72 63 73 64 74 72 75 65 76 67 77
REMARK SMILES IDX 73 78 66 79 68 80 69 81 70 82 71 83 48 84 49 85 57 86 50 87
REMARK SMILES IDX 52 88 58 89 51 90 53 91 54 92 55 93 56 94
REMARK H PARENT 12 7 8 10 19 28 78 47 46 58
REMARK Flexibility Score: inf
ROOT
ATOM      1  C   UNL A   1      33.903  24.194  25.892  1.00  0.00     0.002 C 
ENDROOT
BRANCH   1   2
ATOM      2  C   UNL A   1      32.881  25.206  25.375  1.00  0.00     0.021 C 
BRANCH   2   3
ATOM      3  C   UNL A   1      31.693  24.689  24.564  1.00  0.00     0.116 C 
BRANCH   3   4
ATOM      4  N   UNL A   1      30.567  25.607  24.569  1.00  0.00    -0.351 N 
ATOM      5  C   UNL A   1      30.202  26.603  23.710  1.00  0.00     0.275 C 
ATOM      6  O   UNL A   1      29.096  27.116  23.909  1.00  0.00    -0.269 OA
ATOM      7  H   UNL A   1      29.956  25.490  25.333  1.00  0.00     0.163 HD
BRANCH   5   8
ATOM      8  C   UNL A   1      31.050  27.035  22.503  1.00  0.00     0.364 C 
BRANCH   8   9
ATOM      9  N   UNL A   1      31.492  28.452  22.436  1.00  0.00    -0.317 N 
ATOM     10  H   UNL A   1      32.125  28.464  21.636  1.00  0.00     0.349 HD
BRANCH   9  11
ATOM     11  C   UNL A   1      32.447  28.871  23.465  1.00  0.00     0.184 C 
ATOM     12  C   UNL A   1      33.776  28.136  23.350  1.00  0.00     0.075 C 
BRANCH  11  13
ATOM     13  C   UNL A   1      32.023  28.897  24.967  1.00  0.00     0.047 C 
ATOM     14  C   UNL A   1      32.842  28.124  25.997  1.00  0.00     0.010 C 
ATOM     15  C   UNL A   1      31.896  30.274  25.629  1.00  0.00     0.010 C 
ATOM     16  C   UNL A   1      32.199  28.550  27.320  1.00  0.00     0.001 C 
ATOM     17  C   UNL A   1      31.721  29.986  27.113  1.00  0.00     0.001 C 
ENDBRANCH  11  13
ENDBRANCH   9  11
BRANCH   9  18
ATOM     18  C   UNL A   1      30.544  29.433  21.866  1.00  0.00     0.379 C 
BRANCH  18  19
ATOM     19  C   UNL A   1      29.248  29.968  22.531  1.00  0.00     0.438 C 
ATOM     20  F   UNL A   1      28.155  29.227  22.270  1.00  0.00    -0.165 F 
ATOM     21  F   UNL A   1      29.407  29.947  23.884  1.00  0.00    -0.165 F 
ATOM     22  F   UNL A   1      28.972  31.245  22.212  1.00  0.00    -0.165 F 
ENDBRANCH  18  19
ENDBRANCH   9  18
ENDBRANCH   8   9
ENDBRANCH   5   8
ENDBRANCH   3   4
ENDBRANCH   2   3
ENDBRANCH   1   2
BRANCH   1  23
ATOM     23  C   UNL A   1      34.960  23.739  24.888  1.00  0.00     0.002 C 
BRANCH  23  24
ATOM     24  C   UNL A   1      35.673  22.414  25.192  1.00  0.00     0.021 C 
BRANCH  24  25
ATOM     25  C   UNL A   1      36.994  22.165  24.463  1.00  0.00     0.116 C 
BRANCH  25  26
ATOM     26  N   UNL A   1      37.728  21.034  25.000  1.00  0.00    -0.352 N 
ATOM     27  C   UNL A   1      38.897  21.024  25.721  1.00  0.00     0.251 C 
ATOM     28  H   UNL A   1      37.332  20.151  24.823  1.00  0.00     0.163 HD
ATOM     29  O   UNL A   1      39.469  19.962  25.952  1.00  0.00    -0.269 OA
BRANCH  27  30
ATOM     30  C   UNL A   1      39.481  22.296  26.200  1.00  0.00     0.039 A 
ATOM     31  C   UNL A   1      40.816  22.310  26.610  1.00  0.00     0.014 A 
ATOM     32  C   UNL A   1      38.714  23.463  26.260  1.00  0.00     0.014 A 
ATOM     33  C   UNL A   1      41.399  23.510  27.029  1.00  0.00     0.010 A 
ATOM     34  C   UNL A   1      39.312  24.669  26.626  1.00  0.00     0.010 A 
ATOM     35  C   UNL A   1      40.660  24.704  27.018  1.00  0.00    -0.014 A 
BRANCH  35  36
ATOM     36  C   UNL A   1      41.289  25.997  27.402  1.00  0.00     0.031 A 
ATOM     37  C   UNL A   1      42.704  26.308  26.994  1.00  0.00     0.074 A 
ATOM     38  C   UNL A   1      40.609  26.860  28.182  1.00  0.00     0.049 A 
ATOM     39  N   UNL A   1      43.424  27.367  27.263  1.00  0.00    -0.248 NA
ATOM     40  C   UNL A   1      43.412  25.290  26.201  1.00  0.00     0.031 C 
ATOM     41  C   UNL A   1      39.261  26.643  28.711  1.00  0.00     0.029 A 
ATOM     42  N   UNL A   1      40.970  28.085  28.690  1.00  0.00    -0.354 N 
ATOM     43  C   UNL A   1      44.674  27.131  26.704  1.00  0.00     0.074 A 
ATOM     44  C   UNL A   1      44.625  25.816  26.101  1.00  0.00     0.031 C 
ATOM     45  C   UNL A   1      38.911  27.692  29.471  1.00  0.00     0.029 A 
ATOM     46  C   UNL A   1      40.013  28.650  29.502  1.00  0.00     0.049 A 
ATOM     47  H   UNL A   1      41.831  28.518  28.493  1.00  0.00     0.167 HD
ATOM     48  C   UNL A   1      45.757  27.944  26.670  1.00  0.00     0.034 A 
ATOM     49  C   UNL A   1      40.023  29.806  30.196  1.00  0.00     0.034 A 
ATOM     50  C   UNL A   1      45.787  29.272  27.223  1.00  0.00     0.049 A 
ATOM     51  C   UNL A   1      41.220  30.712  30.095  1.00  0.00     0.074 A 
ATOM     52  C   UNL A   1      46.804  30.209  27.149  1.00  0.00     0.029 A 
ATOM     53  N   UNL A   1      44.764  29.851  27.954  1.00  0.00    -0.354 N 
ATOM     54  N   UNL A   1      42.325  30.546  29.410  1.00  0.00    -0.248 NA
ATOM     55  C   UNL A   1      41.156  31.987  30.828  1.00  0.00     0.031 C 
ATOM     56  C   UNL A   1      46.399  31.349  27.851  1.00  0.00     0.029 A 
ATOM     57  C   UNL A   1      45.125  31.128  28.346  1.00  0.00     0.049 A 
ATOM     58  H   UNL A   1      43.904  29.417  28.163  1.00  0.00     0.167 HD
ATOM     59  C   UNL A   1      43.070  31.704  29.601  1.00  0.00     0.074 A 
ATOM     60  C   UNL A   1      42.280  32.575  30.446  1.00  0.00     0.031 C 
ATOM     61  C   UNL A   1      44.306  32.010  29.134  1.00  0.00     0.034 A 
BRANCH  48  62
ATOM     62  C   UNL A   1      46.987  27.453  25.954  1.00  0.00     0.023 A 
ATOM     63  C   UNL A   1      47.873  26.582  26.622  1.00  0.00     0.012 A 
ATOM     64  C   UNL A   1      47.219  27.774  24.603  1.00  0.00     0.148 A 
ATOM     65  C   UNL A   1      48.985  26.058  25.962  1.00  0.00     0.002 A 
ATOM     66  C   UNL A   1      48.308  27.216  23.941  1.00  0.00     0.091 A 
ATOM     67  F   UNL A   1      46.375  28.618  23.992  1.00  0.00    -0.205 F 
ATOM     68  C   UNL A   1      49.195  26.366  24.621  1.00  0.00     0.022 A 
BRANCH  66  69
ATOM     69  S   UNL A   1      48.621  27.489  22.192  1.00  0.00     0.127 S 
ATOM     70  O   UNL A   1      47.362  28.103  21.763  1.00  0.00    -0.237 OA
ATOM     71  O   UNL A   1      49.762  28.409  22.226  1.00  0.00    -0.237 OA
ATOM     72  O   UNL A   1      48.906  26.187  21.624  1.00  0.00    -0.744 OA
ENDBRANCH  66  69
ENDBRANCH  48  62
BRANCH  49  73
ATOM     73  C   UNL A   1      38.831  30.206  30.998  1.00  0.00     0.023 A 
ATOM     74  C   UNL A   1      38.742  29.816  32.348  1.00  0.00     0.012 A 
ATOM     75  C   UNL A   1      37.794  30.977  30.437  1.00  0.00     0.148 A 
ATOM     76  C   UNL A   1      37.629  30.157  33.116  1.00  0.00     0.002 A 
ATOM     77  C   UNL A   1      36.714  31.362  31.225  1.00  0.00     0.091 A 
ATOM     78  F   UNL A   1      37.884  31.324  29.146  1.00  0.00    -0.205 F 
ATOM     79  C   UNL A   1      36.620  30.938  32.558  1.00  0.00     0.022 A 
BRANCH  77  80
ATOM     80  S   UNL A   1      35.445  32.479  30.617  1.00  0.00     0.127 S 
ATOM     81  O   UNL A   1      34.503  32.501  31.731  1.00  0.00    -0.237 OA
ATOM     82  O   UNL A   1      36.197  33.721  30.422  1.00  0.00    -0.237 OA
ATOM     83  O   UNL A   1      34.962  31.879  29.381  1.00  0.00    -0.744 OA
ENDBRANCH  77  80
ENDBRANCH  49  73
BRANCH  61  84
ATOM     84  C   UNL A   1      44.876  33.357  29.494  1.00  0.00     0.023 A 
ATOM     85  C   UNL A   1      45.769  33.471  30.578  1.00  0.00     0.012 A 
ATOM     86  C   UNL A   1      44.590  34.494  28.712  1.00  0.00     0.148 A 
ATOM     87  C   UNL A   1      46.345  34.700  30.896  1.00  0.00     0.002 A 
ATOM     88  C   UNL A   1      45.204  35.705  29.005  1.00  0.00     0.091 A 
ATOM     89  F   UNL A   1      43.722  34.370  27.696  1.00  0.00    -0.205 F 
ATOM     90  C   UNL A   1      46.072  35.813  30.105  1.00  0.00     0.022 A 
BRANCH  88  91
ATOM     91  S   UNL A   1      44.984  37.166  27.984  1.00  0.00     0.127 S 
ATOM     92  O   UNL A   1      43.540  37.375  28.067  1.00  0.00    -0.237 OA
ATOM     93  O   UNL A   1      45.785  38.165  28.692  1.00  0.00    -0.237 OA
ATOM     94  O   UNL A   1      45.493  36.812  26.666  1.00  0.00    -0.744 OA
ENDBRANCH  88  91
ENDBRANCH  61  84
ENDBRANCH  35  36
ENDBRANCH  27  30
ENDBRANCH  25  26
ENDBRANCH  24  25
ENDBRANCH  23  24
ENDBRANCH   1  23
TORSDOF 21
ENDMDL
