MODEL 1
REMARK VINA RESULT:     -11.9      0.000      0.000
REMARK SMILES C[C@H](C(=O)NCCCCCCNC(=O)c1ccc(-c2c3nc(c(-c4cccc(S(=O)(=O)[O-])c4F)c4ccc([nH]4)c(-c4cccc(S(=O)(=O)[O-])c4F)c4nc(c(-c5cccc(S(=O)(=O)[O-])c5F)c5ccc2[nH]5)C=C4)C=C3)cc1)[C@@H](C)Nc1cccc2ccccc12
REMARK SMILES IDX 8 1 7 2 6 3 5 4 3 5 4 6 2 8 1 9 78 10 79 11 80 12 81 14
REMARK SMILES IDX 82 15 90 16 83 17 85 18 89 19 84 20 86 21 88 22 87 23 9 24
REMARK SMILES IDX 10 25 11 26 12 27 13 28 14 30 15 31 16 32 77 33 17 34 76 35
REMARK SMILES IDX 18 36 19 37 20 38 70 39 21 40 75 41 69 42 71 43 22 44 74 45
REMARK SMILES IDX 68 46 67 47 23 49 55 50 35 51 54 52 36 53 39 54 53 55 72 56
REMARK SMILES IDX 37 57 38 58 52 60 73 61 40 62 24 63 25 64 33 65 26 66 28 67
REMARK SMILES IDX 34 68 27 69 29 70 30 71 31 72 32 73 56 74 57 75 65 76 58 77
REMARK SMILES IDX 60 78 66 79 59 80 61 81 62 82 63 83 64 84 41 85 42 86 50 87
REMARK SMILES IDX 43 88 45 89 51 90 44 91 46 92 47 93 48 94 49 95
REMARK H PARENT 5 7 80 13 12 29 71 48 39 59
REMARK Flexibility Score: inf
ROOT
ATOM      1  C   UNL A   1      34.670  20.201  25.032  1.00  0.00     0.002 C 
ENDROOT
BRANCH   1   2
ATOM      2  C   UNL A   1      33.331  20.339  24.307  1.00  0.00     0.021 C 
BRANCH   2   3
ATOM      3  C   UNL A   1      32.305  21.219  25.011  1.00  0.00     0.116 C 
BRANCH   3   4
ATOM      4  N   UNL A   1      32.584  21.394  26.424  1.00  0.00    -0.356 N 
ATOM      5  C   UNL A   1      32.520  22.480  27.233  1.00  0.00     0.224 C 
ATOM      6  O   UNL A   1      32.813  22.316  28.422  1.00  0.00    -0.275 OA
ATOM      7  H   UNL A   1      32.874  20.571  26.880  1.00  0.00     0.163 HD
BRANCH   5   8
ATOM      8  C   UNL A   1      32.114  23.863  26.738  1.00  0.00     0.097 C 
ATOM      9  C   UNL A   1      33.121  24.398  25.719  1.00  0.00     0.020 C 
BRANCH   8  10
ATOM     10  C   UNL A   1      30.646  23.948  26.261  1.00  0.00     0.088 C 
ATOM     11  C   UNL A   1      29.734  23.020  27.072  1.00  0.00     0.031 C 
BRANCH  10  12
ATOM     12  N   UNL A   1      30.163  25.309  26.447  1.00  0.00    -0.381 N 
ATOM     13  H   UNL A   1      29.626  25.450  27.260  1.00  0.00     0.160 HD
BRANCH  12  14
ATOM     14  C   UNL A   1      30.341  26.438  25.661  1.00  0.00     0.042 A 
ATOM     15  C   UNL A   1      29.607  26.421  24.454  1.00  0.00     0.026 A 
ATOM     16  C   UNL A   1      31.174  27.573  25.933  1.00  0.00     0.005 A 
ATOM     17  C   UNL A   1      29.748  27.405  23.484  1.00  0.00     0.003 A 
ATOM     18  C   UNL A   1      31.359  28.533  24.892  1.00  0.00    -0.016 A 
ATOM     19  C   UNL A   1      31.886  27.830  27.135  1.00  0.00     0.011 A 
ATOM     20  C   UNL A   1      30.656  28.429  23.687  1.00  0.00     0.009 A 
ATOM     21  C   UNL A   1      32.251  29.607  25.045  1.00  0.00     0.009 A 
ATOM     22  C   UNL A   1      32.710  28.951  27.301  1.00  0.00     0.001 A 
ATOM     23  C   UNL A   1      32.917  29.823  26.245  1.00  0.00     0.001 A 
ENDBRANCH  12  14
ENDBRANCH  10  12
ENDBRANCH   8  10
ENDBRANCH   5   8
ENDBRANCH   3   4
ENDBRANCH   2   3
ENDBRANCH   1   2
BRANCH   1  24
ATOM     24  C   UNL A   1      35.738  21.226  24.643  1.00  0.00     0.002 C 
BRANCH  24  25
ATOM     25  C   UNL A   1      37.173  20.697  24.584  1.00  0.00     0.021 C 
BRANCH  25  26
ATOM     26  C   UNL A   1      38.178  21.434  25.464  1.00  0.00     0.116 C 
BRANCH  26  27
ATOM     27  N   UNL A   1      39.180  20.545  26.029  1.00  0.00    -0.352 N 
ATOM     28  C   UNL A   1      40.365  20.841  26.654  1.00  0.00     0.251 C 
ATOM     29  H   UNL A   1      38.978  19.585  25.948  1.00  0.00     0.163 HD
ATOM     30  O   UNL A   1      41.154  19.935  26.909  1.00  0.00    -0.269 OA
BRANCH  28  31
ATOM     31  C   UNL A   1      40.707  22.239  27.006  1.00  0.00     0.039 A 
ATOM     32  C   UNL A   1      41.440  22.473  28.172  1.00  0.00     0.014 A 
ATOM     33  C   UNL A   1      40.292  23.317  26.218  1.00  0.00     0.014 A 
ATOM     34  C   UNL A   1      41.798  23.777  28.520  1.00  0.00     0.010 A 
ATOM     35  C   UNL A   1      40.716  24.611  26.526  1.00  0.00     0.010 A 
ATOM     36  C   UNL A   1      41.466  24.857  27.684  1.00  0.00    -0.014 A 
BRANCH  36  37
ATOM     37  C   UNL A   1      41.921  26.236  28.011  1.00  0.00     0.031 A 
ATOM     38  C   UNL A   1      43.331  26.677  27.710  1.00  0.00     0.074 A 
ATOM     39  C   UNL A   1      41.073  27.083  28.627  1.00  0.00     0.049 A 
ATOM     40  N   UNL A   1      43.893  27.839  27.925  1.00  0.00    -0.248 NA
ATOM     41  C   UNL A   1      44.233  25.680  27.111  1.00  0.00     0.031 C 
ATOM     42  C   UNL A   1      39.710  26.752  29.055  1.00  0.00     0.029 A 
ATOM     43  N   UNL A   1      41.233  28.389  29.020  1.00  0.00    -0.354 N 
ATOM     44  C   UNL A   1      45.211  27.711  27.503  1.00  0.00     0.074 A 
ATOM     45  C   UNL A   1      45.380  26.343  27.065  1.00  0.00     0.031 C 
ATOM     46  C   UNL A   1      39.161  27.826  29.645  1.00  0.00     0.029 A 
ATOM     47  C   UNL A   1      40.135  28.912  29.661  1.00  0.00     0.049 A 
ATOM     48  H   UNL A   1      42.057  28.902  28.859  1.00  0.00     0.167 HD
ATOM     49  C   UNL A   1      46.184  28.653  27.449  1.00  0.00     0.034 A 
ATOM     50  C   UNL A   1      39.934  30.127  30.210  1.00  0.00     0.034 A 
ATOM     51  C   UNL A   1      46.009  30.021  27.863  1.00  0.00     0.049 A 
ATOM     52  C   UNL A   1      41.019  31.164  30.105  1.00  0.00     0.074 A 
ATOM     53  C   UNL A   1      46.917  31.063  27.793  1.00  0.00     0.029 A 
ATOM     54  N   UNL A   1      44.853  30.536  28.428  1.00  0.00    -0.354 N 
ATOM     55  N   UNL A   1      42.208  31.064  29.562  1.00  0.00    -0.248 NA
ATOM     56  C   UNL A   1      40.719  32.496  30.650  1.00  0.00     0.031 C 
ATOM     57  C   UNL A   1      46.316  32.204  28.336  1.00  0.00     0.029 A 
ATOM     58  C   UNL A   1      45.024  31.881  28.713  1.00  0.00     0.049 A 
ATOM     59  H   UNL A   1      44.032  30.022  28.601  1.00  0.00     0.167 HD
ATOM     60  C   UNL A   1      42.784  32.325  29.670  1.00  0.00     0.074 A 
ATOM     61  C   UNL A   1      41.799  33.180  30.301  1.00  0.00     0.031 C 
ATOM     62  C   UNL A   1      44.020  32.734  29.297  1.00  0.00     0.034 A 
BRANCH  49  63
ATOM     63  C   UNL A   1      47.512  28.254  26.857  1.00  0.00     0.023 A 
ATOM     64  C   UNL A   1      48.619  28.067  27.712  1.00  0.00     0.012 A 
ATOM     65  C   UNL A   1      47.655  27.996  25.480  1.00  0.00     0.148 A 
ATOM     66  C   UNL A   1      49.852  27.662  27.204  1.00  0.00     0.002 A 
ATOM     67  C   UNL A   1      48.876  27.548  24.987  1.00  0.00     0.091 A 
ATOM     68  F   UNL A   1      46.598  28.193  24.679  1.00  0.00    -0.205 F 
ATOM     69  C   UNL A   1      49.978  27.392  25.845  1.00  0.00     0.022 A 
BRANCH  67  70
ATOM     70  S   UNL A   1      49.127  27.096  23.266  1.00  0.00     0.127 S 
ATOM     71  O   UNL A   1      48.662  28.296  22.575  1.00  0.00    -0.237 OA
ATOM     72  O   UNL A   1      50.572  26.881  23.213  1.00  0.00    -0.237 OA
ATOM     73  O   UNL A   1      48.324  25.900  23.043  1.00  0.00    -0.744 OA
ENDBRANCH  67  70
ENDBRANCH  49  63
BRANCH  50  74
ATOM     74  C   UNL A   1      38.634  30.445  30.866  1.00  0.00     0.023 A 
ATOM     75  C   UNL A   1      38.399  30.036  32.193  1.00  0.00     0.012 A 
ATOM     76  C   UNL A   1      37.631  31.158  30.181  1.00  0.00     0.148 A 
ATOM     77  C   UNL A   1      37.174  30.292  32.811  1.00  0.00     0.002 A 
ATOM     78  C   UNL A   1      36.437  31.464  30.823  1.00  0.00     0.091 A 
ATOM     79  F   UNL A   1      37.866  31.529  28.915  1.00  0.00    -0.205 F 
ATOM     80  C   UNL A   1      36.197  31.013  32.129  1.00  0.00     0.022 A 
BRANCH  78  81
ATOM     81  S   UNL A   1      35.185  32.508  30.067  1.00  0.00     0.127 S 
ATOM     82  O   UNL A   1      34.714  31.665  28.972  1.00  0.00    -0.237 OA
ATOM     83  O   UNL A   1      34.233  32.681  31.165  1.00  0.00    -0.237 OA
ATOM     84  O   UNL A   1      35.877  33.729  29.679  1.00  0.00    -0.744 OA
ENDBRANCH  78  81
ENDBRANCH  50  74
BRANCH  62  85
ATOM     85  C   UNL A   1      44.373  34.182  29.528  1.00  0.00     0.023 A 
ATOM     86  C   UNL A   1      44.775  34.613  30.807  1.00  0.00     0.012 A 
ATOM     87  C   UNL A   1      44.349  35.104  28.463  1.00  0.00     0.148 A 
ATOM     88  C   UNL A   1      45.104  35.949  31.035  1.00  0.00     0.002 A 
ATOM     89  C   UNL A   1      44.729  36.423  28.685  1.00  0.00     0.091 A 
ATOM     90  F   UNL A   1      43.946  34.680  27.256  1.00  0.00    -0.205 F 
ATOM     91  C   UNL A   1      45.091  36.851  29.973  1.00  0.00     0.022 A 
BRANCH  89  92
ATOM     92  S   UNL A   1      44.834  37.630  27.360  1.00  0.00     0.127 S 
ATOM     93  O   UNL A   1      45.674  36.933  26.388  1.00  0.00    -0.237 OA
ATOM     94  O   UNL A   1      43.434  37.778  26.962  1.00  0.00    -0.237 OA
ATOM     95  O   UNL A   1      45.421  38.825  27.952  1.00  0.00    -0.744 OA
ENDBRANCH  89  92
ENDBRANCH  62  85
ENDBRANCH  36  37
ENDBRANCH  28  31
ENDBRANCH  26  27
ENDBRANCH  25  26
ENDBRANCH  24  25
ENDBRANCH   1  24
TORSDOF 19
ENDMDL
MODEL 2
REMARK VINA RESULT:     -11.8      5.193     10.489
REMARK SMILES C[C@H](C(=O)NCCCCCCNC(=O)c1ccc(-c2c3nc(c(-c4cccc(S(=O)(=O)[O-])c4F)c4ccc([nH]4)c(-c4cccc(S(=O)(=O)[O-])c4F)c4nc(c(-c5cccc(S(=O)(=O)[O-])c5F)c5ccc2[nH]5)C=C4)C=C3)cc1)[C@@H](C)Nc1cccc2ccccc12
REMARK SMILES IDX 8 1 7 2 6 3 5 4 3 5 4 6 2 8 1 9 78 10 79 11 80 12 81 14
REMARK SMILES IDX 82 15 90 16 83 17 85 18 89 19 84 20 86 21 88 22 87 23 9 24
REMARK SMILES IDX 10 25 11 26 12 27 13 28 14 30 15 31 16 32 77 33 17 34 76 35
REMARK SMILES IDX 18 36 19 37 20 38 70 39 21 40 75 41 69 42 71 43 22 44 74 45
REMARK SMILES IDX 68 46 67 47 23 49 55 50 35 51 54 52 36 53 39 54 53 55 72 56
REMARK SMILES IDX 37 57 38 58 52 60 73 61 40 62 24 63 25 64 33 65 26 66 28 67
REMARK SMILES IDX 34 68 27 69 29 70 30 71 31 72 32 73 56 74 57 75 65 76 58 77
REMARK SMILES IDX 60 78 66 79 59 80 61 81 62 82 63 83 64 84 41 85 42 86 50 87
REMARK SMILES IDX 43 88 45 89 51 90 44 91 46 92 47 93 48 94 49 95
REMARK H PARENT 5 7 80 13 12 29 71 48 39 59
REMARK Flexibility Score: inf
ROOT
ATOM      1  C   UNL A   1      33.197  27.749  25.714  1.00  0.00     0.002 C 
ENDROOT
BRANCH   1   2
ATOM      2  C   UNL A   1      33.951  27.240  24.485  1.00  0.00     0.021 C 
BRANCH   2   3
ATOM      3  C   UNL A   1      33.691  28.019  23.201  1.00  0.00     0.116 C 
BRANCH   3   4
ATOM      4  N   UNL A   1      32.823  27.313  22.277  1.00  0.00    -0.356 N 
ATOM      5  C   UNL A   1      31.478  27.144  22.247  1.00  0.00     0.224 C 
ATOM      6  O   UNL A   1      31.013  26.487  21.309  1.00  0.00    -0.275 OA
ATOM      7  H   UNL A   1      33.298  26.876  21.535  1.00  0.00     0.163 HD
BRANCH   5   8
ATOM      8  C   UNL A   1      30.543  27.715  23.306  1.00  0.00     0.097 C 
ATOM      9  C   UNL A   1      29.546  28.695  22.686  1.00  0.00     0.020 C 
BRANCH   8  10
ATOM     10  C   UNL A   1      29.883  26.641  24.199  1.00  0.00     0.088 C 
ATOM     11  C   UNL A   1      28.387  26.500  23.902  1.00  0.00     0.031 C 
BRANCH  10  12
ATOM     12  N   UNL A   1      30.506  25.352  23.933  1.00  0.00    -0.381 N 
ATOM     13  H   UNL A   1      30.285  24.958  23.058  1.00  0.00     0.160 HD
BRANCH  12  14
ATOM     14  C   UNL A   1      31.361  24.591  24.717  1.00  0.00     0.042 A 
ATOM     15  C   UNL A   1      30.948  24.460  26.062  1.00  0.00     0.026 A 
ATOM     16  C   UNL A   1      32.584  23.957  24.318  1.00  0.00     0.005 A 
ATOM     17  C   UNL A   1      31.733  23.838  27.023  1.00  0.00     0.003 A 
ATOM     18  C   UNL A   1      33.408  23.388  25.336  1.00  0.00    -0.016 A 
ATOM     19  C   UNL A   1      33.099  23.871  22.997  1.00  0.00     0.011 A 
ATOM     20  C   UNL A   1      32.978  23.348  26.667  1.00  0.00     0.009 A 
ATOM     21  C   UNL A   1      34.672  22.856  25.035  1.00  0.00     0.009 A 
ATOM     22  C   UNL A   1      34.327  23.263  22.701  1.00  0.00     0.001 A 
ATOM     23  C   UNL A   1      35.128  22.783  23.724  1.00  0.00     0.001 A 
ENDBRANCH  12  14
ENDBRANCH  10  12
ENDBRANCH   8  10
ENDBRANCH   5   8
ENDBRANCH   3   4
ENDBRANCH   2   3
ENDBRANCH   1   2
BRANCH   1  24
ATOM     24  C   UNL A   1      33.684  29.086  26.278  1.00  0.00     0.002 C 
BRANCH  24  25
ATOM     25  C   UNL A   1      32.787  30.293  25.990  1.00  0.00     0.021 C 
BRANCH  25  26
ATOM     26  C   UNL A   1      32.292  31.047  27.220  1.00  0.00     0.116 C 
BRANCH  26  27
ATOM     27  N   UNL A   1      32.561  32.473  27.143  1.00  0.00    -0.352 N 
ATOM     28  C   UNL A   1      33.611  33.198  27.647  1.00  0.00     0.251 C 
ATOM     29  H   UNL A   1      31.885  32.999  26.657  1.00  0.00     0.163 HD
ATOM     30  O   UNL A   1      33.565  34.425  27.619  1.00  0.00    -0.269 OA
BRANCH  28  31
ATOM     31  C   UNL A   1      34.786  32.517  28.239  1.00  0.00     0.039 A 
ATOM     32  C   UNL A   1      36.053  33.069  28.028  1.00  0.00     0.014 A 
ATOM     33  C   UNL A   1      34.657  31.333  28.972  1.00  0.00     0.014 A 
ATOM     34  C   UNL A   1      37.179  32.464  28.592  1.00  0.00     0.010 A 
ATOM     35  C   UNL A   1      35.773  30.773  29.597  1.00  0.00     0.010 A 
ATOM     36  C   UNL A   1      37.047  31.326  29.408  1.00  0.00    -0.014 A 
BRANCH  36  37
ATOM     37  C   UNL A   1      38.236  30.732  30.076  1.00  0.00     0.031 A 
ATOM     38  C   UNL A   1      38.634  31.158  31.466  1.00  0.00     0.074 A 
ATOM     39  C   UNL A   1      38.992  29.837  29.409  1.00  0.00     0.049 A 
ATOM     40  N   UNL A   1      39.636  30.742  32.198  1.00  0.00    -0.248 NA
ATOM     41  C   UNL A   1      37.816  32.198  32.111  1.00  0.00     0.031 C 
ATOM     42  C   UNL A   1      38.768  29.408  28.025  1.00  0.00     0.029 A 
ATOM     43  N   UNL A   1      40.111  29.142  29.793  1.00  0.00    -0.354 N 
ATOM     44  C   UNL A   1      39.579  31.475  33.378  1.00  0.00     0.074 A 
ATOM     45  C   UNL A   1      38.473  32.398  33.245  1.00  0.00     0.031 C 
ATOM     46  C   UNL A   1      39.715  28.522  27.681  1.00  0.00     0.029 A 
ATOM     47  C   UNL A   1      40.628  28.337  28.804  1.00  0.00     0.049 A 
ATOM     48  H   UNL A   1      40.508  29.213  30.691  1.00  0.00     0.167 HD
ATOM     49  C   UNL A   1      40.351  31.368  34.486  1.00  0.00     0.034 A 
ATOM     50  C   UNL A   1      41.718  27.545  28.797  1.00  0.00     0.034 A 
ATOM     51  C   UNL A   1      41.438  30.434  34.628  1.00  0.00     0.049 A 
ATOM     52  C   UNL A   1      42.538  27.419  30.052  1.00  0.00     0.074 A 
ATOM     53  C   UNL A   1      42.241  30.210  35.732  1.00  0.00     0.029 A 
ATOM     54  N   UNL A   1      41.877  29.573  33.634  1.00  0.00    -0.354 N 
ATOM     55  N   UNL A   1      42.372  28.011  31.210  1.00  0.00    -0.248 NA
ATOM     56  C   UNL A   1      43.670  26.482  30.015  1.00  0.00     0.031 C 
ATOM     57  C   UNL A   1      43.180  29.228  35.399  1.00  0.00     0.029 A 
ATOM     58  C   UNL A   1      42.941  28.817  34.099  1.00  0.00     0.049 A 
ATOM     59  H   UNL A   1      41.489  29.508  32.732  1.00  0.00     0.167 HD
ATOM     60  C   UNL A   1      43.355  27.495  32.047  1.00  0.00     0.074 A 
ATOM     61  C   UNL A   1      44.092  26.518  31.271  1.00  0.00     0.031 C 
ATOM     62  C   UNL A   1      43.635  27.813  33.333  1.00  0.00     0.034 A 
BRANCH  49  63
ATOM     63  C   UNL A   1      40.006  32.240  35.667  1.00  0.00     0.023 A 
ATOM     64  C   UNL A   1      40.644  33.490  35.811  1.00  0.00     0.012 A 
ATOM     65  C   UNL A   1      39.010  31.866  36.590  1.00  0.00     0.148 A 
ATOM     66  C   UNL A   1      40.322  34.338  36.869  1.00  0.00     0.002 A 
ATOM     67  C   UNL A   1      38.662  32.736  37.617  1.00  0.00     0.091 A 
ATOM     68  F   UNL A   1      38.424  30.668  36.449  1.00  0.00    -0.205 F 
ATOM     69  C   UNL A   1      39.324  33.967  37.765  1.00  0.00     0.022 A 
BRANCH  67  70
ATOM     70  S   UNL A   1      37.336  32.393  38.781  1.00  0.00     0.127 S 
ATOM     71  O   UNL A   1      36.173  32.906  38.062  1.00  0.00    -0.237 OA
ATOM     72  O   UNL A   1      37.394  30.936  38.889  1.00  0.00    -0.237 OA
ATOM     73  O   UNL A   1      37.677  33.109  40.004  1.00  0.00    -0.744 OA
ENDBRANCH  67  70
ENDBRANCH  49  63
BRANCH  50  74
ATOM     74  C   UNL A   1      42.072  26.771  27.573  1.00  0.00     0.023 A 
ATOM     75  C   UNL A   1      42.667  27.424  26.477  1.00  0.00     0.012 A 
ATOM     76  C   UNL A   1      41.826  25.386  27.494  1.00  0.00     0.148 A 
ATOM     77  C   UNL A   1      42.971  26.723  25.309  1.00  0.00     0.002 A 
ATOM     78  C   UNL A   1      42.187  24.682  26.352  1.00  0.00     0.091 A 
ATOM     79  F   UNL A   1      41.247  24.782  28.542  1.00  0.00    -0.205 F 
ATOM     80  C   UNL A   1      42.739  25.351  25.250  1.00  0.00     0.022 A 
BRANCH  78  81
ATOM     81  S   UNL A   1      42.052  22.894  26.248  1.00  0.00     0.127 S 
ATOM     82  O   UNL A   1      40.606  22.699  26.310  1.00  0.00    -0.237 OA
ATOM     83  O   UNL A   1      42.656  22.619  24.944  1.00  0.00    -0.237 OA
ATOM     84  O   UNL A   1      42.812  22.378  27.378  1.00  0.00    -0.744 OA
ENDBRANCH  78  81
ENDBRANCH  50  74
BRANCH  62  85
ATOM     85  C   UNL A   1      44.766  27.073  34.003  1.00  0.00     0.023 A 
ATOM     86  C   UNL A   1      46.087  27.548  33.881  1.00  0.00     0.012 A 
ATOM     87  C   UNL A   1      44.511  25.933  34.790  1.00  0.00     0.148 A 
ATOM     88  C   UNL A   1      47.142  26.874  34.494  1.00  0.00     0.002 A 
ATOM     89  C   UNL A   1      45.561  25.297  35.442  1.00  0.00     0.091 A 
ATOM     90  F   UNL A   1      43.250  25.485  34.880  1.00  0.00    -0.205 F 
ATOM     91  C   UNL A   1      46.879  25.756  35.283  1.00  0.00     0.022 A 
BRANCH  89  92
ATOM     92  S   UNL A   1      45.305  23.910  36.553  1.00  0.00     0.127 S 
ATOM     93  O   UNL A   1      44.603  22.962  35.690  1.00  0.00    -0.237 OA
ATOM     94  O   UNL A   1      46.676  23.526  36.891  1.00  0.00    -0.237 OA
ATOM     95  O   UNL A   1      44.531  24.430  37.672  1.00  0.00    -0.744 OA
ENDBRANCH  89  92
ENDBRANCH  62  85
ENDBRANCH  36  37
ENDBRANCH  28  31
ENDBRANCH  26  27
ENDBRANCH  25  26
ENDBRANCH  24  25
ENDBRANCH   1  24
TORSDOF 19
ENDMDL
MODEL 3
REMARK VINA RESULT:     -11.6      5.749      9.429
REMARK SMILES C[C@H](C(=O)NCCCCCCNC(=O)c1ccc(-c2c3nc(c(-c4cccc(S(=O)(=O)[O-])c4F)c4ccc([nH]4)c(-c4cccc(S(=O)(=O)[O-])c4F)c4nc(c(-c5cccc(S(=O)(=O)[O-])c5F)c5ccc2[nH]5)C=C4)C=C3)cc1)[C@@H](C)Nc1cccc2ccccc12
REMARK SMILES IDX 8 1 7 2 6 3 5 4 3 5 4 6 2 8 1 9 78 10 79 11 80 12 81 14
REMARK SMILES IDX 82 15 90 16 83 17 85 18 89 19 84 20 86 21 88 22 87 23 9 24
REMARK SMILES IDX 10 25 11 26 12 27 13 28 14 30 15 31 16 32 77 33 17 34 76 35
REMARK SMILES IDX 18 36 19 37 20 38 70 39 21 40 75 41 69 42 71 43 22 44 74 45
REMARK SMILES IDX 68 46 67 47 23 49 55 50 35 51 54 52 36 53 39 54 53 55 72 56
REMARK SMILES IDX 37 57 38 58 52 60 73 61 40 62 24 63 25 64 33 65 26 66 28 67
REMARK SMILES IDX 34 68 27 69 29 70 30 71 31 72 32 73 56 74 57 75 65 76 58 77
REMARK SMILES IDX 60 78 66 79 59 80 61 81 62 82 63 83 64 84 41 85 42 86 50 87
REMARK SMILES IDX 43 88 45 89 51 90 44 91 46 92 47 93 48 94 49 95
REMARK H PARENT 5 7 80 13 12 29 71 48 39 59
REMARK Flexibility Score: inf
ROOT
ATOM      1  C   UNL A   1      31.398  29.945  25.100  1.00  0.00     0.002 C 
ENDROOT
BRANCH   1   2
ATOM      2  C   UNL A   1      32.373  28.913  24.530  1.00  0.00     0.021 C 
BRANCH   2   3
ATOM      3  C   UNL A   1      31.743  27.867  23.618  1.00  0.00     0.116 C 
BRANCH   3   4
ATOM      4  N   UNL A   1      32.690  26.867  23.164  1.00  0.00    -0.356 N 
ATOM      5  C   UNL A   1      32.794  25.537  23.413  1.00  0.00     0.224 C 
ATOM      6  O   UNL A   1      33.720  24.931  22.864  1.00  0.00    -0.275 OA
ATOM      7  H   UNL A   1      33.388  27.217  22.566  1.00  0.00     0.163 HD
BRANCH   5   8
ATOM      8  C   UNL A   1      31.834  24.785  24.327  1.00  0.00     0.097 C 
ATOM      9  C   UNL A   1      30.706  24.137  23.523  1.00  0.00     0.020 C 
BRANCH   8  10
ATOM     10  C   UNL A   1      32.536  23.814  25.303  1.00  0.00     0.088 C 
ATOM     11  C   UNL A   1      31.691  23.565  26.557  1.00  0.00     0.031 C 
BRANCH  10  12
ATOM     12  N   UNL A   1      32.728  22.531  24.642  1.00  0.00    -0.381 N 
ATOM     13  H   UNL A   1      32.046  22.305  23.969  1.00  0.00     0.160 HD
BRANCH  12  14
ATOM     14  C   UNL A   1      33.720  21.576  24.810  1.00  0.00     0.042 A 
ATOM     15  C   UNL A   1      34.962  22.102  25.233  1.00  0.00     0.026 A 
ATOM     16  C   UNL A   1      33.621  20.162  24.593  1.00  0.00     0.005 A 
ATOM     17  C   UNL A   1      36.103  21.320  25.339  1.00  0.00     0.003 A 
ATOM     18  C   UNL A   1      34.823  19.392  24.637  1.00  0.00    -0.016 A 
ATOM     19  C   UNL A   1      32.440  19.434  24.289  1.00  0.00     0.011 A 
ATOM     20  C   UNL A   1      36.040  19.981  24.996  1.00  0.00     0.009 A 
ATOM     21  C   UNL A   1      34.820  18.024  24.320  1.00  0.00     0.009 A 
ATOM     22  C   UNL A   1      32.441  18.052  24.055  1.00  0.00     0.001 A 
ATOM     23  C   UNL A   1      33.636  17.352  24.040  1.00  0.00     0.001 A 
ENDBRANCH  12  14
ENDBRANCH  10  12
ENDBRANCH   8  10
ENDBRANCH   5   8
ENDBRANCH   3   4
ENDBRANCH   2   3
ENDBRANCH   1   2
BRANCH   1  24
ATOM     24  C   UNL A   1      31.704  30.423  26.522  1.00  0.00     0.002 C 
BRANCH  24  25
ATOM     25  C   UNL A   1      31.535  31.925  26.766  1.00  0.00     0.021 C 
BRANCH  25  26
ATOM     26  C   UNL A   1      32.814  32.676  27.123  1.00  0.00     0.116 C 
BRANCH  26  27
ATOM     27  N   UNL A   1      32.554  34.036  27.565  1.00  0.00    -0.352 N 
ATOM     28  C   UNL A   1      33.109  34.744  28.602  1.00  0.00     0.251 C 
ATOM     29  H   UNL A   1      31.877  34.522  27.042  1.00  0.00     0.163 HD
ATOM     30  O   UNL A   1      32.627  35.829  28.916  1.00  0.00    -0.269 OA
BRANCH  28  31
ATOM     31  C   UNL A   1      34.266  34.204  29.353  1.00  0.00     0.039 A 
ATOM     32  C   UNL A   1      34.021  33.451  30.504  1.00  0.00     0.014 A 
ATOM     33  C   UNL A   1      35.582  34.454  28.954  1.00  0.00     0.014 A 
ATOM     34  C   UNL A   1      35.089  32.908  31.222  1.00  0.00     0.010 A 
ATOM     35  C   UNL A   1      36.644  33.849  29.628  1.00  0.00     0.010 A 
ATOM     36  C   UNL A   1      36.411  33.076  30.774  1.00  0.00    -0.014 A 
BRANCH  36  37
ATOM     37  C   UNL A   1      37.542  32.427  31.491  1.00  0.00     0.031 A 
ATOM     38  C   UNL A   1      38.291  31.275  30.873  1.00  0.00     0.074 A 
ATOM     39  C   UNL A   1      37.867  32.848  32.731  1.00  0.00     0.049 A 
ATOM     40  N   UNL A   1      39.301  30.597  31.355  1.00  0.00    -0.248 NA
ATOM     41  C   UNL A   1      37.836  30.809  29.553  1.00  0.00     0.031 C 
ATOM     42  C   UNL A   1      37.164  33.893  33.479  1.00  0.00     0.029 A 
ATOM     43  N   UNL A   1      38.857  32.437  33.588  1.00  0.00    -0.354 N 
ATOM     44  C   UNL A   1      39.592  29.620  30.410  1.00  0.00     0.074 A 
ATOM     45  C   UNL A   1      38.621  29.761  29.348  1.00  0.00     0.031 C 
ATOM     46  C   UNL A   1      37.747  34.043  34.679  1.00  0.00     0.029 A 
ATOM     47  C   UNL A   1      38.847  33.092  34.798  1.00  0.00     0.049 A 
ATOM     48  H   UNL A   1      39.512  31.739  33.360  1.00  0.00     0.167 HD
ATOM     49  C   UNL A   1      40.598  28.711  30.405  1.00  0.00     0.034 A 
ATOM     50  C   UNL A   1      39.628  32.940  35.885  1.00  0.00     0.034 A 
ATOM     51  C   UNL A   1      41.578  28.585  31.452  1.00  0.00     0.049 A 
ATOM     52  C   UNL A   1      40.758  31.947  35.840  1.00  0.00     0.074 A 
ATOM     53  C   UNL A   1      42.669  27.735  31.511  1.00  0.00     0.029 A 
ATOM     54  N   UNL A   1      41.587  29.326  32.624  1.00  0.00    -0.354 N 
ATOM     55  N   UNL A   1      41.108  31.138  34.870  1.00  0.00    -0.248 NA
ATOM     56  C   UNL A   1      41.628  31.877  37.023  1.00  0.00     0.031 C 
ATOM     57  C   UNL A   1      43.325  27.947  32.729  1.00  0.00     0.029 A 
ATOM     58  C   UNL A   1      42.662  28.952  33.413  1.00  0.00     0.049 A 
ATOM     59  H   UNL A   1      40.927  30.017  32.859  1.00  0.00     0.167 HD
ATOM     60  C   UNL A   1      42.256  30.488  35.311  1.00  0.00     0.074 A 
ATOM     61  C   UNL A   1      42.559  31.023  36.623  1.00  0.00     0.031 C 
ATOM     62  C   UNL A   1      42.982  29.525  34.695  1.00  0.00     0.034 A 
BRANCH  49  63
ATOM     63  C   UNL A   1      40.731  27.821  29.196  1.00  0.00     0.023 A 
ATOM     64  C   UNL A   1      39.926  26.665  29.099  1.00  0.00     0.012 A 
ATOM     65  C   UNL A   1      41.589  28.153  28.130  1.00  0.00     0.148 A 
ATOM     66  C   UNL A   1      39.996  25.840  27.978  1.00  0.00     0.002 A 
ATOM     67  C   UNL A   1      41.620  27.349  26.995  1.00  0.00     0.091 A 
ATOM     68  F   UNL A   1      42.358  29.245  28.245  1.00  0.00    -0.205 F 
ATOM     69  C   UNL A   1      40.834  26.187  26.923  1.00  0.00     0.022 A 
BRANCH  67  70
ATOM     70  S   UNL A   1      42.605  27.746  25.545  1.00  0.00     0.127 S 
ATOM     71  O   UNL A   1      42.373  26.575  24.702  1.00  0.00    -0.237 OA
ATOM     72  O   UNL A   1      41.970  28.975  25.071  1.00  0.00    -0.237 OA
ATOM     73  O   UNL A   1      43.973  27.910  26.020  1.00  0.00    -0.744 OA
ENDBRANCH  67  70
ENDBRANCH  49  63
BRANCH  50  74
ATOM     74  C   UNL A   1      39.400  33.782  37.094  1.00  0.00     0.023 A 
ATOM     75  C   UNL A   1      39.837  35.121  37.110  1.00  0.00     0.012 A 
ATOM     76  C   UNL A   1      38.743  33.263  38.227  1.00  0.00     0.148 A 
ATOM     77  C   UNL A   1      39.665  35.913  38.246  1.00  0.00     0.002 A 
ATOM     78  C   UNL A   1      38.520  34.075  39.332  1.00  0.00     0.091 A 
ATOM     79  F   UNL A   1      38.345  31.983  38.199  1.00  0.00    -0.205 F 
ATOM     80  C   UNL A   1      38.999  35.393  39.353  1.00  0.00     0.022 A 
BRANCH  78  81
ATOM     81  S   UNL A   1      37.549  33.527  40.741  1.00  0.00     0.127 S 
ATOM     82  O   UNL A   1      37.444  34.753  41.527  1.00  0.00    -0.237 OA
ATOM     83  O   UNL A   1      36.306  33.095  40.102  1.00  0.00    -0.237 OA
ATOM     84  O   UNL A   1      38.316  32.447  41.346  1.00  0.00    -0.744 OA
ENDBRANCH  78  81
ENDBRANCH  50  74
BRANCH  62  85
ATOM     85  C   UNL A   1      44.201  29.006  35.415  1.00  0.00     0.023 A 
ATOM     86  C   UNL A   1      45.460  29.594  35.180  1.00  0.00     0.012 A 
ATOM     87  C   UNL A   1      44.090  27.966  36.359  1.00  0.00     0.148 A 
ATOM     88  C   UNL A   1      46.596  29.126  35.838  1.00  0.00     0.002 A 
ATOM     89  C   UNL A   1      45.218  27.539  37.050  1.00  0.00     0.091 A 
ATOM     90  F   UNL A   1      42.888  27.406  36.557  1.00  0.00    -0.205 F 
ATOM     91  C   UNL A   1      46.474  28.107  36.780  1.00  0.00     0.022 A 
BRANCH  89  92
ATOM     92  S   UNL A   1      45.140  26.301  38.348  1.00  0.00     0.127 S 
ATOM     93  O   UNL A   1      46.305  26.647  39.161  1.00  0.00    -0.237 OA
ATOM     94  O   UNL A   1      43.851  26.591  38.977  1.00  0.00    -0.237 OA
ATOM     95  O   UNL A   1      45.205  25.010  37.676  1.00  0.00    -0.744 OA
ENDBRANCH  89  92
ENDBRANCH  62  85
ENDBRANCH  36  37
ENDBRANCH  28  31
ENDBRANCH  26  27
ENDBRANCH  25  26
ENDBRANCH  24  25
ENDBRANCH   1  24
TORSDOF 19
ENDMDL
