MODEL 1
REMARK VINA RESULT:     -11.7      0.000      0.000
REMARK SMILES Cc1c([C@@H]2[C@H](C(=O)NCCCCCCNC(=O)c3ccc(-c4c5nc(c(-c6cccc(S(=O)(=O)[O-])c6F)c6ccc([nH]6)c(-c6cccc(S(=O)(=O)[O-])c6F)c6nc(c(-c7cccc(S(=O)(=O)[O-])c7F)c7ccc4[nH]7)C=C6)C=C5)cc3)CC(=O)N2C(C)C)cnn1C
REMARK SMILES IDX 12 1 11 2 10 3 9 4 8 5 6 6 7 7 5 9 4 10 84 11 81 12 82 13
REMARK SMILES IDX 83 14 3 15 1 16 2 17 90 18 88 19 89 20 91 21 85 22 86 23
REMARK SMILES IDX 87 24 13 25 14 26 15 27 16 28 17 30 18 31 19 32 80 33 20 34
REMARK SMILES IDX 79 35 21 36 22 37 23 38 73 39 24 40 78 41 72 42 74 43 25 44
REMARK SMILES IDX 77 45 71 46 70 47 26 49 58 50 38 51 57 52 39 53 42 54 56 55
REMARK SMILES IDX 75 56 40 57 41 58 55 60 76 61 43 62 27 63 28 64 36 65 29 66
REMARK SMILES IDX 31 67 37 68 30 69 32 70 33 71 34 72 35 73 59 74 60 75 68 76
REMARK SMILES IDX 61 77 63 78 69 79 62 80 64 81 65 82 66 83 67 84 44 85 45 86
REMARK SMILES IDX 53 87 46 88 48 89 54 90 47 91 49 92 50 93 51 94 52 95
REMARK H PARENT 8 8 15 29 74 48 42 59
REMARK Flexibility Score: inf
ROOT
ATOM      1  C   UNL A   1      34.811  20.938  25.144  1.00  0.00     0.002 C 
ENDROOT
BRANCH   1   2
ATOM      2  C   UNL A   1      33.283  21.051  25.122  1.00  0.00     0.002 C 
BRANCH   2   3
ATOM      3  C   UNL A   1      32.662  21.114  23.726  1.00  0.00     0.021 C 
BRANCH   3   4
ATOM      4  C   UNL A   1      32.000  22.450  23.411  1.00  0.00     0.116 C 
BRANCH   4   5
ATOM      5  N   UNL A   1      31.664  23.165  24.632  1.00  0.00    -0.356 N 
ATOM      6  C   UNL A   1      31.884  24.415  25.099  1.00  0.00     0.226 C 
ATOM      7  O   UNL A   1      31.504  24.616  26.261  1.00  0.00    -0.275 OA
ATOM      8  H   UNL A   1      31.159  22.608  25.267  1.00  0.00     0.163 HD
BRANCH   6   9
ATOM      9  C   UNL A   1      32.540  25.567  24.344  1.00  0.00     0.115 C 
ATOM     10  C   UNL A   1      31.818  26.903  24.312  1.00  0.00     0.132 C 
ATOM     11  N   UNL A   1      32.260  27.561  25.523  1.00  0.00    -0.332 N 
ATOM     12  C   UNL A   1      33.920  26.004  24.831  1.00  0.00     0.116 C 
ATOM     13  C   UNL A   1      33.602  27.204  25.715  1.00  0.00     0.224 C 
ATOM     14  O   UNL A   1      34.401  27.743  26.459  1.00  0.00    -0.275 OA
BRANCH  10  15
ATOM     15  C   UNL A   1      30.392  27.024  23.937  1.00  0.00     0.016 A 
ATOM     16  C   UNL A   1      30.534  29.159  22.431  1.00  0.00     0.067 C 
ATOM     17  C   UNL A   1      29.857  28.053  23.166  1.00  0.00     0.040 A 
ATOM     18  N   UNL A   1      28.498  27.909  23.249  1.00  0.00    -0.273 N 
ATOM     19  C   UNL A   1      29.275  26.211  24.233  1.00  0.00     0.141 A 
ATOM     20  N   UNL A   1      28.125  26.750  23.816  1.00  0.00    -0.181 NA
ATOM     21  C   UNL A   1      27.503  28.898  22.905  1.00  0.00     0.174 C 
ENDBRANCH  10  15
BRANCH  11  22
ATOM     22  C   UNL A   1      31.687  28.743  26.195  1.00  0.00     0.079 C 
ATOM     23  C   UNL A   1      31.562  28.566  27.705  1.00  0.00     0.031 C 
ATOM     24  C   UNL A   1      32.359  30.078  25.871  1.00  0.00     0.031 C 
ENDBRANCH  11  22
ENDBRANCH   6   9
ENDBRANCH   4   5
ENDBRANCH   3   4
ENDBRANCH   2   3
ENDBRANCH   1   2
BRANCH   1  25
ATOM     25  C   UNL A   1      35.529  22.007  25.972  1.00  0.00     0.021 C 
BRANCH  25  26
ATOM     26  C   UNL A   1      36.924  22.362  25.467  1.00  0.00     0.116 C 
BRANCH  26  27
ATOM     27  N   UNL A   1      37.898  21.341  25.827  1.00  0.00    -0.352 N 
ATOM     28  C   UNL A   1      39.200  21.485  26.233  1.00  0.00     0.251 C 
ATOM     29  H   UNL A   1      37.576  20.413  25.771  1.00  0.00     0.163 HD
ATOM     30  O   UNL A   1      39.954  20.517  26.235  1.00  0.00    -0.269 OA
BRANCH  28  31
ATOM     31  C   UNL A   1      39.689  22.809  26.670  1.00  0.00     0.039 A 
ATOM     32  C   UNL A   1      40.552  22.890  27.765  1.00  0.00     0.014 A 
ATOM     33  C   UNL A   1      39.278  23.969  26.007  1.00  0.00     0.014 A 
ATOM     34  C   UNL A   1      41.041  24.135  28.163  1.00  0.00     0.010 A 
ATOM     35  C   UNL A   1      39.828  25.198  26.357  1.00  0.00     0.010 A 
ATOM     36  C   UNL A   1      40.706  25.295  27.446  1.00  0.00    -0.014 A 
BRANCH  36  37
ATOM     37  C   UNL A   1      41.273  26.616  27.811  1.00  0.00     0.031 A 
ATOM     38  C   UNL A   1      42.712  26.936  27.513  1.00  0.00     0.074 A 
ATOM     39  C   UNL A   1      40.512  27.499  28.488  1.00  0.00     0.049 A 
ATOM     40  N   UNL A   1      43.391  28.016  27.797  1.00  0.00    -0.248 NA
ATOM     41  C   UNL A   1      43.502  25.897  26.829  1.00  0.00     0.031 C 
ATOM     42  C   UNL A   1      39.124  27.273  28.902  1.00  0.00     0.029 A 
ATOM     43  N   UNL A   1      40.801  28.752  28.966  1.00  0.00    -0.354 N 
ATOM     44  C   UNL A   1      44.690  27.775  27.368  1.00  0.00     0.074 A 
ATOM     45  C   UNL A   1      44.713  26.435  26.824  1.00  0.00     0.031 C 
ATOM     46  C   UNL A   1      38.682  28.355  29.561  1.00  0.00     0.029 A 
ATOM     47  C   UNL A   1      39.760  29.335  29.649  1.00  0.00     0.049 A 
ATOM     48  H   UNL A   1      41.672  29.191  28.832  1.00  0.00     0.167 HD
ATOM     49  C   UNL A   1      45.761  28.602  27.404  1.00  0.00     0.034 A 
ATOM     50  C   UNL A   1      39.683  30.521  30.284  1.00  0.00     0.034 A 
ATOM     51  C   UNL A   1      45.722  29.948  27.907  1.00  0.00     0.049 A 
ATOM     52  C   UNL A   1      40.875  31.436  30.270  1.00  0.00     0.074 A 
ATOM     53  C   UNL A   1      46.727  30.898  27.894  1.00  0.00     0.029 A 
ATOM     54  N   UNL A   1      44.629  30.532  28.527  1.00  0.00    -0.354 N 
ATOM     55  N   UNL A   1      42.052  31.250  29.723  1.00  0.00    -0.248 NA
ATOM     56  C   UNL A   1      40.720  32.740  30.930  1.00  0.00     0.031 C 
ATOM     57  C   UNL A   1      46.255  32.042  28.543  1.00  0.00     0.029 A 
ATOM     58  C   UNL A   1      44.940  31.822  28.918  1.00  0.00     0.049 A 
ATOM     59  H   UNL A   1      43.758  30.092  28.669  1.00  0.00     0.167 HD
ATOM     60  C   UNL A   1      42.764  32.423  29.941  1.00  0.00     0.074 A 
ATOM     61  C   UNL A   1      41.880  33.321  30.654  1.00  0.00     0.031 C 
ATOM     62  C   UNL A   1      44.039  32.724  29.589  1.00  0.00     0.034 A 
BRANCH  49  63
ATOM     63  C   UNL A   1      47.067  28.092  26.852  1.00  0.00     0.023 A 
ATOM     64  C   UNL A   1      48.062  27.616  27.729  1.00  0.00     0.012 A 
ATOM     65  C   UNL A   1      47.274  28.005  25.461  1.00  0.00     0.148 A 
ATOM     66  C   UNL A   1      49.254  27.089  27.233  1.00  0.00     0.002 A 
ATOM     67  C   UNL A   1      48.442  27.435  24.973  1.00  0.00     0.091 A 
ATOM     68  F   UNL A   1      46.324  28.480  24.644  1.00  0.00    -0.205 F 
ATOM     69  C   UNL A   1      49.438  26.986  25.857  1.00  0.00     0.022 A 
BRANCH  67  70
ATOM     70  S   UNL A   1      48.741  27.180  23.221  1.00  0.00     0.127 S 
ATOM     71  O   UNL A   1      48.111  25.879  22.999  1.00  0.00    -0.237 OA
ATOM     72  O   UNL A   1      48.032  28.311  22.622  1.00  0.00    -0.237 OA
ATOM     73  O   UNL A   1      50.187  27.207  23.048  1.00  0.00    -0.744 OA
ENDBRANCH  67  70
ENDBRANCH  49  63
BRANCH  50  74
ATOM     74  C   UNL A   1      38.405  30.932  30.930  1.00  0.00     0.023 A 
ATOM     75  C   UNL A   1      38.223  30.710  32.309  1.00  0.00     0.012 A 
ATOM     76  C   UNL A   1      37.392  31.580  30.198  1.00  0.00     0.148 A 
ATOM     77  C   UNL A   1      37.045  31.100  32.943  1.00  0.00     0.002 A 
ATOM     78  C   UNL A   1      36.242  32.017  30.847  1.00  0.00     0.091 A 
ATOM     79  F   UNL A   1      37.584  31.778  28.887  1.00  0.00    -0.205 F 
ATOM     80  C   UNL A   1      36.059  31.763  32.216  1.00  0.00     0.022 A 
BRANCH  78  81
ATOM     81  S   UNL A   1      34.977  32.990  30.024  1.00  0.00     0.127 S 
ATOM     82  O   UNL A   1      34.096  33.337  31.135  1.00  0.00    -0.237 OA
ATOM     83  O   UNL A   1      35.761  34.103  29.486  1.00  0.00    -0.237 OA
ATOM     84  O   UNL A   1      34.400  32.115  29.014  1.00  0.00    -0.744 OA
ENDBRANCH  78  81
ENDBRANCH  50  74
BRANCH  62  85
ATOM     85  C   UNL A   1      44.555  34.097  29.931  1.00  0.00     0.023 A 
ATOM     86  C   UNL A   1      45.277  34.304  31.123  1.00  0.00     0.012 A 
ATOM     87  C   UNL A   1      44.391  35.166  29.026  1.00  0.00     0.148 A 
ATOM     88  C   UNL A   1      45.798  35.562  31.425  1.00  0.00     0.002 A 
ATOM     89  C   UNL A   1      44.958  36.402  29.309  1.00  0.00     0.091 A 
ATOM     90  F   UNL A   1      43.687  34.952  27.906  1.00  0.00    -0.205 F 
ATOM     91  C   UNL A   1      45.650  36.606  30.514  1.00  0.00     0.022 A 
BRANCH  89  92
ATOM     92  S   UNL A   1      44.906  37.774  28.151  1.00  0.00     0.127 S 
ATOM     93  O   UNL A   1      43.478  38.084  28.122  1.00  0.00    -0.237 OA
ATOM     94  O   UNL A   1      45.734  38.776  28.822  1.00  0.00    -0.237 OA
ATOM     95  O   UNL A   1      45.460  37.268  26.902  1.00  0.00    -0.744 OA
ENDBRANCH  89  92
ENDBRANCH  62  85
ENDBRANCH  36  37
ENDBRANCH  28  31
ENDBRANCH  26  27
ENDBRANCH  25  26
ENDBRANCH   1  25
TORSDOF 18
ENDMDL
MODEL 2
REMARK VINA RESULT:     -11.6      5.654     10.690
REMARK SMILES Cc1c([C@@H]2[C@H](C(=O)NCCCCCCNC(=O)c3ccc(-c4c5nc(c(-c6cccc(S(=O)(=O)[O-])c6F)c6ccc([nH]6)c(-c6cccc(S(=O)(=O)[O-])c6F)c6nc(c(-c7cccc(S(=O)(=O)[O-])c7F)c7ccc4[nH]7)C=C6)C=C5)cc3)CC(=O)N2C(C)C)cnn1C
REMARK SMILES IDX 12 1 11 2 10 3 9 4 8 5 6 6 7 7 5 9 4 10 84 11 81 12 82 13
REMARK SMILES IDX 83 14 3 15 1 16 2 17 90 18 88 19 89 20 91 21 85 22 86 23
REMARK SMILES IDX 87 24 13 25 14 26 15 27 16 28 17 30 18 31 19 32 80 33 20 34
REMARK SMILES IDX 79 35 21 36 22 37 23 38 73 39 24 40 78 41 72 42 74 43 25 44
REMARK SMILES IDX 77 45 71 46 70 47 26 49 58 50 38 51 57 52 39 53 42 54 56 55
REMARK SMILES IDX 75 56 40 57 41 58 55 60 76 61 43 62 27 63 28 64 36 65 29 66
REMARK SMILES IDX 31 67 37 68 30 69 32 70 33 71 34 72 35 73 59 74 60 75 68 76
REMARK SMILES IDX 61 77 63 78 69 79 62 80 64 81 65 82 66 83 67 84 44 85 45 86
REMARK SMILES IDX 53 87 46 88 48 89 54 90 47 91 49 92 50 93 51 94 52 95
REMARK H PARENT 8 8 15 29 74 48 42 59
REMARK Flexibility Score: inf
ROOT
ATOM      1  C   UNL A   1      31.414  31.253  26.008  1.00  0.00     0.002 C 
ENDROOT
BRANCH   1   2
ATOM      2  C   UNL A   1      32.445  30.120  26.062  1.00  0.00     0.002 C 
BRANCH   2   3
ATOM      3  C   UNL A   1      32.509  29.369  27.392  1.00  0.00     0.021 C 
BRANCH   3   4
ATOM      4  C   UNL A   1      31.903  27.972  27.335  1.00  0.00     0.116 C 
BRANCH   4   5
ATOM      5  N   UNL A   1      31.262  27.735  26.052  1.00  0.00    -0.356 N 
ATOM      6  C   UNL A   1      31.690  27.366  24.823  1.00  0.00     0.226 C 
ATOM      7  O   UNL A   1      30.817  27.361  23.943  1.00  0.00    -0.275 OA
ATOM      8  H   UNL A   1      30.288  27.876  26.086  1.00  0.00     0.163 HD
BRANCH   6   9
ATOM      9  C   UNL A   1      33.110  26.968  24.434  1.00  0.00     0.115 C 
ATOM     10  C   UNL A   1      33.465  25.492  24.441  1.00  0.00     0.132 C 
ATOM     11  N   UNL A   1      33.073  25.038  23.124  1.00  0.00    -0.332 N 
ATOM     12  C   UNL A   1      33.570  27.363  23.033  1.00  0.00     0.116 C 
ATOM     13  C   UNL A   1      33.350  26.085  22.232  1.00  0.00     0.224 C 
ATOM     14  O   UNL A   1      33.409  26.012  21.019  1.00  0.00    -0.275 OA
BRANCH  10  15
ATOM     15  C   UNL A   1      33.172  24.611  25.594  1.00  0.00     0.016 A 
ATOM     16  C   UNL A   1      35.577  23.678  26.030  1.00  0.00     0.067 C 
ATOM     17  C   UNL A   1      34.104  23.789  26.223  1.00  0.00     0.040 A 
ATOM     18  N   UNL A   1      33.381  22.994  27.072  1.00  0.00    -0.273 N 
ATOM     19  C   UNL A   1      31.977  24.373  26.308  1.00  0.00     0.141 A 
ATOM     20  N   UNL A   1      32.104  23.390  27.205  1.00  0.00    -0.181 NA
ATOM     21  C   UNL A   1      33.827  21.771  27.698  1.00  0.00     0.174 C 
ENDBRANCH  10  15
BRANCH  11  22
ATOM     22  C   UNL A   1      32.890  23.657  22.637  1.00  0.00     0.079 C 
ATOM     23  C   UNL A   1      34.137  22.795  22.810  1.00  0.00     0.031 C 
ATOM     24  C   UNL A   1      31.660  22.925  23.175  1.00  0.00     0.031 C 
ENDBRANCH  11  22
ENDBRANCH   6   9
ENDBRANCH   4   5
ENDBRANCH   3   4
ENDBRANCH   2   3
ENDBRANCH   1   2
BRANCH   1  25
ATOM     25  C   UNL A   1      31.477  32.244  27.172  1.00  0.00     0.021 C 
BRANCH  25  26
ATOM     26  C   UNL A   1      32.807  32.980  27.300  1.00  0.00     0.116 C 
BRANCH  26  27
ATOM     27  N   UNL A   1      32.619  34.347  27.766  1.00  0.00    -0.352 N 
ATOM     28  C   UNL A   1      33.145  34.970  28.868  1.00  0.00     0.251 C 
ATOM     29  H   UNL A   1      32.028  34.904  27.210  1.00  0.00     0.163 HD
ATOM     30  O   UNL A   1      32.670  36.033  29.258  1.00  0.00    -0.269 OA
BRANCH  28  31
ATOM     31  C   UNL A   1      34.285  34.358  29.582  1.00  0.00     0.039 A 
ATOM     32  C   UNL A   1      34.040  33.573  30.711  1.00  0.00     0.014 A 
ATOM     33  C   UNL A   1      35.594  34.580  29.145  1.00  0.00     0.014 A 
ATOM     34  C   UNL A   1      35.110  32.969  31.372  1.00  0.00     0.010 A 
ATOM     35  C   UNL A   1      36.649  33.914  29.758  1.00  0.00     0.010 A 
ATOM     36  C   UNL A   1      36.420  33.111  30.885  1.00  0.00    -0.014 A 
BRANCH  36  37
ATOM     37  C   UNL A   1      37.561  32.418  31.532  1.00  0.00     0.031 A 
ATOM     38  C   UNL A   1      38.097  32.903  32.851  1.00  0.00     0.074 A 
ATOM     39  C   UNL A   1      38.168  31.400  30.890  1.00  0.00     0.049 A 
ATOM     40  N   UNL A   1      39.112  32.453  33.543  1.00  0.00    -0.248 NA
ATOM     41  C   UNL A   1      37.424  34.061  33.464  1.00  0.00     0.031 C 
ATOM     42  C   UNL A   1      37.788  30.888  29.571  1.00  0.00     0.029 A 
ATOM     43  N   UNL A   1      39.246  30.630  31.247  1.00  0.00    -0.354 N 
ATOM     44  C   UNL A   1      39.225  33.292  34.644  1.00  0.00     0.074 A 
ATOM     45  C   UNL A   1      38.191  34.296  34.518  1.00  0.00     0.031 C 
ATOM     46  C   UNL A   1      38.611  29.883  29.236  1.00  0.00     0.029 A 
ATOM     47  C   UNL A   1      39.598  29.701  30.296  1.00  0.00     0.049 A 
ATOM     48  H   UNL A   1      39.720  30.731  32.103  1.00  0.00     0.167 HD
ATOM     49  C   UNL A   1      40.098  33.221  35.677  1.00  0.00     0.034 A 
ATOM     50  C   UNL A   1      40.608  28.810  30.273  1.00  0.00     0.034 A 
ATOM     51  C   UNL A   1      41.097  32.197  35.817  1.00  0.00     0.049 A 
ATOM     52  C   UNL A   1      41.535  28.725  31.453  1.00  0.00     0.074 A 
ATOM     53  C   UNL A   1      41.960  31.980  36.876  1.00  0.00     0.029 A 
ATOM     54  N   UNL A   1      41.378  31.228  34.867  1.00  0.00    -0.354 N 
ATOM     55  N   UNL A   1      41.530  29.430  32.558  1.00  0.00    -0.248 NA
ATOM     56  C   UNL A   1      42.585  27.698  31.401  1.00  0.00     0.031 C 
ATOM     57  C   UNL A   1      42.792  30.906  36.548  1.00  0.00     0.029 A 
ATOM     58  C   UNL A   1      42.414  30.422  35.306  1.00  0.00     0.049 A 
ATOM     59  H   UNL A   1      40.910  31.127  34.006  1.00  0.00     0.167 HD
ATOM     60  C   UNL A   1      42.551  28.912  33.346  1.00  0.00     0.074 A 
ATOM     61  C   UNL A   1      43.141  27.820  32.599  1.00  0.00     0.031 C 
ATOM     62  C   UNL A   1      42.966  29.311  34.574  1.00  0.00     0.034 A 
BRANCH  49  63
ATOM     63  C   UNL A   1      39.994  34.261  36.763  1.00  0.00     0.023 A 
ATOM     64  C   UNL A   1      40.326  35.602  36.484  1.00  0.00     0.012 A 
ATOM     65  C   UNL A   1      39.487  33.924  38.033  1.00  0.00     0.148 A 
ATOM     66  C   UNL A   1      40.183  36.586  37.461  1.00  0.00     0.002 A 
ATOM     67  C   UNL A   1      39.302  34.917  38.986  1.00  0.00     0.091 A 
ATOM     68  F   UNL A   1      39.195  32.640  38.284  1.00  0.00    -0.205 F 
ATOM     69  C   UNL A   1      39.660  36.247  38.705  1.00  0.00     0.022 A 
BRANCH  67  70
ATOM     70  S   UNL A   1      38.557  34.600  40.588  1.00  0.00     0.127 S 
ATOM     71  O   UNL A   1      38.296  35.957  41.067  1.00  0.00    -0.237 OA
ATOM     72  O   UNL A   1      37.360  33.842  40.224  1.00  0.00    -0.237 OA
ATOM     73  O   UNL A   1      39.544  33.851  41.353  1.00  0.00    -0.744 OA
ENDBRANCH  67  70
ENDBRANCH  49  63
BRANCH  50  74
ATOM     74  C   UNL A   1      40.750  27.883  29.115  1.00  0.00     0.023 A 
ATOM     75  C   UNL A   1      39.946  26.728  29.050  1.00  0.00     0.012 A 
ATOM     76  C   UNL A   1      41.640  28.161  28.060  1.00  0.00     0.148 A 
ATOM     77  C   UNL A   1      40.044  25.853  27.970  1.00  0.00     0.002 A 
ATOM     78  C   UNL A   1      41.694  27.314  26.959  1.00  0.00     0.091 A 
ATOM     79  F   UNL A   1      42.398  29.263  28.145  1.00  0.00    -0.205 F 
ATOM     80  C   UNL A   1      40.909  26.150  26.920  1.00  0.00     0.022 A 
BRANCH  78  81
ATOM     81  S   UNL A   1      42.681  27.679  25.505  1.00  0.00     0.127 S 
ATOM     82  O   UNL A   1      42.048  28.900  25.012  1.00  0.00    -0.237 OA
ATOM     83  O   UNL A   1      44.011  27.864  26.086  1.00  0.00    -0.237 OA
ATOM     84  O   UNL A   1      42.558  26.515  24.639  1.00  0.00    -0.744 OA
ENDBRANCH  78  81
ENDBRANCH  50  74
BRANCH  62  85
ATOM     85  C   UNL A   1      44.091  28.543  35.218  1.00  0.00     0.023 A 
ATOM     86  C   UNL A   1      45.429  28.855  34.905  1.00  0.00     0.012 A 
ATOM     87  C   UNL A   1      43.818  27.564  36.196  1.00  0.00     0.148 A 
ATOM     88  C   UNL A   1      46.477  28.181  35.531  1.00  0.00     0.002 A 
ATOM     89  C   UNL A   1      44.868  26.935  36.852  1.00  0.00     0.091 A 
ATOM     90  F   UNL A   1      42.539  27.272  36.466  1.00  0.00    -0.205 F 
ATOM     91  C   UNL A   1      46.198  27.232  36.512  1.00  0.00     0.022 A 
BRANCH  89  92
ATOM     92  S   UNL A   1      44.605  25.775  38.199  1.00  0.00     0.127 S 
ATOM     93  O   UNL A   1      43.851  24.715  37.534  1.00  0.00    -0.237 OA
ATOM     94  O   UNL A   1      45.974  25.413  38.565  1.00  0.00    -0.237 OA
ATOM     95  O   UNL A   1      43.877  26.508  39.226  1.00  0.00    -0.744 OA
ENDBRANCH  89  92
ENDBRANCH  62  85
ENDBRANCH  36  37
ENDBRANCH  28  31
ENDBRANCH  26  27
ENDBRANCH  25  26
ENDBRANCH   1  25
TORSDOF 18
ENDMDL
MODEL 3
REMARK VINA RESULT:     -11.6      5.155      8.213
REMARK SMILES Cc1c([C@@H]2[C@H](C(=O)NCCCCCCNC(=O)c3ccc(-c4c5nc(c(-c6cccc(S(=O)(=O)[O-])c6F)c6ccc([nH]6)c(-c6cccc(S(=O)(=O)[O-])c6F)c6nc(c(-c7cccc(S(=O)(=O)[O-])c7F)c7ccc4[nH]7)C=C6)C=C5)cc3)CC(=O)N2C(C)C)cnn1C
REMARK SMILES IDX 12 1 11 2 10 3 9 4 8 5 6 6 7 7 5 9 4 10 84 11 81 12 82 13
REMARK SMILES IDX 83 14 3 15 1 16 2 17 90 18 88 19 89 20 91 21 85 22 86 23
REMARK SMILES IDX 87 24 13 25 14 26 15 27 16 28 17 30 18 31 19 32 80 33 20 34
REMARK SMILES IDX 79 35 21 36 22 37 23 38 73 39 24 40 78 41 72 42 74 43 25 44
REMARK SMILES IDX 77 45 71 46 70 47 26 49 58 50 38 51 57 52 39 53 42 54 56 55
REMARK SMILES IDX 75 56 40 57 41 58 55 60 76 61 43 62 27 63 28 64 36 65 29 66
REMARK SMILES IDX 31 67 37 68 30 69 32 70 33 71 34 72 35 73 59 74 60 75 68 76
REMARK SMILES IDX 61 77 63 78 69 79 62 80 64 81 65 82 66 83 67 84 44 85 45 86
REMARK SMILES IDX 53 87 46 88 48 89 54 90 47 91 49 92 50 93 51 94 52 95
REMARK H PARENT 8 8 15 29 74 48 42 59
REMARK Flexibility Score: inf
ROOT
ATOM      1  C   UNL A   1      31.365  30.354  24.880  1.00  0.00     0.002 C 
ENDROOT
BRANCH   1   2
ATOM      2  C   UNL A   1      31.007  28.872  25.029  1.00  0.00     0.002 C 
BRANCH   2   3
ATOM      3  C   UNL A   1      30.384  28.232  23.789  1.00  0.00     0.021 C 
BRANCH   3   4
ATOM      4  C   UNL A   1      29.902  26.803  24.013  1.00  0.00     0.116 C 
BRANCH   4   5
ATOM      5  N   UNL A   1      30.420  26.270  25.264  1.00  0.00    -0.356 N 
ATOM      6  C   UNL A   1      30.903  25.073  25.666  1.00  0.00     0.226 C 
ATOM      7  O   UNL A   1      31.166  24.993  26.875  1.00  0.00    -0.275 OA
ATOM      8  H   UNL A   1      30.416  26.939  25.987  1.00  0.00     0.163 HD
BRANCH   6   9
ATOM      9  C   UNL A   1      31.147  23.849  24.791  1.00  0.00     0.115 C 
ATOM     10  C   UNL A   1      32.454  23.770  24.021  1.00  0.00     0.132 C 
ATOM     11  N   UNL A   1      33.373  23.169  24.964  1.00  0.00    -0.332 N 
ATOM     12  C   UNL A   1      31.154  22.495  25.497  1.00  0.00     0.116 C 
ATOM     13  C   UNL A   1      32.640  22.229  25.705  1.00  0.00     0.224 C 
ATOM     14  O   UNL A   1      33.091  21.341  26.405  1.00  0.00    -0.275 OA
BRANCH  10  15
ATOM     15  C   UNL A   1      32.950  24.885  23.185  1.00  0.00     0.016 A 
ATOM     16  C   UNL A   1      33.975  26.393  25.061  1.00  0.00     0.067 C 
ATOM     17  C   UNL A   1      33.554  26.040  23.676  1.00  0.00     0.040 A 
ATOM     18  N   UNL A   1      33.651  26.890  22.607  1.00  0.00    -0.273 N 
ATOM     19  C   UNL A   1      32.946  25.077  21.785  1.00  0.00     0.141 A 
ATOM     20  N   UNL A   1      33.370  26.295  21.435  1.00  0.00    -0.181 NA
ATOM     21  C   UNL A   1      33.896  28.312  22.655  1.00  0.00     0.174 C 
ENDBRANCH  10  15
BRANCH  11  22
ATOM     22  C   UNL A   1      34.846  23.109  24.911  1.00  0.00     0.079 C 
ATOM     23  C   UNL A   1      35.500  23.344  26.270  1.00  0.00     0.031 C 
ATOM     24  C   UNL A   1      35.433  21.862  24.248  1.00  0.00     0.031 C 
ENDBRANCH  11  22
ENDBRANCH   6   9
ENDBRANCH   4   5
ENDBRANCH   3   4
ENDBRANCH   2   3
ENDBRANCH   1   2
BRANCH   1  25
ATOM     25  C   UNL A   1      31.225  31.187  26.157  1.00  0.00     0.021 C 
BRANCH  25  26
ATOM     26  C   UNL A   1      32.551  31.635  26.763  1.00  0.00     0.116 C 
BRANCH  26  27
ATOM     27  N   UNL A   1      32.541  33.058  27.077  1.00  0.00    -0.352 N 
ATOM     28  C   UNL A   1      33.282  33.751  27.999  1.00  0.00     0.251 C 
ATOM     29  H   UNL A   1      31.911  33.600  26.550  1.00  0.00     0.163 HD
ATOM     30  O   UNL A   1      32.955  34.890  28.318  1.00  0.00    -0.269 OA
BRANCH  28  31
ATOM     31  C   UNL A   1      34.474  33.122  28.604  1.00  0.00     0.039 A 
ATOM     32  C   UNL A   1      35.732  33.681  28.370  1.00  0.00     0.014 A 
ATOM     33  C   UNL A   1      34.346  31.969  29.385  1.00  0.00     0.014 A 
ATOM     34  C   UNL A   1      36.858  33.109  28.963  1.00  0.00     0.010 A 
ATOM     35  C   UNL A   1      35.459  31.448  30.036  1.00  0.00     0.010 A 
ATOM     36  C   UNL A   1      36.728  32.006  29.823  1.00  0.00    -0.014 A 
BRANCH  36  37
ATOM     37  C   UNL A   1      37.905  31.429  30.519  1.00  0.00     0.031 A 
ATOM     38  C   UNL A   1      38.749  30.382  29.845  1.00  0.00     0.074 A 
ATOM     39  C   UNL A   1      38.164  31.789  31.791  1.00  0.00     0.049 A 
ATOM     40  N   UNL A   1      39.785  29.734  30.312  1.00  0.00    -0.248 NA
ATOM     41  C   UNL A   1      38.368  29.990  28.477  1.00  0.00     0.031 C 
ATOM     42  C   UNL A   1      37.372  32.738  32.578  1.00  0.00     0.029 A 
ATOM     43  N   UNL A   1      39.150  31.384  32.655  1.00  0.00    -0.354 N 
ATOM     44  C   UNL A   1      40.152  28.834  29.320  1.00  0.00     0.074 A 
ATOM     45  C   UNL A   1      39.213  29.000  28.232  1.00  0.00     0.031 C 
ATOM     46  C   UNL A   1      37.910  32.851  33.801  1.00  0.00     0.029 A 
ATOM     47  C   UNL A   1      39.060  31.958  33.901  1.00  0.00     0.049 A 
ATOM     48  H   UNL A   1      39.856  30.745  32.405  1.00  0.00     0.167 HD
ATOM     49  C   UNL A   1      41.188  27.963  29.307  1.00  0.00     0.034 A 
ATOM     50  C   UNL A   1      39.812  31.779  35.005  1.00  0.00     0.034 A 
ATOM     51  C   UNL A   1      42.142  27.833  30.374  1.00  0.00     0.049 A 
ATOM     52  C   UNL A   1      40.983  30.838  34.948  1.00  0.00     0.074 A 
ATOM     53  C   UNL A   1      43.284  27.053  30.413  1.00  0.00     0.029 A 
ATOM     54  N   UNL A   1      42.061  28.484  31.595  1.00  0.00    -0.354 N 
ATOM     55  N   UNL A   1      41.405  30.108  33.944  1.00  0.00    -0.248 NA
ATOM     56  C   UNL A   1      41.803  30.722  36.162  1.00  0.00     0.031 C 
ATOM     57  C   UNL A   1      43.871  27.200  31.673  1.00  0.00     0.029 A 
ATOM     58  C   UNL A   1      43.121  28.109  32.402  1.00  0.00     0.049 A 
ATOM     59  H   UNL A   1      41.353  29.119  31.851  1.00  0.00     0.167 HD
ATOM     60  C   UNL A   1      42.557  29.473  34.393  1.00  0.00     0.074 A 
ATOM     61  C   UNL A   1      42.777  29.920  35.753  1.00  0.00     0.031 C 
ATOM     62  C   UNL A   1      43.355  28.592  33.739  1.00  0.00     0.034 A 
BRANCH  49  63
ATOM     63  C   UNL A   1      41.373  27.102  28.085  1.00  0.00     0.023 A 
ATOM     64  C   UNL A   1      42.104  27.594  26.984  1.00  0.00     0.012 A 
ATOM     65  C   UNL A   1      40.897  25.777  28.061  1.00  0.00     0.148 A 
ATOM     66  C   UNL A   1      42.332  26.790  25.867  1.00  0.00     0.002 A 
ATOM     67  C   UNL A   1      41.169  24.966  26.967  1.00  0.00     0.091 A 
ATOM     68  F   UNL A   1      40.189  25.335  29.110  1.00  0.00    -0.205 F 
ATOM     69  C   UNL A   1      41.877  25.475  25.864  1.00  0.00     0.022 A 
BRANCH  67  70
ATOM     70  S   UNL A   1      40.700  23.234  26.899  1.00  0.00     0.127 S 
ATOM     71  O   UNL A   1      39.259  23.327  26.671  1.00  0.00    -0.237 OA
ATOM     72  O   UNL A   1      41.469  22.754  25.751  1.00  0.00    -0.237 OA
ATOM     73  O   UNL A   1      41.091  22.659  28.178  1.00  0.00    -0.744 OA
ENDBRANCH  67  70
ENDBRANCH  49  63
BRANCH  50  74
ATOM     74  C   UNL A   1      39.514  32.561  36.237  1.00  0.00     0.023 A 
ATOM     75  C   UNL A   1      40.101  33.830  36.411  1.00  0.00     0.012 A 
ATOM     76  C   UNL A   1      38.620  32.078  37.212  1.00  0.00     0.148 A 
ATOM     77  C   UNL A   1      39.825  34.591  37.546  1.00  0.00     0.002 A 
ATOM     78  C   UNL A   1      38.306  32.866  38.314  1.00  0.00     0.091 A 
ATOM     79  F   UNL A   1      38.076  30.867  37.029  1.00  0.00    -0.205 F 
ATOM     80  C   UNL A   1      38.921  34.115  38.491  1.00  0.00     0.022 A 
BRANCH  78  81
ATOM     81  S   UNL A   1      37.059  32.394  39.517  1.00  0.00     0.127 S 
ATOM     82  O   UNL A   1      37.221  33.427  40.536  1.00  0.00    -0.237 OA
ATOM     83  O   UNL A   1      35.831  32.493  38.727  1.00  0.00    -0.237 OA
ATOM     84  O   UNL A   1      37.401  31.042  39.933  1.00  0.00    -0.744 OA
ENDBRANCH  78  81
ENDBRANCH  50  74
BRANCH  62  85
ATOM     85  C   UNL A   1      44.570  28.075  34.463  1.00  0.00     0.023 A 
ATOM     86  C   UNL A   1      45.787  28.782  34.396  1.00  0.00     0.012 A 
ATOM     87  C   UNL A   1      44.480  26.928  35.278  1.00  0.00     0.148 A 
ATOM     88  C   UNL A   1      46.905  28.335  35.100  1.00  0.00     0.002 A 
ATOM     89  C   UNL A   1      45.582  26.520  36.019  1.00  0.00     0.091 A 
ATOM     90  F   UNL A   1      43.318  26.261  35.316  1.00  0.00    -0.205 F 
ATOM     91  C   UNL A   1      46.799  27.214  35.921  1.00  0.00     0.022 A 
BRANCH  89  92
ATOM     92  S   UNL A   1      45.510  25.150  37.178  1.00  0.00     0.127 S 
ATOM     93  O   UNL A   1      45.222  24.025  36.290  1.00  0.00    -0.237 OA
ATOM     94  O   UNL A   1      46.861  25.151  37.742  1.00  0.00    -0.237 OA
ATOM     95  O   UNL A   1      44.457  25.480  38.128  1.00  0.00    -0.744 OA
ENDBRANCH  89  92
ENDBRANCH  62  85
ENDBRANCH  36  37
ENDBRANCH  28  31
ENDBRANCH  26  27
ENDBRANCH  25  26
ENDBRANCH   1  25
TORSDOF 18
ENDMDL
