MODEL 1
REMARK VINA RESULT:     -11.8      0.000      0.000
REMARK SMILES O=C(/C=C/C(=O)N1CCn2c1nc1ccccc12)NCCCCCCNC(=O)c1ccc(-c2c3nc(c(-c4cccc(S(=O)(=O)[O-])c4F)c4ccc([nH]4)c(-c4cccc(S(=O)(=O)[O-])c4F)c4nc(c(-c5cccc(S(=O)(=O)[O-])c5F)c5ccc2[nH]5)C=C4)C=C3)cc1
REMARK SMILES IDX 23 1 22 2 21 3 20 4 19 5 1 6 2 7 3 9 4 10 5 11 6 12 7 13
REMARK SMILES IDX 8 14 11 15 9 16 10 17 12 18 18 19 13 20 17 21 14 22 16 23
REMARK SMILES IDX 15 24 24 25 25 26 26 27 27 28 28 30 29 31 30 32 91 33 31 34
REMARK SMILES IDX 90 35 32 36 33 37 34 38 84 39 35 40 89 41 83 42 85 43 36 44
REMARK SMILES IDX 88 45 82 46 81 47 37 49 69 50 49 51 68 52 50 53 53 54 67 55
REMARK SMILES IDX 86 56 51 57 52 58 66 60 87 61 54 62 38 63 39 64 47 65 40 66
REMARK SMILES IDX 42 67 48 68 41 69 43 70 44 71 45 72 46 73 70 74 71 75 79 76
REMARK SMILES IDX 72 77 74 78 80 79 73 80 75 81 76 82 77 83 78 84 55 85 56 86
REMARK SMILES IDX 64 87 57 88 59 89 65 90 58 91 60 92 61 93 62 94 63 95
REMARK H PARENT 19 8 26 29 85 48 53 59
REMARK Flexibility Score: inf
ROOT
ATOM      1  C   UNL A   1      38.825  20.968  25.473  1.00  0.00     0.002 C 
ENDROOT
BRANCH   1   2
ATOM      2  C   UNL A   1      37.617  20.262  24.841  1.00  0.00     0.002 C 
BRANCH   2   3
ATOM      3  C   UNL A   1      36.242  20.874  25.155  1.00  0.00     0.021 C 
BRANCH   3   4
ATOM      4  C   UNL A   1      35.070  19.901  25.009  1.00  0.00     0.116 C 
BRANCH   4   5
ATOM      5  N   UNL A   1      33.850  20.479  25.542  1.00  0.00    -0.353 N 
ATOM      6  O   UNL A   1      32.562  20.099  23.680  1.00  0.00    -0.270 OA
ATOM      7  C   UNL A   1      32.709  20.593  24.794  1.00  0.00     0.244 C 
ATOM      8  H   UNL A   1      33.843  20.800  26.472  1.00  0.00     0.163 HD
BRANCH   7   9
ATOM      9  C   UNL A   1      31.643  21.479  25.327  1.00  0.00     0.077 C 
ATOM     10  C   UNL A   1      31.791  22.459  26.229  1.00  0.00     0.077 C 
BRANCH  10  11
ATOM     11  C   UNL A   1      30.742  23.489  26.401  1.00  0.00     0.253 C 
ATOM     12  O   UNL A   1      29.915  23.299  27.299  1.00  0.00    -0.269 OA
BRANCH  11  13
ATOM     13  N   UNL A   1      30.695  24.615  25.632  1.00  0.00    -0.277 N 
ATOM     14  C   UNL A   1      30.405  24.562  24.189  1.00  0.00     0.151 C 
ATOM     15  C   UNL A   1      30.956  25.903  26.003  1.00  0.00     0.213 A 
ATOM     16  C   UNL A   1      30.576  26.003  23.686  1.00  0.00     0.148 C 
ATOM     17  N   UNL A   1      30.869  26.715  24.913  1.00  0.00    -0.308 N 
ATOM     18  N   UNL A   1      31.288  26.567  27.073  1.00  0.00    -0.212 NA
ATOM     19  C   UNL A   1      31.128  27.991  25.260  1.00  0.00     0.070 A 
ATOM     20  C   UNL A   1      31.394  27.881  26.632  1.00  0.00     0.091 A 
ATOM     21  C   UNL A   1      31.165  29.197  24.558  1.00  0.00     0.028 A 
ATOM     22  C   UNL A   1      31.719  29.044  27.348  1.00  0.00     0.031 A 
ATOM     23  C   UNL A   1      31.487  30.341  25.298  1.00  0.00     0.002 A 
ATOM     24  C   UNL A   1      31.761  30.268  26.666  1.00  0.00     0.002 A 
ENDBRANCH  11  13
ENDBRANCH  10  11
ENDBRANCH   7   9
ENDBRANCH   4   5
ENDBRANCH   3   4
ENDBRANCH   2   3
ENDBRANCH   1   2
BRANCH   1  25
ATOM     25  C   UNL A   1      38.584  22.413  25.920  1.00  0.00     0.021 C 
BRANCH  25  26
ATOM     26  C   UNL A   1      39.622  22.941  26.907  1.00  0.00     0.116 C 
BRANCH  26  27
ATOM     27  N   UNL A   1      40.642  21.965  27.258  1.00  0.00    -0.352 N 
ATOM     28  C   UNL A   1      41.938  22.198  27.673  1.00  0.00     0.251 C 
ATOM     29  H   UNL A   1      40.375  21.020  27.192  1.00  0.00     0.163 HD
ATOM     30  O   UNL A   1      42.694  21.278  27.936  1.00  0.00    -0.269 OA
BRANCH  28  31
ATOM     31  C   UNL A   1      42.377  23.602  27.782  1.00  0.00     0.039 A 
ATOM     32  C   UNL A   1      42.217  24.278  28.996  1.00  0.00     0.014 A 
ATOM     33  C   UNL A   1      42.804  24.267  26.632  1.00  0.00     0.014 A 
ATOM     34  C   UNL A   1      42.345  25.661  29.024  1.00  0.00     0.010 A 
ATOM     35  C   UNL A   1      42.974  25.648  26.675  1.00  0.00     0.010 A 
ATOM     36  C   UNL A   1      42.695  26.349  27.857  1.00  0.00    -0.014 A 
BRANCH  36  37
ATOM     37  C   UNL A   1      42.752  27.815  27.920  1.00  0.00     0.031 A 
ATOM     38  C   UNL A   1      41.434  28.496  27.901  1.00  0.00     0.074 A 
ATOM     39  C   UNL A   1      43.812  28.464  28.444  1.00  0.00     0.049 A 
ATOM     40  N   UNL A   1      40.688  28.574  28.960  1.00  0.00    -0.248 NA
ATOM     41  C   UNL A   1      40.778  28.942  26.674  1.00  0.00     0.031 C 
ATOM     42  C   UNL A   1      44.786  27.857  29.364  1.00  0.00     0.029 A 
ATOM     43  N   UNL A   1      44.119  29.804  28.464  1.00  0.00    -0.354 N 
ATOM     44  C   UNL A   1      39.446  29.011  28.553  1.00  0.00     0.074 A 
ATOM     45  C   UNL A   1      39.554  29.253  27.129  1.00  0.00     0.031 C 
ATOM     46  C   UNL A   1      45.439  28.843  30.012  1.00  0.00     0.029 A 
ATOM     47  C   UNL A   1      45.060  30.127  29.438  1.00  0.00     0.049 A 
ATOM     48  H   UNL A   1      43.715  30.464  27.855  1.00  0.00     0.167 HD
ATOM     49  C   UNL A   1      38.397  29.136  29.407  1.00  0.00     0.034 A 
ATOM     50  C   UNL A   1      45.150  31.323  30.080  1.00  0.00     0.034 A 
ATOM     51  C   UNL A   1      38.664  28.770  30.768  1.00  0.00     0.049 A 
ATOM     52  C   UNL A   1      43.841  31.344  30.841  1.00  0.00     0.074 A 
ATOM     53  C   UNL A   1      38.597  27.612  31.515  1.00  0.00     0.029 A 
ATOM     54  N   UNL A   1      39.310  29.674  31.579  1.00  0.00    -0.354 N 
ATOM     55  N   UNL A   1      43.574  30.659  31.924  1.00  0.00    -0.248 NA
ATOM     56  C   UNL A   1      42.665  31.883  30.156  1.00  0.00     0.031 C 
ATOM     57  C   UNL A   1      39.593  27.753  32.533  1.00  0.00     0.029 A 
ATOM     58  C   UNL A   1      40.235  28.970  32.313  1.00  0.00     0.049 A 
ATOM     59  H   UNL A   1      39.140  30.643  31.625  1.00  0.00     0.167 HD
ATOM     60  C   UNL A   1      42.197  30.425  31.882  1.00  0.00     0.074 A 
ATOM     61  C   UNL A   1      41.697  31.226  30.782  1.00  0.00     0.031 C 
ATOM     62  C   UNL A   1      41.559  29.470  32.620  1.00  0.00     0.034 A 
BRANCH  49  63
ATOM     63  C   UNL A   1      37.115  29.753  29.018  1.00  0.00     0.023 A 
ATOM     64  C   UNL A   1      36.402  29.147  27.968  1.00  0.00     0.012 A 
ATOM     65  C   UNL A   1      36.667  30.970  29.558  1.00  0.00     0.148 A 
ATOM     66  C   UNL A   1      35.271  29.757  27.433  1.00  0.00     0.002 A 
ATOM     67  C   UNL A   1      35.533  31.574  29.022  1.00  0.00     0.091 A 
ATOM     68  F   UNL A   1      37.368  31.526  30.556  1.00  0.00    -0.205 F 
ATOM     69  C   UNL A   1      34.841  30.973  27.956  1.00  0.00     0.022 A 
BRANCH  67  70
ATOM     70  S   UNL A   1      34.884  33.138  29.620  1.00  0.00     0.127 S 
ATOM     71  O   UNL A   1      34.441  32.785  30.967  1.00  0.00    -0.237 OA
ATOM     72  O   UNL A   1      36.070  33.996  29.574  1.00  0.00    -0.237 OA
ATOM     73  O   UNL A   1      33.830  33.518  28.690  1.00  0.00    -0.744 OA
ENDBRANCH  67  70
ENDBRANCH  49  63
BRANCH  50  74
ATOM     74  C   UNL A   1      45.614  32.459  29.205  1.00  0.00     0.023 A 
ATOM     75  C   UNL A   1      46.727  33.217  29.652  1.00  0.00     0.012 A 
ATOM     76  C   UNL A   1      45.032  32.834  27.980  1.00  0.00     0.148 A 
ATOM     77  C   UNL A   1      47.309  34.214  28.868  1.00  0.00     0.002 A 
ATOM     78  C   UNL A   1      45.647  33.793  27.174  1.00  0.00     0.091 A 
ATOM     79  F   UNL A   1      43.894  32.244  27.596  1.00  0.00    -0.205 F 
ATOM     80  C   UNL A   1      46.785  34.482  27.613  1.00  0.00     0.022 A 
BRANCH  78  81
ATOM     81  S   UNL A   1      45.086  34.154  25.503  1.00  0.00     0.127 S 
ATOM     82  O   UNL A   1      43.927  35.011  25.746  1.00  0.00    -0.237 OA
ATOM     83  O   UNL A   1      46.254  34.838  24.950  1.00  0.00    -0.237 OA
ATOM     84  O   UNL A   1      44.778  32.864  24.903  1.00  0.00    -0.744 OA
ENDBRANCH  78  81
ENDBRANCH  50  74
BRANCH  62  85
ATOM     85  C   UNL A   1      42.369  28.778  33.673  1.00  0.00     0.023 A 
ATOM     86  C   UNL A   1      42.321  29.284  34.986  1.00  0.00     0.012 A 
ATOM     87  C   UNL A   1      43.084  27.591  33.416  1.00  0.00     0.148 A 
ATOM     88  C   UNL A   1      42.948  28.608  36.032  1.00  0.00     0.002 A 
ATOM     89  C   UNL A   1      43.687  26.908  34.467  1.00  0.00     0.091 A 
ATOM     90  F   UNL A   1      43.124  27.117  32.161  1.00  0.00    -0.205 F 
ATOM     91  C   UNL A   1      43.619  27.415  35.776  1.00  0.00     0.022 A 
BRANCH  89  92
ATOM     92  S   UNL A   1      44.540  25.341  34.244  1.00  0.00     0.127 S 
ATOM     93  O   UNL A   1      45.555  25.676  33.243  1.00  0.00    -0.237 OA
ATOM     94  O   UNL A   1      45.071  25.093  35.584  1.00  0.00    -0.237 OA
ATOM     95  O   UNL A   1      43.536  24.393  33.781  1.00  0.00    -0.744 OA
ENDBRANCH  89  92
ENDBRANCH  62  85
ENDBRANCH  36  37
ENDBRANCH  28  31
ENDBRANCH  26  27
ENDBRANCH  25  26
ENDBRANCH   1  25
TORSDOF 18
ENDMDL
MODEL 2
REMARK VINA RESULT:     -11.7      4.776      9.841
REMARK SMILES O=C(/C=C/C(=O)N1CCn2c1nc1ccccc12)NCCCCCCNC(=O)c1ccc(-c2c3nc(c(-c4cccc(S(=O)(=O)[O-])c4F)c4ccc([nH]4)c(-c4cccc(S(=O)(=O)[O-])c4F)c4nc(c(-c5cccc(S(=O)(=O)[O-])c5F)c5ccc2[nH]5)C=C4)C=C3)cc1
REMARK SMILES IDX 23 1 22 2 21 3 20 4 19 5 1 6 2 7 3 9 4 10 5 11 6 12 7 13
REMARK SMILES IDX 8 14 11 15 9 16 10 17 12 18 18 19 13 20 17 21 14 22 16 23
REMARK SMILES IDX 15 24 24 25 25 26 26 27 27 28 28 30 29 31 30 32 91 33 31 34
REMARK SMILES IDX 90 35 32 36 33 37 34 38 84 39 35 40 89 41 83 42 85 43 36 44
REMARK SMILES IDX 88 45 82 46 81 47 37 49 69 50 49 51 68 52 50 53 53 54 67 55
REMARK SMILES IDX 86 56 51 57 52 58 66 60 87 61 54 62 38 63 39 64 47 65 40 66
REMARK SMILES IDX 42 67 48 68 41 69 43 70 44 71 45 72 46 73 70 74 71 75 79 76
REMARK SMILES IDX 72 77 74 78 80 79 73 80 75 81 76 82 77 83 78 84 55 85 56 86
REMARK SMILES IDX 64 87 57 88 59 89 65 90 58 91 60 92 61 93 62 94 63 95
REMARK H PARENT 19 8 26 29 85 48 53 59
REMARK Flexibility Score: inf
ROOT
ATOM      1  C   UNL A   1      45.152  27.357  37.574  1.00  0.00     0.002 C 
ENDROOT
BRANCH   1   2
ATOM      2  C   UNL A   1      45.059  28.082  36.224  1.00  0.00     0.002 C 
BRANCH   2   3
ATOM      3  C   UNL A   1      43.888  29.067  36.071  1.00  0.00     0.021 C 
BRANCH   3   4
ATOM      4  C   UNL A   1      44.296  30.542  36.100  1.00  0.00     0.116 C 
BRANCH   4   5
ATOM      5  N   UNL A   1      43.625  31.283  35.048  1.00  0.00    -0.353 N 
ATOM      6  O   UNL A   1      44.170  33.371  35.830  1.00  0.00    -0.270 OA
ATOM      7  C   UNL A   1      43.560  32.650  35.046  1.00  0.00     0.244 C 
ATOM      8  H   UNL A   1      43.202  30.786  34.311  1.00  0.00     0.163 HD
BRANCH   7   9
ATOM      9  C   UNL A   1      42.588  33.275  34.112  1.00  0.00     0.077 C 
ATOM     10  C   UNL A   1      41.369  32.816  33.798  1.00  0.00     0.077 C 
BRANCH  10  11
ATOM     11  C   UNL A   1      40.374  33.701  33.153  1.00  0.00     0.253 C 
ATOM     12  O   UNL A   1      40.780  34.794  32.744  1.00  0.00    -0.269 OA
BRANCH  11  13
ATOM     13  N   UNL A   1      39.072  33.330  32.982  1.00  0.00    -0.277 N 
ATOM     14  C   UNL A   1      38.222  32.926  34.115  1.00  0.00     0.151 C 
ATOM     15  C   UNL A   1      38.377  33.201  31.814  1.00  0.00     0.213 A 
ATOM     16  C   UNL A   1      36.898  32.467  33.487  1.00  0.00     0.148 C 
ATOM     17  N   UNL A   1      37.125  32.734  32.081  1.00  0.00    -0.308 N 
ATOM     18  N   UNL A   1      38.568  33.363  30.536  1.00  0.00    -0.212 NA
ATOM     19  C   UNL A   1      36.425  32.595  30.939  1.00  0.00     0.070 A 
ATOM     20  C   UNL A   1      37.353  32.996  29.967  1.00  0.00     0.091 A 
ATOM     21  C   UNL A   1      35.127  32.176  30.643  1.00  0.00     0.028 A 
ATOM     22  C   UNL A   1      36.965  32.976  28.619  1.00  0.00     0.031 A 
ATOM     23  C   UNL A   1      34.765  32.170  29.291  1.00  0.00     0.002 A 
ATOM     24  C   UNL A   1      35.665  32.560  28.296  1.00  0.00     0.002 A 
ENDBRANCH  11  13
ENDBRANCH  10  11
ENDBRANCH   7   9
ENDBRANCH   4   5
ENDBRANCH   3   4
ENDBRANCH   2   3
ENDBRANCH   1   2
BRANCH   1  25
ATOM     25  C   UNL A   1      44.110  26.259  37.806  1.00  0.00     0.021 C 
BRANCH  25  26
ATOM     26  C   UNL A   1      44.508  24.894  37.249  1.00  0.00     0.116 C 
BRANCH  26  27
ATOM     27  N   UNL A   1      43.390  24.137  36.707  1.00  0.00    -0.352 N 
ATOM     28  C   UNL A   1      42.901  24.143  35.417  1.00  0.00     0.251 C 
ATOM     29  H   UNL A   1      42.925  23.545  37.341  1.00  0.00     0.163 HD
ATOM     30  O   UNL A   1      41.948  23.454  35.097  1.00  0.00    -0.269 OA
BRANCH  28  31
ATOM     31  C   UNL A   1      43.571  25.020  34.439  1.00  0.00     0.039 A 
ATOM     32  C   UNL A   1      42.993  26.252  34.113  1.00  0.00     0.014 A 
ATOM     33  C   UNL A   1      44.686  24.539  33.751  1.00  0.00     0.014 A 
ATOM     34  C   UNL A   1      43.445  26.940  32.995  1.00  0.00     0.010 A 
ATOM     35  C   UNL A   1      45.165  25.253  32.656  1.00  0.00     0.010 A 
ATOM     36  C   UNL A   1      44.512  26.425  32.249  1.00  0.00    -0.014 A 
BRANCH  36  37
ATOM     37  C   UNL A   1      44.910  27.152  31.036  1.00  0.00     0.031 A 
ATOM     38  C   UNL A   1      45.079  26.311  29.826  1.00  0.00     0.074 A 
ATOM     39  C   UNL A   1      44.662  28.470  30.884  1.00  0.00     0.049 A 
ATOM     40  N   UNL A   1      44.063  25.898  29.132  1.00  0.00    -0.248 NA
ATOM     41  C   UNL A   1      46.353  25.708  29.438  1.00  0.00     0.031 C 
ATOM     42  C   UNL A   1      43.645  29.217  31.638  1.00  0.00     0.029 A 
ATOM     43  N   UNL A   1      45.073  29.348  29.910  1.00  0.00    -0.354 N 
ATOM     44  C   UNL A   1      44.529  24.939  28.259  1.00  0.00     0.074 A 
ATOM     45  C   UNL A   1      45.961  24.871  28.465  1.00  0.00     0.031 C 
ATOM     46  C   UNL A   1      43.366  30.356  30.973  1.00  0.00     0.029 A 
ATOM     47  C   UNL A   1      44.293  30.500  29.858  1.00  0.00     0.049 A 
ATOM     48  H   UNL A   1      45.838  29.180  29.312  1.00  0.00     0.167 HD
ATOM     49  C   UNL A   1      43.709  24.245  27.428  1.00  0.00     0.034 A 
ATOM     50  C   UNL A   1      44.058  31.243  28.743  1.00  0.00     0.034 A 
ATOM     51  C   UNL A   1      42.315  24.570  27.525  1.00  0.00     0.049 A 
ATOM     52  C   UNL A   1      43.282  30.259  27.894  1.00  0.00     0.074 A 
ATOM     53  C   UNL A   1      41.243  24.128  28.272  1.00  0.00     0.029 A 
ATOM     54  N   UNL A   1      41.855  25.697  26.884  1.00  0.00    -0.354 N 
ATOM     55  N   UNL A   1      42.029  29.921  28.065  1.00  0.00    -0.248 NA
ATOM     56  C   UNL A   1      44.045  29.349  27.038  1.00  0.00     0.031 C 
ATOM     57  C   UNL A   1      40.366  25.253  28.389  1.00  0.00     0.029 A 
ATOM     58  C   UNL A   1      40.982  26.322  27.742  1.00  0.00     0.049 A 
ATOM     59  H   UNL A   1      42.104  25.998  25.980  1.00  0.00     0.167 HD
ATOM     60  C   UNL A   1      41.933  28.608  27.596  1.00  0.00     0.074 A 
ATOM     61  C   UNL A   1      43.203  28.328  26.956  1.00  0.00     0.031 C 
ATOM     62  C   UNL A   1      40.906  27.760  27.897  1.00  0.00     0.034 A 
BRANCH  49  63
ATOM     63  C   UNL A   1      44.211  23.335  26.381  1.00  0.00     0.023 A 
ATOM     64  C   UNL A   1      44.981  23.903  25.350  1.00  0.00     0.012 A 
ATOM     65  C   UNL A   1      43.837  21.983  26.311  1.00  0.00     0.148 A 
ATOM     66  C   UNL A   1      45.352  23.146  24.242  1.00  0.00     0.002 A 
ATOM     67  C   UNL A   1      44.214  21.230  25.203  1.00  0.00     0.091 A 
ATOM     68  F   UNL A   1      43.100  21.469  27.307  1.00  0.00    -0.205 F 
ATOM     69  C   UNL A   1      44.963  21.813  24.166  1.00  0.00     0.022 A 
BRANCH  67  70
ATOM     70  S   UNL A   1      43.775  19.500  25.001  1.00  0.00     0.127 S 
ATOM     71  O   UNL A   1      44.204  19.237  23.630  1.00  0.00    -0.237 OA
ATOM     72  O   UNL A   1      44.594  18.857  26.030  1.00  0.00    -0.237 OA
ATOM     73  O   UNL A   1      42.340  19.420  25.237  1.00  0.00    -0.744 OA
ENDBRANCH  67  70
ENDBRANCH  49  63
BRANCH  50  74
ATOM     74  C   UNL A   1      45.263  31.997  28.240  1.00  0.00     0.023 A 
ATOM     75  C   UNL A   1      46.536  31.578  28.705  1.00  0.00     0.012 A 
ATOM     76  C   UNL A   1      45.230  33.084  27.350  1.00  0.00     0.148 A 
ATOM     77  C   UNL A   1      47.722  32.129  28.217  1.00  0.00     0.002 A 
ATOM     78  C   UNL A   1      46.416  33.598  26.822  1.00  0.00     0.091 A 
ATOM     79  F   UNL A   1      44.045  33.605  27.006  1.00  0.00    -0.205 F 
ATOM     80  C   UNL A   1      47.662  33.121  27.251  1.00  0.00     0.022 A 
BRANCH  78  81
ATOM     81  S   UNL A   1      46.437  34.831  25.513  1.00  0.00     0.127 S 
ATOM     82  O   UNL A   1      45.468  34.286  24.562  1.00  0.00    -0.237 OA
ATOM     83  O   UNL A   1      45.991  36.023  26.232  1.00  0.00    -0.237 OA
ATOM     84  O   UNL A   1      47.810  34.871  25.030  1.00  0.00    -0.744 OA
ENDBRANCH  78  81
ENDBRANCH  50  74
BRANCH  62  85
ATOM     85  C   UNL A   1      39.729  28.352  28.609  1.00  0.00     0.023 A 
ATOM     86  C   UNL A   1      38.667  28.851  27.833  1.00  0.00     0.012 A 
ATOM     87  C   UNL A   1      39.607  28.328  30.013  1.00  0.00     0.148 A 
ATOM     88  C   UNL A   1      37.490  29.294  28.437  1.00  0.00     0.002 A 
ATOM     89  C   UNL A   1      38.422  28.747  30.609  1.00  0.00     0.091 A 
ATOM     90  F   UNL A   1      40.625  27.850  30.744  1.00  0.00    -0.205 F 
ATOM     91  C   UNL A   1      37.363  29.231  29.822  1.00  0.00     0.022 A 
BRANCH  89  92
ATOM     92  S   UNL A   1      38.147  28.666  32.384  1.00  0.00     0.127 S 
ATOM     93  O   UNL A   1      39.175  29.570  32.903  1.00  0.00    -0.237 OA
ATOM     94  O   UNL A   1      36.780  29.173  32.501  1.00  0.00    -0.237 OA
ATOM     95  O   UNL A   1      38.333  27.271  32.761  1.00  0.00    -0.744 OA
ENDBRANCH  89  92
ENDBRANCH  62  85
ENDBRANCH  36  37
ENDBRANCH  28  31
ENDBRANCH  26  27
ENDBRANCH  25  26
ENDBRANCH   1  25
TORSDOF 18
ENDMDL
MODEL 3
REMARK VINA RESULT:     -11.6      8.032     13.841
REMARK SMILES O=C(/C=C/C(=O)N1CCn2c1nc1ccccc12)NCCCCCCNC(=O)c1ccc(-c2c3nc(c(-c4cccc(S(=O)(=O)[O-])c4F)c4ccc([nH]4)c(-c4cccc(S(=O)(=O)[O-])c4F)c4nc(c(-c5cccc(S(=O)(=O)[O-])c5F)c5ccc2[nH]5)C=C4)C=C3)cc1
REMARK SMILES IDX 23 1 22 2 21 3 20 4 19 5 1 6 2 7 3 9 4 10 5 11 6 12 7 13
REMARK SMILES IDX 8 14 11 15 9 16 10 17 12 18 18 19 13 20 17 21 14 22 16 23
REMARK SMILES IDX 15 24 24 25 25 26 26 27 27 28 28 30 29 31 30 32 91 33 31 34
REMARK SMILES IDX 90 35 32 36 33 37 34 38 84 39 35 40 89 41 83 42 85 43 36 44
REMARK SMILES IDX 88 45 82 46 81 47 37 49 69 50 49 51 68 52 50 53 53 54 67 55
REMARK SMILES IDX 86 56 51 57 52 58 66 60 87 61 54 62 38 63 39 64 47 65 40 66
REMARK SMILES IDX 42 67 48 68 41 69 43 70 44 71 45 72 46 73 70 74 71 75 79 76
REMARK SMILES IDX 72 77 74 78 80 79 73 80 75 81 76 82 77 83 78 84 55 85 56 86
REMARK SMILES IDX 64 87 57 88 59 89 65 90 58 91 60 92 61 93 62 94 63 95
REMARK H PARENT 19 8 26 29 85 48 53 59
REMARK Flexibility Score: inf
ROOT
ATOM      1  C   UNL A   1      46.473  21.245  37.089  1.00  0.00     0.002 C 
ENDROOT
BRANCH   1   2
ATOM      2  C   UNL A   1      47.860  20.727  37.500  1.00  0.00     0.002 C 
BRANCH   2   3
ATOM      3  C   UNL A   1      47.869  19.511  38.441  1.00  0.00     0.021 C 
BRANCH   3   4
ATOM      4  C   UNL A   1      46.521  18.797  38.565  1.00  0.00     0.116 C 
BRANCH   4   5
ATOM      5  N   UNL A   1      46.490  17.955  39.746  1.00  0.00    -0.353 N 
ATOM      6  O   UNL A   1      44.311  17.276  39.507  1.00  0.00    -0.270 OA
ATOM      7  C   UNL A   1      45.351  17.318  40.158  1.00  0.00     0.244 C 
ATOM      8  H   UNL A   1      47.315  17.839  40.269  1.00  0.00     0.163 HD
BRANCH   7   9
ATOM      9  C   UNL A   1      45.355  16.757  41.533  1.00  0.00     0.077 C 
ATOM     10  C   UNL A   1      45.415  17.447  42.680  1.00  0.00     0.077 C 
BRANCH  10  11
ATOM     11  C   UNL A   1      45.049  16.808  43.964  1.00  0.00     0.253 C 
ATOM     12  O   UNL A   1      44.568  17.540  44.835  1.00  0.00    -0.269 OA
BRANCH  11  13
ATOM     13  N   UNL A   1      45.201  15.470  44.180  1.00  0.00    -0.277 N 
ATOM     14  C   UNL A   1      46.482  14.892  44.620  1.00  0.00     0.151 C 
ATOM     15  C   UNL A   1      44.290  14.472  43.978  1.00  0.00     0.213 A 
ATOM     16  C   UNL A   1      46.266  13.371  44.614  1.00  0.00     0.148 C 
ATOM     17  N   UNL A   1      44.870  13.269  44.244  1.00  0.00    -0.308 N 
ATOM     18  N   UNL A   1      43.057  14.336  43.582  1.00  0.00    -0.212 NA
ATOM     19  C   UNL A   1      43.986  12.271  44.046  1.00  0.00     0.070 A 
ATOM     20  C   UNL A   1      42.842  12.963  43.624  1.00  0.00     0.091 A 
ATOM     21  C   UNL A   1      44.047  10.883  44.177  1.00  0.00     0.028 A 
ATOM     22  C   UNL A   1      41.689  12.227  43.312  1.00  0.00     0.031 A 
ATOM     23  C   UNL A   1      42.882  10.174  43.863  1.00  0.00     0.002 A 
ATOM     24  C   UNL A   1      41.724  10.831  43.437  1.00  0.00     0.002 A 
ENDBRANCH  11  13
ENDBRANCH  10  11
ENDBRANCH   7   9
ENDBRANCH   4   5
ENDBRANCH   3   4
ENDBRANCH   2   3
ENDBRANCH   1   2
BRANCH   1  25
ATOM     25  C   UNL A   1      46.126  21.094  35.605  1.00  0.00     0.021 C 
BRANCH  25  26
ATOM     26  C   UNL A   1      44.902  21.896  35.168  1.00  0.00     0.116 C 
BRANCH  26  27
ATOM     27  N   UNL A   1      44.585  23.006  36.054  1.00  0.00    -0.352 N 
ATOM     28  C   UNL A   1      44.547  24.353  35.753  1.00  0.00     0.251 C 
ATOM     29  H   UNL A   1      44.370  22.766  36.984  1.00  0.00     0.163 HD
ATOM     30  O   UNL A   1      44.265  25.183  36.600  1.00  0.00    -0.269 OA
BRANCH  28  31
ATOM     31  C   UNL A   1      44.866  24.751  34.370  1.00  0.00     0.039 A 
ATOM     32  C   UNL A   1      46.183  25.091  34.041  1.00  0.00     0.014 A 
ATOM     33  C   UNL A   1      43.824  24.923  33.458  1.00  0.00     0.014 A 
ATOM     34  C   UNL A   1      46.436  25.744  32.841  1.00  0.00     0.010 A 
ATOM     35  C   UNL A   1      44.088  25.538  32.238  1.00  0.00     0.010 A 
ATOM     36  C   UNL A   1      45.383  25.993  31.953  1.00  0.00    -0.014 A 
BRANCH  36  37
ATOM     37  C   UNL A   1      45.688  26.747  30.729  1.00  0.00     0.031 A 
ATOM     38  C   UNL A   1      45.741  25.936  29.488  1.00  0.00     0.074 A 
ATOM     39  C   UNL A   1      45.449  28.071  30.632  1.00  0.00     0.049 A 
ATOM     40  N   UNL A   1      44.664  25.556  28.872  1.00  0.00    -0.248 NA
ATOM     41  C   UNL A   1      46.968  25.327  28.978  1.00  0.00     0.031 C 
ATOM     42  C   UNL A   1      44.511  28.812  31.488  1.00  0.00     0.029 A 
ATOM     43  N   UNL A   1      45.790  28.970  29.649  1.00  0.00    -0.354 N 
ATOM     44  C   UNL A   1      45.039  24.613  27.939  1.00  0.00     0.074 A 
ATOM     45  C   UNL A   1      46.482  24.521  28.021  1.00  0.00     0.031 C 
ATOM     46  C   UNL A   1      44.195  29.972  30.879  1.00  0.00     0.029 A 
ATOM     47  C   UNL A   1      45.026  30.133  29.693  1.00  0.00     0.049 A 
ATOM     48  H   UNL A   1      46.498  28.808  28.985  1.00  0.00     0.167 HD
ATOM     49  C   UNL A   1      44.141  23.953  27.163  1.00  0.00     0.034 A 
ATOM     50  C   UNL A   1      44.709  30.908  28.621  1.00  0.00     0.034 A 
ATOM     51  C   UNL A   1      42.765  24.294  27.387  1.00  0.00     0.049 A 
ATOM     52  C   UNL A   1      43.849  29.957  27.816  1.00  0.00     0.074 A 
ATOM     53  C   UNL A   1      41.754  23.847  28.211  1.00  0.00     0.029 A 
ATOM     54  N   UNL A   1      42.271  25.443  26.816  1.00  0.00    -0.354 N 
ATOM     55  N   UNL A   1      42.609  29.632  28.084  1.00  0.00    -0.248 NA
ATOM     56  C   UNL A   1      44.523  29.060  26.876  1.00  0.00     0.031 C 
ATOM     57  C   UNL A   1      40.908  24.980  28.431  1.00  0.00     0.029 A 
ATOM     58  C   UNL A   1      41.483  26.058  27.761  1.00  0.00     0.049 A 
ATOM     59  H   UNL A   1      42.447  25.765  25.902  1.00  0.00     0.167 HD
ATOM     60  C   UNL A   1      42.454  28.334  27.593  1.00  0.00     0.074 A 
ATOM     61  C   UNL A   1      43.661  28.053  26.840  1.00  0.00     0.031 C 
ATOM     62  C   UNL A   1      41.443  27.492  27.958  1.00  0.00     0.034 A 
BRANCH  49  63
ATOM     63  C   UNL A   1      44.538  23.064  26.055  1.00  0.00     0.023 A 
ATOM     64  C   UNL A   1      45.119  23.666  24.924  1.00  0.00     0.012 A 
ATOM     65  C   UNL A   1      44.235  21.693  26.040  1.00  0.00     0.148 A 
ATOM     66  C   UNL A   1      45.370  22.923  23.775  1.00  0.00     0.002 A 
ATOM     67  C   UNL A   1      44.491  20.954  24.888  1.00  0.00     0.091 A 
ATOM     68  F   UNL A   1      43.679  21.146  27.130  1.00  0.00    -0.205 F 
ATOM     69  C   UNL A   1      45.050  21.569  23.755  1.00  0.00     0.022 A 
BRANCH  67  70
ATOM     70  S   UNL A   1      44.126  19.200  24.751  1.00  0.00     0.127 S 
ATOM     71  O   UNL A   1      42.683  19.174  24.975  1.00  0.00    -0.237 OA
ATOM     72  O   UNL A   1      44.535  18.912  23.375  1.00  0.00    -0.237 OA
ATOM     73  O   UNL A   1      44.933  18.541  25.769  1.00  0.00    -0.744 OA
ENDBRANCH  67  70
ENDBRANCH  49  63
BRANCH  50  74
ATOM     74  C   UNL A   1      45.879  31.659  28.037  1.00  0.00     0.023 A 
ATOM     75  C   UNL A   1      47.171  31.105  28.226  1.00  0.00     0.012 A 
ATOM     76  C   UNL A   1      45.796  32.866  27.321  1.00  0.00     0.148 A 
ATOM     77  C   UNL A   1      48.309  31.654  27.632  1.00  0.00     0.002 A 
ATOM     78  C   UNL A   1      46.925  33.385  26.683  1.00  0.00     0.091 A 
ATOM     79  F   UNL A   1      44.618  33.498  27.249  1.00  0.00    -0.205 F 
ATOM     80  C   UNL A   1      48.180  32.780  26.834  1.00  0.00     0.022 A 
BRANCH  78  81
ATOM     81  S   UNL A   1      46.843  34.794  25.569  1.00  0.00     0.127 S 
ATOM     82  O   UNL A   1      48.147  34.742  24.910  1.00  0.00    -0.237 OA
ATOM     83  O   UNL A   1      45.710  34.425  24.722  1.00  0.00    -0.237 OA
ATOM     84  O   UNL A   1      46.633  35.958  26.417  1.00  0.00    -0.744 OA
ENDBRANCH  78  81
ENDBRANCH  50  74
BRANCH  62  85
ATOM     85  C   UNL A   1      40.340  28.080  28.782  1.00  0.00     0.023 A 
ATOM     86  C   UNL A   1      39.180  28.522  28.119  1.00  0.00     0.012 A 
ATOM     87  C   UNL A   1      40.383  28.107  30.191  1.00  0.00     0.148 A 
ATOM     88  C   UNL A   1      38.069  28.957  28.842  1.00  0.00     0.002 A 
ATOM     89  C   UNL A   1      39.263  28.519  30.907  1.00  0.00     0.091 A 
ATOM     90  F   UNL A   1      41.493  27.684  30.814  1.00  0.00    -0.205 F 
ATOM     91  C   UNL A   1      38.106  28.944  30.234  1.00  0.00     0.022 A 
BRANCH  89  92
ATOM     92  S   UNL A   1      39.200  28.498  32.704  1.00  0.00     0.127 S 
ATOM     93  O   UNL A   1      38.162  27.500  32.970  1.00  0.00    -0.237 OA
ATOM     94  O   UNL A   1      40.555  28.070  33.049  1.00  0.00    -0.237 OA
ATOM     95  O   UNL A   1      38.845  29.851  33.115  1.00  0.00    -0.744 OA
ENDBRANCH  89  92
ENDBRANCH  62  85
ENDBRANCH  36  37
ENDBRANCH  28  31
ENDBRANCH  26  27
ENDBRANCH  25  26
ENDBRANCH   1  25
TORSDOF 18
ENDMDL
