MODEL 1
REMARK VINA RESULT:     -12.2      0.000      0.000
REMARK SMILES Cc1cc(Br)cc2c1O[C@H](C(F)(F)F)C(C(=O)NCCCCCCNC(=O)c1ccc(-c3c4nc(c(-c5cccc(S(=O)(=O)[O-])c5F)c5ccc([nH]5)c(-c5cccc(S(=O)(=O)[O-])c5F)c5nc(c(-c6cccc(S(=O)(=O)[O-])c6F)c6ccc3[nH]6)C=C5)C=C4)cc1)=C2
REMARK SMILES IDX 22 1 21 2 20 3 19 4 18 5 16 6 17 7 15 9 1 10 2 11 3 12 8 13
REMARK SMILES IDX 4 14 7 15 9 16 5 17 6 18 91 19 10 20 11 21 12 22 13 23 14 24
REMARK SMILES IDX 23 25 24 26 25 27 26 28 27 30 28 31 29 32 90 33 30 34 89 35
REMARK SMILES IDX 31 36 32 37 33 38 83 39 34 40 88 41 82 42 84 43 35 44 87 45
REMARK SMILES IDX 81 46 80 47 36 49 68 50 48 51 67 52 49 53 52 54 66 55 85 56
REMARK SMILES IDX 50 57 51 58 65 60 86 61 53 62 37 63 38 64 46 65 39 66 41 67
REMARK SMILES IDX 47 68 40 69 42 70 43 71 44 72 45 73 69 74 70 75 78 76 71 77
REMARK SMILES IDX 73 78 79 79 72 80 74 81 75 82 76 83 77 84 54 85 55 86 63 87
REMARK SMILES IDX 56 88 58 89 64 90 57 91 59 92 60 93 61 94 62 95
REMARK H PARENT 18 8 25 29 84 48 52 59
REMARK Flexibility Score: inf
ROOT
ATOM      1  C   UNL A   1      31.486  27.347  26.269  1.00  0.00     0.002 C 
ENDROOT
BRANCH   1   2
ATOM      2  C   UNL A   1      30.527  26.219  25.868  1.00  0.00     0.002 C 
BRANCH   2   3
ATOM      3  C   UNL A   1      29.943  26.338  24.458  1.00  0.00     0.021 C 
BRANCH   3   4
ATOM      4  C   UNL A   1      30.304  25.168  23.548  1.00  0.00     0.116 C 
BRANCH   4   5
ATOM      5  N   UNL A   1      31.357  25.518  22.609  1.00  0.00    -0.352 N 
ATOM      6  C   UNL A   1      32.610  25.094  22.321  1.00  0.00     0.251 C 
ATOM      7  O   UNL A   1      33.161  25.674  21.379  1.00  0.00    -0.270 OA
ATOM      8  H   UNL A   1      31.088  26.265  22.027  1.00  0.00     0.163 HD
BRANCH   6   9
ATOM      9  C   UNL A   1      33.341  24.012  23.047  1.00  0.00     0.067 C 
ATOM     10  C   UNL A   1      36.823  20.928  25.284  1.00  0.00     0.048 C 
ATOM     11  C   UNL A   1      35.395  20.797  24.830  1.00  0.00    -0.007 A 
ATOM     12  C   UNL A   1      34.728  19.579  25.007  1.00  0.00     0.023 A 
ATOM     13  C   UNL A   1      34.713  21.852  24.209  1.00  0.00     0.130 A 
ATOM     14  C   UNL A   1      33.411  19.430  24.572  1.00  0.00     0.019 A 
ATOM     15  C   UNL A   1      33.395  21.702  23.762  1.00  0.00     0.019 A 
ATOM     16  O   UNL A   1      35.409  23.008  24.014  1.00  0.00    -0.475 OA
ATOM     17  Br  UNL A   1      32.529  17.774  24.815  1.00  0.00    -0.051 Br
ATOM     18  C   UNL A   1      32.741  20.482  23.948  1.00  0.00     0.027 A 
ATOM     19  C   UNL A   1      32.744  22.806  23.062  1.00  0.00     0.025 C 
ATOM     20  C   UNL A   1      34.644  24.211  23.765  1.00  0.00     0.314 C 
BRANCH  20  21
ATOM     21  C   UNL A   1      34.476  24.997  25.079  1.00  0.00     0.429 C 
ATOM     22  F   UNL A   1      35.554  24.823  25.881  1.00  0.00    -0.167 F 
ATOM     23  F   UNL A   1      34.360  26.331  24.874  1.00  0.00    -0.167 F 
ATOM     24  F   UNL A   1      33.381  24.613  25.773  1.00  0.00    -0.167 F 
ENDBRANCH  20  21
ENDBRANCH   6   9
ENDBRANCH   4   5
ENDBRANCH   3   4
ENDBRANCH   2   3
ENDBRANCH   1   2
BRANCH   1  25
ATOM     25  C   UNL A   1      31.736  28.411  25.194  1.00  0.00     0.021 C 
BRANCH  25  26
ATOM     26  C   UNL A   1      32.903  29.349  25.485  1.00  0.00     0.116 C 
BRANCH  26  27
ATOM     27  N   UNL A   1      32.444  30.666  25.896  1.00  0.00    -0.352 N 
ATOM     28  C   UNL A   1      32.907  31.469  26.903  1.00  0.00     0.251 C 
ATOM     29  H   UNL A   1      31.693  31.033  25.376  1.00  0.00     0.163 HD
ATOM     30  O   UNL A   1      32.252  32.455  27.251  1.00  0.00    -0.269 OA
BRANCH  28  31
ATOM     31  C   UNL A   1      34.184  31.156  27.571  1.00  0.00     0.039 A 
ATOM     32  C   UNL A   1      35.133  32.169  27.732  1.00  0.00     0.014 A 
ATOM     33  C   UNL A   1      34.455  29.857  28.015  1.00  0.00     0.014 A 
ATOM     34  C   UNL A   1      36.338  31.890  28.379  1.00  0.00     0.010 A 
ATOM     35  C   UNL A   1      35.630  29.595  28.711  1.00  0.00     0.010 A 
ATOM     36  C   UNL A   1      36.585  30.608  28.893  1.00  0.00    -0.014 A 
BRANCH  36  37
ATOM     37  C   UNL A   1      37.831  30.294  29.634  1.00  0.00     0.031 A 
ATOM     38  C   UNL A   1      38.831  29.336  29.050  1.00  0.00     0.074 A 
ATOM     39  C   UNL A   1      38.011  30.801  30.869  1.00  0.00     0.049 A 
ATOM     40  N   UNL A   1      39.918  28.850  29.589  1.00  0.00    -0.248 NA
ATOM     41  C   UNL A   1      38.566  28.844  27.688  1.00  0.00     0.031 C 
ATOM     42  C   UNL A   1      37.084  31.703  31.555  1.00  0.00     0.029 A 
ATOM     43  N   UNL A   1      39.019  30.604  31.780  1.00  0.00    -0.354 N 
ATOM     44  C   UNL A   1      40.450  27.975  28.650  1.00  0.00     0.074 A 
ATOM     45  C   UNL A   1      39.553  27.975  27.515  1.00  0.00     0.031 C 
ATOM     46  C   UNL A   1      37.563  31.979  32.777  1.00  0.00     0.029 A 
ATOM     47  C   UNL A   1      38.810  31.246  32.978  1.00  0.00     0.049 A 
ATOM     48  H   UNL A   1      39.816  30.057  31.592  1.00  0.00     0.167 HD
ATOM     49  C   UNL A   1      41.597  27.260  28.717  1.00  0.00     0.034 A 
ATOM     50  C   UNL A   1      39.534  31.235  34.114  1.00  0.00     0.034 A 
ATOM     51  C   UNL A   1      42.500  27.293  29.837  1.00  0.00     0.049 A 
ATOM     52  C   UNL A   1      40.813  30.443  34.154  1.00  0.00     0.074 A 
ATOM     53  C   UNL A   1      43.712  26.642  29.982  1.00  0.00     0.029 A 
ATOM     54  N   UNL A   1      42.295  28.017  31.001  1.00  0.00    -0.354 N 
ATOM     55  N   UNL A   1      41.357  29.707  33.215  1.00  0.00    -0.248 NA
ATOM     56  C   UNL A   1      41.598  30.508  35.395  1.00  0.00     0.031 C 
ATOM     57  C   UNL A   1      44.230  26.955  31.241  1.00  0.00     0.029 A 
ATOM     58  C   UNL A   1      43.358  27.830  31.868  1.00  0.00     0.049 A 
ATOM     59  H   UNL A   1      41.510  28.581  31.185  1.00  0.00     0.167 HD
ATOM     60  C   UNL A   1      42.566  29.257  33.734  1.00  0.00     0.074 A 
ATOM     61  C   UNL A   1      42.681  29.819  35.065  1.00  0.00     0.031 C 
ATOM     62  C   UNL A   1      43.488  28.441  33.167  1.00  0.00     0.034 A 
BRANCH  49  63
ATOM     63  C   UNL A   1      41.982  26.419  27.526  1.00  0.00     0.023 A 
ATOM     64  C   UNL A   1      42.736  26.999  26.486  1.00  0.00     0.012 A 
ATOM     65  C   UNL A   1      41.691  25.042  27.484  1.00  0.00     0.148 A 
ATOM     66  C   UNL A   1      43.181  26.225  25.415  1.00  0.00     0.002 A 
ATOM     67  C   UNL A   1      42.178  24.267  26.438  1.00  0.00     0.091 A 
ATOM     68  F   UNL A   1      40.954  24.514  28.473  1.00  0.00    -0.205 F 
ATOM     69  C   UNL A   1      42.915  24.858  25.398  1.00  0.00     0.022 A 
BRANCH  67  70
ATOM     70  S   UNL A   1      41.969  22.484  26.366  1.00  0.00     0.127 S 
ATOM     71  O   UNL A   1      42.597  22.063  27.619  1.00  0.00    -0.237 OA
ATOM     72  O   UNL A   1      40.513  22.348  26.339  1.00  0.00    -0.237 OA
ATOM     73  O   UNL A   1      42.647  22.045  25.155  1.00  0.00    -0.744 OA
ENDBRANCH  67  70
ENDBRANCH  49  63
BRANCH  50  74
ATOM     74  C   UNL A   1      39.099  32.061  35.277  1.00  0.00     0.023 A 
ATOM     75  C   UNL A   1      38.203  31.513  36.215  1.00  0.00     0.012 A 
ATOM     76  C   UNL A   1      39.606  33.358  35.489  1.00  0.00     0.148 A 
ATOM     77  C   UNL A   1      37.799  32.250  37.328  1.00  0.00     0.002 A 
ATOM     78  C   UNL A   1      39.246  34.063  36.632  1.00  0.00     0.091 A 
ATOM     79  F   UNL A   1      40.449  33.868  34.579  1.00  0.00    -0.205 F 
ATOM     80  C   UNL A   1      38.329  33.518  37.544  1.00  0.00     0.022 A 
BRANCH  78  81
ATOM     81  S   UNL A   1      39.991  35.640  37.068  1.00  0.00     0.127 S 
ATOM     82  O   UNL A   1      39.651  36.462  35.910  1.00  0.00    -0.237 OA
ATOM     83  O   UNL A   1      39.277  35.980  38.298  1.00  0.00    -0.237 OA
ATOM     84  O   UNL A   1      41.410  35.366  37.254  1.00  0.00    -0.744 OA
ENDBRANCH  78  81
ENDBRANCH  50  74
BRANCH  62  85
ATOM     85  C   UNL A   1      44.734  28.132  33.956  1.00  0.00     0.023 A 
ATOM     86  C   UNL A   1      45.845  28.995  33.880  1.00  0.00     0.012 A 
ATOM     87  C   UNL A   1      44.771  27.035  34.840  1.00  0.00     0.148 A 
ATOM     88  C   UNL A   1      46.985  28.752  34.645  1.00  0.00     0.002 A 
ATOM     89  C   UNL A   1      45.889  26.830  35.640  1.00  0.00     0.091 A 
ATOM     90  F   UNL A   1      43.712  26.214  34.885  1.00  0.00    -0.205 F 
ATOM     91  C   UNL A   1      47.002  27.678  35.534  1.00  0.00     0.022 A 
BRANCH  89  92
ATOM     92  S   UNL A   1      45.951  25.540  36.888  1.00  0.00     0.127 S 
ATOM     93  O   UNL A   1      46.258  24.360  36.082  1.00  0.00    -0.237 OA
ATOM     94  O   UNL A   1      47.046  25.993  37.749  1.00  0.00    -0.237 OA
ATOM     95  O   UNL A   1      44.643  25.540  37.529  1.00  0.00    -0.744 OA
ENDBRANCH  89  92
ENDBRANCH  62  85
ENDBRANCH  36  37
ENDBRANCH  28  31
ENDBRANCH  26  27
ENDBRANCH  25  26
ENDBRANCH   1  25
TORSDOF 17
ENDMDL
MODEL 2
REMARK VINA RESULT:     -12.1      1.328      7.601
REMARK SMILES Cc1cc(Br)cc2c1O[C@H](C(F)(F)F)C(C(=O)NCCCCCCNC(=O)c1ccc(-c3c4nc(c(-c5cccc(S(=O)(=O)[O-])c5F)c5ccc([nH]5)c(-c5cccc(S(=O)(=O)[O-])c5F)c5nc(c(-c6cccc(S(=O)(=O)[O-])c6F)c6ccc3[nH]6)C=C5)C=C4)cc1)=C2
REMARK SMILES IDX 22 1 21 2 20 3 19 4 18 5 16 6 17 7 15 9 1 10 2 11 3 12 8 13
REMARK SMILES IDX 4 14 7 15 9 16 5 17 6 18 91 19 10 20 11 21 12 22 13 23 14 24
REMARK SMILES IDX 23 25 24 26 25 27 26 28 27 30 28 31 29 32 90 33 30 34 89 35
REMARK SMILES IDX 31 36 32 37 33 38 83 39 34 40 88 41 82 42 84 43 35 44 87 45
REMARK SMILES IDX 81 46 80 47 36 49 68 50 48 51 67 52 49 53 52 54 66 55 85 56
REMARK SMILES IDX 50 57 51 58 65 60 86 61 53 62 37 63 38 64 46 65 39 66 41 67
REMARK SMILES IDX 47 68 40 69 42 70 43 71 44 72 45 73 69 74 70 75 78 76 71 77
REMARK SMILES IDX 73 78 79 79 72 80 74 81 75 82 76 83 77 84 54 85 55 86 63 87
REMARK SMILES IDX 56 88 58 89 64 90 57 91 59 92 60 93 61 94 62 95
REMARK H PARENT 18 8 25 29 84 48 52 59
REMARK Flexibility Score: inf
ROOT
ATOM      1  C   UNL A   1      31.615  27.733  26.454  1.00  0.00     0.002 C 
ENDROOT
BRANCH   1   2
ATOM      2  C   UNL A   1      30.678  26.767  25.717  1.00  0.00     0.002 C 
BRANCH   2   3
ATOM      3  C   UNL A   1      30.528  27.031  24.217  1.00  0.00     0.021 C 
BRANCH   3   4
ATOM      4  C   UNL A   1      30.534  25.762  23.370  1.00  0.00     0.116 C 
BRANCH   4   5
ATOM      5  N   UNL A   1      31.504  25.838  22.290  1.00  0.00    -0.352 N 
ATOM      6  C   UNL A   1      32.660  25.220  21.950  1.00  0.00     0.251 C 
ATOM      7  O   UNL A   1      33.159  25.585  20.880  1.00  0.00    -0.270 OA
ATOM      8  H   UNL A   1      31.254  26.523  21.629  1.00  0.00     0.163 HD
BRANCH   6   9
ATOM      9  C   UNL A   1      33.344  24.167  22.760  1.00  0.00     0.067 C 
ATOM     10  C   UNL A   1      36.674  21.191  25.346  1.00  0.00     0.048 C 
ATOM     11  C   UNL A   1      35.288  21.028  24.784  1.00  0.00    -0.007 A 
ATOM     12  C   UNL A   1      34.624  19.805  24.940  1.00  0.00     0.023 A 
ATOM     13  C   UNL A   1      34.645  22.057  24.083  1.00  0.00     0.130 A 
ATOM     14  C   UNL A   1      33.348  19.627  24.405  1.00  0.00     0.019 A 
ATOM     15  C   UNL A   1      33.369  21.877  23.537  1.00  0.00     0.019 A 
ATOM     16  O   UNL A   1      35.340  23.217  23.914  1.00  0.00    -0.475 OA
ATOM     17  Br  UNL A   1      32.470  17.965  24.621  1.00  0.00    -0.051 Br
ATOM     18  C   UNL A   1      32.717  20.653  23.702  1.00  0.00     0.027 A 
ATOM     19  C   UNL A   1      32.762  22.953  22.759  1.00  0.00     0.025 C 
ATOM     20  C   UNL A   1      34.582  24.403  23.573  1.00  0.00     0.314 C 
BRANCH  20  21
ATOM     21  C   UNL A   1      34.301  25.220  24.849  1.00  0.00     0.429 C 
ATOM     22  F   UNL A   1      35.331  25.112  25.722  1.00  0.00    -0.167 F 
ATOM     23  F   UNL A   1      34.149  26.541  24.595  1.00  0.00    -0.167 F 
ATOM     24  F   UNL A   1      33.179  24.813  25.484  1.00  0.00    -0.167 F 
ENDBRANCH  20  21
ENDBRANCH   6   9
ENDBRANCH   4   5
ENDBRANCH   3   4
ENDBRANCH   2   3
ENDBRANCH   1   2
BRANCH   1  25
ATOM     25  C   UNL A   1      31.852  29.078  25.758  1.00  0.00     0.021 C 
BRANCH  25  26
ATOM     26  C   UNL A   1      33.183  29.743  26.095  1.00  0.00     0.116 C 
BRANCH  26  27
ATOM     27  N   UNL A   1      33.005  31.132  26.489  1.00  0.00    -0.352 N 
ATOM     28  C   UNL A   1      33.669  31.852  27.444  1.00  0.00     0.251 C 
ATOM     29  H   UNL A   1      32.307  31.623  25.999  1.00  0.00     0.163 HD
ATOM     30  O   UNL A   1      33.233  32.951  27.796  1.00  0.00    -0.269 OA
BRANCH  28  31
ATOM     31  C   UNL A   1      34.901  31.316  28.052  1.00  0.00     0.039 A 
ATOM     32  C   UNL A   1      36.051  32.109  28.068  1.00  0.00     0.014 A 
ATOM     33  C   UNL A   1      34.929  30.020  28.579  1.00  0.00     0.014 A 
ATOM     34  C   UNL A   1      37.219  31.621  28.657  1.00  0.00     0.010 A 
ATOM     35  C   UNL A   1      36.075  29.558  29.216  1.00  0.00     0.010 A 
ATOM     36  C   UNL A   1      37.233  30.351  29.255  1.00  0.00    -0.014 A 
BRANCH  36  37
ATOM     37  C   UNL A   1      38.440  29.826  29.936  1.00  0.00     0.031 A 
ATOM     38  C   UNL A   1      38.845  30.373  31.277  1.00  0.00     0.074 A 
ATOM     39  C   UNL A   1      39.218  28.925  29.304  1.00  0.00     0.049 A 
ATOM     40  N   UNL A   1      39.921  30.127  31.976  1.00  0.00    -0.248 NA
ATOM     41  C   UNL A   1      37.929  31.339  31.906  1.00  0.00     0.031 C 
ATOM     42  C   UNL A   1      38.949  28.360  27.980  1.00  0.00     0.029 A 
ATOM     43  N   UNL A   1      40.408  28.353  29.675  1.00  0.00    -0.354 N 
ATOM     44  C   UNL A   1      39.828  30.925  33.110  1.00  0.00     0.074 A 
ATOM     45  C   UNL A   1      38.604  31.686  32.993  1.00  0.00     0.031 C 
ATOM     46  C   UNL A   1      39.945  27.525  27.649  1.00  0.00     0.029 A 
ATOM     47  C   UNL A   1      40.941  27.523  28.716  1.00  0.00     0.049 A 
ATOM     48  H   UNL A   1      40.839  28.519  30.545  1.00  0.00     0.167 HD
ATOM     49  C   UNL A   1      40.675  30.996  34.164  1.00  0.00     0.034 A 
ATOM     50  C   UNL A   1      42.107  26.848  28.693  1.00  0.00     0.034 A 
ATOM     51  C   UNL A   1      41.874  30.210  34.286  1.00  0.00     0.049 A 
ATOM     52  C   UNL A   1      43.021  26.933  29.886  1.00  0.00     0.074 A 
ATOM     53  C   UNL A   1      42.773  30.174  35.337  1.00  0.00     0.029 A 
ATOM     54  N   UNL A   1      42.340  29.321  33.330  1.00  0.00    -0.354 N 
ATOM     55  N   UNL A   1      42.864  27.610  30.998  1.00  0.00    -0.248 NA
ATOM     56  C   UNL A   1      44.253  26.134  29.840  1.00  0.00     0.031 C 
ATOM     57  C   UNL A   1      43.794  29.278  35.008  1.00  0.00     0.029 A 
ATOM     58  C   UNL A   1      43.514  28.730  33.767  1.00  0.00     0.049 A 
ATOM     59  H   UNL A   1      41.903  29.136  32.468  1.00  0.00     0.167 HD
ATOM     60  C   UNL A   1      43.953  27.287  31.800  1.00  0.00     0.074 A 
ATOM     61  C   UNL A   1      44.752  26.338  31.051  1.00  0.00     0.031 C 
ATOM     62  C   UNL A   1      44.270  27.744  33.036  1.00  0.00     0.034 A 
BRANCH  49  63
ATOM     63  C   UNL A   1      40.313  31.912  35.305  1.00  0.00     0.023 A 
ATOM     64  C   UNL A   1      40.925  33.178  35.396  1.00  0.00     0.012 A 
ATOM     65  C   UNL A   1      39.300  31.567  36.221  1.00  0.00     0.148 A 
ATOM     66  C   UNL A   1      40.547  34.081  36.390  1.00  0.00     0.002 A 
ATOM     67  C   UNL A   1      38.895  32.490  37.179  1.00  0.00     0.091 A 
ATOM     68  F   UNL A   1      38.745  30.349  36.131  1.00  0.00    -0.205 F 
ATOM     69  C   UNL A   1      39.524  33.742  37.271  1.00  0.00     0.022 A 
BRANCH  67  70
ATOM     70  S   UNL A   1      37.526  32.189  38.304  1.00  0.00     0.127 S 
ATOM     71  O   UNL A   1      38.052  32.726  39.559  1.00  0.00    -0.237 OA
ATOM     72  O   UNL A   1      36.456  32.984  37.702  1.00  0.00    -0.237 OA
ATOM     73  O   UNL A   1      37.301  30.750  38.292  1.00  0.00    -0.744 OA
ENDBRANCH  67  70
ENDBRANCH  49  63
BRANCH  50  74
ATOM     74  C   UNL A   1      42.435  25.975  27.529  1.00  0.00     0.023 A 
ATOM     75  C   UNL A   1      43.260  26.476  26.503  1.00  0.00     0.012 A 
ATOM     76  C   UNL A   1      41.983  24.643  27.458  1.00  0.00     0.148 A 
ATOM     77  C   UNL A   1      43.607  25.676  25.415  1.00  0.00     0.002 A 
ATOM     78  C   UNL A   1      42.383  23.833  26.401  1.00  0.00     0.091 A 
ATOM     79  F   UNL A   1      41.189  24.188  28.438  1.00  0.00    -0.205 F 
ATOM     80  C   UNL A   1      43.181  24.352  25.370  1.00  0.00     0.022 A 
BRANCH  78  81
ATOM     81  S   UNL A   1      42.005  22.077  26.336  1.00  0.00     0.127 S 
ATOM     82  O   UNL A   1      42.738  21.657  25.145  1.00  0.00    -0.237 OA
ATOM     83  O   UNL A   1      42.562  21.602  27.602  1.00  0.00    -0.237 OA
ATOM     84  O   UNL A   1      40.553  21.990  26.249  1.00  0.00    -0.744 OA
ENDBRANCH  78  81
ENDBRANCH  50  74
BRANCH  62  85
ATOM     85  C   UNL A   1      45.512  27.199  33.691  1.00  0.00     0.023 A 
ATOM     86  C   UNL A   1      46.753  27.832  33.479  1.00  0.00     0.012 A 
ATOM     87  C   UNL A   1      45.434  26.113  34.586  1.00  0.00     0.148 A 
ATOM     88  C   UNL A   1      47.902  27.371  34.121  1.00  0.00     0.002 A 
ATOM     89  C   UNL A   1      46.573  25.694  35.263  1.00  0.00     0.091 A 
ATOM     90  F   UNL A   1      44.249  25.511  34.760  1.00  0.00    -0.205 F 
ATOM     91  C   UNL A   1      47.810  26.312  35.022  1.00  0.00     0.022 A 
BRANCH  89  92
ATOM     92  S   UNL A   1      46.523  24.412  36.521  1.00  0.00     0.127 S 
ATOM     93  O   UNL A   1      45.913  23.302  35.791  1.00  0.00    -0.237 OA
ATOM     94  O   UNL A   1      47.942  24.229  36.835  1.00  0.00    -0.237 OA
ATOM     95  O   UNL A   1      45.731  24.956  37.615  1.00  0.00    -0.744 OA
ENDBRANCH  89  92
ENDBRANCH  62  85
ENDBRANCH  36  37
ENDBRANCH  28  31
ENDBRANCH  26  27
ENDBRANCH  25  26
ENDBRANCH   1  25
TORSDOF 17
ENDMDL
MODEL 3
REMARK VINA RESULT:     -12.0      5.164      7.733
REMARK SMILES Cc1cc(Br)cc2c1O[C@H](C(F)(F)F)C(C(=O)NCCCCCCNC(=O)c1ccc(-c3c4nc(c(-c5cccc(S(=O)(=O)[O-])c5F)c5ccc([nH]5)c(-c5cccc(S(=O)(=O)[O-])c5F)c5nc(c(-c6cccc(S(=O)(=O)[O-])c6F)c6ccc3[nH]6)C=C5)C=C4)cc1)=C2
REMARK SMILES IDX 22 1 21 2 20 3 19 4 18 5 16 6 17 7 15 9 1 10 2 11 3 12 8 13
REMARK SMILES IDX 4 14 7 15 9 16 5 17 6 18 91 19 10 20 11 21 12 22 13 23 14 24
REMARK SMILES IDX 23 25 24 26 25 27 26 28 27 30 28 31 29 32 90 33 30 34 89 35
REMARK SMILES IDX 31 36 32 37 33 38 83 39 34 40 88 41 82 42 84 43 35 44 87 45
REMARK SMILES IDX 81 46 80 47 36 49 68 50 48 51 67 52 49 53 52 54 66 55 85 56
REMARK SMILES IDX 50 57 51 58 65 60 86 61 53 62 37 63 38 64 46 65 39 66 41 67
REMARK SMILES IDX 47 68 40 69 42 70 43 71 44 72 45 73 69 74 70 75 78 76 71 77
REMARK SMILES IDX 73 78 79 79 72 80 74 81 75 82 76 83 77 84 54 85 55 86 63 87
REMARK SMILES IDX 56 88 58 89 64 90 57 91 59 92 60 93 61 94 62 95
REMARK H PARENT 18 8 25 29 84 48 52 59
REMARK Flexibility Score: inf
ROOT
ATOM      1  C   UNL A   1      35.131  22.398  23.738  1.00  0.00     0.002 C 
ENDROOT
BRANCH   1   2
ATOM      2  C   UNL A   1      34.193  21.592  24.647  1.00  0.00     0.002 C 
BRANCH   2   3
ATOM      3  C   UNL A   1      32.848  21.222  24.019  1.00  0.00     0.021 C 
BRANCH   3   4
ATOM      4  C   UNL A   1      31.821  22.350  24.068  1.00  0.00     0.116 C 
BRANCH   4   5
ATOM      5  N   UNL A   1      31.272  22.524  25.403  1.00  0.00    -0.352 N 
ATOM      6  C   UNL A   1      30.952  23.557  26.217  1.00  0.00     0.251 C 
ATOM      7  O   UNL A   1      30.455  23.239  27.303  1.00  0.00    -0.270 OA
ATOM      8  H   UNL A   1      31.083  21.657  25.830  1.00  0.00     0.163 HD
BRANCH   6   9
ATOM      9  C   UNL A   1      31.158  25.001  25.896  1.00  0.00     0.067 C 
ATOM     10  C   UNL A   1      32.412  30.008  25.849  1.00  0.00     0.048 C 
ATOM     11  C   UNL A   1      31.453  29.125  25.097  1.00  0.00    -0.007 A 
ATOM     12  C   UNL A   1      30.641  29.685  24.105  1.00  0.00     0.023 A 
ATOM     13  C   UNL A   1      31.327  27.758  25.377  1.00  0.00     0.130 A 
ATOM     14  C   UNL A   1      29.728  28.889  23.413  1.00  0.00     0.019 A 
ATOM     15  C   UNL A   1      30.406  26.959  24.691  1.00  0.00     0.019 A 
ATOM     16  O   UNL A   1      32.103  27.258  26.379  1.00  0.00    -0.475 OA
ATOM     17  Br  UNL A   1      28.634  29.665  22.079  1.00  0.00    -0.051 Br
ATOM     18  C   UNL A   1      29.603  27.530  23.701  1.00  0.00     0.027 A 
ATOM     19  C   UNL A   1      30.261  25.552  25.058  1.00  0.00     0.025 C 
ATOM     20  C   UNL A   1      32.300  25.824  26.417  1.00  0.00     0.314 C 
BRANCH  20  21
ATOM     21  C   UNL A   1      33.637  25.469  25.739  1.00  0.00     0.429 C 
ATOM     22  F   UNL A   1      34.476  26.532  25.752  1.00  0.00    -0.167 F 
ATOM     23  F   UNL A   1      34.285  24.460  26.369  1.00  0.00    -0.167 F 
ATOM     24  F   UNL A   1      33.477  25.087  24.452  1.00  0.00    -0.167 F 
ENDBRANCH  20  21
ENDBRANCH   6   9
ENDBRANCH   4   5
ENDBRANCH   3   4
ENDBRANCH   2   3
ENDBRANCH   1   2
BRANCH   1  25
ATOM     25  C   UNL A   1      36.620  22.319  24.095  1.00  0.00     0.021 C 
BRANCH  25  26
ATOM     26  C   UNL A   1      36.914  22.277  25.591  1.00  0.00     0.116 C 
BRANCH  26  27
ATOM     27  N   UNL A   1      37.908  21.264  25.914  1.00  0.00    -0.352 N 
ATOM     28  C   UNL A   1      39.209  21.423  26.305  1.00  0.00     0.251 C 
ATOM     29  H   UNL A   1      37.600  20.332  25.841  1.00  0.00     0.163 HD
ATOM     30  O   UNL A   1      39.968  20.450  26.319  1.00  0.00    -0.269 OA
BRANCH  28  31
ATOM     31  C   UNL A   1      39.704  22.753  26.707  1.00  0.00     0.039 A 
ATOM     32  C   UNL A   1      40.649  22.845  27.732  1.00  0.00     0.014 A 
ATOM     33  C   UNL A   1      39.216  23.910  26.090  1.00  0.00     0.014 A 
ATOM     34  C   UNL A   1      41.140  24.096  28.110  1.00  0.00     0.010 A 
ATOM     35  C   UNL A   1      39.749  25.150  26.427  1.00  0.00     0.010 A 
ATOM     36  C   UNL A   1      40.710  25.255  27.444  1.00  0.00    -0.014 A 
BRANCH  36  37
ATOM     37  C   UNL A   1      41.253  26.592  27.783  1.00  0.00     0.031 A 
ATOM     38  C   UNL A   1      42.692  26.915  27.493  1.00  0.00     0.074 A 
ATOM     39  C   UNL A   1      40.473  27.477  28.434  1.00  0.00     0.049 A 
ATOM     40  N   UNL A   1      43.378  27.979  27.815  1.00  0.00    -0.248 NA
ATOM     41  C   UNL A   1      43.468  25.900  26.762  1.00  0.00     0.031 C 
ATOM     42  C   UNL A   1      39.075  27.254  28.809  1.00  0.00     0.029 A 
ATOM     43  N   UNL A   1      40.753  28.728  28.924  1.00  0.00    -0.354 N 
ATOM     44  C   UNL A   1      44.670  27.753  27.355  1.00  0.00     0.074 A 
ATOM     45  C   UNL A   1      44.680  26.437  26.755  1.00  0.00     0.031 C 
ATOM     46  C   UNL A   1      38.621  28.329  29.472  1.00  0.00     0.029 A 
ATOM     47  C   UNL A   1      39.703  29.300  29.603  1.00  0.00     0.049 A 
ATOM     48  H   UNL A   1      41.622  29.174  28.799  1.00  0.00     0.167 HD
ATOM     49  C   UNL A   1      45.741  28.579  27.405  1.00  0.00     0.034 A 
ATOM     50  C   UNL A   1      39.624  30.470  30.268  1.00  0.00     0.034 A 
ATOM     51  C   UNL A   1      45.711  29.900  27.974  1.00  0.00     0.049 A 
ATOM     52  C   UNL A   1      40.826  31.375  30.292  1.00  0.00     0.074 A 
ATOM     53  C   UNL A   1      46.730  30.834  28.030  1.00  0.00     0.029 A 
ATOM     54  N   UNL A   1      44.607  30.477  28.582  1.00  0.00    -0.354 N 
ATOM     55  N   UNL A   1      42.008  31.190  29.756  1.00  0.00    -0.248 NA
ATOM     56  C   UNL A   1      40.674  32.666  30.979  1.00  0.00     0.031 C 
ATOM     57  C   UNL A   1      46.249  31.968  28.690  1.00  0.00     0.029 A 
ATOM     58  C   UNL A   1      44.920  31.754  29.015  1.00  0.00     0.049 A 
ATOM     59  H   UNL A   1      43.730  30.044  28.691  1.00  0.00     0.167 HD
ATOM     60  C   UNL A   1      42.727  32.355  30.003  1.00  0.00     0.074 A 
ATOM     61  C   UNL A   1      41.838  33.246  30.722  1.00  0.00     0.031 C 
ATOM     62  C   UNL A   1      44.009  32.653  29.678  1.00  0.00     0.034 A 
BRANCH  49  63
ATOM     63  C   UNL A   1      47.029  28.111  26.777  1.00  0.00     0.023 A 
ATOM     64  C   UNL A   1      48.029  27.544  27.592  1.00  0.00     0.012 A 
ATOM     65  C   UNL A   1      47.208  28.135  25.380  1.00  0.00     0.148 A 
ATOM     66  C   UNL A   1      49.194  27.022  27.030  1.00  0.00     0.002 A 
ATOM     67  C   UNL A   1      48.350  27.571  24.822  1.00  0.00     0.091 A 
ATOM     68  F   UNL A   1      46.255  28.699  24.624  1.00  0.00    -0.205 F 
ATOM     69  C   UNL A   1      49.347  27.023  25.646  1.00  0.00     0.022 A 
BRANCH  67  70
ATOM     70  S   UNL A   1      48.604  27.439  23.049  1.00  0.00     0.127 S 
ATOM     71  O   UNL A   1      50.018  27.796  22.927  1.00  0.00    -0.237 OA
ATOM     72  O   UNL A   1      48.309  26.028  22.801  1.00  0.00    -0.237 OA
ATOM     73  O   UNL A   1      47.673  28.376  22.436  1.00  0.00    -0.744 OA
ENDBRANCH  67  70
ENDBRANCH  49  63
BRANCH  50  74
ATOM     74  C   UNL A   1      38.335  30.879  30.897  1.00  0.00     0.023 A 
ATOM     75  C   UNL A   1      38.138  30.653  32.273  1.00  0.00     0.012 A 
ATOM     76  C   UNL A   1      37.331  31.535  30.158  1.00  0.00     0.148 A 
ATOM     77  C   UNL A   1      36.956  31.048  32.897  1.00  0.00     0.002 A 
ATOM     78  C   UNL A   1      36.181  31.981  30.799  1.00  0.00     0.091 A 
ATOM     79  F   UNL A   1      37.531  31.730  28.847  1.00  0.00    -0.205 F 
ATOM     80  C   UNL A   1      35.983  31.723  32.165  1.00  0.00     0.022 A 
BRANCH  78  81
ATOM     81  S   UNL A   1      34.943  32.986  29.971  1.00  0.00     0.127 S 
ATOM     82  O   UNL A   1      34.053  33.336  31.075  1.00  0.00    -0.237 OA
ATOM     83  O   UNL A   1      35.750  34.091  29.454  1.00  0.00    -0.237 OA
ATOM     84  O   UNL A   1      34.366  32.131  28.941  1.00  0.00    -0.744 OA
ENDBRANCH  78  81
ENDBRANCH  50  74
BRANCH  62  85
ATOM     85  C   UNL A   1      44.530  34.017  30.053  1.00  0.00     0.023 A 
ATOM     86  C   UNL A   1      45.238  34.191  31.258  1.00  0.00     0.012 A 
ATOM     87  C   UNL A   1      44.395  35.105  29.167  1.00  0.00     0.148 A 
ATOM     88  C   UNL A   1      45.772  35.435  31.592  1.00  0.00     0.002 A 
ATOM     89  C   UNL A   1      44.977  36.327  29.481  1.00  0.00     0.091 A 
ATOM     90  F   UNL A   1      43.702  34.925  28.033  1.00  0.00    -0.205 F 
ATOM     91  C   UNL A   1      45.654  36.498  30.699  1.00  0.00     0.022 A 
BRANCH  89  92
ATOM     92  S   UNL A   1      44.968  37.715  28.341  1.00  0.00     0.127 S 
ATOM     93  O   UNL A   1      45.726  38.718  29.088  1.00  0.00    -0.237 OA
ATOM     94  O   UNL A   1      45.667  37.165  27.177  1.00  0.00    -0.237 OA
ATOM     95  O   UNL A   1      43.566  38.032  28.107  1.00  0.00    -0.744 OA
ENDBRANCH  89  92
ENDBRANCH  62  85
ENDBRANCH  36  37
ENDBRANCH  28  31
ENDBRANCH  26  27
ENDBRANCH  25  26
ENDBRANCH   1  25
TORSDOF 17
ENDMDL
