MODEL 1
REMARK VINA RESULT:     -12.5      0.000      0.000
REMARK SMILES COc1ccc(-n2ncc([C@H]3CC(=O)Nc4n[nH]c(C(=O)NCCCCCCNC(=O)c5ccc(-c6c7nc(c(-c8cccc(S(=O)(=O)[O-])c8F)c8ccc([nH]8)c(-c8cccc(S(=O)(=O)[O-])c8F)c8nc(c(-c9cccc(S(=O)(=O)[O-])c9F)c9ccc6[nH]9)C=C8)C=C7)cc5)c43)c2C)cc1
REMARK SMILES IDX 25 1 24 2 23 3 22 4 20 5 21 6 19 8 11 9 12 10 95 11 13 12
REMARK SMILES IDX 16 13 14 14 15 15 17 16 18 17 10 20 7 21 8 22 96 23 9 24
REMARK SMILES IDX 97 25 6 26 3 27 4 28 99 29 5 30 98 31 2 32 1 33 26 34 27 35
REMARK SMILES IDX 28 36 29 37 30 38 31 40 32 41 33 42 94 43 34 44 93 45 35 46
REMARK SMILES IDX 36 47 37 48 87 49 38 50 92 51 86 52 88 53 39 54 91 55 85 56
REMARK SMILES IDX 84 57 40 59 72 60 52 61 71 62 53 63 56 64 70 65 89 66 54 67
REMARK SMILES IDX 55 68 69 70 90 71 57 72 41 73 42 74 50 75 43 76 45 77 51 78
REMARK SMILES IDX 44 79 46 80 47 81 48 82 49 83 73 84 74 85 82 86 75 87 77 88
REMARK SMILES IDX 83 89 76 90 78 91 79 92 80 93 81 94 58 95 59 96 67 97 60 98
REMARK SMILES IDX 62 99 68 100 61 101 63 102 64 103 65 104 66 105
REMARK H PARENT 22 7 15 18 18 19 29 39 88 58 56 69
REMARK Flexibility Score: inf
ROOT
ATOM      1  C   UNL A   1      38.577  23.184  26.151  1.00  0.00     0.002 C 
ENDROOT
BRANCH   1   2
ATOM      2  C   UNL A   1      37.226  22.476  26.228  1.00  0.00     0.021 C 
BRANCH   2   3
ATOM      3  C   UNL A   1      36.875  21.592  25.039  1.00  0.00     0.116 C 
BRANCH   3   4
ATOM      4  N   UNL A   1      36.498  22.282  23.844  1.00  0.00    -0.351 N 
ATOM      5  C   UNL A   1      35.279  22.738  23.428  1.00  0.00     0.269 C 
ATOM      6  O   UNL A   1      35.321  23.433  22.405  1.00  0.00    -0.268 OA
ATOM      7  H   UNL A   1      37.238  22.457  23.219  1.00  0.00     0.163 HD
BRANCH   5   8
ATOM      8  C   UNL A   1      33.990  22.499  24.063  1.00  0.00     0.129 A 
ATOM      9  C   UNL A   1      33.018  24.144  25.992  1.00  0.00     0.068 C 
ATOM     10  C   UNL A   1      32.069  23.887  27.178  1.00  0.00     0.114 C 
ATOM     11  C   UNL A   1      33.106  22.977  25.041  1.00  0.00     0.035 A 
ATOM     12  C   UNL A   1      30.875  22.994  26.902  1.00  0.00     0.226 C 
ATOM     13  C   UNL A   1      32.024  22.061  25.025  1.00  0.00     0.159 A 
ATOM     14  O   UNL A   1      29.888  22.990  27.637  1.00  0.00    -0.275 OA
ATOM     15  N   UNL A   1      30.952  22.123  25.861  1.00  0.00    -0.309 N 
ATOM     16  N   UNL A   1      32.124  21.142  24.080  1.00  0.00    -0.157 NA
ATOM     17  N   UNL A   1      33.332  21.383  23.567  1.00  0.00    -0.270 N 
ATOM     18  H   UNL A   1      30.200  21.508  25.706  1.00  0.00     0.171 HD
ATOM     19  H   UNL A   1      33.731  20.806  22.878  1.00  0.00     0.190 HD
BRANCH   9  20
ATOM     20  C   UNL A   1      32.698  25.426  25.251  1.00  0.00     0.002 A 
ATOM     21  N   UNL A   1      31.724  27.113  24.194  1.00  0.00    -0.238 N 
ATOM     22  N   UNL A   1      32.983  27.108  23.717  1.00  0.00    -0.176 NA
ATOM     23  C   UNL A   1      31.541  26.196  25.215  1.00  0.00     0.045 A 
ATOM     24  C   UNL A   1      33.584  26.144  24.412  1.00  0.00     0.140 A 
ATOM     25  C   UNL A   1      30.298  26.130  26.027  1.00  0.00     0.067 C 
BRANCH  21  26
ATOM     26  C   UNL A   1      30.813  28.094  23.771  1.00  0.00     0.065 A 
ATOM     27  C   UNL A   1      28.893  30.005  23.170  1.00  0.00     0.119 A 
ATOM     28  C   UNL A   1      29.994  30.343  23.962  1.00  0.00     0.048 A 
ATOM     29  C   UNL A   1      28.778  28.715  22.639  1.00  0.00     0.048 A 
ATOM     30  C   UNL A   1      30.954  29.387  24.276  1.00  0.00     0.032 A 
ATOM     31  C   UNL A   1      29.745  27.748  22.938  1.00  0.00     0.032 A 
BRANCH  27  32
ATOM     32  O   UNL A   1      28.012  31.024  22.927  1.00  0.00    -0.497 OA
ATOM     33  C   UNL A   1      28.072  31.551  21.606  1.00  0.00     0.278 C 
ENDBRANCH  27  32
ENDBRANCH  21  26
ENDBRANCH   9  20
ENDBRANCH   5   8
ENDBRANCH   3   4
ENDBRANCH   2   3
ENDBRANCH   1   2
BRANCH   1  34
ATOM     34  C   UNL A   1      39.754  22.514  26.876  1.00  0.00     0.002 C 
BRANCH  34  35
ATOM     35  C   UNL A   1      40.081  21.058  26.516  1.00  0.00     0.021 C 
BRANCH  35  36
ATOM     36  C   UNL A   1      41.232  20.436  27.294  1.00  0.00     0.116 C 
BRANCH  36  37
ATOM     37  N   UNL A   1      42.331  19.999  26.435  1.00  0.00    -0.352 N 
ATOM     38  C   UNL A   1      43.212  20.780  25.708  1.00  0.00     0.251 C 
ATOM     39  H   UNL A   1      42.461  19.025  26.365  1.00  0.00     0.163 HD
ATOM     40  O   UNL A   1      43.826  20.314  24.763  1.00  0.00    -0.269 OA
BRANCH  38  41
ATOM     41  C   UNL A   1      43.399  22.192  26.099  1.00  0.00     0.039 A 
ATOM     42  C   UNL A   1      42.931  23.234  25.294  1.00  0.00     0.014 A 
ATOM     43  C   UNL A   1      44.043  22.461  27.305  1.00  0.00     0.014 A 
ATOM     44  C   UNL A   1      43.045  24.543  25.757  1.00  0.00     0.010 A 
ATOM     45  C   UNL A   1      44.014  23.729  27.827  1.00  0.00     0.010 A 
ATOM     46  C   UNL A   1      43.567  24.782  27.038  1.00  0.00    -0.014 A 
BRANCH  46  47
ATOM     47  C   UNL A   1      43.508  26.112  27.636  1.00  0.00     0.031 A 
ATOM     48  C   UNL A   1      44.661  26.973  27.261  1.00  0.00     0.074 A 
ATOM     49  C   UNL A   1      42.411  26.588  28.269  1.00  0.00     0.049 A 
ATOM     50  N   UNL A   1      45.653  27.321  28.011  1.00  0.00    -0.248 NA
ATOM     51  C   UNL A   1      44.841  27.322  25.843  1.00  0.00     0.031 C 
ATOM     52  C   UNL A   1      41.105  25.925  28.395  1.00  0.00     0.029 A 
ATOM     53  N   UNL A   1      42.171  27.818  28.810  1.00  0.00    -0.354 N 
ATOM     54  C   UNL A   1      46.414  28.187  27.226  1.00  0.00     0.074 A 
ATOM     55  C   UNL A   1      46.031  27.927  25.867  1.00  0.00     0.031 C 
ATOM     56  C   UNL A   1      40.163  26.834  28.724  1.00  0.00     0.029 A 
ATOM     57  C   UNL A   1      40.819  28.092  29.015  1.00  0.00     0.049 A 
ATOM     58  H   UNL A   1      42.888  28.453  29.036  1.00  0.00     0.167 HD
ATOM     59  C   UNL A   1      47.013  29.275  27.789  1.00  0.00     0.034 A 
ATOM     60  C   UNL A   1      40.270  29.277  29.378  1.00  0.00     0.034 A 
ATOM     61  C   UNL A   1      46.960  29.180  29.227  1.00  0.00     0.049 A 
ATOM     62  C   UNL A   1      41.334  30.071  30.020  1.00  0.00     0.074 A 
ATOM     63  C   UNL A   1      47.540  28.411  30.211  1.00  0.00     0.029 A 
ATOM     64  N   UNL A   1      45.839  29.764  29.761  1.00  0.00    -0.354 N 
ATOM     65  N   UNL A   1      41.874  29.744  31.159  1.00  0.00    -0.248 NA
ATOM     66  C   UNL A   1      42.059  31.065  29.240  1.00  0.00     0.031 C 
ATOM     67  C   UNL A   1      46.610  28.398  31.293  1.00  0.00     0.029 A 
ATOM     68  C   UNL A   1      45.517  29.202  30.963  1.00  0.00     0.049 A 
ATOM     69  H   UNL A   1      45.333  30.491  29.333  1.00  0.00     0.167 HD
ATOM     70  C   UNL A   1      43.199  30.105  31.003  1.00  0.00     0.074 A 
ATOM     71  C   UNL A   1      43.208  31.078  29.920  1.00  0.00     0.031 C 
ATOM     72  C   UNL A   1      44.190  29.329  31.524  1.00  0.00     0.034 A 
BRANCH  59  73
ATOM     73  C   UNL A   1      47.180  30.647  27.145  1.00  0.00     0.023 A 
ATOM     74  C   UNL A   1      48.447  31.265  27.296  1.00  0.00     0.012 A 
ATOM     75  C   UNL A   1      46.129  31.475  26.692  1.00  0.00     0.148 A 
ATOM     76  C   UNL A   1      48.637  32.635  27.085  1.00  0.00     0.002 A 
ATOM     77  C   UNL A   1      46.336  32.826  26.421  1.00  0.00     0.091 A 
ATOM     78  F   UNL A   1      44.882  31.011  26.631  1.00  0.00    -0.205 F 
ATOM     79  C   UNL A   1      47.579  33.419  26.647  1.00  0.00     0.022 A 
BRANCH  77  80
ATOM     80  S   UNL A   1      45.007  33.885  25.829  1.00  0.00     0.127 S 
ATOM     81  O   UNL A   1      45.725  35.126  25.551  1.00  0.00    -0.237 OA
ATOM     82  O   UNL A   1      44.550  33.152  24.648  1.00  0.00    -0.237 OA
ATOM     83  O   UNL A   1      44.033  33.944  26.911  1.00  0.00    -0.744 OA
ENDBRANCH  77  80
ENDBRANCH  59  73
BRANCH  60  84
ATOM     84  C   UNL A   1      38.937  29.859  29.107  1.00  0.00     0.023 A 
ATOM     85  C   UNL A   1      38.134  29.319  28.082  1.00  0.00     0.012 A 
ATOM     86  C   UNL A   1      38.334  30.722  30.047  1.00  0.00     0.148 A 
ATOM     87  C   UNL A   1      36.761  29.583  28.028  1.00  0.00     0.002 A 
ATOM     88  C   UNL A   1      36.966  30.977  29.993  1.00  0.00     0.091 A 
ATOM     89  F   UNL A   1      39.086  31.213  31.041  1.00  0.00    -0.205 F 
ATOM     90  C   UNL A   1      36.174  30.397  28.993  1.00  0.00     0.022 A 
BRANCH  88  91
ATOM     91  S   UNL A   1      36.125  31.973  31.229  1.00  0.00     0.127 S 
ATOM     92  O   UNL A   1      36.861  33.234  31.153  1.00  0.00    -0.237 OA
ATOM     93  O   UNL A   1      34.764  32.024  30.701  1.00  0.00    -0.237 OA
ATOM     94  O   UNL A   1      36.280  31.260  32.491  1.00  0.00    -0.744 OA
ENDBRANCH  88  91
ENDBRANCH  60  84
BRANCH  72  95
ATOM     95  C   UNL A   1      43.832  28.419  32.662  1.00  0.00     0.023 A 
ATOM     96  C   UNL A   1      43.676  27.025  32.523  1.00  0.00     0.012 A 
ATOM     97  C   UNL A   1      43.755  28.995  33.938  1.00  0.00     0.148 A 
ATOM     98  C   UNL A   1      43.429  26.226  33.644  1.00  0.00     0.002 A 
ATOM     99  C   UNL A   1      43.563  28.194  35.053  1.00  0.00     0.091 A 
ATOM    100  F   UNL A   1      43.892  30.325  34.042  1.00  0.00    -0.205 F 
ATOM    101  C   UNL A   1      43.388  26.809  34.910  1.00  0.00     0.022 A 
BRANCH  99 102
ATOM    102  S   UNL A   1      43.627  28.881  36.707  1.00  0.00     0.127 S 
ATOM    103  O   UNL A   1      43.628  27.679  37.537  1.00  0.00    -0.237 OA
ATOM    104  O   UNL A   1      44.892  29.617  36.692  1.00  0.00    -0.237 OA
ATOM    105  O   UNL A   1      42.448  29.731  36.831  1.00  0.00    -0.744 OA
ENDBRANCH  99 102
ENDBRANCH  72  95
ENDBRANCH  46  47
ENDBRANCH  38  41
ENDBRANCH  36  37
ENDBRANCH  35  36
ENDBRANCH  34  35
ENDBRANCH   1  34
TORSDOF 19
ENDMDL
MODEL 2
REMARK VINA RESULT:     -12.3      3.235      8.993
REMARK SMILES COc1ccc(-n2ncc([C@H]3CC(=O)Nc4n[nH]c(C(=O)NCCCCCCNC(=O)c5ccc(-c6c7nc(c(-c8cccc(S(=O)(=O)[O-])c8F)c8ccc([nH]8)c(-c8cccc(S(=O)(=O)[O-])c8F)c8nc(c(-c9cccc(S(=O)(=O)[O-])c9F)c9ccc6[nH]9)C=C8)C=C7)cc5)c43)c2C)cc1
REMARK SMILES IDX 25 1 24 2 23 3 22 4 20 5 21 6 19 8 11 9 12 10 95 11 13 12
REMARK SMILES IDX 16 13 14 14 15 15 17 16 18 17 10 20 7 21 8 22 96 23 9 24
REMARK SMILES IDX 97 25 6 26 3 27 4 28 99 29 5 30 98 31 2 32 1 33 26 34 27 35
REMARK SMILES IDX 28 36 29 37 30 38 31 40 32 41 33 42 94 43 34 44 93 45 35 46
REMARK SMILES IDX 36 47 37 48 87 49 38 50 92 51 86 52 88 53 39 54 91 55 85 56
REMARK SMILES IDX 84 57 40 59 72 60 52 61 71 62 53 63 56 64 70 65 89 66 54 67
REMARK SMILES IDX 55 68 69 70 90 71 57 72 41 73 42 74 50 75 43 76 45 77 51 78
REMARK SMILES IDX 44 79 46 80 47 81 48 82 49 83 73 84 74 85 82 86 75 87 77 88
REMARK SMILES IDX 83 89 76 90 78 91 79 92 80 93 81 94 58 95 59 96 67 97 60 98
REMARK SMILES IDX 62 99 68 100 61 101 63 102 64 103 65 104 66 105
REMARK H PARENT 22 7 15 18 18 19 29 39 88 58 56 69
REMARK Flexibility Score: inf
ROOT
ATOM      1  C   UNL A   1      33.960  28.467  26.608  1.00  0.00     0.002 C 
ENDROOT
BRANCH   1   2
ATOM      2  C   UNL A   1      32.819  28.776  27.574  1.00  0.00     0.021 C 
BRANCH   2   3
ATOM      3  C   UNL A   1      31.424  28.410  27.087  1.00  0.00     0.116 C 
BRANCH   3   4
ATOM      4  N   UNL A   1      31.063  27.032  27.218  1.00  0.00    -0.351 N 
ATOM      5  C   UNL A   1      30.968  26.044  26.279  1.00  0.00     0.269 C 
ATOM      6  O   UNL A   1      30.776  24.915  26.749  1.00  0.00    -0.268 OA
ATOM      7  H   UNL A   1      30.848  26.749  28.136  1.00  0.00     0.163 HD
BRANCH   5   8
ATOM      8  C   UNL A   1      31.080  26.194  24.834  1.00  0.00     0.129 A 
ATOM      9  C   UNL A   1      32.920  24.815  23.391  1.00  0.00     0.068 C 
ATOM     10  C   UNL A   1      33.643  25.141  22.070  1.00  0.00     0.114 C 
ATOM     11  C   UNL A   1      31.804  25.778  23.708  1.00  0.00     0.035 A 
ATOM     12  C   UNL A   1      32.797  25.765  20.978  1.00  0.00     0.226 C 
ATOM     13  C   UNL A   1      31.227  26.492  22.628  1.00  0.00     0.159 A 
ATOM     14  O   UNL A   1      33.153  25.754  19.800  1.00  0.00    -0.275 OA
ATOM     15  N   UNL A   1      31.664  26.423  21.341  1.00  0.00    -0.309 N 
ATOM     16  N   UNL A   1      30.178  27.218  22.974  1.00  0.00    -0.157 NA
ATOM     17  N   UNL A   1      30.152  27.077  24.300  1.00  0.00    -0.270 N 
ATOM     18  H   UNL A   1      31.136  26.871  20.641  1.00  0.00     0.171 HD
ATOM     19  H   UNL A   1      29.515  27.568  24.865  1.00  0.00     0.190 HD
BRANCH   9  20
ATOM     20  C   UNL A   1      32.436  23.381  23.457  1.00  0.00     0.002 A 
ATOM     21  N   UNL A   1      32.252  21.173  23.487  1.00  0.00    -0.238 N 
ATOM     22  N   UNL A   1      31.049  21.598  23.055  1.00  0.00    -0.176 NA
ATOM     23  C   UNL A   1      33.079  22.217  23.862  1.00  0.00     0.045 A 
ATOM     24  C   UNL A   1      31.140  22.925  23.114  1.00  0.00     0.140 A 
ATOM     25  C   UNL A   1      34.386  22.008  24.538  1.00  0.00     0.067 C 
BRANCH  21  26
ATOM     26  C   UNL A   1      32.491  19.802  23.672  1.00  0.00     0.065 A 
ATOM     27  C   UNL A   1      33.222  17.152  24.054  1.00  0.00     0.119 A 
ATOM     28  C   UNL A   1      33.137  18.019  25.146  1.00  0.00     0.048 A 
ATOM     29  C   UNL A   1      32.894  17.604  22.770  1.00  0.00     0.048 A 
ATOM     30  C   UNL A   1      32.782  19.351  24.961  1.00  0.00     0.032 A 
ATOM     31  C   UNL A   1      32.524  18.939  22.572  1.00  0.00     0.032 A 
BRANCH  27  32
ATOM     32  O   UNL A   1      33.582  15.866  24.354  1.00  0.00    -0.497 OA
ATOM     33  C   UNL A   1      32.752  15.235  25.323  1.00  0.00     0.278 C 
ENDBRANCH  27  32
ENDBRANCH  21  26
ENDBRANCH   9  20
ENDBRANCH   5   8
ENDBRANCH   3   4
ENDBRANCH   2   3
ENDBRANCH   1   2
BRANCH   1  34
ATOM     34  C   UNL A   1      35.174  29.407  26.646  1.00  0.00     0.002 C 
BRANCH  34  35
ATOM     35  C   UNL A   1      35.400  30.235  27.919  1.00  0.00     0.021 C 
BRANCH  35  36
ATOM     36  C   UNL A   1      35.161  31.731  27.776  1.00  0.00     0.116 C 
BRANCH  36  37
ATOM     37  N   UNL A   1      34.731  32.363  29.023  1.00  0.00    -0.352 N 
ATOM     38  C   UNL A   1      35.144  32.079  30.313  1.00  0.00     0.251 C 
ATOM     39  H   UNL A   1      34.063  33.081  28.933  1.00  0.00     0.163 HD
ATOM     40  O   UNL A   1      34.461  32.399  31.271  1.00  0.00    -0.269 OA
BRANCH  38  41
ATOM     41  C   UNL A   1      36.432  31.383  30.510  1.00  0.00     0.039 A 
ATOM     42  C   UNL A   1      36.476  30.031  30.865  1.00  0.00     0.014 A 
ATOM     43  C   UNL A   1      37.606  32.105  30.317  1.00  0.00     0.014 A 
ATOM     44  C   UNL A   1      37.715  29.398  30.940  1.00  0.00     0.010 A 
ATOM     45  C   UNL A   1      38.808  31.448  30.239  1.00  0.00     0.010 A 
ATOM     46  C   UNL A   1      38.878  30.109  30.602  1.00  0.00    -0.014 A 
BRANCH  46  47
ATOM     47  C   UNL A   1      40.161  29.425  30.467  1.00  0.00     0.031 A 
ATOM     48  C   UNL A   1      40.823  29.165  31.772  1.00  0.00     0.074 A 
ATOM     49  C   UNL A   1      40.589  28.882  29.305  1.00  0.00     0.049 A 
ATOM     50  N   UNL A   1      41.859  29.765  32.258  1.00  0.00    -0.248 NA
ATOM     51  C   UNL A   1      40.147  28.281  32.736  1.00  0.00     0.031 C 
ATOM     52  C   UNL A   1      39.845  28.802  28.039  1.00  0.00     0.029 A 
ATOM     53  N   UNL A   1      41.712  28.156  29.034  1.00  0.00    -0.354 N 
ATOM     54  C   UNL A   1      42.130  29.106  33.458  1.00  0.00     0.074 A 
ATOM     55  C   UNL A   1      40.919  28.423  33.816  1.00  0.00     0.031 C 
ATOM     56  C   UNL A   1      40.403  27.867  27.242  1.00  0.00     0.029 A 
ATOM     57  C   UNL A   1      41.639  27.420  27.852  1.00  0.00     0.049 A 
ATOM     58  H   UNL A   1      42.504  28.154  29.619  1.00  0.00     0.167 HD
ATOM     59  C   UNL A   1      43.420  28.893  33.845  1.00  0.00     0.034 A 
ATOM     60  C   UNL A   1      42.521  26.490  27.409  1.00  0.00     0.034 A 
ATOM     61  C   UNL A   1      44.318  29.664  33.021  1.00  0.00     0.049 A 
ATOM     62  C   UNL A   1      43.803  26.749  28.090  1.00  0.00     0.074 A 
ATOM     63  C   UNL A   1      44.640  30.991  32.845  1.00  0.00     0.029 A 
ATOM     64  N   UNL A   1      44.744  28.981  31.909  1.00  0.00    -0.354 N 
ATOM     65  N   UNL A   1      44.516  27.818  27.876  1.00  0.00    -0.248 NA
ATOM     66  C   UNL A   1      44.154  25.984  29.279  1.00  0.00     0.031 C 
ATOM     67  C   UNL A   1      45.094  31.106  31.497  1.00  0.00     0.029 A 
ATOM     68  C   UNL A   1      45.089  29.841  30.907  1.00  0.00     0.049 A 
ATOM     69  H   UNL A   1      44.793  28.001  31.844  1.00  0.00     0.167 HD
ATOM     70  C   UNL A   1      45.043  28.109  29.120  1.00  0.00     0.074 A 
ATOM     71  C   UNL A   1      44.963  26.865  29.873  1.00  0.00     0.031 C 
ATOM     72  C   UNL A   1      45.166  29.403  29.531  1.00  0.00     0.034 A 
BRANCH  59  73
ATOM     73  C   UNL A   1      43.954  27.659  34.565  1.00  0.00     0.023 A 
ATOM     74  C   UNL A   1      44.818  27.894  35.664  1.00  0.00     0.012 A 
ATOM     75  C   UNL A   1      43.920  26.338  34.065  1.00  0.00     0.148 A 
ATOM     76  C   UNL A   1      45.652  26.897  36.180  1.00  0.00     0.002 A 
ATOM     77  C   UNL A   1      44.705  25.332  34.624  1.00  0.00     0.091 A 
ATOM     78  F   UNL A   1      43.227  26.050  32.965  1.00  0.00    -0.205 F 
ATOM     79  C   UNL A   1      45.597  25.613  35.660  1.00  0.00     0.022 A 
BRANCH  77  80
ATOM     80  S   UNL A   1      44.658  23.643  34.004  1.00  0.00     0.127 S 
ATOM     81  O   UNL A   1      45.675  23.000  34.832  1.00  0.00    -0.237 OA
ATOM     82  O   UNL A   1      43.278  23.259  34.301  1.00  0.00    -0.237 OA
ATOM     83  O   UNL A   1      44.961  23.733  32.581  1.00  0.00    -0.744 OA
ENDBRANCH  77  80
ENDBRANCH  59  73
BRANCH  60  84
ATOM     84  C   UNL A   1      42.336  25.300  26.550  1.00  0.00     0.023 A 
ATOM     85  C   UNL A   1      43.245  25.048  25.501  1.00  0.00     0.012 A 
ATOM     86  C   UNL A   1      41.472  24.260  26.952  1.00  0.00     0.148 A 
ATOM     87  C   UNL A   1      43.330  23.783  24.911  1.00  0.00     0.002 A 
ATOM     88  C   UNL A   1      41.565  23.001  26.366  1.00  0.00     0.091 A 
ATOM     89  F   UNL A   1      40.629  24.485  27.969  1.00  0.00    -0.205 F 
ATOM     90  C   UNL A   1      42.502  22.754  25.355  1.00  0.00     0.022 A 
BRANCH  88  91
ATOM     91  S   UNL A   1      40.570  21.609  26.917  1.00  0.00     0.127 S 
ATOM     92  O   UNL A   1      39.224  22.025  26.525  1.00  0.00    -0.237 OA
ATOM     93  O   UNL A   1      41.126  20.511  26.130  1.00  0.00    -0.237 OA
ATOM     94  O   UNL A   1      40.777  21.514  28.357  1.00  0.00    -0.744 OA
ENDBRANCH  88  91
ENDBRANCH  60  84
BRANCH  72  95
ATOM     95  C   UNL A   1      45.222  30.463  28.470  1.00  0.00     0.023 A 
ATOM     96  C   UNL A   1      44.077  31.066  27.914  1.00  0.00     0.012 A 
ATOM     97  C   UNL A   1      46.492  30.933  28.106  1.00  0.00     0.148 A 
ATOM     98  C   UNL A   1      44.206  32.112  26.994  1.00  0.00     0.002 A 
ATOM     99  C   UNL A   1      46.615  32.004  27.236  1.00  0.00     0.091 A 
ATOM    100  F   UNL A   1      47.567  30.332  28.640  1.00  0.00    -0.205 F 
ATOM    101  C   UNL A   1      45.474  32.591  26.667  1.00  0.00     0.022 A 
BRANCH  99 102
ATOM    102  S   UNL A   1      48.215  32.731  26.884  1.00  0.00     0.127 S 
ATOM    103  O   UNL A   1      48.980  31.575  26.421  1.00  0.00    -0.237 OA
ATOM    104  O   UNL A   1      47.893  33.710  25.845  1.00  0.00    -0.237 OA
ATOM    105  O   UNL A   1      48.667  33.323  28.137  1.00  0.00    -0.744 OA
ENDBRANCH  99 102
ENDBRANCH  72  95
ENDBRANCH  46  47
ENDBRANCH  38  41
ENDBRANCH  36  37
ENDBRANCH  35  36
ENDBRANCH  34  35
ENDBRANCH   1  34
TORSDOF 19
ENDMDL
MODEL 3
REMARK VINA RESULT:     -12.3      2.178      2.863
REMARK SMILES COc1ccc(-n2ncc([C@H]3CC(=O)Nc4n[nH]c(C(=O)NCCCCCCNC(=O)c5ccc(-c6c7nc(c(-c8cccc(S(=O)(=O)[O-])c8F)c8ccc([nH]8)c(-c8cccc(S(=O)(=O)[O-])c8F)c8nc(c(-c9cccc(S(=O)(=O)[O-])c9F)c9ccc6[nH]9)C=C8)C=C7)cc5)c43)c2C)cc1
REMARK SMILES IDX 25 1 24 2 23 3 22 4 20 5 21 6 19 8 11 9 12 10 95 11 13 12
REMARK SMILES IDX 16 13 14 14 15 15 17 16 18 17 10 20 7 21 8 22 96 23 9 24
REMARK SMILES IDX 97 25 6 26 3 27 4 28 99 29 5 30 98 31 2 32 1 33 26 34 27 35
REMARK SMILES IDX 28 36 29 37 30 38 31 40 32 41 33 42 94 43 34 44 93 45 35 46
REMARK SMILES IDX 36 47 37 48 87 49 38 50 92 51 86 52 88 53 39 54 91 55 85 56
REMARK SMILES IDX 84 57 40 59 72 60 52 61 71 62 53 63 56 64 70 65 89 66 54 67
REMARK SMILES IDX 55 68 69 70 90 71 57 72 41 73 42 74 50 75 43 76 45 77 51 78
REMARK SMILES IDX 44 79 46 80 47 81 48 82 49 83 73 84 74 85 82 86 75 87 77 88
REMARK SMILES IDX 83 89 76 90 78 91 79 92 80 93 81 94 58 95 59 96 67 97 60 98
REMARK SMILES IDX 62 99 68 100 61 101 63 102 64 103 65 104 66 105
REMARK H PARENT 22 7 15 18 18 19 29 39 88 58 56 69
REMARK Flexibility Score: inf
ROOT
ATOM      1  C   UNL A   1      39.379  22.259  25.676  1.00  0.00     0.002 C 
ENDROOT
BRANCH   1   2
ATOM      2  C   UNL A   1      37.900  22.475  25.985  1.00  0.00     0.021 C 
BRANCH   2   3
ATOM      3  C   UNL A   1      36.922  21.717  25.098  1.00  0.00     0.116 C 
BRANCH   3   4
ATOM      4  N   UNL A   1      36.426  22.438  23.966  1.00  0.00    -0.351 N 
ATOM      5  C   UNL A   1      35.156  22.832  23.650  1.00  0.00     0.269 C 
ATOM      6  O   UNL A   1      35.088  23.577  22.663  1.00  0.00    -0.268 OA
ATOM      7  H   UNL A   1      37.111  22.692  23.307  1.00  0.00     0.163 HD
BRANCH   5   8
ATOM      8  C   UNL A   1      33.928  22.477  24.349  1.00  0.00     0.129 A 
ATOM      9  C   UNL A   1      32.441  24.332  25.661  1.00  0.00     0.068 C 
ATOM     10  C   UNL A   1      31.508  24.223  26.882  1.00  0.00     0.114 C 
ATOM     11  C   UNL A   1      32.887  22.991  25.135  1.00  0.00     0.035 A 
ATOM     12  C   UNL A   1      30.601  23.011  26.926  1.00  0.00     0.226 C 
ATOM     13  C   UNL A   1      32.074  21.868  25.431  1.00  0.00     0.159 A 
ATOM     14  O   UNL A   1      29.597  22.981  27.640  1.00  0.00    -0.275 OA
ATOM     15  N   UNL A   1      30.967  21.908  26.221  1.00  0.00    -0.309 N 
ATOM     16  N   UNL A   1      32.467  20.757  24.831  1.00  0.00    -0.157 NA
ATOM     17  N   UNL A   1      33.608  21.131  24.249  1.00  0.00    -0.270 N 
ATOM     18  H   UNL A   1      30.405  21.101  26.284  1.00  0.00     0.171 HD
ATOM     19  H   UNL A   1      34.187  20.491  23.776  1.00  0.00     0.190 HD
BRANCH   9  20
ATOM     20  C   UNL A   1      31.861  25.186  24.552  1.00  0.00     0.002 A 
ATOM     21  N   UNL A   1      30.720  26.643  23.333  1.00  0.00    -0.238 N 
ATOM     22  N   UNL A   1      31.041  25.666  22.464  1.00  0.00    -0.176 NA
ATOM     23  C   UNL A   1      31.301  26.458  24.576  1.00  0.00     0.045 A 
ATOM     24  C   UNL A   1      31.792  24.833  23.182  1.00  0.00     0.140 A 
ATOM     25  C   UNL A   1      31.249  27.482  25.651  1.00  0.00     0.067 C 
BRANCH  21  26
ATOM     26  C   UNL A   1      30.017  27.776  22.893  1.00  0.00     0.065 A 
ATOM     27  C   UNL A   1      28.724  30.142  22.237  1.00  0.00     0.119 A 
ATOM     28  C   UNL A   1      30.080  29.979  21.939  1.00  0.00     0.048 A 
ATOM     29  C   UNL A   1      28.002  29.097  22.825  1.00  0.00     0.048 A 
ATOM     30  C   UNL A   1      30.736  28.800  22.276  1.00  0.00     0.032 A 
ATOM     31  C   UNL A   1      28.649  27.900  23.157  1.00  0.00     0.032 A 
BRANCH  27  32
ATOM     32  O   UNL A   1      28.183  31.342  21.863  1.00  0.00    -0.497 OA
ATOM     33  C   UNL A   1      28.732  32.470  22.536  1.00  0.00     0.278 C 
ENDBRANCH  27  32
ENDBRANCH  21  26
ENDBRANCH   9  20
ENDBRANCH   5   8
ENDBRANCH   3   4
ENDBRANCH   2   3
ENDBRANCH   1   2
BRANCH   1  34
ATOM     34  C   UNL A   1      40.132  21.250  26.556  1.00  0.00     0.002 C 
BRANCH  34  35
ATOM     35  C   UNL A   1      40.807  21.776  27.831  1.00  0.00     0.021 C 
BRANCH  35  36
ATOM     36  C   UNL A   1      42.328  21.735  27.829  1.00  0.00     0.116 C 
BRANCH  36  37
ATOM     37  N   UNL A   1      42.910  22.180  26.564  1.00  0.00    -0.352 N 
ATOM     38  C   UNL A   1      42.886  23.448  26.010  1.00  0.00     0.251 C 
ATOM     39  H   UNL A   1      43.378  21.490  26.040  1.00  0.00     0.163 HD
ATOM     40  O   UNL A   1      43.069  23.611  24.816  1.00  0.00    -0.269 OA
BRANCH  38  41
ATOM     41  C   UNL A   1      42.638  24.606  26.894  1.00  0.00     0.039 A 
ATOM     42  C   UNL A   1      43.569  24.987  27.864  1.00  0.00     0.014 A 
ATOM     43  C   UNL A   1      41.454  25.321  26.726  1.00  0.00     0.014 A 
ATOM     44  C   UNL A   1      43.333  26.144  28.603  1.00  0.00     0.010 A 
ATOM     45  C   UNL A   1      41.298  26.537  27.340  1.00  0.00     0.010 A 
ATOM     46  C   UNL A   1      42.204  26.929  28.318  1.00  0.00    -0.014 A 
BRANCH  46  47
ATOM     47  C   UNL A   1      42.036  28.247  28.922  1.00  0.00     0.031 A 
ATOM     48  C   UNL A   1      42.982  29.261  28.385  1.00  0.00     0.074 A 
ATOM     49  C   UNL A   1      40.985  28.569  29.711  1.00  0.00     0.049 A 
ATOM     50  N   UNL A   1      44.010  29.765  28.982  1.00  0.00    -0.248 NA
ATOM     51  C   UNL A   1      42.899  29.607  26.956  1.00  0.00     0.031 C 
ATOM     52  C   UNL A   1      39.824  27.723  30.026  1.00  0.00     0.029 A 
ATOM     53  N   UNL A   1      40.648  29.760  30.286  1.00  0.00    -0.354 N 
ATOM     54  C   UNL A   1      44.512  30.718  28.096  1.00  0.00     0.074 A 
ATOM     55  C   UNL A   1      43.977  30.380  26.808  1.00  0.00     0.031 C 
ATOM     56  C   UNL A   1      38.817  28.490  30.493  1.00  0.00     0.029 A 
ATOM     57  C   UNL A   1      39.315  29.837  30.688  1.00  0.00     0.049 A 
ATOM     58  H   UNL A   1      41.288  30.498  30.406  1.00  0.00     0.167 HD
ATOM     59  C   UNL A   1      45.019  31.893  28.569  1.00  0.00     0.034 A 
ATOM     60  C   UNL A   1      38.655  30.934  31.133  1.00  0.00     0.034 A 
ATOM     61  C   UNL A   1      45.191  31.818  29.999  1.00  0.00     0.049 A 
ATOM     62  C   UNL A   1      39.672  31.888  31.613  1.00  0.00     0.074 A 
ATOM     63  C   UNL A   1      46.016  31.160  30.884  1.00  0.00     0.029 A 
ATOM     64  N   UNL A   1      44.086  32.240  30.694  1.00  0.00    -0.354 N 
ATOM     65  N   UNL A   1      40.415  31.664  32.660  1.00  0.00    -0.248 NA
ATOM     66  C   UNL A   1      40.121  32.963  30.739  1.00  0.00     0.031 C 
ATOM     67  C   UNL A   1      45.266  31.031  32.091  1.00  0.00     0.029 A 
ATOM     68  C   UNL A   1      44.030  31.659  31.928  1.00  0.00     0.049 A 
ATOM     69  H   UNL A   1      43.421  32.877  30.348  1.00  0.00     0.167 HD
ATOM     70  C   UNL A   1      41.635  32.213  32.312  1.00  0.00     0.074 A 
ATOM     71  C   UNL A   1      41.342  33.157  31.243  1.00  0.00     0.031 C 
ATOM     72  C   UNL A   1      42.795  31.601  32.679  1.00  0.00     0.034 A 
BRANCH  59  73
ATOM     73  C   UNL A   1      44.886  33.263  27.912  1.00  0.00     0.023 A 
ATOM     74  C   UNL A   1      46.081  33.847  27.424  1.00  0.00     0.012 A 
ATOM     75  C   UNL A   1      43.767  34.119  28.018  1.00  0.00     0.148 A 
ATOM     76  C   UNL A   1      46.177  35.213  27.134  1.00  0.00     0.002 A 
ATOM     77  C   UNL A   1      43.849  35.465  27.668  1.00  0.00     0.091 A 
ATOM     78  F   UNL A   1      42.637  33.687  28.575  1.00  0.00    -0.205 F 
ATOM     79  C   UNL A   1      45.059  36.025  27.257  1.00  0.00     0.022 A 
BRANCH  77  80
ATOM     80  S   UNL A   1      42.425  36.559  27.786  1.00  0.00     0.127 S 
ATOM     81  O   UNL A   1      41.329  35.600  27.897  1.00  0.00    -0.237 OA
ATOM     82  O   UNL A   1      42.727  37.305  29.007  1.00  0.00    -0.237 OA
ATOM     83  O   UNL A   1      42.442  37.366  26.572  1.00  0.00    -0.744 OA
ENDBRANCH  77  80
ENDBRANCH  59  73
BRANCH  60  84
ATOM     84  C   UNL A   1      37.226  31.310  31.062  1.00  0.00     0.023 A 
ATOM     85  C   UNL A   1      36.536  31.660  32.242  1.00  0.00     0.012 A 
ATOM     86  C   UNL A   1      36.634  31.628  29.821  1.00  0.00     0.148 A 
ATOM     87  C   UNL A   1      35.324  32.356  32.187  1.00  0.00     0.002 A 
ATOM     88  C   UNL A   1      35.431  32.326  29.772  1.00  0.00     0.091 A 
ATOM     89  F   UNL A   1      37.300  31.325  28.698  1.00  0.00    -0.205 F 
ATOM     90  C   UNL A   1      34.781  32.705  30.954  1.00  0.00     0.022 A 
BRANCH  88  91
ATOM     91  S   UNL A   1      34.692  32.859  28.223  1.00  0.00     0.127 S 
ATOM     92  O   UNL A   1      34.227  31.592  27.660  1.00  0.00    -0.237 OA
ATOM     93  O   UNL A   1      33.631  33.749  28.686  1.00  0.00    -0.237 OA
ATOM     94  O   UNL A   1      35.761  33.498  27.468  1.00  0.00    -0.744 OA
ENDBRANCH  88  91
ENDBRANCH  60  84
BRANCH  72  95
ATOM     95  C   UNL A   1      42.745  30.669  33.853  1.00  0.00     0.023 A 
ATOM     96  C   UNL A   1      42.536  29.280  33.736  1.00  0.00     0.012 A 
ATOM     97  C   UNL A   1      43.027  31.216  35.114  1.00  0.00     0.148 A 
ATOM     98  C   UNL A   1      42.591  28.459  34.867  1.00  0.00     0.002 A 
ATOM     99  C   UNL A   1      43.133  30.393  36.223  1.00  0.00     0.091 A 
ATOM    100  F   UNL A   1      43.208  32.543  35.201  1.00  0.00    -0.205 F 
ATOM    101  C   UNL A   1      42.904  29.013  36.107  1.00  0.00     0.022 A 
BRANCH  99 102
ATOM    102  S   UNL A   1      43.655  31.042  37.810  1.00  0.00     0.127 S 
ATOM    103  O   UNL A   1      44.560  32.119  37.416  1.00  0.00    -0.237 OA
ATOM    104  O   UNL A   1      42.391  31.487  38.398  1.00  0.00    -0.237 OA
ATOM    105  O   UNL A   1      44.275  29.924  38.512  1.00  0.00    -0.744 OA
ENDBRANCH  99 102
ENDBRANCH  72  95
ENDBRANCH  46  47
ENDBRANCH  38  41
ENDBRANCH  36  37
ENDBRANCH  35  36
ENDBRANCH  34  35
ENDBRANCH   1  34
TORSDOF 19
ENDMDL
