MODEL 1
REMARK VINA RESULT:     -12.5      0.000      0.000
REMARK SMILES Cc1ccc(-n2nc(-c3ccc(F)cc3)cc2C(=O)NCCCCCCNC(=O)c2ccc(-c3c4nc(c(-c5cccc(S(=O)(=O)[O-])c5F)c5ccc([nH]5)c(-c5cccc(S(=O)(=O)[O-])c5F)c5nc(c(-c6cccc(S(=O)(=O)[O-])c6F)c6ccc3[nH]6)C=C5)C=C4)cc2)c(C)c1
REMARK SMILES IDX 24 1 23 2 22 3 21 4 20 5 18 6 19 7 17 9 6 10 7 11 8 12 16 13
REMARK SMILES IDX 5 14 1 15 2 16 3 17 95 18 4 19 93 20 94 21 9 22 10 23 15 24
REMARK SMILES IDX 11 25 14 26 12 27 13 28 25 29 26 30 27 31 28 32 29 34 30 35
REMARK SMILES IDX 31 36 92 37 32 38 91 39 33 40 34 41 35 42 85 43 36 44 90 45
REMARK SMILES IDX 84 46 86 47 37 48 89 49 83 50 82 51 38 53 70 54 50 55 69 56
REMARK SMILES IDX 51 57 54 58 68 59 87 60 52 61 53 62 67 64 88 65 55 66 39 67
REMARK SMILES IDX 40 68 48 69 41 70 43 71 49 72 42 73 44 74 45 75 46 76 47 77
REMARK SMILES IDX 71 78 72 79 80 80 73 81 75 82 81 83 74 84 76 85 77 86 78 87
REMARK SMILES IDX 79 88 56 89 57 90 65 91 58 92 60 93 66 94 59 95 61 96 62 97
REMARK SMILES IDX 63 98 64 99
REMARK H PARENT 20 8 27 33 86 52 54 63
REMARK Flexibility Score: inf
ROOT
ATOM      1  C   UNL A   1      39.339  22.101  26.103  1.00  0.00     0.002 C 
ENDROOT
BRANCH   1   2
ATOM      2  C   UNL A   1      38.025  22.895  26.004  1.00  0.00     0.002 C 
BRANCH   2   3
ATOM      3  C   UNL A   1      37.334  22.878  24.633  1.00  0.00     0.021 C 
BRANCH   3   4
ATOM      4  C   UNL A   1      36.104  23.777  24.561  1.00  0.00     0.116 C 
BRANCH   4   5
ATOM      5  N   UNL A   1      35.396  23.793  25.820  1.00  0.00    -0.351 N 
ATOM      6  C   UNL A   1      34.478  22.953  26.388  1.00  0.00     0.270 C 
ATOM      7  O   UNL A   1      34.219  23.222  27.563  1.00  0.00    -0.268 OA
ATOM      8  H   UNL A   1      35.620  24.568  26.385  1.00  0.00     0.163 HD
BRANCH   6   9
ATOM      9  C   UNL A   1      33.946  21.807  25.688  1.00  0.00     0.132 A 
ATOM     10  N   UNL A   1      32.688  21.784  25.091  1.00  0.00    -0.227 N 
ATOM     11  N   UNL A   1      32.195  20.511  25.035  1.00  0.00    -0.167 NA
ATOM     12  C   UNL A   1      33.293  19.751  25.123  1.00  0.00     0.094 A 
ATOM     13  C   UNL A   1      34.428  20.539  25.421  1.00  0.00     0.065 A 
BRANCH  10  14
ATOM     14  C   UNL A   1      31.898  22.879  24.646  1.00  0.00     0.068 A 
ATOM     15  C   UNL A   1      29.716  26.440  23.592  1.00  0.00     0.044 C 
ATOM     16  C   UNL A   1      30.446  25.185  23.966  1.00  0.00    -0.051 A 
ATOM     17  C   UNL A   1      30.300  24.611  25.232  1.00  0.00     0.005 A 
ATOM     18  C   UNL A   1      31.279  24.564  23.027  1.00  0.00     0.009 A 
ATOM     19  C   UNL A   1      31.009  23.455  25.567  1.00  0.00     0.029 A 
ATOM     20  C   UNL A   1      32.000  23.397  23.338  1.00  0.00    -0.025 A 
ATOM     21  C   UNL A   1      32.793  22.770  22.221  1.00  0.00     0.047 C 
ENDBRANCH  10  14
BRANCH  12  22
ATOM     22  C   UNL A   1      33.279  18.301  25.036  1.00  0.00     0.002 A 
ATOM     23  C   UNL A   1      32.339  17.577  25.789  1.00  0.00     0.013 A 
ATOM     24  C   UNL A   1      34.258  17.620  24.306  1.00  0.00     0.013 A 
ATOM     25  C   UNL A   1      32.386  16.182  25.815  1.00  0.00     0.040 A 
ATOM     26  C   UNL A   1      34.304  16.223  24.337  1.00  0.00     0.040 A 
ATOM     27  C   UNL A   1      33.369  15.519  25.089  1.00  0.00     0.123 A 
ATOM     28  F   UNL A   1      33.413  14.180  25.119  1.00  0.00    -0.207 F 
ENDBRANCH  12  22
ENDBRANCH   6   9
ENDBRANCH   4   5
ENDBRANCH   3   4
ENDBRANCH   2   3
ENDBRANCH   1   2
BRANCH   1  29
ATOM     29  C   UNL A   1      39.333  20.686  25.504  1.00  0.00     0.021 C 
BRANCH  29  30
ATOM     30  C   UNL A   1      39.845  19.618  26.456  1.00  0.00     0.116 C 
BRANCH  30  31
ATOM     31  N   UNL A   1      41.087  19.006  25.979  1.00  0.00    -0.352 N 
ATOM     32  C   UNL A   1      42.296  19.620  25.702  1.00  0.00     0.251 C 
ATOM     33  H   UNL A   1      41.058  18.033  25.836  1.00  0.00     0.163 HD
ATOM     34  O   UNL A   1      43.122  19.089  24.980  1.00  0.00    -0.269 OA
BRANCH  32  35
ATOM     35  C   UNL A   1      42.563  20.930  26.321  1.00  0.00     0.039 A 
ATOM     36  C   UNL A   1      42.907  22.052  25.562  1.00  0.00     0.014 A 
ATOM     37  C   UNL A   1      42.415  21.017  27.700  1.00  0.00     0.014 A 
ATOM     38  C   UNL A   1      43.028  23.280  26.208  1.00  0.00     0.010 A 
ATOM     39  C   UNL A   1      42.325  22.244  28.289  1.00  0.00     0.010 A 
ATOM     40  C   UNL A   1      42.722  23.365  27.574  1.00  0.00    -0.014 A 
BRANCH  40  41
ATOM     41  C   UNL A   1      42.727  24.634  28.286  1.00  0.00     0.031 A 
ATOM     42  C   UNL A   1      41.494  25.445  28.106  1.00  0.00     0.074 A 
ATOM     43  C   UNL A   1      43.660  24.924  29.218  1.00  0.00     0.049 A 
ATOM     44  N   UNL A   1      41.378  26.564  27.474  1.00  0.00    -0.248 NA
ATOM     45  C   UNL A   1      40.211  24.875  28.550  1.00  0.00     0.031 C 
ATOM     46  C   UNL A   1      44.727  24.053  29.736  1.00  0.00     0.029 A 
ATOM     47  N   UNL A   1      43.751  26.008  30.032  1.00  0.00    -0.354 N 
ATOM     48  C   UNL A   1      40.057  26.962  27.661  1.00  0.00     0.074 A 
ATOM     49  C   UNL A   1      39.347  25.799  28.125  1.00  0.00     0.031 C 
ATOM     50  C   UNL A   1      45.150  24.518  30.931  1.00  0.00     0.029 A 
ATOM     51  C   UNL A   1      44.530  25.805  31.168  1.00  0.00     0.049 A 
ATOM     52  H   UNL A   1      43.303  26.863  29.836  1.00  0.00     0.167 HD
ATOM     53  C   UNL A   1      39.708  28.278  27.681  1.00  0.00     0.034 A 
ATOM     54  C   UNL A   1      44.604  26.619  32.249  1.00  0.00     0.034 A 
ATOM     55  C   UNL A   1      40.779  29.117  27.211  1.00  0.00     0.049 A 
ATOM     56  C   UNL A   1      44.121  27.950  31.814  1.00  0.00     0.074 A 
ATOM     57  C   UNL A   1      41.508  29.205  26.043  1.00  0.00     0.029 A 
ATOM     58  N   UNL A   1      41.520  29.761  28.173  1.00  0.00    -0.354 N 
ATOM     59  N   UNL A   1      44.739  28.687  30.934  1.00  0.00    -0.248 NA
ATOM     60  C   UNL A   1      42.720  28.267  32.032  1.00  0.00     0.031 C 
ATOM     61  C   UNL A   1      42.845  29.458  26.468  1.00  0.00     0.029 A 
ATOM     62  C   UNL A   1      42.842  29.592  27.858  1.00  0.00     0.049 A 
ATOM     63  H   UNL A   1      41.165  30.254  28.947  1.00  0.00     0.167 HD
ATOM     64  C   UNL A   1      43.715  29.222  30.164  1.00  0.00     0.074 A 
ATOM     65  C   UNL A   1      42.500  29.024  30.954  1.00  0.00     0.031 C 
ATOM     66  C   UNL A   1      43.901  29.500  28.840  1.00  0.00     0.034 A 
BRANCH  53  67
ATOM     67  C   UNL A   1      38.549  28.851  28.455  1.00  0.00     0.023 A 
ATOM     68  C   UNL A   1      37.541  29.522  27.728  1.00  0.00     0.012 A 
ATOM     69  C   UNL A   1      38.523  28.983  29.862  1.00  0.00     0.148 A 
ATOM     70  C   UNL A   1      36.570  30.298  28.369  1.00  0.00     0.002 A 
ATOM     71  C   UNL A   1      37.501  29.675  30.499  1.00  0.00     0.091 A 
ATOM     72  F   UNL A   1      39.563  28.563  30.589  1.00  0.00    -0.205 F 
ATOM     73  C   UNL A   1      36.537  30.360  29.758  1.00  0.00     0.022 A 
BRANCH  71  74
ATOM     74  S   UNL A   1      37.373  29.720  32.290  1.00  0.00     0.127 S 
ATOM     75  O   UNL A   1      38.541  30.518  32.648  1.00  0.00    -0.237 OA
ATOM     76  O   UNL A   1      36.083  30.383  32.480  1.00  0.00    -0.237 OA
ATOM     77  O   UNL A   1      37.393  28.324  32.712  1.00  0.00    -0.744 OA
ENDBRANCH  71  74
ENDBRANCH  53  67
BRANCH  54  78
ATOM     78  C   UNL A   1      44.748  26.283  33.687  1.00  0.00     0.023 A 
ATOM     79  C   UNL A   1      46.000  26.468  34.309  1.00  0.00     0.012 A 
ATOM     80  C   UNL A   1      43.613  26.109  34.509  1.00  0.00     0.148 A 
ATOM     81  C   UNL A   1      46.109  26.543  35.702  1.00  0.00     0.002 A 
ATOM     82  C   UNL A   1      43.726  26.189  35.894  1.00  0.00     0.091 A 
ATOM     83  F   UNL A   1      42.413  25.964  33.932  1.00  0.00    -0.205 F 
ATOM     84  C   UNL A   1      44.970  26.422  36.493  1.00  0.00     0.022 A 
BRANCH  82  85
ATOM     85  S   UNL A   1      42.293  26.098  36.979  1.00  0.00     0.127 S 
ATOM     86  O   UNL A   1      41.470  27.204  36.488  1.00  0.00    -0.237 OA
ATOM     87  O   UNL A   1      41.772  24.768  36.681  1.00  0.00    -0.237 OA
ATOM     88  O   UNL A   1      42.803  26.286  38.332  1.00  0.00    -0.744 OA
ENDBRANCH  82  85
ENDBRANCH  54  78
BRANCH  66  89
ATOM     89  C   UNL A   1      45.306  29.471  28.291  1.00  0.00     0.023 A 
ATOM     90  C   UNL A   1      45.894  28.310  27.746  1.00  0.00     0.012 A 
ATOM     91  C   UNL A   1      45.970  30.700  28.143  1.00  0.00     0.148 A 
ATOM     92  C   UNL A   1      47.120  28.376  27.075  1.00  0.00     0.002 A 
ATOM     93  C   UNL A   1      47.159  30.771  27.430  1.00  0.00     0.091 A 
ATOM     94  F   UNL A   1      45.402  31.793  28.675  1.00  0.00    -0.205 F 
ATOM     95  C   UNL A   1      47.744  29.611  26.902  1.00  0.00     0.022 A 
BRANCH  93  96
ATOM     96  S   UNL A   1      47.919  32.351  27.051  1.00  0.00     0.127 S 
ATOM     97  O   UNL A   1      48.023  32.964  28.373  1.00  0.00    -0.237 OA
ATOM     98  O   UNL A   1      49.197  31.953  26.459  1.00  0.00    -0.237 OA
ATOM     99  O   UNL A   1      47.016  33.015  26.118  1.00  0.00    -0.744 OA
ENDBRANCH  93  96
ENDBRANCH  66  89
ENDBRANCH  40  41
ENDBRANCH  32  35
ENDBRANCH  30  31
ENDBRANCH  29  30
ENDBRANCH   1  29
TORSDOF 18
ENDMDL
MODEL 2
REMARK VINA RESULT:     -12.5      2.755      7.519
REMARK SMILES Cc1ccc(-n2nc(-c3ccc(F)cc3)cc2C(=O)NCCCCCCNC(=O)c2ccc(-c3c4nc(c(-c5cccc(S(=O)(=O)[O-])c5F)c5ccc([nH]5)c(-c5cccc(S(=O)(=O)[O-])c5F)c5nc(c(-c6cccc(S(=O)(=O)[O-])c6F)c6ccc3[nH]6)C=C5)C=C4)cc2)c(C)c1
REMARK SMILES IDX 24 1 23 2 22 3 21 4 20 5 18 6 19 7 17 9 6 10 7 11 8 12 16 13
REMARK SMILES IDX 5 14 1 15 2 16 3 17 95 18 4 19 93 20 94 21 9 22 10 23 15 24
REMARK SMILES IDX 11 25 14 26 12 27 13 28 25 29 26 30 27 31 28 32 29 34 30 35
REMARK SMILES IDX 31 36 92 37 32 38 91 39 33 40 34 41 35 42 85 43 36 44 90 45
REMARK SMILES IDX 84 46 86 47 37 48 89 49 83 50 82 51 38 53 70 54 50 55 69 56
REMARK SMILES IDX 51 57 54 58 68 59 87 60 52 61 53 62 67 64 88 65 55 66 39 67
REMARK SMILES IDX 40 68 48 69 41 70 43 71 49 72 42 73 44 74 45 75 46 76 47 77
REMARK SMILES IDX 71 78 72 79 80 80 73 81 75 82 81 83 74 84 76 85 77 86 78 87
REMARK SMILES IDX 79 88 56 89 57 90 65 91 58 92 60 93 66 94 59 95 61 96 62 97
REMARK SMILES IDX 63 98 64 99
REMARK H PARENT 20 8 27 33 86 52 54 63
REMARK Flexibility Score: inf
ROOT
ATOM      1  C   UNL A   1      40.393  22.519  27.699  1.00  0.00     0.002 C 
ENDROOT
BRANCH   1   2
ATOM      2  C   UNL A   1      39.797  23.259  26.489  1.00  0.00     0.002 C 
BRANCH   2   3
ATOM      3  C   UNL A   1      38.275  23.452  26.506  1.00  0.00     0.021 C 
BRANCH   3   4
ATOM      4  C   UNL A   1      37.505  22.272  25.921  1.00  0.00     0.116 C 
BRANCH   4   5
ATOM      5  N   UNL A   1      37.161  22.509  24.539  1.00  0.00    -0.351 N 
ATOM      6  C   UNL A   1      36.178  23.240  23.931  1.00  0.00     0.270 C 
ATOM      7  O   UNL A   1      36.308  23.327  22.708  1.00  0.00    -0.268 OA
ATOM      8  H   UNL A   1      37.756  22.049  23.903  1.00  0.00     0.163 HD
BRANCH   6   9
ATOM      9  C   UNL A   1      35.146  23.917  24.682  1.00  0.00     0.132 A 
ATOM     10  N   UNL A   1      33.856  23.418  24.843  1.00  0.00    -0.227 N 
ATOM     11  N   UNL A   1      32.960  24.429  25.044  1.00  0.00    -0.167 NA
ATOM     12  C   UNL A   1      33.725  25.434  25.489  1.00  0.00     0.094 A 
ATOM     13  C   UNL A   1      35.096  25.109  25.381  1.00  0.00     0.065 A 
BRANCH  10  14
ATOM     14  C   UNL A   1      33.407  22.073  24.742  1.00  0.00     0.068 A 
ATOM     15  C   UNL A   1      32.348  17.943  24.126  1.00  0.00     0.044 C 
ATOM     16  C   UNL A   1      32.685  19.389  24.333  1.00  0.00    -0.051 A 
ATOM     17  C   UNL A   1      32.471  20.336  23.327  1.00  0.00     0.005 A 
ATOM     18  C   UNL A   1      33.209  19.808  25.563  1.00  0.00     0.009 A 
ATOM     19  C   UNL A   1      32.815  21.673  23.534  1.00  0.00     0.029 A 
ATOM     20  C   UNL A   1      33.558  21.150  25.798  1.00  0.00    -0.025 A 
ATOM     21  C   UNL A   1      34.029  21.496  27.187  1.00  0.00     0.047 C 
ENDBRANCH  10  14
BRANCH  12  22
ATOM     22  C   UNL A   1      33.200  26.721  25.911  1.00  0.00     0.002 A 
ATOM     23  C   UNL A   1      33.856  27.897  25.509  1.00  0.00     0.013 A 
ATOM     24  C   UNL A   1      32.124  26.796  26.801  1.00  0.00     0.013 A 
ATOM     25  C   UNL A   1      33.441  29.134  26.000  1.00  0.00     0.040 A 
ATOM     26  C   UNL A   1      31.713  28.038  27.293  1.00  0.00     0.040 A 
ATOM     27  C   UNL A   1      32.374  29.193  26.889  1.00  0.00     0.123 A 
ATOM     28  F   UNL A   1      31.980  30.384  27.361  1.00  0.00    -0.207 F 
ENDBRANCH  12  22
ENDBRANCH   6   9
ENDBRANCH   4   5
ENDBRANCH   3   4
ENDBRANCH   2   3
ENDBRANCH   1   2
BRANCH   1  29
ATOM     29  C   UNL A   1      40.865  21.077  27.458  1.00  0.00     0.021 C 
BRANCH  29  30
ATOM     30  C   UNL A   1      41.006  20.717  25.988  1.00  0.00     0.116 C 
BRANCH  30  31
ATOM     31  N   UNL A   1      42.340  20.202  25.674  1.00  0.00    -0.352 N 
ATOM     32  C   UNL A   1      43.494  20.915  25.398  1.00  0.00     0.251 C 
ATOM     33  H   UNL A   1      42.428  19.222  25.656  1.00  0.00     0.163 HD
ATOM     34  O   UNL A   1      44.426  20.402  24.804  1.00  0.00    -0.269 OA
BRANCH  32  35
ATOM     35  C   UNL A   1      43.569  22.312  25.859  1.00  0.00     0.039 A 
ATOM     36  C   UNL A   1      43.060  23.371  25.102  1.00  0.00     0.014 A 
ATOM     37  C   UNL A   1      44.132  22.533  27.111  1.00  0.00     0.014 A 
ATOM     38  C   UNL A   1      43.063  24.648  25.659  1.00  0.00     0.010 A 
ATOM     39  C   UNL A   1      43.940  23.734  27.730  1.00  0.00     0.010 A 
ATOM     40  C   UNL A   1      43.495  24.814  26.982  1.00  0.00    -0.014 A 
BRANCH  40  41
ATOM     41  C   UNL A   1      43.426  26.101  27.658  1.00  0.00     0.031 A 
ATOM     42  C   UNL A   1      44.536  27.031  27.325  1.00  0.00     0.074 A 
ATOM     43  C   UNL A   1      42.320  26.495  28.327  1.00  0.00     0.049 A 
ATOM     44  N   UNL A   1      45.486  27.428  28.103  1.00  0.00    -0.248 NA
ATOM     45  C   UNL A   1      44.697  27.455  25.924  1.00  0.00     0.031 C 
ATOM     46  C   UNL A   1      41.026  25.803  28.428  1.00  0.00     0.029 A 
ATOM     47  N   UNL A   1      42.060  27.688  28.923  1.00  0.00    -0.354 N 
ATOM     48  C   UNL A   1      46.217  28.349  27.359  1.00  0.00     0.074 A 
ATOM     49  C   UNL A   1      45.831  28.157  25.985  1.00  0.00     0.031 C 
ATOM     50  C   UNL A   1      40.068  26.687  28.782  1.00  0.00     0.029 A 
ATOM     51  C   UNL A   1      40.705  27.944  29.116  1.00  0.00     0.049 A 
ATOM     52  H   UNL A   1      42.768  28.316  29.195  1.00  0.00     0.167 HD
ATOM     53  C   UNL A   1      46.879  29.379  27.955  1.00  0.00     0.034 A 
ATOM     54  C   UNL A   1      40.153  29.131  29.467  1.00  0.00     0.034 A 
ATOM     55  C   UNL A   1      46.953  29.205  29.381  1.00  0.00     0.049 A 
ATOM     56  C   UNL A   1      41.234  29.941  30.074  1.00  0.00     0.074 A 
ATOM     57  C   UNL A   1      47.462  28.235  30.221  1.00  0.00     0.029 A 
ATOM     58  N   UNL A   1      46.062  29.932  30.134  1.00  0.00    -0.354 N 
ATOM     59  N   UNL A   1      41.827  29.628  31.192  1.00  0.00    -0.248 NA
ATOM     60  C   UNL A   1      41.957  30.861  29.212  1.00  0.00     0.031 C 
ATOM     61  C   UNL A   1      46.502  28.123  31.269  1.00  0.00     0.029 A 
ATOM     62  C   UNL A   1      45.510  29.082  31.056  1.00  0.00     0.049 A 
ATOM     63  H   UNL A   1      45.857  30.889  30.030  1.00  0.00     0.167 HD
ATOM     64  C   UNL A   1      43.164  29.921  30.958  1.00  0.00     0.074 A 
ATOM     65  C   UNL A   1      43.165  30.779  29.774  1.00  0.00     0.031 C 
ATOM     66  C   UNL A   1      44.157  29.202  31.558  1.00  0.00     0.034 A 
BRANCH  53  67
ATOM     67  C   UNL A   1      47.145  30.718  27.316  1.00  0.00     0.023 A 
ATOM     68  C   UNL A   1      48.457  31.235  27.397  1.00  0.00     0.012 A 
ATOM     69  C   UNL A   1      46.134  31.598  26.868  1.00  0.00     0.148 A 
ATOM     70  C   UNL A   1      48.742  32.563  27.064  1.00  0.00     0.002 A 
ATOM     71  C   UNL A   1      46.438  32.886  26.448  1.00  0.00     0.091 A 
ATOM     72  F   UNL A   1      44.849  31.245  26.978  1.00  0.00    -0.205 F 
ATOM     73  C   UNL A   1      47.735  33.385  26.571  1.00  0.00     0.022 A 
BRANCH  71  74
ATOM     74  S   UNL A   1      45.187  33.959  25.733  1.00  0.00     0.127 S 
ATOM     75  O   UNL A   1      44.374  34.280  26.901  1.00  0.00    -0.237 OA
ATOM     76  O   UNL A   1      46.000  35.061  25.218  1.00  0.00    -0.237 OA
ATOM     77  O   UNL A   1      44.542  33.161  24.698  1.00  0.00    -0.744 OA
ENDBRANCH  71  74
ENDBRANCH  53  67
BRANCH  54  78
ATOM     78  C   UNL A   1      38.871  29.748  29.047  1.00  0.00     0.023 A 
ATOM     79  C   UNL A   1      38.146  29.161  27.989  1.00  0.00     0.012 A 
ATOM     80  C   UNL A   1      38.208  30.681  29.874  1.00  0.00     0.148 A 
ATOM     81  C   UNL A   1      36.787  29.443  27.803  1.00  0.00     0.002 A 
ATOM     82  C   UNL A   1      36.857  30.955  29.688  1.00  0.00     0.091 A 
ATOM     83  F   UNL A   1      38.875  31.222  30.902  1.00  0.00    -0.205 F 
ATOM     84  C   UNL A   1      36.139  30.326  28.662  1.00  0.00     0.022 A 
BRANCH  82  85
ATOM     85  S   UNL A   1      35.937  32.039  30.790  1.00  0.00     0.127 S 
ATOM     86  O   UNL A   1      34.682  32.221  30.059  1.00  0.00    -0.237 OA
ATOM     87  O   UNL A   1      35.830  31.224  31.997  1.00  0.00    -0.237 OA
ATOM     88  O   UNL A   1      36.736  33.251  30.918  1.00  0.00    -0.744 OA
ENDBRANCH  82  85
ENDBRANCH  54  78
BRANCH  66  89
ATOM     89  C   UNL A   1      43.787  28.265  32.681  1.00  0.00     0.023 A 
ATOM     90  C   UNL A   1      43.742  26.863  32.529  1.00  0.00     0.012 A 
ATOM     91  C   UNL A   1      43.680  28.810  33.972  1.00  0.00     0.148 A 
ATOM     92  C   UNL A   1      43.586  26.027  33.640  1.00  0.00     0.002 A 
ATOM     93  C   UNL A   1      43.581  27.975  35.077  1.00  0.00     0.091 A 
ATOM     94  F   UNL A   1      43.717  30.145  34.099  1.00  0.00    -0.205 F 
ATOM     95  C   UNL A   1      43.523  26.583  34.916  1.00  0.00     0.022 A 
BRANCH  93  96
ATOM     96  S   UNL A   1      43.649  28.634  36.744  1.00  0.00     0.127 S 
ATOM     97  O   UNL A   1      43.646  27.417  37.553  1.00  0.00    -0.237 OA
ATOM     98  O   UNL A   1      44.917  29.365  36.744  1.00  0.00    -0.237 OA
ATOM     99  O   UNL A   1      42.474  29.486  36.884  1.00  0.00    -0.744 OA
ENDBRANCH  93  96
ENDBRANCH  66  89
ENDBRANCH  40  41
ENDBRANCH  32  35
ENDBRANCH  30  31
ENDBRANCH  29  30
ENDBRANCH   1  29
TORSDOF 18
ENDMDL
MODEL 3
REMARK VINA RESULT:     -12.5      4.019      9.186
REMARK SMILES Cc1ccc(-n2nc(-c3ccc(F)cc3)cc2C(=O)NCCCCCCNC(=O)c2ccc(-c3c4nc(c(-c5cccc(S(=O)(=O)[O-])c5F)c5ccc([nH]5)c(-c5cccc(S(=O)(=O)[O-])c5F)c5nc(c(-c6cccc(S(=O)(=O)[O-])c6F)c6ccc3[nH]6)C=C5)C=C4)cc2)c(C)c1
REMARK SMILES IDX 24 1 23 2 22 3 21 4 20 5 18 6 19 7 17 9 6 10 7 11 8 12 16 13
REMARK SMILES IDX 5 14 1 15 2 16 3 17 95 18 4 19 93 20 94 21 9 22 10 23 15 24
REMARK SMILES IDX 11 25 14 26 12 27 13 28 25 29 26 30 27 31 28 32 29 34 30 35
REMARK SMILES IDX 31 36 92 37 32 38 91 39 33 40 34 41 35 42 85 43 36 44 90 45
REMARK SMILES IDX 84 46 86 47 37 48 89 49 83 50 82 51 38 53 70 54 50 55 69 56
REMARK SMILES IDX 51 57 54 58 68 59 87 60 52 61 53 62 67 64 88 65 55 66 39 67
REMARK SMILES IDX 40 68 48 69 41 70 43 71 49 72 42 73 44 74 45 75 46 76 47 77
REMARK SMILES IDX 71 78 72 79 80 80 73 81 75 82 81 83 74 84 76 85 77 86 78 87
REMARK SMILES IDX 79 88 56 89 57 90 65 91 58 92 60 93 66 94 59 95 61 96 62 97
REMARK SMILES IDX 63 98 64 99
REMARK H PARENT 20 8 27 33 86 52 54 63
REMARK Flexibility Score: inf
ROOT
ATOM      1  C   UNL A   1      31.375  31.210  25.666  1.00  0.00     0.002 C 
ENDROOT
BRANCH   1   2
ATOM      2  C   UNL A   1      31.348  29.740  26.118  1.00  0.00     0.002 C 
BRANCH   2   3
ATOM      3  C   UNL A   1      32.598  29.243  26.857  1.00  0.00     0.021 C 
BRANCH   3   4
ATOM      4  C   UNL A   1      32.301  28.178  27.908  1.00  0.00     0.116 C 
BRANCH   4   5
ATOM      5  N   UNL A   1      31.210  27.328  27.493  1.00  0.00    -0.351 N 
ATOM      6  C   UNL A   1      31.133  26.242  26.665  1.00  0.00     0.270 C 
ATOM      7  O   UNL A   1      30.037  25.677  26.687  1.00  0.00    -0.268 OA
ATOM      8  H   UNL A   1      30.344  27.582  27.886  1.00  0.00     0.163 HD
BRANCH   6   9
ATOM      9  C   UNL A   1      32.272  25.761  25.917  1.00  0.00     0.132 A 
ATOM     10  N   UNL A   1      32.435  25.960  24.549  1.00  0.00    -0.227 N 
ATOM     11  N   UNL A   1      33.203  24.974  23.998  1.00  0.00    -0.167 NA
ATOM     12  C   UNL A   1      33.886  24.495  25.044  1.00  0.00     0.094 A 
ATOM     13  C   UNL A   1      33.406  25.046  26.254  1.00  0.00     0.065 A 
BRANCH  10  14
ATOM     14  C   UNL A   1      31.857  26.963  23.724  1.00  0.00     0.068 A 
ATOM     15  C   UNL A   1      29.840  30.094  21.559  1.00  0.00     0.044 C 
ATOM     16  C   UNL A   1      30.533  28.983  22.288  1.00  0.00    -0.051 A 
ATOM     17  C   UNL A   1      29.850  27.821  22.660  1.00  0.00     0.005 A 
ATOM     18  C   UNL A   1      31.896  29.099  22.591  1.00  0.00     0.009 A 
ATOM     19  C   UNL A   1      30.510  26.809  23.359  1.00  0.00     0.029 A 
ATOM     20  C   UNL A   1      32.584  28.091  23.291  1.00  0.00    -0.025 A 
ATOM     21  C   UNL A   1      34.066  28.288  23.482  1.00  0.00     0.047 C 
ENDBRANCH  10  14
BRANCH  12  22
ATOM     22  C   UNL A   1      34.900  23.459  24.939  1.00  0.00     0.002 A 
ATOM     23  C   UNL A   1      36.250  23.829  24.813  1.00  0.00     0.013 A 
ATOM     24  C   UNL A   1      34.537  22.112  24.847  1.00  0.00     0.013 A 
ATOM     25  C   UNL A   1      37.225  22.857  24.590  1.00  0.00     0.040 A 
ATOM     26  C   UNL A   1      35.517  21.141  24.620  1.00  0.00     0.040 A 
ATOM     27  C   UNL A   1      36.849  21.522  24.494  1.00  0.00     0.123 A 
ATOM     28  F   UNL A   1      37.788  20.592  24.276  1.00  0.00    -0.207 F 
ENDBRANCH  12  22
ENDBRANCH   6   9
ENDBRANCH   4   5
ENDBRANCH   3   4
ENDBRANCH   2   3
ENDBRANCH   1   2
BRANCH   1  29
ATOM     29  C   UNL A   1      31.221  32.270  26.767  1.00  0.00     0.021 C 
BRANCH  29  30
ATOM     30  C   UNL A   1      32.542  32.844  27.252  1.00  0.00     0.116 C 
BRANCH  30  31
ATOM     31  N   UNL A   1      32.395  34.208  27.762  1.00  0.00    -0.352 N 
ATOM     32  C   UNL A   1      33.062  34.809  28.815  1.00  0.00     0.251 C 
ATOM     33  H   UNL A   1      31.736  34.771  27.296  1.00  0.00     0.163 HD
ATOM     34  O   UNL A   1      32.608  35.795  29.370  1.00  0.00    -0.269 OA
BRANCH  32  35
ATOM     35  C   UNL A   1      34.350  34.230  29.237  1.00  0.00     0.039 A 
ATOM     36  C   UNL A   1      34.469  33.449  30.390  1.00  0.00     0.014 A 
ATOM     37  C   UNL A   1      35.443  34.457  28.410  1.00  0.00     0.014 A 
ATOM     38  C   UNL A   1      35.694  32.841  30.657  1.00  0.00     0.010 A 
ATOM     39  C   UNL A   1      36.566  33.696  28.558  1.00  0.00     0.010 A 
ATOM     40  C   UNL A   1      36.734  32.963  29.724  1.00  0.00    -0.014 A 
BRANCH  40  41
ATOM     41  C   UNL A   1      38.001  32.268  29.890  1.00  0.00     0.031 A 
ATOM     42  C   UNL A   1      38.055  30.925  29.256  1.00  0.00     0.074 A 
ATOM     43  C   UNL A   1      39.101  32.896  30.360  1.00  0.00     0.049 A 
ATOM     44  N   UNL A   1      38.115  29.781  29.850  1.00  0.00    -0.248 NA
ATOM     45  C   UNL A   1      37.868  30.832  27.798  1.00  0.00     0.031 C 
ATOM     46  C   UNL A   1      39.261  34.322  30.689  1.00  0.00     0.029 A 
ATOM     47  N   UNL A   1      40.370  32.426  30.484  1.00  0.00    -0.354 N 
ATOM     48  C   UNL A   1      38.231  28.839  28.831  1.00  0.00     0.074 A 
ATOM     49  C   UNL A   1      37.851  29.510  27.615  1.00  0.00     0.031 C 
ATOM     50  C   UNL A   1      40.574  34.640  30.691  1.00  0.00     0.029 A 
ATOM     51  C   UNL A   1      41.342  33.420  30.556  1.00  0.00     0.049 A 
ATOM     52  H   UNL A   1      40.582  31.465  30.518  1.00  0.00     0.167 HD
ATOM     53  C   UNL A   1      38.888  27.662  29.023  1.00  0.00     0.034 A 
ATOM     54  C   UNL A   1      42.682  33.244  30.450  1.00  0.00     0.034 A 
ATOM     55  C   UNL A   1      39.157  27.428  30.417  1.00  0.00     0.049 A 
ATOM     56  C   UNL A   1      42.947  31.815  30.736  1.00  0.00     0.074 A 
ATOM     57  C   UNL A   1      38.384  27.320  31.555  1.00  0.00     0.029 A 
ATOM     58  N   UNL A   1      40.434  27.695  30.848  1.00  0.00    -0.354 N 
ATOM     59  N   UNL A   1      42.739  31.263  31.898  1.00  0.00    -0.248 NA
ATOM     60  C   UNL A   1      43.030  30.902  29.608  1.00  0.00     0.031 C 
ATOM     61  C   UNL A   1      39.124  28.004  32.563  1.00  0.00     0.029 A 
ATOM     62  C   UNL A   1      40.337  28.417  32.008  1.00  0.00     0.049 A 
ATOM     63  H   UNL A   1      41.268  27.418  30.404  1.00  0.00     0.167 HD
ATOM     64  C   UNL A   1      42.199  30.022  31.589  1.00  0.00     0.074 A 
ATOM     65  C   UNL A   1      42.509  29.812  30.175  1.00  0.00     0.031 C 
ATOM     66  C   UNL A   1      41.296  29.421  32.418  1.00  0.00     0.034 A 
BRANCH  53  67
ATOM     67  C   UNL A   1      39.611  26.892  27.948  1.00  0.00     0.023 A 
ATOM     68  C   UNL A   1      39.228  25.550  27.732  1.00  0.00     0.012 A 
ATOM     69  C   UNL A   1      40.798  27.331  27.321  1.00  0.00     0.148 A 
ATOM     70  C   UNL A   1      39.998  24.687  26.945  1.00  0.00     0.002 A 
ATOM     71  C   UNL A   1      41.507  26.499  26.464  1.00  0.00     0.091 A 
ATOM     72  F   UNL A   1      41.332  28.510  27.657  1.00  0.00    -0.205 F 
ATOM     73  C   UNL A   1      41.130  25.167  26.294  1.00  0.00     0.022 A 
BRANCH  71  74
ATOM     74  S   UNL A   1      42.930  27.095  25.542  1.00  0.00     0.127 S 
ATOM     75  O   UNL A   1      43.402  25.869  24.908  1.00  0.00    -0.237 OA
ATOM     76  O   UNL A   1      42.313  28.066  24.639  1.00  0.00    -0.237 OA
ATOM     77  O   UNL A   1      43.814  27.687  26.540  1.00  0.00    -0.744 OA
ENDBRANCH  71  74
ENDBRANCH  53  67
BRANCH  54  78
ATOM     78  C   UNL A   1      43.710  34.109  29.821  1.00  0.00     0.023 A 
ATOM     79  C   UNL A   1      44.724  34.662  30.629  1.00  0.00     0.012 A 
ATOM     80  C   UNL A   1      43.891  34.119  28.420  1.00  0.00     0.148 A 
ATOM     81  C   UNL A   1      45.909  35.149  30.066  1.00  0.00     0.002 A 
ATOM     82  C   UNL A   1      45.073  34.600  27.865  1.00  0.00     0.091 A 
ATOM     83  F   UNL A   1      42.950  33.569  27.642  1.00  0.00    -0.205 F 
ATOM     84  C   UNL A   1      46.092  35.102  28.687  1.00  0.00     0.022 A 
BRANCH  82  85
ATOM     85  S   UNL A   1      45.405  34.521  26.099  1.00  0.00     0.127 S 
ATOM     86  O   UNL A   1      45.811  33.125  25.928  1.00  0.00    -0.237 OA
ATOM     87  O   UNL A   1      44.102  34.853  25.531  1.00  0.00    -0.237 OA
ATOM     88  O   UNL A   1      46.466  35.489  25.847  1.00  0.00    -0.744 OA
ENDBRANCH  82  85
ENDBRANCH  54  78
BRANCH  66  89
ATOM     89  C   UNL A   1      41.098  29.994  33.800  1.00  0.00     0.023 A 
ATOM     90  C   UNL A   1      42.029  29.817  34.845  1.00  0.00     0.012 A 
ATOM     91  C   UNL A   1      40.041  30.901  33.980  1.00  0.00     0.148 A 
ATOM     92  C   UNL A   1      41.901  30.525  36.045  1.00  0.00     0.002 A 
ATOM     93  C   UNL A   1      39.948  31.642  35.150  1.00  0.00     0.091 A 
ATOM     94  F   UNL A   1      39.160  31.051  32.980  1.00  0.00    -0.205 F 
ATOM     95  C   UNL A   1      40.869  31.451  36.190  1.00  0.00     0.022 A 
BRANCH  93  96
ATOM     96  S   UNL A   1      38.732  32.949  35.325  1.00  0.00     0.127 S 
ATOM     97  O   UNL A   1      39.125  33.565  36.590  1.00  0.00    -0.237 OA
ATOM     98  O   UNL A   1      38.980  33.772  34.140  1.00  0.00    -0.237 OA
ATOM     99  O   UNL A   1      37.432  32.288  35.324  1.00  0.00    -0.744 OA
ENDBRANCH  93  96
ENDBRANCH  66  89
ENDBRANCH  40  41
ENDBRANCH  32  35
ENDBRANCH  30  31
ENDBRANCH  29  30
ENDBRANCH   1  29
TORSDOF 18
ENDMDL
