MODEL 1
REMARK VINA RESULT:     -11.4      0.000      0.000
REMARK SMILES O=C(NCCCCCCNC(=O)[C@@H]1CCCN(c2ccc3cc(S(=O)(=O)N4CCCCC4)ccc3n2)C1)c1ccc(-c2c3nc(c(-c4cccc(S(=O)(=O)[O-])c4F)c4ccc([nH]4)c(-c4cccc(S(=O)(=O)[O-])c4F)c4nc(c(-c5cccc(S(=O)(=O)[O-])c5F)c5ccc2[nH]5)C=C4)C=C3)cc1
REMARK SMILES IDX 6 1 5 2 4 3 3 4 1 5 2 6 38 8 39 9 100 10 40 11 99 12 41 13
REMARK SMILES IDX 42 14 43 15 93 16 44 17 98 18 92 19 94 20 45 21 97 22 91 23
REMARK SMILES IDX 90 24 46 26 78 27 58 28 77 29 59 30 62 31 76 32 95 33 60 34
REMARK SMILES IDX 61 35 75 37 96 38 63 39 47 40 48 41 56 42 49 43 51 44 57 45
REMARK SMILES IDX 50 46 52 47 53 48 54 49 55 50 79 51 80 52 88 53 81 54 83 55
REMARK SMILES IDX 89 56 82 57 84 58 85 59 86 60 87 61 64 62 65 63 73 64 66 65
REMARK SMILES IDX 68 66 74 67 67 68 69 69 70 70 71 71 72 72 7 73 8 74 9 75
REMARK SMILES IDX 10 76 11 77 12 79 13 80 14 81 37 82 15 83 17 84 16 85 18 86
REMARK SMILES IDX 19 87 36 88 20 89 35 90 21 91 34 92 22 93 33 94 23 95 24 96
REMARK SMILES IDX 25 97 26 98 27 99 28 100 32 101 29 102 31 103 30 104
REMARK H PARENT 3 7 94 25 62 36 10 78
REMARK Flexibility Score: inf
ROOT
ATOM      1  C   UNL A   1      33.774  31.322  27.477  1.00  0.00     0.002 C 
ENDROOT
BRANCH   1   2
ATOM      2  C   UNL A   1      32.764  32.452  27.683  1.00  0.00     0.021 C 
BRANCH   2   3
ATOM      3  C   UNL A   1      33.257  33.822  27.234  1.00  0.00     0.116 C 
BRANCH   3   4
ATOM      4  N   UNL A   1      32.870  34.868  28.168  1.00  0.00    -0.352 N 
ATOM      5  O   UNL A   1      32.647  35.841  30.190  1.00  0.00    -0.269 OA
ATOM      6  C   UNL A   1      33.258  35.055  29.473  1.00  0.00     0.251 C 
ATOM      7  H   UNL A   1      32.241  35.538  27.815  1.00  0.00     0.163 HD
BRANCH   6   8
ATOM      8  C   UNL A   1      34.402  34.284  30.005  1.00  0.00     0.039 A 
ATOM      9  C   UNL A   1      34.192  33.292  30.964  1.00  0.00     0.014 A 
ATOM     10  C   UNL A   1      35.693  34.563  29.553  1.00  0.00     0.014 A 
ATOM     11  C   UNL A   1      35.280  32.700  31.591  1.00  0.00     0.010 A 
ATOM     12  C   UNL A   1      36.782  33.890  30.114  1.00  0.00     0.010 A 
ATOM     13  C   UNL A   1      36.589  32.984  31.168  1.00  0.00    -0.014 A 
BRANCH  13  14
ATOM     14  C   UNL A   1      37.723  32.275  31.816  1.00  0.00     0.031 A 
ATOM     15  C   UNL A   1      38.477  31.185  31.102  1.00  0.00     0.074 A 
ATOM     16  C   UNL A   1      38.085  32.644  33.061  1.00  0.00     0.049 A 
ATOM     17  N   UNL A   1      39.527  30.516  31.506  1.00  0.00    -0.248 NA
ATOM     18  C   UNL A   1      37.991  30.785  29.773  1.00  0.00     0.031 C 
ATOM     19  C   UNL A   1      37.401  33.657  33.870  1.00  0.00     0.029 A 
ATOM     20  N   UNL A   1      39.115  32.223  33.861  1.00  0.00    -0.354 N 
ATOM     21  C   UNL A   1      39.797  29.585  30.509  1.00  0.00     0.074 A 
ATOM     22  C   UNL A   1      38.797  29.773  29.479  1.00  0.00     0.031 C 
ATOM     23  C   UNL A   1      38.053  33.810  35.029  1.00  0.00     0.029 A 
ATOM     24  C   UNL A   1      39.165  32.869  35.074  1.00  0.00     0.049 A 
ATOM     25  H   UNL A   1      39.757  31.527  33.593  1.00  0.00     0.167 HD
ATOM     26  C   UNL A   1      40.792  28.668  30.451  1.00  0.00     0.034 A 
ATOM     27  C   UNL A   1      40.007  32.717  36.114  1.00  0.00     0.034 A 
ATOM     28  C   UNL A   1      41.807  28.514  31.461  1.00  0.00     0.049 A 
ATOM     29  C   UNL A   1      41.121  31.717  36.004  1.00  0.00     0.074 A 
ATOM     30  C   UNL A   1      42.901  27.666  31.459  1.00  0.00     0.029 A 
ATOM     31  N   UNL A   1      41.847  29.213  32.659  1.00  0.00    -0.354 N 
ATOM     32  N   UNL A   1      41.438  30.945  34.994  1.00  0.00    -0.248 NA
ATOM     33  C   UNL A   1      42.011  31.589  37.166  1.00  0.00     0.031 C 
ATOM     34  C   UNL A   1      43.588  27.833  32.667  1.00  0.00     0.029 A 
ATOM     35  C   UNL A   1      42.941  28.808  33.407  1.00  0.00     0.049 A 
ATOM     36  H   UNL A   1      41.196  29.897  32.935  1.00  0.00     0.167 HD
ATOM     37  C   UNL A   1      42.584  30.263  35.384  1.00  0.00     0.074 A 
ATOM     38  C   UNL A   1      42.917  30.734  36.713  1.00  0.00     0.031 C 
ATOM     39  C   UNL A   1      43.289  29.322  34.708  1.00  0.00     0.034 A 
BRANCH  26  40
ATOM     40  C   UNL A   1      40.855  27.768  29.242  1.00  0.00     0.023 A 
ATOM     41  C   UNL A   1      40.018  26.636  29.163  1.00  0.00     0.012 A 
ATOM     42  C   UNL A   1      41.695  28.082  28.153  1.00  0.00     0.148 A 
ATOM     43  C   UNL A   1      40.039  25.814  28.037  1.00  0.00     0.002 A 
ATOM     44  C   UNL A   1      41.678  27.282  27.016  1.00  0.00     0.091 A 
ATOM     45  F   UNL A   1      42.499  29.150  28.252  1.00  0.00    -0.205 F 
ATOM     46  C   UNL A   1      40.860  26.142  26.962  1.00  0.00     0.022 A 
BRANCH  44  47
ATOM     47  S   UNL A   1      42.636  27.667  25.546  1.00  0.00     0.127 S 
ATOM     48  O   UNL A   1      41.996  28.902  25.093  1.00  0.00    -0.237 OA
ATOM     49  O   UNL A   1      43.981  27.843  26.093  1.00  0.00    -0.237 OA
ATOM     50  O   UNL A   1      42.488  26.522  24.659  1.00  0.00    -0.744 OA
ENDBRANCH  44  47
ENDBRANCH  26  40
BRANCH  27  51
ATOM     51  C   UNL A   1      39.857  33.576  37.322  1.00  0.00     0.023 A 
ATOM     52  C   UNL A   1      40.453  34.851  37.344  1.00  0.00     0.012 A 
ATOM     53  C   UNL A   1      39.094  33.154  38.428  1.00  0.00     0.148 A 
ATOM     54  C   UNL A   1      40.319  35.679  38.458  1.00  0.00     0.002 A 
ATOM     55  C   UNL A   1      38.913  34.008  39.510  1.00  0.00     0.091 A 
ATOM     56  F   UNL A   1      38.545  31.932  38.393  1.00  0.00    -0.205 F 
ATOM     57  C   UNL A   1      39.540  35.264  39.535  1.00  0.00     0.022 A 
BRANCH  55  58
ATOM     58  S   UNL A   1      37.813  33.612  40.872  1.00  0.00     0.127 S 
ATOM     59  O   UNL A   1      38.488  32.465  41.476  1.00  0.00    -0.237 OA
ATOM     60  O   UNL A   1      37.859  34.842  41.664  1.00  0.00    -0.237 OA
ATOM     61  O   UNL A   1      36.518  33.340  40.264  1.00  0.00    -0.744 OA
ENDBRANCH  55  58
ENDBRANCH  27  51
BRANCH  39  62
ATOM     62  C   UNL A   1      44.520  28.769  35.375  1.00  0.00     0.023 A 
ATOM     63  C   UNL A   1      45.770  29.387  35.172  1.00  0.00     0.012 A 
ATOM     64  C   UNL A   1      44.428  27.665  36.246  1.00  0.00     0.148 A 
ATOM     65  C   UNL A   1      46.915  28.889  35.792  1.00  0.00     0.002 A 
ATOM     66  C   UNL A   1      45.565  27.208  36.901  1.00  0.00     0.091 A 
ATOM     67  F   UNL A   1      43.235  27.076  36.409  1.00  0.00    -0.205 F 
ATOM     68  C   UNL A   1      46.811  27.809  36.665  1.00  0.00     0.022 A 
BRANCH  66  69
ATOM     69  S   UNL A   1      45.501  25.885  38.115  1.00  0.00     0.127 S 
ATOM     70  O   UNL A   1      44.293  26.226  38.865  1.00  0.00    -0.237 OA
ATOM     71  O   UNL A   1      45.379  24.694  37.273  1.00  0.00    -0.237 OA
ATOM     72  O   UNL A   1      46.749  25.968  38.862  1.00  0.00    -0.744 OA
ENDBRANCH  66  69
ENDBRANCH  39  62
ENDBRANCH  13  14
ENDBRANCH   6   8
ENDBRANCH   3   4
ENDBRANCH   2   3
ENDBRANCH   1   2
BRANCH   1  73
ATOM     73  C   UNL A   1      33.159  29.935  27.264  1.00  0.00     0.002 C 
BRANCH  73  74
ATOM     74  C   UNL A   1      34.162  28.836  26.903  1.00  0.00     0.021 C 
BRANCH  74  75
ATOM     75  C   UNL A   1      33.678  27.875  25.822  1.00  0.00     0.116 C 
BRANCH  75  76
ATOM     76  N   UNL A   1      33.157  26.637  26.355  1.00  0.00    -0.356 N 
ATOM     77  C   UNL A   1      32.724  25.497  25.769  1.00  0.00     0.224 C 
ATOM     78  H   UNL A   1      33.108  26.619  27.338  1.00  0.00     0.163 HD
ATOM     79  O   UNL A   1      32.417  24.585  26.553  1.00  0.00    -0.275 OA
BRANCH  77  80
ATOM     80  C   UNL A   1      32.473  25.277  24.274  1.00  0.00     0.098 C 
ATOM     81  C   UNL A   1      31.216  24.595  23.727  1.00  0.00     0.017 C 
ATOM     82  C   UNL A   1      33.735  24.702  23.649  1.00  0.00     0.131 C 
ATOM     83  C   UNL A   1      31.319  23.096  23.372  1.00  0.00     0.022 C 
ATOM     84  N   UNL A   1      33.724  23.263  23.831  1.00  0.00    -0.356 N 
ATOM     85  C   UNL A   1      32.718  22.533  23.078  1.00  0.00     0.118 C 
BRANCH  84  86
ATOM     86  C   UNL A   1      34.823  22.612  24.354  1.00  0.00     0.129 A 
ATOM     87  C   UNL A   1      34.893  21.217  24.336  1.00  0.00     0.047 A 
ATOM     88  N   UNL A   1      35.862  23.343  24.803  1.00  0.00    -0.231 NA
ATOM     89  C   UNL A   1      36.056  20.566  24.729  1.00  0.00     0.014 A 
ATOM     90  C   UNL A   1      36.971  22.719  25.235  1.00  0.00     0.073 A 
ATOM     91  C   UNL A   1      37.126  21.320  25.192  1.00  0.00     0.002 A 
ATOM     92  C   UNL A   1      38.014  23.468  25.752  1.00  0.00     0.030 A 
ATOM     93  C   UNL A   1      38.319  20.712  25.613  1.00  0.00     0.032 A 
ATOM     94  C   UNL A   1      39.196  22.872  26.211  1.00  0.00     0.024 A 
ATOM     95  C   UNL A   1      39.358  21.492  26.124  1.00  0.00     0.083 A 
BRANCH  95  96
ATOM     96  S   UNL A   1      40.819  20.614  26.651  1.00  0.00     0.243 S 
ATOM     97  O   UNL A   1      40.705  20.499  28.096  1.00  0.00    -0.207 OA
ATOM     98  O   UNL A   1      40.908  19.442  25.816  1.00  0.00    -0.207 OA
BRANCH  96  99
ATOM     99  N   UNL A   1      42.169  21.605  26.329  1.00  0.00    -0.198 NA
ATOM    100  C   UNL A   1      42.435  22.687  27.312  1.00  0.00     0.102 C 
ATOM    101  C   UNL A   1      43.328  20.938  25.691  1.00  0.00     0.102 C 
ATOM    102  C   UNL A   1      43.539  23.628  26.848  1.00  0.00     0.017 C 
ATOM    103  C   UNL A   1      44.389  21.935  25.253  1.00  0.00     0.017 C 
ATOM    104  C   UNL A   1      44.773  22.862  26.394  1.00  0.00     0.003 C 
ENDBRANCH  96  99
ENDBRANCH  95  96
ENDBRANCH  84  86
ENDBRANCH  77  80
ENDBRANCH  75  76
ENDBRANCH  74  75
ENDBRANCH  73  74
ENDBRANCH   1  73
TORSDOF 19
ENDMDL
MODEL 2
REMARK VINA RESULT:     -10.9      6.091     11.325
REMARK SMILES O=C(NCCCCCCNC(=O)[C@@H]1CCCN(c2ccc3cc(S(=O)(=O)N4CCCCC4)ccc3n2)C1)c1ccc(-c2c3nc(c(-c4cccc(S(=O)(=O)[O-])c4F)c4ccc([nH]4)c(-c4cccc(S(=O)(=O)[O-])c4F)c4nc(c(-c5cccc(S(=O)(=O)[O-])c5F)c5ccc2[nH]5)C=C4)C=C3)cc1
REMARK SMILES IDX 6 1 5 2 4 3 3 4 1 5 2 6 38 8 39 9 100 10 40 11 99 12 41 13
REMARK SMILES IDX 42 14 43 15 93 16 44 17 98 18 92 19 94 20 45 21 97 22 91 23
REMARK SMILES IDX 90 24 46 26 78 27 58 28 77 29 59 30 62 31 76 32 95 33 60 34
REMARK SMILES IDX 61 35 75 37 96 38 63 39 47 40 48 41 56 42 49 43 51 44 57 45
REMARK SMILES IDX 50 46 52 47 53 48 54 49 55 50 79 51 80 52 88 53 81 54 83 55
REMARK SMILES IDX 89 56 82 57 84 58 85 59 86 60 87 61 64 62 65 63 73 64 66 65
REMARK SMILES IDX 68 66 74 67 67 68 69 69 70 70 71 71 72 72 7 73 8 74 9 75
REMARK SMILES IDX 10 76 11 77 12 79 13 80 14 81 37 82 15 83 17 84 16 85 18 86
REMARK SMILES IDX 19 87 36 88 20 89 35 90 21 91 34 92 22 93 33 94 23 95 24 96
REMARK SMILES IDX 25 97 26 98 27 99 28 100 32 101 29 102 31 103 30 104
REMARK H PARENT 3 7 94 25 62 36 10 78
REMARK Flexibility Score: inf
ROOT
ATOM      1  C   UNL A   1      39.693  26.371  28.887  1.00  0.00     0.002 C 
ENDROOT
BRANCH   1   2
ATOM      2  C   UNL A   1      40.354  25.227  28.115  1.00  0.00     0.021 C 
BRANCH   2   3
ATOM      3  C   UNL A   1      40.110  25.264  26.612  1.00  0.00     0.116 C 
BRANCH   3   4
ATOM      4  N   UNL A   1      41.314  24.943  25.861  1.00  0.00    -0.352 N 
ATOM      5  O   UNL A   1      43.230  25.386  24.757  1.00  0.00    -0.269 OA
ATOM      6  C   UNL A   1      42.418  25.723  25.612  1.00  0.00     0.251 C 
ATOM      7  H   UNL A   1      41.342  24.037  25.476  1.00  0.00     0.163 HD
BRANCH   6   8
ATOM      8  C   UNL A   1      42.602  26.978  26.372  1.00  0.00     0.039 A 
ATOM      9  C   UNL A   1      42.055  28.171  25.895  1.00  0.00     0.014 A 
ATOM     10  C   UNL A   1      43.335  26.967  27.560  1.00  0.00     0.014 A 
ATOM     11  C   UNL A   1      42.382  29.372  26.510  1.00  0.00     0.010 A 
ATOM     12  C   UNL A   1      43.576  28.166  28.235  1.00  0.00     0.010 A 
ATOM     13  C   UNL A   1      43.138  29.385  27.693  1.00  0.00    -0.014 A 
BRANCH  13  14
ATOM     14  C   UNL A   1      43.405  30.685  28.362  1.00  0.00     0.031 A 
ATOM     15  C   UNL A   1      42.555  31.169  29.505  1.00  0.00     0.074 A 
ATOM     16  C   UNL A   1      44.450  31.424  27.936  1.00  0.00     0.049 A 
ATOM     17  N   UNL A   1      42.696  32.249  30.231  1.00  0.00    -0.248 NA
ATOM     18  C   UNL A   1      41.391  30.349  29.877  1.00  0.00     0.031 C 
ATOM     19  C   UNL A   1      45.319  31.078  26.808  1.00  0.00     0.029 A 
ATOM     20  N   UNL A   1      44.965  32.606  28.401  1.00  0.00    -0.354 N 
ATOM     21  C   UNL A   1      41.618  32.265  31.110  1.00  0.00     0.074 A 
ATOM     22  C   UNL A   1      40.827  31.087  30.824  1.00  0.00     0.031 C 
ATOM     23  C   UNL A   1      46.284  32.001  26.695  1.00  0.00     0.029 A 
ATOM     24  C   UNL A   1      46.071  33.033  27.702  1.00  0.00     0.049 A 
ATOM     25  H   UNL A   1      44.583  33.100  29.161  1.00  0.00     0.167 HD
ATOM     26  C   UNL A   1      41.323  33.170  32.073  1.00  0.00     0.034 A 
ATOM     27  C   UNL A   1      46.826  34.138  27.848  1.00  0.00     0.034 A 
ATOM     28  C   UNL A   1      42.137  34.318  32.379  1.00  0.00     0.049 A 
ATOM     29  C   UNL A   1      46.493  35.103  28.948  1.00  0.00     0.074 A 
ATOM     30  C   UNL A   1      41.963  35.252  33.386  1.00  0.00     0.029 A 
ATOM     31  N   UNL A   1      43.270  34.698  31.675  1.00  0.00    -0.354 N 
ATOM     32  N   UNL A   1      45.550  35.027  29.854  1.00  0.00    -0.248 NA
ATOM     33  C   UNL A   1      47.346  36.293  29.064  1.00  0.00     0.031 C 
ATOM     34  C   UNL A   1      42.976  36.211  33.274  1.00  0.00     0.029 A 
ATOM     35  C   UNL A   1      43.800  35.857  32.218  1.00  0.00     0.049 A 
ATOM     36  H   UNL A   1      43.644  34.213  30.904  1.00  0.00     0.167 HD
ATOM     37  C   UNL A   1      45.716  36.139  30.670  1.00  0.00     0.074 A 
ATOM     38  C   UNL A   1      46.867  36.859  30.162  1.00  0.00     0.031 C 
ATOM     39  C   UNL A   1      44.975  36.535  31.734  1.00  0.00     0.034 A 
BRANCH  26  40
ATOM     40  C   UNL A   1      40.076  32.949  32.893  1.00  0.00     0.023 A 
ATOM     41  C   UNL A   1      38.822  33.350  32.389  1.00  0.00     0.012 A 
ATOM     42  C   UNL A   1      40.138  32.281  34.134  1.00  0.00     0.148 A 
ATOM     43  C   UNL A   1      37.656  33.121  33.118  1.00  0.00     0.002 A 
ATOM     44  C   UNL A   1      38.966  32.017  34.835  1.00  0.00     0.091 A 
ATOM     45  F   UNL A   1      41.340  31.924  34.609  1.00  0.00    -0.205 F 
ATOM     46  C   UNL A   1      37.727  32.447  34.334  1.00  0.00     0.022 A 
BRANCH  44  47
ATOM     47  S   UNL A   1      38.946  31.083  36.369  1.00  0.00     0.127 S 
ATOM     48  O   UNL A   1      39.527  29.810  35.946  1.00  0.00    -0.237 OA
ATOM     49  O   UNL A   1      39.809  31.889  37.233  1.00  0.00    -0.237 OA
ATOM     50  O   UNL A   1      37.552  31.028  36.787  1.00  0.00    -0.744 OA
ENDBRANCH  44  47
ENDBRANCH  26  40
BRANCH  27  51
ATOM     51  C   UNL A   1      48.003  34.354  26.961  1.00  0.00     0.023 A 
ATOM     52  C   UNL A   1      47.849  35.093  25.772  1.00  0.00     0.012 A 
ATOM     53  C   UNL A   1      49.279  33.870  27.310  1.00  0.00     0.148 A 
ATOM     54  C   UNL A   1      48.938  35.319  24.931  1.00  0.00     0.002 A 
ATOM     55  C   UNL A   1      50.371  34.149  26.497  1.00  0.00     0.091 A 
ATOM     56  F   UNL A   1      49.402  33.158  28.439  1.00  0.00    -0.205 F 
ATOM     57  C   UNL A   1      50.200  34.858  25.298  1.00  0.00     0.022 A 
BRANCH  55  58
ATOM     58  S   UNL A   1      52.050  33.718  26.964  1.00  0.00     0.127 S 
ATOM     59  O   UNL A   1      52.005  32.259  26.928  1.00  0.00    -0.237 OA
ATOM     60  O   UNL A   1      52.830  34.338  25.891  1.00  0.00    -0.237 OA
ATOM     61  O   UNL A   1      52.258  34.316  28.275  1.00  0.00    -0.744 OA
ENDBRANCH  55  58
ENDBRANCH  27  51
BRANCH  39  62
ATOM     62  C   UNL A   1      45.412  37.784  32.453  1.00  0.00     0.023 A 
ATOM     63  C   UNL A   1      46.414  37.714  33.442  1.00  0.00     0.012 A 
ATOM     64  C   UNL A   1      44.864  39.036  32.111  1.00  0.00     0.148 A 
ATOM     65  C   UNL A   1      46.832  38.865  34.108  1.00  0.00     0.002 A 
ATOM     66  C   UNL A   1      45.324  40.185  32.743  1.00  0.00     0.091 A 
ATOM     67  F   UNL A   1      43.896  39.080  31.184  1.00  0.00    -0.205 F 
ATOM     68  C   UNL A   1      46.298  40.100  33.750  1.00  0.00     0.022 A 
BRANCH  66  69
ATOM     69  S   UNL A   1      44.760  41.825  32.273  1.00  0.00     0.127 S 
ATOM     70  O   UNL A   1      45.531  42.676  33.177  1.00  0.00    -0.237 OA
ATOM     71  O   UNL A   1      45.164  41.903  30.869  1.00  0.00    -0.237 OA
ATOM     72  O   UNL A   1      43.318  41.826  32.485  1.00  0.00    -0.744 OA
ENDBRANCH  66  69
ENDBRANCH  39  62
ENDBRANCH  13  14
ENDBRANCH   6   8
ENDBRANCH   3   4
ENDBRANCH   2   3
ENDBRANCH   1   2
BRANCH   1  73
ATOM     73  C   UNL A   1      38.802  27.290  28.043  1.00  0.00     0.002 C 
BRANCH  73  74
ATOM     74  C   UNL A   1      39.170  28.775  28.107  1.00  0.00     0.021 C 
BRANCH  74  75
ATOM     75  C   UNL A   1      37.976  29.721  28.020  1.00  0.00     0.116 C 
BRANCH  75  76
ATOM     76  N   UNL A   1      37.285  29.880  29.279  1.00  0.00    -0.356 N 
ATOM     77  C   UNL A   1      36.582  30.904  29.815  1.00  0.00     0.224 C 
ATOM     78  H   UNL A   1      37.336  29.088  29.861  1.00  0.00     0.163 HD
ATOM     79  O   UNL A   1      36.043  30.659  30.906  1.00  0.00    -0.275 OA
BRANCH  77  80
ATOM     80  C   UNL A   1      36.490  32.333  29.271  1.00  0.00     0.098 C 
ATOM     81  C   UNL A   1      35.965  33.512  30.095  1.00  0.00     0.017 C 
ATOM     82  C   UNL A   1      35.846  32.287  27.893  1.00  0.00     0.131 C 
ATOM     83  C   UNL A   1      34.491  33.922  29.889  1.00  0.00     0.022 C 
ATOM     84  N   UNL A   1      34.405  32.291  28.058  1.00  0.00    -0.356 N 
ATOM     85  C   UNL A   1      33.824  33.523  28.563  1.00  0.00     0.118 C 
BRANCH  84  86
ATOM     86  C   UNL A   1      33.622  31.355  27.413  1.00  0.00     0.129 A 
ATOM     87  C   UNL A   1      32.320  31.674  27.020  1.00  0.00     0.047 A 
ATOM     88  N   UNL A   1      34.159  30.162  27.093  1.00  0.00    -0.231 NA
ATOM     89  C   UNL A   1      31.581  30.786  26.248  1.00  0.00     0.014 A 
ATOM     90  C   UNL A   1      33.433  29.276  26.392  1.00  0.00     0.073 A 
ATOM     91  C   UNL A   1      32.136  29.556  25.919  1.00  0.00     0.002 A 
ATOM     92  C   UNL A   1      33.964  28.028  26.116  1.00  0.00     0.030 A 
ATOM     93  C   UNL A   1      31.429  28.618  25.152  1.00  0.00     0.032 A 
ATOM     94  C   UNL A   1      33.255  27.068  25.383  1.00  0.00     0.024 A 
ATOM     95  C   UNL A   1      31.991  27.369  24.882  1.00  0.00     0.083 A 
BRANCH  95  96
ATOM     96  S   UNL A   1      30.995  26.246  23.917  1.00  0.00     0.243 S 
ATOM     97  O   UNL A   1      29.638  26.760  23.999  1.00  0.00    -0.207 OA
ATOM     98  O   UNL A   1      31.663  26.106  22.647  1.00  0.00    -0.207 OA
BRANCH  96  99
ATOM     99  N   UNL A   1      31.010  24.731  24.699  1.00  0.00    -0.198 NA
ATOM    100  C   UNL A   1      32.077  23.787  24.277  1.00  0.00     0.102 C 
ATOM    101  C   UNL A   1      30.597  24.730  26.122  1.00  0.00     0.102 C 
ATOM    102  C   UNL A   1      31.898  22.405  24.890  1.00  0.00     0.017 C 
ATOM    103  C   UNL A   1      30.438  23.320  26.668  1.00  0.00     0.017 C 
ATOM    104  C   UNL A   1      31.677  22.484  26.393  1.00  0.00     0.003 C 
ENDBRANCH  96  99
ENDBRANCH  95  96
ENDBRANCH  84  86
ENDBRANCH  77  80
ENDBRANCH  75  76
ENDBRANCH  74  75
ENDBRANCH  73  74
ENDBRANCH   1  73
TORSDOF 19
ENDMDL
MODEL 3
REMARK VINA RESULT:     -10.9      5.548     12.381
REMARK SMILES O=C(NCCCCCCNC(=O)[C@@H]1CCCN(c2ccc3cc(S(=O)(=O)N4CCCCC4)ccc3n2)C1)c1ccc(-c2c3nc(c(-c4cccc(S(=O)(=O)[O-])c4F)c4ccc([nH]4)c(-c4cccc(S(=O)(=O)[O-])c4F)c4nc(c(-c5cccc(S(=O)(=O)[O-])c5F)c5ccc2[nH]5)C=C4)C=C3)cc1
REMARK SMILES IDX 6 1 5 2 4 3 3 4 1 5 2 6 38 8 39 9 100 10 40 11 99 12 41 13
REMARK SMILES IDX 42 14 43 15 93 16 44 17 98 18 92 19 94 20 45 21 97 22 91 23
REMARK SMILES IDX 90 24 46 26 78 27 58 28 77 29 59 30 62 31 76 32 95 33 60 34
REMARK SMILES IDX 61 35 75 37 96 38 63 39 47 40 48 41 56 42 49 43 51 44 57 45
REMARK SMILES IDX 50 46 52 47 53 48 54 49 55 50 79 51 80 52 88 53 81 54 83 55
REMARK SMILES IDX 89 56 82 57 84 58 85 59 86 60 87 61 64 62 65 63 73 64 66 65
REMARK SMILES IDX 68 66 74 67 67 68 69 69 70 70 71 71 72 72 7 73 8 74 9 75
REMARK SMILES IDX 10 76 11 77 12 79 13 80 14 81 37 82 15 83 17 84 16 85 18 86
REMARK SMILES IDX 19 87 36 88 20 89 35 90 21 91 34 92 22 93 33 94 23 95 24 96
REMARK SMILES IDX 25 97 26 98 27 99 28 100 32 101 29 102 31 103 30 104
REMARK H PARENT 3 7 94 25 62 36 10 78
REMARK Flexibility Score: inf
ROOT
ATOM      1  C   UNL A   1      37.659  23.325  25.670  1.00  0.00     0.002 C 
ENDROOT
BRANCH   1   2
ATOM      2  C   UNL A   1      38.362  21.971  25.772  1.00  0.00     0.021 C 
BRANCH   2   3
ATOM      3  C   UNL A   1      39.635  21.989  26.610  1.00  0.00     0.116 C 
BRANCH   3   4
ATOM      4  N   UNL A   1      40.504  20.865  26.296  1.00  0.00    -0.352 N 
ATOM      5  O   UNL A   1      42.361  19.858  25.508  1.00  0.00    -0.269 OA
ATOM      6  C   UNL A   1      41.843  20.862  25.986  1.00  0.00     0.251 C 
ATOM      7  H   UNL A   1      40.072  19.981  26.308  1.00  0.00     0.163 HD
BRANCH   6   8
ATOM      8  C   UNL A   1      42.642  22.084  26.217  1.00  0.00     0.039 A 
ATOM      9  C   UNL A   1      43.339  22.248  27.416  1.00  0.00     0.014 A 
ATOM     10  C   UNL A   1      42.686  23.077  25.236  1.00  0.00     0.014 A 
ATOM     11  C   UNL A   1      43.936  23.469  27.702  1.00  0.00     0.010 A 
ATOM     12  C   UNL A   1      43.376  24.266  25.488  1.00  0.00     0.010 A 
ATOM     13  C   UNL A   1      43.971  24.490  26.739  1.00  0.00    -0.014 A 
BRANCH  13  14
ATOM     14  C   UNL A   1      44.683  25.755  27.058  1.00  0.00     0.031 A 
ATOM     15  C   UNL A   1      44.080  26.785  27.974  1.00  0.00     0.074 A 
ATOM     16  C   UNL A   1      45.904  25.957  26.523  1.00  0.00     0.049 A 
ATOM     17  N   UNL A   1      44.600  27.909  28.399  1.00  0.00    -0.248 NA
ATOM     18  C   UNL A   1      42.718  26.534  28.472  1.00  0.00     0.031 C 
ATOM     19  C   UNL A   1      46.572  25.050  25.585  1.00  0.00     0.029 A 
ATOM     20  N   UNL A   1      46.803  26.978  26.693  1.00  0.00    -0.354 N 
ATOM     21  C   UNL A   1      43.618  28.521  29.169  1.00  0.00     0.074 A 
ATOM     22  C   UNL A   1      42.465  27.644  29.152  1.00  0.00     0.031 C 
ATOM     23  C   UNL A   1      47.789  25.530  25.298  1.00  0.00     0.029 A 
ATOM     24  C   UNL A   1      47.967  26.805  25.981  1.00  0.00     0.049 A 
ATOM     25  H   UNL A   1      46.633  27.757  27.269  1.00  0.00     0.167 HD
ATOM     26  C   UNL A   1      43.674  29.697  29.839  1.00  0.00     0.034 A 
ATOM     27  C   UNL A   1      49.057  27.590  25.880  1.00  0.00     0.034 A 
ATOM     28  C   UNL A   1      44.839  30.544  29.884  1.00  0.00     0.049 A 
ATOM     29  C   UNL A   1      49.103  28.870  26.663  1.00  0.00     0.074 A 
ATOM     30  C   UNL A   1      45.021  31.717  30.596  1.00  0.00     0.029 A 
ATOM     31  N   UNL A   1      46.013  30.317  29.181  1.00  0.00    -0.354 N 
ATOM     32  N   UNL A   1      48.216  29.361  27.493  1.00  0.00    -0.248 NA
ATOM     33  C   UNL A   1      50.313  29.690  26.518  1.00  0.00     0.031 C 
ATOM     34  C   UNL A   1      46.296  32.214  30.302  1.00  0.00     0.029 A 
ATOM     35  C   UNL A   1      46.920  31.334  29.434  1.00  0.00     0.049 A 
ATOM     36  H   UNL A   1      46.178  29.547  28.592  1.00  0.00     0.167 HD
ATOM     37  C   UNL A   1      48.774  30.529  27.997  1.00  0.00     0.074 A 
ATOM     38  C   UNL A   1      50.086  30.657  27.394  1.00  0.00     0.031 C 
ATOM     39  C   UNL A   1      48.242  31.422  28.867  1.00  0.00     0.034 A 
BRANCH  26  40
ATOM     40  C   UNL A   1      42.451  30.135  30.603  1.00  0.00     0.023 A 
ATOM     41  C   UNL A   1      41.514  30.997  29.997  1.00  0.00     0.012 A 
ATOM     42  C   UNL A   1      42.194  29.639  31.898  1.00  0.00     0.148 A 
ATOM     43  C   UNL A   1      40.359  31.384  30.677  1.00  0.00     0.002 A 
ATOM     44  C   UNL A   1      41.019  29.995  32.553  1.00  0.00     0.091 A 
ATOM     45  F   UNL A   1      43.104  28.837  32.469  1.00  0.00    -0.205 F 
ATOM     46  C   UNL A   1      40.108  30.875  31.949  1.00  0.00     0.022 A 
BRANCH  44  47
ATOM     47  S   UNL A   1      40.566  29.327  34.158  1.00  0.00     0.127 S 
ATOM     48  O   UNL A   1      39.218  29.868  34.331  1.00  0.00    -0.237 OA
ATOM     49  O   UNL A   1      40.617  27.885  33.918  1.00  0.00    -0.237 OA
ATOM     50  O   UNL A   1      41.565  29.822  35.095  1.00  0.00    -0.744 OA
ENDBRANCH  44  47
ENDBRANCH  26  40
BRANCH  27  51
ATOM     51  C   UNL A   1      50.212  27.152  25.048  1.00  0.00     0.023 A 
ATOM     52  C   UNL A   1      50.327  27.614  23.723  1.00  0.00     0.012 A 
ATOM     53  C   UNL A   1      51.217  26.316  25.574  1.00  0.00     0.148 A 
ATOM     54  C   UNL A   1      51.404  27.227  22.926  1.00  0.00     0.002 A 
ATOM     55  C   UNL A   1      52.318  25.984  24.795  1.00  0.00     0.091 A 
ATOM     56  F   UNL A   1      51.083  25.877  26.833  1.00  0.00    -0.205 F 
ATOM     57  C   UNL A   1      52.405  26.423  23.465  1.00  0.00     0.022 A 
BRANCH  55  58
ATOM     58  S   UNL A   1      53.719  25.073  25.452  1.00  0.00     0.127 S 
ATOM     59  O   UNL A   1      54.800  25.514  24.575  1.00  0.00    -0.237 OA
ATOM     60  O   UNL A   1      53.791  25.579  26.824  1.00  0.00    -0.237 OA
ATOM     61  O   UNL A   1      53.353  23.667  25.353  1.00  0.00    -0.744 OA
ENDBRANCH  55  58
ENDBRANCH  27  51
BRANCH  39  62
ATOM     62  C   UNL A   1      49.097  32.598  29.259  1.00  0.00     0.023 A 
ATOM     63  C   UNL A   1      49.935  32.514  30.389  1.00  0.00     0.012 A 
ATOM     64  C   UNL A   1      49.108  33.769  28.476  1.00  0.00     0.148 A 
ATOM     65  C   UNL A   1      50.738  33.593  30.757  1.00  0.00     0.002 A 
ATOM     66  C   UNL A   1      49.950  34.819  28.819  1.00  0.00     0.091 A 
ATOM     67  F   UNL A   1      48.288  33.838  27.418  1.00  0.00    -0.205 F 
ATOM     68  C   UNL A   1      50.755  34.739  29.966  1.00  0.00     0.022 A 
BRANCH  66  69
ATOM     69  S   UNL A   1      50.106  36.291  27.800  1.00  0.00     0.127 S 
ATOM     70  O   UNL A   1      48.762  36.860  27.890  1.00  0.00    -0.237 OA
ATOM     71  O   UNL A   1      51.138  37.051  28.506  1.00  0.00    -0.237 OA
ATOM     72  O   UNL A   1      50.502  35.821  26.479  1.00  0.00    -0.744 OA
ENDBRANCH  66  69
ENDBRANCH  39  62
ENDBRANCH  13  14
ENDBRANCH   6   8
ENDBRANCH   3   4
ENDBRANCH   2   3
ENDBRANCH   1   2
BRANCH   1  73
ATOM     73  C   UNL A   1      36.164  23.304  26.007  1.00  0.00     0.002 C 
BRANCH  73  74
ATOM     74  C   UNL A   1      35.242  23.738  24.865  1.00  0.00     0.021 C 
BRANCH  74  75
ATOM     75  C   UNL A   1      34.448  25.010  25.147  1.00  0.00     0.116 C 
BRANCH  75  76
ATOM     76  N   UNL A   1      33.457  24.842  26.185  1.00  0.00    -0.356 N 
ATOM     77  C   UNL A   1      32.105  24.865  26.173  1.00  0.00     0.224 C 
ATOM     78  H   UNL A   1      33.841  24.678  27.076  1.00  0.00     0.163 HD
ATOM     79  O   UNL A   1      31.563  24.593  27.256  1.00  0.00    -0.275 OA
BRANCH  77  80
ATOM     80  C   UNL A   1      31.209  25.299  25.008  1.00  0.00     0.098 C 
ATOM     81  C   UNL A   1      31.547  25.014  23.541  1.00  0.00     0.017 C 
ATOM     82  C   UNL A   1      30.812  26.753  25.215  1.00  0.00     0.131 C 
ATOM     83  C   UNL A   1      32.215  26.147  22.733  1.00  0.00     0.022 C 
ATOM     84  N   UNL A   1      31.863  27.598  24.680  1.00  0.00    -0.356 N 
ATOM     85  C   UNL A   1      32.019  27.586  23.236  1.00  0.00     0.118 C 
BRANCH  84  86
ATOM     86  C   UNL A   1      32.394  28.622  25.438  1.00  0.00     0.129 A 
ATOM     87  C   UNL A   1      31.633  29.758  25.722  1.00  0.00     0.047 A 
ATOM     88  N   UNL A   1      33.623  28.473  25.969  1.00  0.00    -0.231 NA
ATOM     89  C   UNL A   1      32.111  30.724  26.599  1.00  0.00     0.014 A 
ATOM     90  C   UNL A   1      34.114  29.427  26.777  1.00  0.00     0.073 A 
ATOM     91  C   UNL A   1      33.378  30.570  27.146  1.00  0.00     0.002 A 
ATOM     92  C   UNL A   1      35.401  29.302  27.273  1.00  0.00     0.030 A 
ATOM     93  C   UNL A   1      33.913  31.521  28.027  1.00  0.00     0.032 A 
ATOM     94  C   UNL A   1      35.962  30.262  28.124  1.00  0.00     0.024 A 
ATOM     95  C   UNL A   1      35.210  31.366  28.520  1.00  0.00     0.083 A 
BRANCH  95  96
ATOM     96  S   UNL A   1      35.798  32.646  29.614  1.00  0.00     0.243 S 
ATOM     97  O   UNL A   1      35.906  32.021  30.923  1.00  0.00    -0.207 OA
ATOM     98  O   UNL A   1      36.950  33.228  28.971  1.00  0.00    -0.207 OA
BRANCH  96  99
ATOM     99  N   UNL A   1      34.585  33.840  29.722  1.00  0.00    -0.198 NA
ATOM    100  C   UNL A   1      34.337  34.399  31.077  1.00  0.00     0.102 C 
ATOM    101  C   UNL A   1      34.458  34.745  28.557  1.00  0.00     0.102 C 
ATOM    102  C   UNL A   1      33.121  35.314  31.107  1.00  0.00     0.017 C 
ATOM    103  C   UNL A   1      33.224  35.628  28.653  1.00  0.00     0.017 C 
ATOM    104  C   UNL A   1      33.169  36.347  29.991  1.00  0.00     0.003 C 
ENDBRANCH  96  99
ENDBRANCH  95  96
ENDBRANCH  84  86
ENDBRANCH  77  80
ENDBRANCH  75  76
ENDBRANCH  74  75
ENDBRANCH  73  74
ENDBRANCH   1  73
TORSDOF 19
ENDMDL
