MODEL 1
REMARK VINA RESULT:     -10.8      0.000      0.000
REMARK SMILES C[C@H]([NH2+]C[C@@]1(C)CCCO1)C(=O)NCCCCCCNC(=O)c1ccc(-c2c3nc(c(-c4cccc(S(=O)(=O)[O-])c4F)c4ccc([nH]4)c(-c4cccc(S(=O)(=O)[O-])c4F)c4nc(c(-c5cccc(S(=O)(=O)[O-])c5F)c5ccc2[nH]5)C=C4)C=C3)cc1
REMARK SMILES IDX 16 1 15 2 14 3 13 4 11 5 12 6 2 8 1 9 3 10 4 13 5 14 6 15
REMARK SMILES IDX 7 16 10 17 8 18 9 19 17 20 18 21 19 22 20 23 21 24 22 26
REMARK SMILES IDX 23 27 24 28 85 29 25 30 84 31 26 32 27 33 28 34 78 35 29 36
REMARK SMILES IDX 83 37 77 38 79 39 30 40 82 41 76 42 75 43 31 45 63 46 43 47
REMARK SMILES IDX 62 48 44 49 47 50 61 51 80 52 45 53 46 54 60 56 81 57 48 58
REMARK SMILES IDX 32 59 33 60 41 61 34 62 36 63 42 64 35 65 37 66 38 67 39 68
REMARK SMILES IDX 40 69 64 70 65 71 73 72 66 73 68 74 74 75 67 76 69 77 70 78
REMARK SMILES IDX 71 79 72 80 49 81 50 82 58 83 51 84 53 85 59 86 52 87 54 88
REMARK SMILES IDX 55 89 56 90 57 91
REMARK H PARENT 13 7 3 11 3 12 20 25 79 44 47 55
REMARK Flexibility Score: inf
ROOT
ATOM      1  C   UNL A   1      33.799  26.691  25.903  1.00  0.00     0.002 C 
ENDROOT
BRANCH   1   2
ATOM      2  C   UNL A   1      33.958  26.018  24.536  1.00  0.00     0.021 C 
BRANCH   2   3
ATOM      3  C   UNL A   1      33.266  24.656  24.438  1.00  0.00     0.116 C 
BRANCH   3   4
ATOM      4  N   UNL A   1      34.246  23.589  24.480  1.00  0.00    -0.351 N 
ATOM      5  C   UNL A   1      34.317  22.453  25.220  1.00  0.00     0.277 C 
ATOM      6  O   UNL A   1      35.408  21.864  25.212  1.00  0.00    -0.268 OA
ATOM      7  H   UNL A   1      34.998  23.710  23.857  1.00  0.00     0.163 HD
BRANCH   5   8
ATOM      8  C   UNL A   1      33.149  21.881  26.054  1.00  0.00     0.269 C 
ATOM      9  C   UNL A   1      33.014  22.357  27.495  1.00  0.00     0.086 C 
BRANCH   8  10
ATOM     10  N   UNL A   1      32.923  20.431  25.863  1.00  0.00    -0.334 N 
ATOM     11  H   UNL A   1      32.209  20.135  26.528  1.00  0.00     0.347 HD
ATOM     12  H   UNL A   1      33.832  19.990  26.005  1.00  0.00     0.347 HD
BRANCH  10  13
ATOM     13  C   UNL A   1      32.489  20.021  24.528  1.00  0.00     0.296 C 
BRANCH  13  14
ATOM     14  C   UNL A   1      32.807  18.549  24.179  1.00  0.00     0.114 C 
ATOM     15  C   UNL A   1      32.300  18.220  22.767  1.00  0.00     0.048 C 
ATOM     16  C   UNL A   1      34.277  18.183  24.368  1.00  0.00     0.043 C 
ATOM     17  O   UNL A   1      32.091  17.699  25.105  1.00  0.00    -0.369 OA
ATOM     18  C   UNL A   1      34.212  16.707  24.673  1.00  0.00     0.032 C 
ATOM     19  C   UNL A   1      32.928  16.590  25.468  1.00  0.00     0.161 C 
ENDBRANCH  13  14
ENDBRANCH  10  13
ENDBRANCH   8  10
ENDBRANCH   5   8
ENDBRANCH   3   4
ENDBRANCH   2   3
ENDBRANCH   1   2
BRANCH   1  20
ATOM     20  C   UNL A   1      32.357  27.050  26.277  1.00  0.00     0.002 C 
BRANCH  20  21
ATOM     21  C   UNL A   1      32.061  28.550  26.358  1.00  0.00     0.021 C 
BRANCH  21  22
ATOM     22  C   UNL A   1      33.232  29.452  25.974  1.00  0.00     0.116 C 
BRANCH  22  23
ATOM     23  N   UNL A   1      32.993  30.836  26.357  1.00  0.00    -0.352 N 
ATOM     24  C   UNL A   1      33.610  31.585  27.322  1.00  0.00     0.251 C 
ATOM     25  H   UNL A   1      32.287  31.299  25.851  1.00  0.00     0.163 HD
ATOM     26  O   UNL A   1      33.120  32.663  27.668  1.00  0.00    -0.269 OA
BRANCH  24  27
ATOM     27  C   UNL A   1      34.856  31.104  27.951  1.00  0.00     0.039 A 
ATOM     28  C   UNL A   1      35.960  31.960  28.017  1.00  0.00     0.014 A 
ATOM     29  C   UNL A   1      34.945  29.801  28.452  1.00  0.00     0.014 A 
ATOM     30  C   UNL A   1      37.139  31.521  28.621  1.00  0.00     0.010 A 
ATOM     31  C   UNL A   1      36.097  29.391  29.117  1.00  0.00     0.010 A 
ATOM     32  C   UNL A   1      37.211  30.240  29.194  1.00  0.00    -0.014 A 
BRANCH  32  33
ATOM     33  C   UNL A   1      38.449  29.767  29.864  1.00  0.00     0.031 A 
ATOM     34  C   UNL A   1      38.834  30.312  31.213  1.00  0.00     0.074 A 
ATOM     35  C   UNL A   1      39.264  28.903  29.226  1.00  0.00     0.049 A 
ATOM     36  N   UNL A   1      39.896  30.057  31.934  1.00  0.00    -0.248 NA
ATOM     37  C   UNL A   1      37.921  31.293  31.823  1.00  0.00     0.031 C 
ATOM     38  C   UNL A   1      39.040  28.367  27.881  1.00  0.00     0.029 A 
ATOM     39  N   UNL A   1      40.457  28.346  29.611  1.00  0.00    -0.354 N 
ATOM     40  C   UNL A   1      39.793  30.862  33.062  1.00  0.00     0.074 A 
ATOM     41  C   UNL A   1      38.587  31.646  32.912  1.00  0.00     0.031 C 
ATOM     42  C   UNL A   1      40.062  27.558  27.554  1.00  0.00     0.029 A 
ATOM     43  C   UNL A   1      41.022  27.536  28.653  1.00  0.00     0.049 A 
ATOM     44  H   UNL A   1      40.868  28.510  30.489  1.00  0.00     0.167 HD
ATOM     45  C   UNL A   1      40.607  30.918  34.143  1.00  0.00     0.034 A 
ATOM     46  C   UNL A   1      42.184  26.855  28.661  1.00  0.00     0.034 A 
ATOM     47  C   UNL A   1      41.783  30.107  34.307  1.00  0.00     0.049 A 
ATOM     48  C   UNL A   1      43.047  26.899  29.894  1.00  0.00     0.074 A 
ATOM     49  C   UNL A   1      42.639  30.039  35.391  1.00  0.00     0.029 A 
ATOM     50  N   UNL A   1      42.269  29.221  33.358  1.00  0.00    -0.354 N 
ATOM     51  N   UNL A   1      42.852  27.551  31.015  1.00  0.00    -0.248 NA
ATOM     52  C   UNL A   1      44.267  26.079  29.881  1.00  0.00     0.031 C 
ATOM     53  C   UNL A   1      43.649  29.119  35.094  1.00  0.00     0.029 A 
ATOM     54  C   UNL A   1      43.411  28.598  33.832  1.00  0.00     0.049 A 
ATOM     55  H   UNL A   1      41.862  29.058  32.477  1.00  0.00     0.167 HD
ATOM     56  C   UNL A   1      43.900  27.189  31.853  1.00  0.00     0.074 A 
ATOM     57  C   UNL A   1      44.714  26.243  31.118  1.00  0.00     0.031 C 
ATOM     58  C   UNL A   1      44.175  27.613  33.112  1.00  0.00     0.034 A 
BRANCH  45  59
ATOM     59  C   UNL A   1      40.214  31.844  35.266  1.00  0.00     0.023 A 
ATOM     60  C   UNL A   1      40.796  33.127  35.338  1.00  0.00     0.012 A 
ATOM     61  C   UNL A   1      39.240  31.475  36.214  1.00  0.00     0.148 A 
ATOM     62  C   UNL A   1      40.444  34.014  36.353  1.00  0.00     0.002 A 
ATOM     63  C   UNL A   1      38.860  32.382  37.198  1.00  0.00     0.091 A 
ATOM     64  F   UNL A   1      38.711  30.245  36.143  1.00  0.00    -0.205 F 
ATOM     65  C   UNL A   1      39.469  33.645  37.276  1.00  0.00     0.022 A 
BRANCH  63  66
ATOM     66  S   UNL A   1      37.559  32.036  38.387  1.00  0.00     0.127 S 
ATOM     67  O   UNL A   1      36.560  33.044  38.032  1.00  0.00    -0.237 OA
ATOM     68  O   UNL A   1      37.187  30.662  38.045  1.00  0.00    -0.237 OA
ATOM     69  O   UNL A   1      38.163  32.192  39.702  1.00  0.00    -0.744 OA
ENDBRANCH  63  66
ENDBRANCH  45  59
BRANCH  46  70
ATOM     70  C   UNL A   1      42.565  26.015  27.490  1.00  0.00     0.023 A 
ATOM     71  C   UNL A   1      43.351  26.576  26.464  1.00  0.00     0.012 A 
ATOM     72  C   UNL A   1      42.172  24.667  27.393  1.00  0.00     0.148 A 
ATOM     73  C   UNL A   1      43.704  25.821  25.345  1.00  0.00     0.002 A 
ATOM     74  C   UNL A   1      42.575  23.903  26.302  1.00  0.00     0.091 A 
ATOM     75  F   UNL A   1      41.415  24.153  28.372  1.00  0.00    -0.205 F 
ATOM     76  C   UNL A   1      43.325  24.484  25.267  1.00  0.00     0.022 A 
BRANCH  74  77
ATOM     77  S   UNL A   1      42.243  22.142  26.191  1.00  0.00     0.127 S 
ATOM     78  O   UNL A   1      42.769  21.658  27.463  1.00  0.00    -0.237 OA
ATOM     79  O   UNL A   1      40.785  22.113  26.075  1.00  0.00    -0.237 OA
ATOM     80  O   UNL A   1      42.945  21.689  24.997  1.00  0.00    -0.744 OA
ENDBRANCH  74  77
ENDBRANCH  46  70
BRANCH  58  81
ATOM     81  C   UNL A   1      45.380  27.026  33.797  1.00  0.00     0.023 A 
ATOM     82  C   UNL A   1      46.625  27.683  33.716  1.00  0.00     0.012 A 
ATOM     83  C   UNL A   1      45.264  25.858  34.576  1.00  0.00     0.148 A 
ATOM     84  C   UNL A   1      47.742  27.167  34.370  1.00  0.00     0.002 A 
ATOM     85  C   UNL A   1      46.372  25.378  35.266  1.00  0.00     0.091 A 
ATOM     86  F   UNL A   1      44.077  25.236  34.626  1.00  0.00    -0.205 F 
ATOM     87  C   UNL A   1      47.613  26.023  35.153  1.00  0.00     0.022 A 
BRANCH  85  88
ATOM     88  S   UNL A   1      46.274  23.967  36.374  1.00  0.00     0.127 S 
ATOM     89  O   UNL A   1      46.081  22.863  35.435  1.00  0.00    -0.237 OA
ATOM     90  O   UNL A   1      47.583  23.991  37.026  1.00  0.00    -0.237 OA
ATOM     91  O   UNL A   1      45.153  24.236  37.265  1.00  0.00    -0.744 OA
ENDBRANCH  85  88
ENDBRANCH  58  81
ENDBRANCH  32  33
ENDBRANCH  24  27
ENDBRANCH  22  23
ENDBRANCH  21  22
ENDBRANCH  20  21
ENDBRANCH   1  20
TORSDOF 19
ENDMDL
MODEL 2
REMARK VINA RESULT:     -10.6      5.030      9.505
REMARK SMILES C[C@H]([NH2+]C[C@@]1(C)CCCO1)C(=O)NCCCCCCNC(=O)c1ccc(-c2c3nc(c(-c4cccc(S(=O)(=O)[O-])c4F)c4ccc([nH]4)c(-c4cccc(S(=O)(=O)[O-])c4F)c4nc(c(-c5cccc(S(=O)(=O)[O-])c5F)c5ccc2[nH]5)C=C4)C=C3)cc1
REMARK SMILES IDX 16 1 15 2 14 3 13 4 11 5 12 6 2 8 1 9 3 10 4 13 5 14 6 15
REMARK SMILES IDX 7 16 10 17 8 18 9 19 17 20 18 21 19 22 20 23 21 24 22 26
REMARK SMILES IDX 23 27 24 28 85 29 25 30 84 31 26 32 27 33 28 34 78 35 29 36
REMARK SMILES IDX 83 37 77 38 79 39 30 40 82 41 76 42 75 43 31 45 63 46 43 47
REMARK SMILES IDX 62 48 44 49 47 50 61 51 80 52 45 53 46 54 60 56 81 57 48 58
REMARK SMILES IDX 32 59 33 60 41 61 34 62 36 63 42 64 35 65 37 66 38 67 39 68
REMARK SMILES IDX 40 69 64 70 65 71 73 72 66 73 68 74 74 75 67 76 69 77 70 78
REMARK SMILES IDX 71 79 72 80 49 81 50 82 58 83 51 84 53 85 59 86 52 87 54 88
REMARK SMILES IDX 55 89 56 90 57 91
REMARK H PARENT 13 7 3 11 3 12 20 25 79 44 47 55
REMARK Flexibility Score: inf
ROOT
ATOM      1  C   UNL A   1      33.128  22.365  27.761  1.00  0.00     0.002 C 
ENDROOT
BRANCH   1   2
ATOM      2  C   UNL A   1      32.176  23.386  27.133  1.00  0.00     0.021 C 
BRANCH   2   3
ATOM      3  C   UNL A   1      30.878  22.772  26.605  1.00  0.00     0.116 C 
BRANCH   3   4
ATOM      4  N   UNL A   1      30.540  23.340  25.315  1.00  0.00    -0.351 N 
ATOM      5  C   UNL A   1      31.125  23.228  24.094  1.00  0.00     0.277 C 
ATOM      6  O   UNL A   1      30.750  24.036  23.234  1.00  0.00    -0.268 OA
ATOM      7  H   UNL A   1      29.739  23.912  25.325  1.00  0.00     0.163 HD
BRANCH   5   8
ATOM      8  C   UNL A   1      32.208  22.184  23.739  1.00  0.00     0.269 C 
ATOM      9  C   UNL A   1      32.606  22.055  22.274  1.00  0.00     0.086 C 
BRANCH   8  10
ATOM     10  N   UNL A   1      32.062  20.896  24.452  1.00  0.00    -0.334 N 
ATOM     11  H   UNL A   1      31.339  20.355  23.977  1.00  0.00     0.347 HD
ATOM     12  H   UNL A   1      31.833  21.139  25.416  1.00  0.00     0.347 HD
BRANCH  10  13
ATOM     13  C   UNL A   1      33.264  20.067  24.529  1.00  0.00     0.296 C 
BRANCH  13  14
ATOM     14  C   UNL A   1      33.040  18.584  24.148  1.00  0.00     0.114 C 
ATOM     15  C   UNL A   1      32.320  18.490  22.796  1.00  0.00     0.048 C 
ATOM     16  C   UNL A   1      34.316  17.748  24.188  1.00  0.00     0.043 C 
ATOM     17  O   UNL A   1      32.174  17.989  25.142  1.00  0.00    -0.369 OA
ATOM     18  C   UNL A   1      33.794  16.366  24.497  1.00  0.00     0.032 C 
ATOM     19  C   UNL A   1      32.627  16.653  25.418  1.00  0.00     0.161 C 
ENDBRANCH  13  14
ENDBRANCH  10  13
ENDBRANCH   8  10
ENDBRANCH   5   8
ENDBRANCH   3   4
ENDBRANCH   2   3
ENDBRANCH   1   2
BRANCH   1  20
ATOM     20  C   UNL A   1      34.616  22.640  27.518  1.00  0.00     0.002 C 
BRANCH  20  21
ATOM     21  C   UNL A   1      34.985  22.984  26.071  1.00  0.00     0.021 C 
BRANCH  21  22
ATOM     22  C   UNL A   1      36.377  23.586  25.895  1.00  0.00     0.116 C 
BRANCH  22  23
ATOM     23  N   UNL A   1      37.420  22.583  26.050  1.00  0.00    -0.352 N 
ATOM     24  C   UNL A   1      38.746  22.752  26.347  1.00  0.00     0.251 C 
ATOM     25  H   UNL A   1      37.131  21.650  25.925  1.00  0.00     0.163 HD
ATOM     26  O   UNL A   1      39.530  21.810  26.208  1.00  0.00    -0.269 OA
BRANCH  24  27
ATOM     27  C   UNL A   1      39.237  24.058  26.828  1.00  0.00     0.039 A 
ATOM     28  C   UNL A   1      39.875  24.918  25.930  1.00  0.00     0.014 A 
ATOM     29  C   UNL A   1      39.092  24.425  28.170  1.00  0.00     0.014 A 
ATOM     30  C   UNL A   1      40.333  26.162  26.370  1.00  0.00     0.010 A 
ATOM     31  C   UNL A   1      39.484  25.693  28.589  1.00  0.00     0.010 A 
ATOM     32  C   UNL A   1      40.123  26.568  27.698  1.00  0.00    -0.014 A 
BRANCH  32  33
ATOM     33  C   UNL A   1      40.578  27.898  28.176  1.00  0.00     0.031 A 
ATOM     34  C   UNL A   1      42.048  28.220  28.229  1.00  0.00     0.074 A 
ATOM     35  C   UNL A   1      39.674  28.787  28.633  1.00  0.00     0.049 A 
ATOM     36  N   UNL A   1      42.640  29.305  28.656  1.00  0.00    -0.248 NA
ATOM     37  C   UNL A   1      42.978  27.176  27.763  1.00  0.00     0.031 C 
ATOM     38  C   UNL A   1      38.228  28.560  28.709  1.00  0.00     0.029 A 
ATOM     39  N   UNL A   1      39.838  30.050  29.143  1.00  0.00    -0.354 N 
ATOM     40  C   UNL A   1      44.004  29.066  28.540  1.00  0.00     0.074 A 
ATOM     41  C   UNL A   1      44.155  27.717  28.041  1.00  0.00     0.031 C 
ATOM     42  C   UNL A   1      37.640  29.647  29.235  1.00  0.00     0.029 A 
ATOM     43  C   UNL A   1      38.664  30.637  29.553  1.00  0.00     0.049 A 
ATOM     44  H   UNL A   1      40.714  30.494  29.209  1.00  0.00     0.167 HD
ATOM     45  C   UNL A   1      45.038  29.904  28.789  1.00  0.00     0.034 A 
ATOM     46  C   UNL A   1      38.440  31.837  30.123  1.00  0.00     0.034 A 
ATOM     47  C   UNL A   1      44.883  31.259  29.247  1.00  0.00     0.049 A 
ATOM     48  C   UNL A   1      39.602  32.767  30.347  1.00  0.00     0.074 A 
ATOM     49  C   UNL A   1      45.861  32.212  29.466  1.00  0.00     0.029 A 
ATOM     50  N   UNL A   1      43.669  31.854  29.553  1.00  0.00    -0.354 N 
ATOM     51  N   UNL A   1      40.873  32.576  30.085  1.00  0.00    -0.248 NA
ATOM     52  C   UNL A   1      39.296  34.093  30.902  1.00  0.00     0.031 C 
ATOM     53  C   UNL A   1      45.238  33.381  29.917  1.00  0.00     0.029 A 
ATOM     54  C   UNL A   1      43.871  33.162  29.958  1.00  0.00     0.049 A 
ATOM     55  H   UNL A   1      42.792  31.411  29.493  1.00  0.00     0.167 HD
ATOM     56  C   UNL A   1      41.510  33.769  30.405  1.00  0.00     0.074 A 
ATOM     57  C   UNL A   1      40.482  34.683  30.858  1.00  0.00     0.031 C 
ATOM     58  C   UNL A   1      42.830  34.078  30.346  1.00  0.00     0.034 A 
BRANCH  45  59
ATOM     59  C   UNL A   1      46.431  29.400  28.507  1.00  0.00     0.023 A 
ATOM     60  C   UNL A   1      47.002  29.625  27.238  1.00  0.00     0.012 A 
ATOM     61  C   UNL A   1      47.191  28.754  29.502  1.00  0.00     0.148 A 
ATOM     62  C   UNL A   1      48.294  29.186  26.949  1.00  0.00     0.002 A 
ATOM     63  C   UNL A   1      48.496  28.359  29.221  1.00  0.00     0.091 A 
ATOM     64  F   UNL A   1      46.626  28.530  30.696  1.00  0.00    -0.205 F 
ATOM     65  C   UNL A   1      49.042  28.563  27.944  1.00  0.00     0.022 A 
BRANCH  63  66
ATOM     66  S   UNL A   1      49.572  27.619  30.454  1.00  0.00     0.127 S 
ATOM     67  O   UNL A   1      49.213  28.378  31.652  1.00  0.00    -0.237 OA
ATOM     68  O   UNL A   1      49.124  26.226  30.458  1.00  0.00    -0.237 OA
ATOM     69  O   UNL A   1      50.932  27.818  29.973  1.00  0.00    -0.744 OA
ENDBRANCH  63  66
ENDBRANCH  45  59
BRANCH  46  70
ATOM     70  C   UNL A   1      37.049  32.257  30.456  1.00  0.00     0.023 A 
ATOM     71  C   UNL A   1      36.578  32.103  31.775  1.00  0.00     0.012 A 
ATOM     72  C   UNL A   1      36.199  32.820  29.486  1.00  0.00     0.148 A 
ATOM     73  C   UNL A   1      35.274  32.466  32.113  1.00  0.00     0.002 A 
ATOM     74  C   UNL A   1      34.918  33.232  29.841  1.00  0.00     0.091 A 
ATOM     75  F   UNL A   1      36.658  32.947  28.234  1.00  0.00    -0.205 F 
ATOM     76  C   UNL A   1      34.447  33.039  31.150  1.00  0.00     0.022 A 
BRANCH  74  77
ATOM     77  S   UNL A   1      33.839  34.098  28.697  1.00  0.00     0.127 S 
ATOM     78  O   UNL A   1      34.721  35.144  28.188  1.00  0.00    -0.237 OA
ATOM     79  O   UNL A   1      33.508  33.047  27.734  1.00  0.00    -0.237 OA
ATOM     80  O   UNL A   1      32.709  34.552  29.496  1.00  0.00    -0.744 OA
ENDBRANCH  74  77
ENDBRANCH  46  70
BRANCH  58  81
ATOM     81  C   UNL A   1      43.238  35.474  30.736  1.00  0.00     0.023 A 
ATOM     82  C   UNL A   1      43.453  35.789  32.093  1.00  0.00     0.012 A 
ATOM     83  C   UNL A   1      43.470  36.455  29.753  1.00  0.00     0.148 A 
ATOM     84  C   UNL A   1      43.859  37.070  32.467  1.00  0.00     0.002 A 
ATOM     85  C   UNL A   1      43.923  37.714  30.129  1.00  0.00     0.091 A 
ATOM     86  F   UNL A   1      43.242  36.142  28.469  1.00  0.00    -0.205 F 
ATOM     87  C   UNL A   1      44.105  38.027  31.485  1.00  0.00     0.022 A 
BRANCH  85  88
ATOM     88  S   UNL A   1      44.358  38.976  28.927  1.00  0.00     0.127 S 
ATOM     89  O   UNL A   1      44.645  40.122  29.788  1.00  0.00    -0.237 OA
ATOM     90  O   UNL A   1      45.531  38.394  28.275  1.00  0.00    -0.237 OA
ATOM     91  O   UNL A   1      43.196  39.118  28.060  1.00  0.00    -0.744 OA
ENDBRANCH  85  88
ENDBRANCH  58  81
ENDBRANCH  32  33
ENDBRANCH  24  27
ENDBRANCH  22  23
ENDBRANCH  21  22
ENDBRANCH  20  21
ENDBRANCH   1  20
TORSDOF 19
ENDMDL
MODEL 3
REMARK VINA RESULT:     -10.5      4.655      9.828
REMARK SMILES C[C@H]([NH2+]C[C@@]1(C)CCCO1)C(=O)NCCCCCCNC(=O)c1ccc(-c2c3nc(c(-c4cccc(S(=O)(=O)[O-])c4F)c4ccc([nH]4)c(-c4cccc(S(=O)(=O)[O-])c4F)c4nc(c(-c5cccc(S(=O)(=O)[O-])c5F)c5ccc2[nH]5)C=C4)C=C3)cc1
REMARK SMILES IDX 16 1 15 2 14 3 13 4 11 5 12 6 2 8 1 9 3 10 4 13 5 14 6 15
REMARK SMILES IDX 7 16 10 17 8 18 9 19 17 20 18 21 19 22 20 23 21 24 22 26
REMARK SMILES IDX 23 27 24 28 85 29 25 30 84 31 26 32 27 33 28 34 78 35 29 36
REMARK SMILES IDX 83 37 77 38 79 39 30 40 82 41 76 42 75 43 31 45 63 46 43 47
REMARK SMILES IDX 62 48 44 49 47 50 61 51 80 52 45 53 46 54 60 56 81 57 48 58
REMARK SMILES IDX 32 59 33 60 41 61 34 62 36 63 42 64 35 65 37 66 38 67 39 68
REMARK SMILES IDX 40 69 64 70 65 71 73 72 66 73 68 74 74 75 67 76 69 77 70 78
REMARK SMILES IDX 71 79 72 80 49 81 50 82 58 83 51 84 53 85 59 86 52 87 54 88
REMARK SMILES IDX 55 89 56 90 57 91
REMARK H PARENT 13 7 3 11 3 12 20 25 79 44 47 55
REMARK Flexibility Score: inf
ROOT
ATOM      1  C   UNL A   1      34.315  21.235  25.492  1.00  0.00     0.002 C 
ENDROOT
BRANCH   1   2
ATOM      2  C   UNL A   1      33.059  20.829  24.717  1.00  0.00     0.021 C 
BRANCH   2   3
ATOM      3  C   UNL A   1      32.130  22.002  24.395  1.00  0.00     0.116 C 
BRANCH   3   4
ATOM      4  N   UNL A   1      31.296  22.315  25.538  1.00  0.00    -0.351 N 
ATOM      5  C   UNL A   1      31.235  23.406  26.344  1.00  0.00     0.277 C 
ATOM      6  O   UNL A   1      30.593  23.273  27.395  1.00  0.00    -0.268 OA
ATOM      7  H   UNL A   1      30.656  21.605  25.775  1.00  0.00     0.163 HD
BRANCH   5   8
ATOM      8  C   UNL A   1      31.914  24.759  26.032  1.00  0.00     0.269 C 
ATOM      9  C   UNL A   1      33.423  24.849  26.221  1.00  0.00     0.086 C 
BRANCH   8  10
ATOM     10  N   UNL A   1      31.163  25.938  26.518  1.00  0.00    -0.334 N 
ATOM     11  H   UNL A   1      31.693  26.353  27.284  1.00  0.00     0.347 HD
ATOM     12  H   UNL A   1      30.245  25.586  26.791  1.00  0.00     0.347 HD
BRANCH  10  13
ATOM     13  C   UNL A   1      30.908  26.986  25.531  1.00  0.00     0.296 C 
BRANCH  13  14
ATOM     14  C   UNL A   1      31.718  28.284  25.756  1.00  0.00     0.114 C 
ATOM     15  C   UNL A   1      31.175  29.407  24.861  1.00  0.00     0.048 C 
ATOM     16  C   UNL A   1      31.805  28.700  27.222  1.00  0.00     0.043 C 
ATOM     17  O   UNL A   1      33.087  28.037  25.359  1.00  0.00    -0.369 OA
ATOM     18  C   UNL A   1      33.112  29.452  27.274  1.00  0.00     0.032 C 
ATOM     19  C   UNL A   1      33.969  28.692  26.284  1.00  0.00     0.161 C 
ENDBRANCH  13  14
ENDBRANCH  10  13
ENDBRANCH   8  10
ENDBRANCH   5   8
ENDBRANCH   3   4
ENDBRANCH   2   3
ENDBRANCH   1   2
BRANCH   1  20
ATOM     20  C   UNL A   1      35.527  21.573  24.616  1.00  0.00     0.002 C 
BRANCH  20  21
ATOM     21  C   UNL A   1      35.805  23.069  24.440  1.00  0.00     0.021 C 
BRANCH  21  22
ATOM     22  C   UNL A   1      36.865  23.635  25.382  1.00  0.00     0.116 C 
BRANCH  22  23
ATOM     23  N   UNL A   1      37.762  22.597  25.867  1.00  0.00    -0.352 N 
ATOM     24  C   UNL A   1      38.995  22.721  26.449  1.00  0.00     0.251 C 
ATOM     25  H   UNL A   1      37.436  21.674  25.762  1.00  0.00     0.163 HD
ATOM     26  O   UNL A   1      39.712  21.727  26.583  1.00  0.00    -0.269 OA
BRANCH  24  27
ATOM     27  C   UNL A   1      39.466  24.041  26.912  1.00  0.00     0.039 A 
ATOM     28  C   UNL A   1      40.102  24.894  26.005  1.00  0.00     0.014 A 
ATOM     29  C   UNL A   1      39.304  24.429  28.247  1.00  0.00     0.014 A 
ATOM     30  C   UNL A   1      40.540  26.150  26.428  1.00  0.00     0.010 A 
ATOM     31  C   UNL A   1      39.677  25.708  28.648  1.00  0.00     0.010 A 
ATOM     32  C   UNL A   1      40.313  26.576  27.748  1.00  0.00    -0.014 A 
BRANCH  32  33
ATOM     33  C   UNL A   1      40.748  27.919  28.207  1.00  0.00     0.031 A 
ATOM     34  C   UNL A   1      42.212  28.267  28.248  1.00  0.00     0.074 A 
ATOM     35  C   UNL A   1      39.831  28.799  28.657  1.00  0.00     0.049 A 
ATOM     36  N   UNL A   1      42.788  29.367  28.660  1.00  0.00    -0.248 NA
ATOM     37  C   UNL A   1      43.158  27.233  27.791  1.00  0.00     0.031 C 
ATOM     38  C   UNL A   1      38.390  28.548  28.743  1.00  0.00     0.029 A 
ATOM     39  N   UNL A   1      39.977  30.070  29.151  1.00  0.00    -0.354 N 
ATOM     40  C   UNL A   1      44.155  29.149  28.539  1.00  0.00     0.074 A 
ATOM     41  C   UNL A   1      44.327  27.797  28.056  1.00  0.00     0.031 C 
ATOM     42  C   UNL A   1      37.786  29.631  29.258  1.00  0.00     0.029 A 
ATOM     43  C   UNL A   1      38.794  30.642  29.559  1.00  0.00     0.049 A 
ATOM     44  H   UNL A   1      40.845  30.530  29.206  1.00  0.00     0.167 HD
ATOM     45  C   UNL A   1      45.177  30.008  28.773  1.00  0.00     0.034 A 
ATOM     46  C   UNL A   1      38.552  31.845  30.115  1.00  0.00     0.034 A 
ATOM     47  C   UNL A   1      45.000  31.366  29.215  1.00  0.00     0.049 A 
ATOM     48  C   UNL A   1      39.700  32.797  30.322  1.00  0.00     0.074 A 
ATOM     49  C   UNL A   1      45.963  32.338  29.417  1.00  0.00     0.029 A 
ATOM     50  N   UNL A   1      43.778  31.944  29.520  1.00  0.00    -0.354 N 
ATOM     51  N   UNL A   1      40.972  32.625  30.056  1.00  0.00    -0.248 NA
ATOM     52  C   UNL A   1      39.374  34.125  30.862  1.00  0.00     0.031 C 
ATOM     53  C   UNL A   1      45.323  33.501  29.857  1.00  0.00     0.029 A 
ATOM     54  C   UNL A   1      43.960  33.261  29.907  1.00  0.00     0.049 A 
ATOM     55  H   UNL A   1      42.908  31.485  29.469  1.00  0.00     0.167 HD
ATOM     56  C   UNL A   1      41.591  33.833  30.359  1.00  0.00     0.074 A 
ATOM     57  C   UNL A   1      40.549  34.735  30.805  1.00  0.00     0.031 C 
ATOM     58  C   UNL A   1      42.905  34.163  30.289  1.00  0.00     0.034 A 
BRANCH  45  59
ATOM     59  C   UNL A   1      46.576  29.524  28.491  1.00  0.00     0.023 A 
ATOM     60  C   UNL A   1      47.151  29.773  27.228  1.00  0.00     0.012 A 
ATOM     61  C   UNL A   1      47.339  28.874  29.480  1.00  0.00     0.148 A 
ATOM     62  C   UNL A   1      48.448  29.354  26.939  1.00  0.00     0.002 A 
ATOM     63  C   UNL A   1      48.650  28.498  29.200  1.00  0.00     0.091 A 
ATOM     64  F   UNL A   1      46.771  28.626  30.669  1.00  0.00    -0.205 F 
ATOM     65  C   UNL A   1      49.200  28.725  27.928  1.00  0.00     0.022 A 
BRANCH  63  66
ATOM     66  S   UNL A   1      49.729  27.753  30.428  1.00  0.00     0.127 S 
ATOM     67  O   UNL A   1      50.951  27.538  29.654  1.00  0.00    -0.237 OA
ATOM     68  O   UNL A   1      49.823  28.810  31.436  1.00  0.00    -0.237 OA
ATOM     69  O   UNL A   1      49.053  26.544  30.877  1.00  0.00    -0.744 OA
ENDBRANCH  63  66
ENDBRANCH  45  59
BRANCH  46  70
ATOM     70  C   UNL A   1      37.156  32.246  30.450  1.00  0.00     0.023 A 
ATOM     71  C   UNL A   1      36.675  32.046  31.759  1.00  0.00     0.012 A 
ATOM     72  C   UNL A   1      36.311  32.836  29.492  1.00  0.00     0.148 A 
ATOM     73  C   UNL A   1      35.365  32.390  32.096  1.00  0.00     0.002 A 
ATOM     74  C   UNL A   1      35.025  33.229  29.849  1.00  0.00     0.091 A 
ATOM     75  F   UNL A   1      36.781  33.008  28.248  1.00  0.00    -0.205 F 
ATOM     76  C   UNL A   1      34.544  32.989  31.146  1.00  0.00     0.022 A 
BRANCH  74  77
ATOM     77  S   UNL A   1      33.950  34.127  28.725  1.00  0.00     0.127 S 
ATOM     78  O   UNL A   1      32.868  34.541  29.612  1.00  0.00    -0.237 OA
ATOM     79  O   UNL A   1      34.822  35.210  28.269  1.00  0.00    -0.237 OA
ATOM     80  O   UNL A   1      33.592  33.173  27.684  1.00  0.00    -0.744 OA
ENDBRANCH  74  77
ENDBRANCH  46  70
BRANCH  58  81
ATOM     81  C   UNL A   1      43.291  35.570  30.660  1.00  0.00     0.023 A 
ATOM     82  C   UNL A   1      43.444  36.546  29.654  1.00  0.00     0.012 A 
ATOM     83  C   UNL A   1      43.437  35.941  32.012  1.00  0.00     0.148 A 
ATOM     84  C   UNL A   1      43.771  37.860  29.986  1.00  0.00     0.002 A 
ATOM     85  C   UNL A   1      43.715  37.264  32.336  1.00  0.00     0.091 A 
ATOM     86  F   UNL A   1      43.307  34.995  32.953  1.00  0.00    -0.205 F 
ATOM     87  C   UNL A   1      43.895  38.220  31.325  1.00  0.00     0.022 A 
BRANCH  85  88
ATOM     88  S   UNL A   1      43.796  37.837  34.037  1.00  0.00     0.127 S 
ATOM     89  O   UNL A   1      44.935  37.080  34.552  1.00  0.00    -0.237 OA
ATOM     90  O   UNL A   1      44.040  39.270  33.872  1.00  0.00    -0.237 OA
ATOM     91  O   UNL A   1      42.505  37.511  34.630  1.00  0.00    -0.744 OA
ENDBRANCH  85  88
ENDBRANCH  58  81
ENDBRANCH  32  33
ENDBRANCH  24  27
ENDBRANCH  22  23
ENDBRANCH  21  22
ENDBRANCH  20  21
ENDBRANCH   1  20
TORSDOF 19
ENDMDL
