MODEL 1
REMARK VINA RESULT:     -11.7      0.000      0.000
REMARK SMILES CCN(Cc1ccccn1)C(=O)NC(=O)CCCC(=O)NCCCCCCNC(=O)c1ccc(-c2c3nc(c(-c4cccc(S(=O)(=O)[O-])c4F)c4ccc([nH]4)c(-c4cccc(S(=O)(=O)[O-])c4F)c4nc(c(-c5cccc(S(=O)(=O)[O-])c5F)c5ccc2[nH]5)C=C4)C=C3)cc1
REMARK SMILES IDX 23 1 22 2 21 3 19 4 20 5 18 7 17 8 16 9 14 10 11 11 12 12
REMARK SMILES IDX 13 13 15 15 3 16 2 17 1 18 4 19 5 20 6 21 10 22 7 23 9 24
REMARK SMILES IDX 8 25 24 26 25 27 26 28 27 29 28 30 29 31 30 33 31 34 32 35
REMARK SMILES IDX 93 36 33 37 92 38 34 39 35 40 36 41 86 42 37 43 91 44 85 45
REMARK SMILES IDX 87 46 38 47 90 48 84 49 83 50 39 52 71 53 51 54 70 55 52 56
REMARK SMILES IDX 55 57 69 58 88 59 53 60 54 61 68 63 89 64 56 65 40 66 41 67
REMARK SMILES IDX 49 68 42 69 44 70 50 71 43 72 45 73 46 74 47 75 48 76 72 77
REMARK SMILES IDX 73 78 81 79 74 80 76 81 82 82 75 83 77 84 78 85 79 86 80 87
REMARK SMILES IDX 57 88 58 89 66 90 59 91 61 92 67 93 60 94 62 95 63 96 64 97
REMARK SMILES IDX 65 98
REMARK H PARENT 21 6 13 14 28 32 87 51 55 62
REMARK Flexibility Score: inf
ROOT
ATOM      1  C   UNL A   1      38.858  34.128  31.815  1.00  0.00     0.021 C 
ENDROOT
BRANCH   1   2
ATOM      2  C   UNL A   1      39.664  34.686  30.133  1.00  0.00     0.116 C 
BRANCH   2   3
ATOM      3  N   UNL A   1      41.485  34.867  30.117  1.00  0.00    -0.356 N 
ATOM      4  C   UNL A   1      42.565  35.521  29.304  1.00  0.00     0.220 C 
ATOM      5  O   UNL A   1      43.722  35.380  29.735  1.00  0.00    -0.275 OA
ATOM      6  H   UNL A   1      41.880  34.385  30.880  1.00  0.00     0.163 HD
BRANCH   4   7
ATOM      7  C   UNL A   1      42.413  36.503  27.781  1.00  0.00     0.100 C 
BRANCH   7   8
ATOM      8  C   UNL A   1      41.772  37.960  27.248  1.00  0.00     0.020 C 
BRANCH   8   9
ATOM      9  C   UNL A   1      42.204  39.240  26.401  1.00  0.00     0.101 C 
BRANCH   9  10
ATOM     10  C   UNL A   1      41.587  40.632  26.177  1.00  0.00     0.227 C 
ATOM     11  C   UNL A   1      43.621  41.733  25.567  1.00  0.00     0.324 C 
ATOM     12  O   UNL A   1      44.051  42.312  24.568  1.00  0.00    -0.248 OA
ATOM     13  N   UNL A   1      42.304  41.652  25.692  1.00  0.00    -0.278 N 
ATOM     14  H   UNL A   1      41.791  42.436  25.390  1.00  0.00     0.174 HD
ATOM     15  O   UNL A   1      40.405  40.849  26.455  1.00  0.00    -0.275 OA
BRANCH  11  16
ATOM     16  N   UNL A   1      44.430  41.301  26.622  1.00  0.00    -0.319 N 
BRANCH  16  17
ATOM     17  C   UNL A   1      45.594  40.344  25.792  1.00  0.00     0.118 C 
ATOM     18  C   UNL A   1      46.003  38.946  26.267  1.00  0.00     0.027 C 
ENDBRANCH  16  17
BRANCH  16  19
ATOM     19  C   UNL A   1      44.486  42.027  28.371  1.00  0.00     0.177 C 
BRANCH  19  20
ATOM     20  C   UNL A   1      45.642  41.649  29.886  1.00  0.00     0.060 A 
ATOM     21  C   UNL A   1      45.079  40.014  29.925  1.00  0.00     0.026 A 
ATOM     22  N   UNL A   1      45.381  42.711  31.350  1.00  0.00    -0.259 NA
ATOM     23  C   UNL A   1      43.880  39.549  31.070  1.00  0.00     0.004 A 
ATOM     24  C   UNL A   1      44.029  42.286  32.487  1.00  0.00     0.111 A 
ATOM     25  C   UNL A   1      43.309  40.641  32.338  1.00  0.00     0.020 A 
ENDBRANCH  19  20
ENDBRANCH  16  19
ENDBRANCH  11  16
ENDBRANCH   9  10
ENDBRANCH   8   9
ENDBRANCH   7   8
ENDBRANCH   4   7
ENDBRANCH   2   3
ENDBRANCH   1   2
BRANCH   1  26
ATOM     26  C   UNL A   1      37.159  32.736  31.622  1.00  0.00     0.002 C 
BRANCH  26  27
ATOM     27  C   UNL A   1      35.616  33.113  30.661  1.00  0.00     0.002 C 
BRANCH  27  28
ATOM     28  C   UNL A   1      35.684  33.988  29.346  1.00  0.00     0.021 C 
BRANCH  28  29
ATOM     29  C   UNL A   1      35.881  33.141  28.124  1.00  0.00     0.116 C 
BRANCH  29  30
ATOM     30  N   UNL A   1      34.752  32.256  28.020  1.00  0.00    -0.352 N 
ATOM     31  C   UNL A   1      34.843  30.899  27.919  1.00  0.00     0.251 C 
ATOM     32  H   UNL A   1      33.852  32.657  28.023  1.00  0.00     0.163 HD
ATOM     33  O   UNL A   1      33.922  30.223  27.484  1.00  0.00    -0.269 OA
BRANCH  31  34
ATOM     34  C   UNL A   1      36.124  30.307  28.341  1.00  0.00     0.039 A 
ATOM     35  C   UNL A   1      36.201  29.654  29.568  1.00  0.00     0.014 A 
ATOM     36  C   UNL A   1      37.200  30.309  27.444  1.00  0.00     0.014 A 
ATOM     37  C   UNL A   1      37.398  29.043  29.928  1.00  0.00     0.010 A 
ATOM     38  C   UNL A   1      38.360  29.625  27.769  1.00  0.00     0.010 A 
ATOM     39  C   UNL A   1      38.487  29.043  29.039  1.00  0.00    -0.014 A 
BRANCH  39  40
ATOM     40  C   UNL A   1      39.815  28.555  29.468  1.00  0.00     0.031 A 
ATOM     41  C   UNL A   1      40.533  29.292  30.566  1.00  0.00     0.074 A 
ATOM     42  C   UNL A   1      40.379  27.493  28.867  1.00  0.00     0.049 A 
ATOM     43  N   UNL A   1      41.725  29.082  31.055  1.00  0.00    -0.248 NA
ATOM     44  C   UNL A   1      39.828  30.433  31.179  1.00  0.00     0.031 C 
ATOM     45  C   UNL A   1      39.783  26.722  27.775  1.00  0.00     0.029 A 
ATOM     46  N   UNL A   1      41.593  26.893  29.079  1.00  0.00    -0.354 N 
ATOM     47  C   UNL A   1      41.927  30.083  31.996  1.00  0.00     0.074 A 
ATOM     48  C   UNL A   1      40.754  30.925  31.985  1.00  0.00     0.031 C 
ATOM     49  C   UNL A   1      40.633  25.747  27.415  1.00  0.00     0.029 A 
ATOM     50  C   UNL A   1      41.850  25.855  28.215  1.00  0.00     0.049 A 
ATOM     51  H   UNL A   1      42.219  27.177  29.783  1.00  0.00     0.167 HD
ATOM     52  C   UNL A   1      42.985  30.272  32.815  1.00  0.00     0.034 A 
ATOM     53  C   UNL A   1      42.955  25.098  28.070  1.00  0.00     0.034 A 
ATOM     54  C   UNL A   1      44.134  29.413  32.837  1.00  0.00     0.049 A 
ATOM     55  C   UNL A   1      44.131  25.342  28.978  1.00  0.00     0.074 A 
ATOM     56  C   UNL A   1      45.233  29.475  33.673  1.00  0.00     0.029 A 
ATOM     57  N   UNL A   1      44.343  28.353  31.971  1.00  0.00    -0.354 N 
ATOM     58  N   UNL A   1      44.261  26.225  29.938  1.00  0.00    -0.248 NA
ATOM     59  C   UNL A   1      45.301  24.469  28.806  1.00  0.00     0.031 C 
ATOM     60  C   UNL A   1      46.136  28.489  33.271  1.00  0.00     0.029 A 
ATOM     61  C   UNL A   1      45.565  27.765  32.236  1.00  0.00     0.049 A 
ATOM     62  H   UNL A   1      43.715  28.060  31.272  1.00  0.00     0.167 HD
ATOM     63  C   UNL A   1      45.503  25.982  30.514  1.00  0.00     0.074 A 
ATOM     64  C   UNL A   1      46.087  24.868  29.797  1.00  0.00     0.031 C 
ATOM     65  C   UNL A   1      46.105  26.623  31.545  1.00  0.00     0.034 A 
BRANCH  52  66
ATOM     66  C   UNL A   1      42.947  31.446  33.755  1.00  0.00     0.023 A 
ATOM     67  C   UNL A   1      43.412  32.709  33.333  1.00  0.00     0.012 A 
ATOM     68  C   UNL A   1      42.406  31.304  35.047  1.00  0.00     0.148 A 
ATOM     69  C   UNL A   1      43.374  33.803  34.199  1.00  0.00     0.002 A 
ATOM     70  C   UNL A   1      42.320  32.409  35.882  1.00  0.00     0.091 A 
ATOM     71  F   UNL A   1      41.990  30.090  35.434  1.00  0.00    -0.205 F 
ATOM     72  C   UNL A   1      42.817  33.655  35.466  1.00  0.00     0.022 A 
BRANCH  70  73
ATOM     73  S   UNL A   1      41.545  32.339  37.499  1.00  0.00     0.127 S 
ATOM     74  O   UNL A   1      40.197  31.884  37.160  1.00  0.00    -0.237 OA
ATOM     75  O   UNL A   1      42.369  31.345  38.188  1.00  0.00    -0.237 OA
ATOM     76  O   UNL A   1      41.625  33.686  38.046  1.00  0.00    -0.744 OA
ENDBRANCH  70  73
ENDBRANCH  52  66
BRANCH  53  77
ATOM     77  C   UNL A   1      42.998  24.031  27.032  1.00  0.00     0.023 A 
ATOM     78  C   UNL A   1      43.755  24.223  25.861  1.00  0.00     0.012 A 
ATOM     79  C   UNL A   1      42.296  22.824  27.208  1.00  0.00     0.148 A 
ATOM     80  C   UNL A   1      43.776  23.247  24.863  1.00  0.00     0.002 A 
ATOM     81  C   UNL A   1      42.368  21.833  26.238  1.00  0.00     0.091 A 
ATOM     82  F   UNL A   1      41.581  22.663  28.331  1.00  0.00    -0.205 F 
ATOM     83  C   UNL A   1      43.090  22.050  25.055  1.00  0.00     0.022 A 
BRANCH  81  84
ATOM     84  S   UNL A   1      41.619  20.216  26.455  1.00  0.00     0.127 S 
ATOM     85  O   UNL A   1      40.196  20.531  26.353  1.00  0.00    -0.237 OA
ATOM     86  O   UNL A   1      42.172  19.477  25.320  1.00  0.00    -0.237 OA
ATOM     87  O   UNL A   1      42.066  19.742  27.758  1.00  0.00    -0.744 OA
ENDBRANCH  81  84
ENDBRANCH  53  77
BRANCH  65  88
ATOM     88  C   UNL A   1      47.429  26.101  32.034  1.00  0.00     0.023 A 
ATOM     89  C   UNL A   1      48.633  26.567  31.473  1.00  0.00     0.012 A 
ATOM     90  C   UNL A   1      47.468  25.240  33.150  1.00  0.00     0.148 A 
ATOM     91  C   UNL A   1      49.858  26.169  32.008  1.00  0.00     0.002 A 
ATOM     92  C   UNL A   1      48.688  24.896  33.712  1.00  0.00     0.091 A 
ATOM     93  F   UNL A   1      46.306  24.802  33.656  1.00  0.00    -0.205 F 
ATOM     94  C   UNL A   1      49.885  25.350  33.136  1.00  0.00     0.022 A 
BRANCH  92  95
ATOM     95  S   UNL A   1      48.815  23.937  35.225  1.00  0.00     0.127 S 
ATOM     96  O   UNL A   1      48.644  22.573  34.726  1.00  0.00    -0.237 OA
ATOM     97  O   UNL A   1      50.169  24.257  35.676  1.00  0.00    -0.237 OA
ATOM     98  O   UNL A   1      47.752  24.412  36.099  1.00  0.00    -0.744 OA
ENDBRANCH  92  95
ENDBRANCH  65  88
ENDBRANCH  39  40
ENDBRANCH  31  34
ENDBRANCH  29  30
ENDBRANCH  28  29
ENDBRANCH  27  28
ENDBRANCH  26  27
ENDBRANCH   1  26
TORSDOF 23
ENDMDL
MODEL 2
REMARK VINA RESULT:     -11.7      1.609      1.954
REMARK SMILES CCN(Cc1ccccn1)C(=O)NC(=O)CCCC(=O)NCCCCCCNC(=O)c1ccc(-c2c3nc(c(-c4cccc(S(=O)(=O)[O-])c4F)c4ccc([nH]4)c(-c4cccc(S(=O)(=O)[O-])c4F)c4nc(c(-c5cccc(S(=O)(=O)[O-])c5F)c5ccc2[nH]5)C=C4)C=C3)cc1
REMARK SMILES IDX 23 1 22 2 21 3 19 4 20 5 18 7 17 8 16 9 14 10 11 11 12 12
REMARK SMILES IDX 13 13 15 15 3 16 2 17 1 18 4 19 5 20 6 21 10 22 7 23 9 24
REMARK SMILES IDX 8 25 24 26 25 27 26 28 27 29 28 30 29 31 30 33 31 34 32 35
REMARK SMILES IDX 93 36 33 37 92 38 34 39 35 40 36 41 86 42 37 43 91 44 85 45
REMARK SMILES IDX 87 46 38 47 90 48 84 49 83 50 39 52 71 53 51 54 70 55 52 56
REMARK SMILES IDX 55 57 69 58 88 59 53 60 54 61 68 63 89 64 56 65 40 66 41 67
REMARK SMILES IDX 49 68 42 69 44 70 50 71 43 72 45 73 46 74 47 75 48 76 72 77
REMARK SMILES IDX 73 78 81 79 74 80 76 81 82 82 75 83 77 84 78 85 79 86 80 87
REMARK SMILES IDX 57 88 58 89 66 90 59 91 61 92 67 93 60 94 62 95 63 96 64 97
REMARK SMILES IDX 65 98
REMARK H PARENT 21 6 13 14 28 32 87 51 55 62
REMARK Flexibility Score: inf
ROOT
ATOM      1  C   UNL A   1      38.486  34.272  31.726  1.00  0.00     0.021 C 
ENDROOT
BRANCH   1   2
ATOM      2  C   UNL A   1      39.471  34.649  30.090  1.00  0.00     0.116 C 
BRANCH   2   3
ATOM      3  N   UNL A   1      41.259  34.998  30.271  1.00  0.00    -0.356 N 
ATOM      4  C   UNL A   1      42.346  35.788  29.601  1.00  0.00     0.220 C 
ATOM      5  O   UNL A   1      43.462  35.733  30.146  1.00  0.00    -0.275 OA
ATOM      6  H   UNL A   1      41.620  34.519  31.052  1.00  0.00     0.163 HD
BRANCH   4   7
ATOM      7  C   UNL A   1      42.253  36.824  28.110  1.00  0.00     0.100 C 
BRANCH   7   8
ATOM      8  C   UNL A   1      42.004  38.424  27.669  1.00  0.00     0.020 C 
BRANCH   8   9
ATOM      9  C   UNL A   1      42.126  39.364  26.386  1.00  0.00     0.101 C 
BRANCH   9  10
ATOM     10  C   UNL A   1      41.686  40.805  26.071  1.00  0.00     0.227 C 
ATOM     11  C   UNL A   1      43.832  41.593  25.367  1.00  0.00     0.324 C 
ATOM     12  O   UNL A   1      44.314  42.044  24.327  1.00  0.00    -0.248 OA
ATOM     13  N   UNL A   1      42.517  41.690  25.510  1.00  0.00    -0.278 N 
ATOM     14  H   UNL A   1      42.102  42.510  25.158  1.00  0.00     0.174 HD
ATOM     15  O   UNL A   1      40.546  41.190  26.344  1.00  0.00    -0.275 OA
BRANCH  11  16
ATOM     16  N   UNL A   1      44.598  41.134  26.443  1.00  0.00    -0.319 N 
BRANCH  16  17
ATOM     17  C   UNL A   1      45.781  40.179  25.637  1.00  0.00     0.118 C 
ATOM     18  C   UNL A   1      47.015  39.620  26.352  1.00  0.00     0.027 C 
ENDBRANCH  16  17
BRANCH  16  19
ATOM     19  C   UNL A   1      44.600  41.830  28.205  1.00  0.00     0.177 C 
BRANCH  19  20
ATOM     20  C   UNL A   1      45.632  41.349  29.778  1.00  0.00     0.060 A 
ATOM     21  C   UNL A   1      44.847  39.810  29.841  1.00  0.00     0.026 A 
ATOM     22  N   UNL A   1      45.466  42.487  31.198  1.00  0.00    -0.259 NA
ATOM     23  C   UNL A   1      43.552  39.554  30.946  1.00  0.00     0.004 A 
ATOM     24  C   UNL A   1      44.025  42.292  32.288  1.00  0.00     0.111 A 
ATOM     25  C   UNL A   1      43.089  40.757  32.156  1.00  0.00     0.020 A 
ENDBRANCH  19  20
ENDBRANCH  16  19
ENDBRANCH  11  16
ENDBRANCH   9  10
ENDBRANCH   8   9
ENDBRANCH   7   8
ENDBRANCH   4   7
ENDBRANCH   2   3
ENDBRANCH   1   2
BRANCH   1  26
ATOM     26  C   UNL A   1      36.806  32.862  31.502  1.00  0.00     0.002 C 
BRANCH  26  27
ATOM     27  C   UNL A   1      35.243  33.252  30.580  1.00  0.00     0.002 C 
BRANCH  27  28
ATOM     28  C   UNL A   1      35.288  34.109  29.253  1.00  0.00     0.021 C 
BRANCH  28  29
ATOM     29  C   UNL A   1      35.578  33.260  28.052  1.00  0.00     0.116 C 
BRANCH  29  30
ATOM     30  N   UNL A   1      34.453  32.386  27.852  1.00  0.00    -0.352 N 
ATOM     31  C   UNL A   1      34.543  31.032  27.719  1.00  0.00     0.251 C 
ATOM     32  H   UNL A   1      33.557  32.794  27.810  1.00  0.00     0.163 HD
ATOM     33  O   UNL A   1      33.647  30.375  27.208  1.00  0.00    -0.269 OA
BRANCH  31  34
ATOM     34  C   UNL A   1      35.791  30.419  28.202  1.00  0.00     0.039 A 
ATOM     35  C   UNL A   1      35.788  29.729  29.412  1.00  0.00     0.014 A 
ATOM     36  C   UNL A   1      36.922  30.441  27.376  1.00  0.00     0.014 A 
ATOM     37  C   UNL A   1      36.956  29.100  29.828  1.00  0.00     0.010 A 
ATOM     38  C   UNL A   1      38.056  29.740  27.753  1.00  0.00     0.010 A 
ATOM     39  C   UNL A   1      38.100  29.119  29.010  1.00  0.00    -0.014 A 
BRANCH  39  40
ATOM     40  C   UNL A   1      39.395  28.610  29.507  1.00  0.00     0.031 A 
ATOM     41  C   UNL A   1      40.041  29.304  30.676  1.00  0.00     0.074 A 
ATOM     42  C   UNL A   1      39.995  27.568  28.906  1.00  0.00     0.049 A 
ATOM     43  N   UNL A   1      41.198  29.070  31.234  1.00  0.00    -0.248 NA
ATOM     44  C   UNL A   1      39.300  30.424  31.282  1.00  0.00     0.031 C 
ATOM     45  C   UNL A   1      39.470  26.839  27.750  1.00  0.00     0.029 A 
ATOM     46  N   UNL A   1      41.191  26.955  29.175  1.00  0.00    -0.354 N 
ATOM     47  C   UNL A   1      41.340  30.035  32.222  1.00  0.00     0.074 A 
ATOM     48  C   UNL A   1      40.172  30.883  32.165  1.00  0.00     0.031 C 
ATOM     49  C   UNL A   1      40.340  25.874  27.411  1.00  0.00     0.029 A 
ATOM     50  C   UNL A   1      41.502  25.948  28.292  1.00  0.00     0.049 A 
ATOM     51  H   UNL A   1      41.771  27.210  29.929  1.00  0.00     0.167 HD
ATOM     52  C   UNL A   1      42.342  30.189  33.115  1.00  0.00     0.034 A 
ATOM     53  C   UNL A   1      42.612  25.192  28.193  1.00  0.00     0.034 A 
ATOM     54  C   UNL A   1      43.486  29.325  33.181  1.00  0.00     0.049 A 
ATOM     55  C   UNL A   1      43.727  25.397  29.184  1.00  0.00     0.074 A 
ATOM     56  C   UNL A   1      44.527  29.352  34.089  1.00  0.00     0.029 A 
ATOM     57  N   UNL A   1      43.749  28.296  32.292  1.00  0.00    -0.354 N 
ATOM     58  N   UNL A   1      43.796  26.244  30.182  1.00  0.00    -0.248 NA
ATOM     59  C   UNL A   1      44.904  24.525  29.057  1.00  0.00     0.031 C 
ATOM     60  C   UNL A   1      45.453  28.376  33.712  1.00  0.00     0.029 A 
ATOM     61  C   UNL A   1      44.949  27.693  32.616  1.00  0.00     0.049 A 
ATOM     62  H   UNL A   1      43.167  28.032  31.544  1.00  0.00     0.167 HD
ATOM     63  C   UNL A   1      44.997  25.974  30.829  1.00  0.00     0.074 A 
ATOM     64  C   UNL A   1      45.623  24.884  30.112  1.00  0.00     0.031 C 
ATOM     65  C   UNL A   1      45.531  26.574  31.920  1.00  0.00     0.034 A 
BRANCH  52  66
ATOM     66  C   UNL A   1      42.246  31.329  34.093  1.00  0.00     0.023 A 
ATOM     67  C   UNL A   1      41.784  31.103  35.405  1.00  0.00     0.012 A 
ATOM     68  C   UNL A   1      42.659  32.622  33.718  1.00  0.00     0.148 A 
ATOM     69  C   UNL A   1      41.697  32.155  36.317  1.00  0.00     0.002 A 
ATOM     70  C   UNL A   1      42.623  33.651  34.647  1.00  0.00     0.091 A 
ATOM     71  F   UNL A   1      43.074  32.819  32.459  1.00  0.00    -0.205 F 
ATOM     72  C   UNL A   1      42.128  33.425  35.942  1.00  0.00     0.022 A 
BRANCH  70  73
ATOM     73  S   UNL A   1      43.234  35.300  34.286  1.00  0.00     0.127 S 
ATOM     74  O   UNL A   1      42.298  35.740  33.251  1.00  0.00    -0.237 OA
ATOM     75  O   UNL A   1      43.075  35.972  35.576  1.00  0.00    -0.237 OA
ATOM     76  O   UNL A   1      44.612  35.136  33.847  1.00  0.00    -0.744 OA
ENDBRANCH  70  73
ENDBRANCH  52  66
BRANCH  53  77
ATOM     77  C   UNL A   1      42.722  24.163  27.122  1.00  0.00     0.023 A 
ATOM     78  C   UNL A   1      43.430  24.453  25.940  1.00  0.00     0.012 A 
ATOM     79  C   UNL A   1      42.130  22.894  27.276  1.00  0.00     0.148 A 
ATOM     80  C   UNL A   1      43.509  23.512  24.912  1.00  0.00     0.002 A 
ATOM     81  C   UNL A   1      42.263  21.942  26.274  1.00  0.00     0.091 A 
ATOM     82  F   UNL A   1      41.460  22.640  28.409  1.00  0.00    -0.205 F 
ATOM     83  C   UNL A   1      42.933  22.255  25.082  1.00  0.00     0.022 A 
BRANCH  81  84
ATOM     84  S   UNL A   1      41.661  20.260  26.457  1.00  0.00     0.127 S 
ATOM     85  O   UNL A   1      42.207  19.888  27.761  1.00  0.00    -0.237 OA
ATOM     86  O   UNL A   1      40.212  20.458  26.427  1.00  0.00    -0.237 OA
ATOM     87  O   UNL A   1      42.192  19.522  25.320  1.00  0.00    -0.744 OA
ENDBRANCH  81  84
ENDBRANCH  53  77
BRANCH  65  88
ATOM     88  C   UNL A   1      46.819  26.029  32.475  1.00  0.00     0.023 A 
ATOM     89  C   UNL A   1      46.808  25.116  33.546  1.00  0.00     0.012 A 
ATOM     90  C   UNL A   1      48.036  26.332  31.830  1.00  0.00     0.148 A 
ATOM     91  C   UNL A   1      47.995  24.525  33.978  1.00  0.00     0.002 A 
ATOM     92  C   UNL A   1      49.203  25.695  32.228  1.00  0.00     0.091 A 
ATOM     93  F   UNL A   1      48.019  27.214  30.821  1.00  0.00    -0.205 F 
ATOM     94  C   UNL A   1      49.186  24.801  33.309  1.00  0.00     0.022 A 
BRANCH  92  95
ATOM     95  S   UNL A   1      50.759  25.906  31.358  1.00  0.00     0.127 S 
ATOM     96  O   UNL A   1      51.576  24.848  31.952  1.00  0.00    -0.237 OA
ATOM     97  O   UNL A   1      50.367  25.668  29.969  1.00  0.00    -0.237 OA
ATOM     98  O   UNL A   1      51.206  27.262  31.643  1.00  0.00    -0.744 OA
ENDBRANCH  92  95
ENDBRANCH  65  88
ENDBRANCH  39  40
ENDBRANCH  31  34
ENDBRANCH  29  30
ENDBRANCH  28  29
ENDBRANCH  27  28
ENDBRANCH  26  27
ENDBRANCH   1  26
TORSDOF 23
ENDMDL
MODEL 3
REMARK VINA RESULT:     -11.3      6.656     11.988
REMARK SMILES CCN(Cc1ccccn1)C(=O)NC(=O)CCCC(=O)NCCCCCCNC(=O)c1ccc(-c2c3nc(c(-c4cccc(S(=O)(=O)[O-])c4F)c4ccc([nH]4)c(-c4cccc(S(=O)(=O)[O-])c4F)c4nc(c(-c5cccc(S(=O)(=O)[O-])c5F)c5ccc2[nH]5)C=C4)C=C3)cc1
REMARK SMILES IDX 23 1 22 2 21 3 19 4 20 5 18 7 17 8 16 9 14 10 11 11 12 12
REMARK SMILES IDX 13 13 15 15 3 16 2 17 1 18 4 19 5 20 6 21 10 22 7 23 9 24
REMARK SMILES IDX 8 25 24 26 25 27 26 28 27 29 28 30 29 31 30 33 31 34 32 35
REMARK SMILES IDX 93 36 33 37 92 38 34 39 35 40 36 41 86 42 37 43 91 44 85 45
REMARK SMILES IDX 87 46 38 47 90 48 84 49 83 50 39 52 71 53 51 54 70 55 52 56
REMARK SMILES IDX 55 57 69 58 88 59 53 60 54 61 68 63 89 64 56 65 40 66 41 67
REMARK SMILES IDX 49 68 42 69 44 70 50 71 43 72 45 73 46 74 47 75 48 76 72 77
REMARK SMILES IDX 73 78 81 79 74 80 76 81 82 82 75 83 77 84 78 85 79 86 80 87
REMARK SMILES IDX 57 88 58 89 66 90 59 91 61 92 67 93 60 94 62 95 63 96 64 97
REMARK SMILES IDX 65 98
REMARK H PARENT 21 6 13 14 28 32 87 51 55 62
REMARK Flexibility Score: inf
ROOT
ATOM      1  C   UNL A   1      32.798  31.361  27.385  1.00  0.00     0.021 C 
ENDROOT
BRANCH   1   2
ATOM      2  C   UNL A   1      31.993  30.475  25.850  1.00  0.00     0.116 C 
BRANCH   2   3
ATOM      3  N   UNL A   1      33.143  29.764  24.617  1.00  0.00    -0.356 N 
ATOM      4  C   UNL A   1      33.113  28.927  23.369  1.00  0.00     0.220 C 
ATOM      5  O   UNL A   1      34.216  28.723  22.835  1.00  0.00    -0.275 OA
ATOM      6  H   UNL A   1      34.071  30.006  24.841  1.00  0.00     0.163 HD
BRANCH   4   7
ATOM      7  C   UNL A   1      31.684  28.183  22.527  1.00  0.00     0.100 C 
BRANCH   7   8
ATOM      8  C   UNL A   1      30.723  26.808  22.595  1.00  0.00     0.020 C 
BRANCH   8   9
ATOM      9  C   UNL A   1      30.215  25.733  23.657  1.00  0.00     0.101 C 
BRANCH   9  10
ATOM     10  C   UNL A   1      30.530  24.247  23.908  1.00  0.00     0.227 C 
ATOM     11  C   UNL A   1      31.234  24.502  26.180  1.00  0.00     0.324 C 
ATOM     12  O   UNL A   1      30.853  24.092  27.278  1.00  0.00    -0.248 OA
ATOM     13  N   UNL A   1      30.874  23.794  25.118  1.00  0.00    -0.278 N 
ATOM     14  H   UNL A   1      30.857  22.816  25.236  1.00  0.00     0.174 HD
ATOM     15  O   UNL A   1      30.485  23.429  22.986  1.00  0.00    -0.275 OA
BRANCH  11  16
ATOM     16  N   UNL A   1      32.128  25.563  26.015  1.00  0.00    -0.319 N 
BRANCH  16  17
ATOM     17  C   UNL A   1      31.197  26.889  26.597  1.00  0.00     0.118 C 
ATOM     18  C   UNL A   1      31.686  27.810  27.719  1.00  0.00     0.027 C 
ENDBRANCH  16  17
BRANCH  16  19
ATOM     19  C   UNL A   1      33.996  25.431  25.727  1.00  0.00     0.177 C 
BRANCH  19  20
ATOM     20  C   UNL A   1      35.194  23.904  25.729  1.00  0.00     0.060 A 
ATOM     21  C   UNL A   1      35.154  23.851  24.001  1.00  0.00     0.026 A 
ATOM     22  N   UNL A   1      34.608  22.453  26.673  1.00  0.00    -0.259 NA
ATOM     23  C   UNL A   1      34.140  22.712  23.203  1.00  0.00     0.004 A 
ATOM     24  C   UNL A   1      33.435  21.322  25.867  1.00  0.00     0.111 A 
ATOM     25  C   UNL A   1      33.250  21.460  24.079  1.00  0.00     0.020 A 
ENDBRANCH  19  20
ENDBRANCH  16  19
ENDBRANCH  11  16
ENDBRANCH   9  10
ENDBRANCH   8   9
ENDBRANCH   7   8
ENDBRANCH   4   7
ENDBRANCH   2   3
ENDBRANCH   1   2
BRANCH   1  26
ATOM     26  C   UNL A   1      34.966  31.036  27.622  1.00  0.00     0.002 C 
BRANCH  26  27
ATOM     27  C   UNL A   1      35.841  31.047  29.258  1.00  0.00     0.002 C 
BRANCH  27  28
ATOM     28  C   UNL A   1      36.120  32.410  30.009  1.00  0.00     0.021 C 
BRANCH  28  29
ATOM     29  C   UNL A   1      35.245  32.568  31.217  1.00  0.00     0.116 C 
BRANCH  29  30
ATOM     30  N   UNL A   1      34.893  33.959  31.322  1.00  0.00    -0.352 N 
ATOM     31  C   UNL A   1      35.234  34.763  32.369  1.00  0.00     0.251 C 
ATOM     32  H   UNL A   1      34.370  34.356  30.588  1.00  0.00     0.163 HD
ATOM     33  O   UNL A   1      34.638  35.805  32.600  1.00  0.00    -0.269 OA
BRANCH  31  34
ATOM     34  C   UNL A   1      36.342  34.286  33.213  1.00  0.00     0.039 A 
ATOM     35  C   UNL A   1      36.064  33.463  34.301  1.00  0.00     0.014 A 
ATOM     36  C   UNL A   1      37.658  34.572  32.830  1.00  0.00     0.014 A 
ATOM     37  C   UNL A   1      37.123  32.966  35.054  1.00  0.00     0.010 A 
ATOM     38  C   UNL A   1      38.711  34.005  33.529  1.00  0.00     0.010 A 
ATOM     39  C   UNL A   1      38.448  33.251  34.683  1.00  0.00    -0.014 A 
BRANCH  39  40
ATOM     40  C   UNL A   1      39.577  32.881  35.563  1.00  0.00     0.031 A 
ATOM     41  C   UNL A   1      39.944  33.806  36.691  1.00  0.00     0.074 A 
ATOM     42  C   UNL A   1      40.278  31.756  35.338  1.00  0.00     0.049 A 
ATOM     43  N   UNL A   1      40.930  33.715  37.542  1.00  0.00    -0.248 NA
ATOM     44  C   UNL A   1      39.106  35.006  36.872  1.00  0.00     0.031 C 
ATOM     45  C   UNL A   1      40.025  30.802  34.257  1.00  0.00     0.029 A 
ATOM     46  N   UNL A   1      41.361  31.237  35.998  1.00  0.00    -0.354 N 
ATOM     47  C   UNL A   1      40.856  34.859  38.326  1.00  0.00     0.074 A 
ATOM     48  C   UNL A   1      39.755  35.650  37.828  1.00  0.00     0.031 C 
ATOM     49  C   UNL A   1      40.928  29.810  34.331  1.00  0.00     0.029 A 
ATOM     50  C   UNL A   1      41.849  30.084  35.430  1.00  0.00     0.049 A 
ATOM     51  H   UNL A   1      41.752  31.649  36.802  1.00  0.00     0.167 HD
ATOM     52  C   UNL A   1      41.622  35.210  39.383  1.00  0.00     0.034 A 
ATOM     53  C   UNL A   1      42.934  29.350  35.746  1.00  0.00     0.034 A 
ATOM     54  C   UNL A   1      42.696  34.404  39.886  1.00  0.00     0.049 A 
ATOM     55  C   UNL A   1      43.786  29.774  36.914  1.00  0.00     0.074 A 
ATOM     56  C   UNL A   1      43.493  34.634  40.991  1.00  0.00     0.029 A 
ATOM     57  N   UNL A   1      43.138  33.227  39.306  1.00  0.00    -0.354 N 
ATOM     58  N   UNL A   1      43.636  30.801  37.713  1.00  0.00    -0.248 NA
ATOM     59  C   UNL A   1      44.939  28.923  37.243  1.00  0.00     0.031 C 
ATOM     60  C   UNL A   1      44.459  33.626  41.043  1.00  0.00     0.029 A 
ATOM     61  C   UNL A   1      44.214  32.729  40.016  1.00  0.00     0.049 A 
ATOM     62  H   UNL A   1      42.744  32.807  38.507  1.00  0.00     0.167 HD
ATOM     63  C   UNL A   1      44.643  30.694  38.666  1.00  0.00     0.074 A 
ATOM     64  C   UNL A   1      45.396  29.500  38.346  1.00  0.00     0.031 C 
ATOM     65  C   UNL A   1      44.917  31.510  39.712  1.00  0.00     0.034 A 
BRANCH  52  66
ATOM     66  C   UNL A   1      41.323  36.517  40.066  1.00  0.00     0.023 A 
ATOM     67  C   UNL A   1      40.357  36.579  41.092  1.00  0.00     0.012 A 
ATOM     68  C   UNL A   1      42.037  37.679  39.717  1.00  0.00     0.148 A 
ATOM     69  C   UNL A   1      40.080  37.787  41.732  1.00  0.00     0.002 A 
ATOM     70  C   UNL A   1      41.796  38.865  40.396  1.00  0.00     0.091 A 
ATOM     71  F   UNL A   1      42.934  37.603  38.724  1.00  0.00    -0.205 F 
ATOM     72  C   UNL A   1      40.807  38.925  41.393  1.00  0.00     0.022 A 
BRANCH  70  73
ATOM     73  S   UNL A   1      42.737  40.362  40.091  1.00  0.00     0.127 S 
ATOM     74  O   UNL A   1      41.671  41.340  39.874  1.00  0.00    -0.237 OA
ATOM     75  O   UNL A   1      43.467  40.524  41.348  1.00  0.00    -0.237 OA
ATOM     76  O   UNL A   1      43.571  40.087  38.930  1.00  0.00    -0.744 OA
ENDBRANCH  70  73
ENDBRANCH  52  66
BRANCH  53  77
ATOM     77  C   UNL A   1      43.269  28.134  34.956  1.00  0.00     0.023 A 
ATOM     78  C   UNL A   1      43.988  28.256  33.751  1.00  0.00     0.012 A 
ATOM     79  C   UNL A   1      42.883  26.855  35.400  1.00  0.00     0.148 A 
ATOM     80  C   UNL A   1      44.278  27.129  32.981  1.00  0.00     0.002 A 
ATOM     81  C   UNL A   1      43.226  25.732  34.659  1.00  0.00     0.091 A 
ATOM     82  F   UNL A   1      42.199  26.762  36.549  1.00  0.00    -0.205 F 
ATOM     83  C   UNL A   1      43.904  25.867  33.438  1.00  0.00     0.022 A 
BRANCH  81  84
ATOM     84  S   UNL A   1      42.895  24.062  35.230  1.00  0.00     0.127 S 
ATOM     85  O   UNL A   1      43.771  23.966  36.395  1.00  0.00    -0.237 OA
ATOM     86  O   UNL A   1      41.466  24.130  35.535  1.00  0.00    -0.237 OA
ATOM     87  O   UNL A   1      43.232  23.187  34.116  1.00  0.00    -0.744 OA
ENDBRANCH  81  84
ENDBRANCH  53  77
BRANCH  65  88
ATOM     88  C   UNL A   1      46.024  31.116  40.653  1.00  0.00     0.023 A 
ATOM     89  C   UNL A   1      47.324  31.626  40.482  1.00  0.00     0.012 A 
ATOM     90  C   UNL A   1      45.726  30.336  41.789  1.00  0.00     0.148 A 
ATOM     91  C   UNL A   1      48.317  31.351  41.422  1.00  0.00     0.002 A 
ATOM     92  C   UNL A   1      46.702  30.117  42.749  1.00  0.00     0.091 A 
ATOM     93  F   UNL A   1      44.482  29.853  41.920  1.00  0.00    -0.205 F 
ATOM     94  C   UNL A   1      48.001  30.613  42.562  1.00  0.00     0.022 A 
BRANCH  92  95
ATOM     95  S   UNL A   1      46.359  29.272  44.296  1.00  0.00     0.127 S 
ATOM     96  O   UNL A   1      47.662  29.329  44.959  1.00  0.00    -0.237 OA
ATOM     97  O   UNL A   1      45.334  30.128  44.891  1.00  0.00    -0.237 OA
ATOM     98  O   UNL A   1      45.908  27.935  43.939  1.00  0.00    -0.744 OA
ENDBRANCH  92  95
ENDBRANCH  65  88
ENDBRANCH  39  40
ENDBRANCH  31  34
ENDBRANCH  29  30
ENDBRANCH  28  29
ENDBRANCH  27  28
ENDBRANCH  26  27
ENDBRANCH   1  26
TORSDOF 23
ENDMDL
