MODEL 1
REMARK VINA RESULT:     -12.4      0.000      0.000
REMARK SMILES O=C(COc1ccc(Cl)c2ccccc12)N[C@@H](Cc1c[nH]c2ccccc12)C(=O)NCCCCCCNC(=O)c1ccc(-c2c3nc(c(-c4cccc(S(=O)(=O)[O-])c4F)c4ccc([nH]4)c(-c4cccc(S(=O)(=O)[O-])c4F)c4nc(c(-c5cccc(S(=O)(=O)[O-])c5F)c5ccc2[nH]5)C=C4)C=C3)cc1
REMARK SMILES IDX 33 1 32 2 31 3 30 4 28 5 29 6 17 8 16 9 1 10 2 11 3 13 4 14
REMARK SMILES IDX 5 15 6 16 15 17 7 18 10 19 14 20 8 21 11 22 13 23 9 24 12 25
REMARK SMILES IDX 18 26 19 27 20 28 27 29 21 30 22 31 26 32 23 34 25 35 24 36
REMARK SMILES IDX 34 37 35 38 36 39 37 40 38 41 39 43 40 44 41 45 102 46 42 47
REMARK SMILES IDX 101 48 43 49 44 50 45 51 95 52 46 53 100 54 94 55 96 56
REMARK SMILES IDX 47 57 99 58 93 59 92 60 48 62 80 63 60 64 79 65 61 66 64 67
REMARK SMILES IDX 78 68 97 69 62 70 63 71 77 73 98 74 65 75 49 76 50 77 58 78
REMARK SMILES IDX 51 79 53 80 59 81 52 82 54 83 55 84 56 85 57 86 81 87 82 88
REMARK SMILES IDX 90 89 83 90 85 91 91 92 84 93 86 94 87 95 88 96 89 97 66 98
REMARK SMILES IDX 67 99 75 100 68 101 70 102 76 103 69 104 71 105 72 106
REMARK SMILES IDX 73 107 74 108
REMARK H PARENT 30 7 16 12 21 33 37 42 96 61 64 72
REMARK Flexibility Score: inf
ROOT
ATOM      1  C   UNL A   1      31.436  29.922  25.665  1.00  0.00     0.002 C 
ENDROOT
BRANCH   1   2
ATOM      2  C   UNL A   1      32.650  29.291  26.338  1.00  0.00     0.021 C 
BRANCH   2   3
ATOM      3  C   UNL A   1      32.491  27.833  26.741  1.00  0.00     0.116 C 
BRANCH   3   4
ATOM      4  N   UNL A   1      31.164  27.288  26.598  1.00  0.00    -0.354 N 
ATOM      5  C   UNL A   1      30.755  26.298  25.745  1.00  0.00     0.242 C 
ATOM      6  O   UNL A   1      29.651  25.790  25.974  1.00  0.00    -0.273 OA
ATOM      7  H   UNL A   1      30.472  27.673  27.181  1.00  0.00     0.163 HD
BRANCH   5   8
ATOM      8  C   UNL A   1      31.596  25.837  24.518  1.00  0.00     0.175 C 
BRANCH   8   9
ATOM      9  N   UNL A   1      32.032  24.449  24.675  1.00  0.00    -0.341 N 
ATOM     10  O   UNL A   1      30.431  23.487  23.336  1.00  0.00    -0.271 OA
ATOM     11  C   UNL A   1      31.451  23.393  24.011  1.00  0.00     0.258 C 
ATOM     12  H   UNL A   1      32.780  24.262  25.286  1.00  0.00     0.164 HD
BRANCH  11  13
ATOM     13  C   UNL A   1      32.202  22.070  24.187  1.00  0.00     0.329 C 
BRANCH  13  14
ATOM     14  O   UNL A   1      32.875  21.920  25.440  1.00  0.00    -0.483 OA
BRANCH  14  15
ATOM     15  C   UNL A   1      34.089  21.273  25.373  1.00  0.00     0.128 A 
ATOM     16  C   UNL A   1      34.163  19.924  25.022  1.00  0.00     0.048 A 
ATOM     17  C   UNL A   1      35.269  22.041  25.536  1.00  0.00     0.025 A 
ATOM     18  C   UNL A   1      35.398  19.316  24.835  1.00  0.00     0.025 A 
ATOM     19  C   UNL A   1      36.536  21.425  25.341  1.00  0.00     0.004 A 
ATOM     20  C   UNL A   1      35.231  23.407  25.896  1.00  0.00     0.012 A 
ATOM     21  C   UNL A   1      36.571  20.054  24.986  1.00  0.00     0.049 A 
ATOM     22  C   UNL A   1      37.701  22.214  25.502  1.00  0.00     0.010 A 
ATOM     23  C   UNL A   1      36.397  24.157  26.059  1.00  0.00     0.001 A 
ATOM     24  Cl  UNL A   1      38.059  19.207  24.705  1.00  0.00    -0.084 Cl
ATOM     25  C   UNL A   1      37.632  23.561  25.856  1.00  0.00     0.001 A 
ENDBRANCH  14  15
ENDBRANCH  13  14
ENDBRANCH  11  13
ENDBRANCH   8   9
BRANCH   8  26
ATOM     26  C   UNL A   1      31.091  26.225  23.110  1.00  0.00     0.072 C 
BRANCH  26  27
ATOM     27  C   UNL A   1      30.923  27.679  22.745  1.00  0.00    -0.020 A 
ATOM     28  C   UNL A   1      31.901  28.609  22.432  1.00  0.00     0.087 A 
ATOM     29  C   UNL A   1      29.687  28.417  22.768  1.00  0.00     0.003 A 
ATOM     30  N   UNL A   1      31.289  29.757  22.001  1.00  0.00    -0.361 N 
ATOM     31  C   UNL A   1      29.937  29.671  22.211  1.00  0.00     0.046 A 
ATOM     32  C   UNL A   1      28.380  28.142  23.220  1.00  0.00     0.010 A 
ATOM     33  H   UNL A   1      31.751  30.527  21.601  1.00  0.00     0.166 HD
ATOM     34  C   UNL A   1      28.938  30.627  21.996  1.00  0.00     0.026 A 
ATOM     35  C   UNL A   1      27.383  29.120  23.090  1.00  0.00     0.001 A 
ATOM     36  C   UNL A   1      27.656  30.334  22.463  1.00  0.00     0.002 A 
ENDBRANCH  26  27
ENDBRANCH   8  26
ENDBRANCH   5   8
ENDBRANCH   3   4
ENDBRANCH   2   3
ENDBRANCH   1   2
BRANCH   1  37
ATOM     37  C   UNL A   1      31.118  31.365  26.074  1.00  0.00     0.002 C 
BRANCH  37  38
ATOM     38  C   UNL A   1      31.935  31.941  27.236  1.00  0.00     0.021 C 
BRANCH  38  39
ATOM     39  C   UNL A   1      32.826  33.133  26.892  1.00  0.00     0.116 C 
BRANCH  39  40
ATOM     40  N   UNL A   1      32.568  34.286  27.741  1.00  0.00    -0.352 N 
ATOM     41  C   UNL A   1      33.138  34.650  28.934  1.00  0.00     0.251 C 
ATOM     42  H   UNL A   1      31.875  34.901  27.407  1.00  0.00     0.163 HD
ATOM     43  O   UNL A   1      32.652  35.575  29.586  1.00  0.00    -0.269 OA
BRANCH  41  44
ATOM     44  C   UNL A   1      34.321  33.929  29.453  1.00  0.00     0.039 A 
ATOM     45  C   UNL A   1      35.594  34.350  29.061  1.00  0.00     0.014 A 
ATOM     46  C   UNL A   1      34.180  32.833  30.310  1.00  0.00     0.014 A 
ATOM     47  C   UNL A   1      36.727  33.722  29.585  1.00  0.00     0.010 A 
ATOM     48  C   UNL A   1      35.310  32.254  30.884  1.00  0.00     0.010 A 
ATOM     49  C   UNL A   1      36.595  32.694  30.533  1.00  0.00    -0.014 A 
BRANCH  49  50
ATOM     50  C   UNL A   1      37.785  32.101  31.200  1.00  0.00     0.031 A 
ATOM     51  C   UNL A   1      38.539  30.970  30.555  1.00  0.00     0.074 A 
ATOM     52  C   UNL A   1      38.126  32.517  32.436  1.00  0.00     0.049 A 
ATOM     53  N   UNL A   1      39.546  30.279  31.025  1.00  0.00    -0.248 NA
ATOM     54  C   UNL A   1      38.092  30.543  29.219  1.00  0.00     0.031 C 
ATOM     55  C   UNL A   1      37.431  33.555  33.200  1.00  0.00     0.029 A 
ATOM     56  N   UNL A   1      39.120  32.094  33.285  1.00  0.00    -0.354 N 
ATOM     57  C   UNL A   1      39.826  29.313  30.067  1.00  0.00     0.074 A 
ATOM     58  C   UNL A   1      38.869  29.493  28.996  1.00  0.00     0.031 C 
ATOM     59  C   UNL A   1      38.013  33.684  34.402  1.00  0.00     0.029 A 
ATOM     60  C   UNL A   1      39.096  32.712  34.513  1.00  0.00     0.049 A 
ATOM     61  H   UNL A   1      39.786  31.412  33.037  1.00  0.00     0.167 HD
ATOM     62  C   UNL A   1      40.803  28.375  30.068  1.00  0.00     0.034 A 
ATOM     63  C   UNL A   1      39.842  32.505  35.617  1.00  0.00     0.034 A 
ATOM     64  C   UNL A   1      41.776  28.223  31.117  1.00  0.00     0.049 A 
ATOM     65  C   UNL A   1      40.931  31.467  35.584  1.00  0.00     0.074 A 
ATOM     66  C   UNL A   1      42.867  27.373  31.157  1.00  0.00     0.029 A 
ATOM     67  N   UNL A   1      41.765  28.917  32.316  1.00  0.00    -0.354 N 
ATOM     68  N   UNL A   1      41.290  30.682  34.599  1.00  0.00    -0.248 NA
ATOM     69  C   UNL A   1      41.736  31.306  36.804  1.00  0.00     0.031 C 
ATOM     70  C   UNL A   1      43.492  27.522  32.400  1.00  0.00     0.029 A 
ATOM     71  C   UNL A   1      42.813  28.495  33.116  1.00  0.00     0.049 A 
ATOM     72  H   UNL A   1      41.110  29.609  32.562  1.00  0.00     0.167 HD
ATOM     73  C   UNL A   1      42.378  29.954  35.068  1.00  0.00     0.074 A 
ATOM     74  C   UNL A   1      42.636  30.411  36.417  1.00  0.00     0.031 C 
ATOM     75  C   UNL A   1      43.089  28.985  34.442  1.00  0.00     0.034 A 
BRANCH  62  76
ATOM     76  C   UNL A   1      40.898  27.452  28.881  1.00  0.00     0.023 A 
ATOM     77  C   UNL A   1      39.988  26.384  28.747  1.00  0.00     0.012 A 
ATOM     78  C   UNL A   1      41.840  27.688  27.859  1.00  0.00     0.148 A 
ATOM     79  C   UNL A   1      40.033  25.547  27.634  1.00  0.00     0.002 A 
ATOM     80  C   UNL A   1      41.848  26.879  26.730  1.00  0.00     0.091 A 
ATOM     81  F   UNL A   1      42.709  28.698  28.012  1.00  0.00    -0.205 F 
ATOM     82  C   UNL A   1      40.954  25.801  26.621  1.00  0.00     0.022 A 
BRANCH  80  83
ATOM     83  S   UNL A   1      42.940  27.172  25.334  1.00  0.00     0.127 S 
ATOM     84  O   UNL A   1      42.861  25.894  24.627  1.00  0.00    -0.237 OA
ATOM     85  O   UNL A   1      42.279  28.287  24.656  1.00  0.00    -0.237 OA
ATOM     86  O   UNL A   1      44.243  27.489  25.902  1.00  0.00    -0.744 OA
ENDBRANCH  80  83
ENDBRANCH  62  76
BRANCH  63  87
ATOM     87  C   UNL A   1      39.598  33.316  36.844  1.00  0.00     0.023 A 
ATOM     88  C   UNL A   1      40.135  34.614  36.941  1.00  0.00     0.012 A 
ATOM     89  C   UNL A   1      38.817  32.815  37.903  1.00  0.00     0.148 A 
ATOM     90  C   UNL A   1      39.929  35.384  38.087  1.00  0.00     0.002 A 
ATOM     91  C   UNL A   1      38.563  33.610  39.014  1.00  0.00     0.091 A 
ATOM     92  F   UNL A   1      38.325  31.572  37.796  1.00  0.00    -0.205 F 
ATOM     93  C   UNL A   1      39.135  34.886  39.118  1.00  0.00     0.022 A 
BRANCH  91  94
ATOM     94  S   UNL A   1      37.436  33.105  40.317  1.00  0.00     0.127 S 
ATOM     95  O   UNL A   1      36.182  32.953  39.586  1.00  0.00    -0.237 OA
ATOM     96  O   UNL A   1      38.043  31.854  40.771  1.00  0.00    -0.237 OA
ATOM     97  O   UNL A   1      37.470  34.178  41.302  1.00  0.00    -0.744 OA
ENDBRANCH  91  94
ENDBRANCH  63  87
BRANCH  75  98
ATOM     98  C   UNL A   1      44.237  28.359  35.192  1.00  0.00     0.023 A 
ATOM     99  C   UNL A   1      45.550  28.821  34.977  1.00  0.00     0.012 A 
ATOM    100  C   UNL A   1      44.000  27.377  36.174  1.00  0.00     0.148 A 
ATOM    101  C   UNL A   1      46.615  28.295  35.708  1.00  0.00     0.002 A 
ATOM    102  C   UNL A   1      45.059  26.895  36.935  1.00  0.00     0.091 A 
ATOM    103  F   UNL A   1      42.745  26.942  36.353  1.00  0.00    -0.205 F 
ATOM    104  C   UNL A   1      46.368  27.343  36.695  1.00  0.00     0.022 A 
BRANCH 102 105
ATOM    105  S   UNL A   1      44.828  25.740  38.292  1.00  0.00     0.127 S 
ATOM    106  O   UNL A   1      46.195  25.581  38.784  1.00  0.00    -0.237 OA
ATOM    107  O   UNL A   1      43.941  26.488  39.184  1.00  0.00    -0.237 OA
ATOM    108  O   UNL A   1      44.235  24.545  37.709  1.00  0.00    -0.744 OA
ENDBRANCH 102 105
ENDBRANCH  75  98
ENDBRANCH  49  50
ENDBRANCH  41  44
ENDBRANCH  39  40
ENDBRANCH  38  39
ENDBRANCH  37  38
ENDBRANCH   1  37
TORSDOF 22
ENDMDL
MODEL 2
REMARK VINA RESULT:     -11.4      4.816      8.880
REMARK SMILES O=C(COc1ccc(Cl)c2ccccc12)N[C@@H](Cc1c[nH]c2ccccc12)C(=O)NCCCCCCNC(=O)c1ccc(-c2c3nc(c(-c4cccc(S(=O)(=O)[O-])c4F)c4ccc([nH]4)c(-c4cccc(S(=O)(=O)[O-])c4F)c4nc(c(-c5cccc(S(=O)(=O)[O-])c5F)c5ccc2[nH]5)C=C4)C=C3)cc1
REMARK SMILES IDX 33 1 32 2 31 3 30 4 28 5 29 6 17 8 16 9 1 10 2 11 3 13 4 14
REMARK SMILES IDX 5 15 6 16 15 17 7 18 10 19 14 20 8 21 11 22 13 23 9 24 12 25
REMARK SMILES IDX 18 26 19 27 20 28 27 29 21 30 22 31 26 32 23 34 25 35 24 36
REMARK SMILES IDX 34 37 35 38 36 39 37 40 38 41 39 43 40 44 41 45 102 46 42 47
REMARK SMILES IDX 101 48 43 49 44 50 45 51 95 52 46 53 100 54 94 55 96 56
REMARK SMILES IDX 47 57 99 58 93 59 92 60 48 62 80 63 60 64 79 65 61 66 64 67
REMARK SMILES IDX 78 68 97 69 62 70 63 71 77 73 98 74 65 75 49 76 50 77 58 78
REMARK SMILES IDX 51 79 53 80 59 81 52 82 54 83 55 84 56 85 57 86 81 87 82 88
REMARK SMILES IDX 90 89 83 90 85 91 91 92 84 93 86 94 87 95 88 96 89 97 66 98
REMARK SMILES IDX 67 99 75 100 68 101 70 102 76 103 69 104 71 105 72 106
REMARK SMILES IDX 73 107 74 108
REMARK H PARENT 30 7 16 12 21 33 37 42 96 61 64 72
REMARK Flexibility Score: inf
ROOT
ATOM      1  C   UNL A   1      35.717  22.977  26.133  1.00  0.00     0.002 C 
ENDROOT
BRANCH   1   2
ATOM      2  C   UNL A   1      35.650  23.945  24.956  1.00  0.00     0.021 C 
BRANCH   2   3
ATOM      3  C   UNL A   1      34.398  24.806  24.888  1.00  0.00     0.116 C 
BRANCH   3   4
ATOM      4  N   UNL A   1      33.363  24.477  25.835  1.00  0.00    -0.354 N 
ATOM      5  C   UNL A   1      32.139  25.075  25.976  1.00  0.00     0.242 C 
ATOM      6  O   UNL A   1      31.300  24.468  26.653  1.00  0.00    -0.273 OA
ATOM      7  H   UNL A   1      33.559  23.737  26.453  1.00  0.00     0.163 HD
BRANCH   5   8
ATOM      8  C   UNL A   1      31.800  26.465  25.360  1.00  0.00     0.175 C 
BRANCH   8   9
ATOM      9  N   UNL A   1      32.770  27.475  25.785  1.00  0.00    -0.341 N 
ATOM     10  O   UNL A   1      31.420  28.559  27.296  1.00  0.00    -0.271 OA
ATOM     11  C   UNL A   1      32.518  28.398  26.773  1.00  0.00     0.258 C 
ATOM     12  H   UNL A   1      33.648  27.493  25.341  1.00  0.00     0.164 HD
BRANCH  11  13
ATOM     13  C   UNL A   1      33.748  29.218  27.174  1.00  0.00     0.329 C 
BRANCH  13  14
ATOM     14  O   UNL A   1      33.545  30.633  27.204  1.00  0.00    -0.483 OA
BRANCH  14  15
ATOM     15  C   UNL A   1      34.595  31.359  27.722  1.00  0.00     0.128 A 
ATOM     16  C   UNL A   1      35.879  30.814  27.788  1.00  0.00     0.048 A 
ATOM     17  C   UNL A   1      34.370  32.716  28.063  1.00  0.00     0.025 A 
ATOM     18  C   UNL A   1      36.952  31.598  28.194  1.00  0.00     0.025 A 
ATOM     19  C   UNL A   1      35.466  33.524  28.475  1.00  0.00     0.004 A 
ATOM     20  C   UNL A   1      33.083  33.298  28.014  1.00  0.00     0.012 A 
ATOM     21  C   UNL A   1      36.753  32.936  28.529  1.00  0.00     0.049 A 
ATOM     22  C   UNL A   1      35.218  34.879  28.803  1.00  0.00     0.010 A 
ATOM     23  C   UNL A   1      32.867  34.635  28.354  1.00  0.00     0.001 A 
ATOM     24  Cl  UNL A   1      38.162  33.833  28.999  1.00  0.00    -0.084 Cl
ATOM     25  C   UNL A   1      33.937  35.427  28.743  1.00  0.00     0.001 A 
ENDBRANCH  14  15
ENDBRANCH  13  14
ENDBRANCH  11  13
ENDBRANCH   8   9
BRANCH   8  26
ATOM     26  C   UNL A   1      31.389  26.514  23.872  1.00  0.00     0.072 C 
BRANCH  26  27
ATOM     27  C   UNL A   1      31.181  27.844  23.191  1.00  0.00    -0.020 A 
ATOM     28  C   UNL A   1      32.135  28.756  22.769  1.00  0.00     0.087 A 
ATOM     29  C   UNL A   1      29.913  28.480  22.950  1.00  0.00     0.003 A 
ATOM     30  N   UNL A   1      31.509  29.742  22.053  1.00  0.00    -0.361 N 
ATOM     31  C   UNL A   1      30.149  29.605  22.161  1.00  0.00     0.046 A 
ATOM     32  C   UNL A   1      28.583  28.211  23.339  1.00  0.00     0.010 A 
ATOM     33  H   UNL A   1      31.967  30.444  21.537  1.00  0.00     0.166 HD
ATOM     34  C   UNL A   1      29.127  30.420  21.663  1.00  0.00     0.026 A 
ATOM     35  C   UNL A   1      27.554  29.065  22.919  1.00  0.00     0.001 A 
ATOM     36  C   UNL A   1      27.822  30.138  22.072  1.00  0.00     0.002 A 
ENDBRANCH  26  27
ENDBRANCH   8  26
ENDBRANCH   5   8
ENDBRANCH   3   4
ENDBRANCH   2   3
ENDBRANCH   1   2
BRANCH   1  37
ATOM     37  C   UNL A   1      35.644  21.487  25.780  1.00  0.00     0.002 C 
BRANCH  37  38
ATOM     38  C   UNL A   1      36.834  20.911  25.004  1.00  0.00     0.021 C 
BRANCH  38  39
ATOM     39  C   UNL A   1      38.201  21.491  25.360  1.00  0.00     0.116 C 
BRANCH  39  40
ATOM     40  N   UNL A   1      39.003  20.580  26.161  1.00  0.00    -0.352 N 
ATOM     41  C   UNL A   1      40.088  20.830  26.963  1.00  0.00     0.251 C 
ATOM     42  H   UNL A   1      38.726  19.636  26.121  1.00  0.00     0.163 HD
ATOM     43  O   UNL A   1      40.740  19.889  27.419  1.00  0.00    -0.269 OA
BRANCH  41  44
ATOM     44  C   UNL A   1      40.491  22.219  27.270  1.00  0.00     0.039 A 
ATOM     45  C   UNL A   1      41.505  22.437  28.206  1.00  0.00     0.014 A 
ATOM     46  C   UNL A   1      39.867  23.306  26.651  1.00  0.00     0.014 A 
ATOM     47  C   UNL A   1      41.944  23.738  28.468  1.00  0.00     0.010 A 
ATOM     48  C   UNL A   1      40.352  24.595  26.861  1.00  0.00     0.010 A 
ATOM     49  C   UNL A   1      41.398  24.826  27.767  1.00  0.00    -0.014 A 
BRANCH  49  50
ATOM     50  C   UNL A   1      41.938  26.201  27.935  1.00  0.00     0.031 A 
ATOM     51  C   UNL A   1      43.274  26.576  27.351  1.00  0.00     0.074 A 
ATOM     52  C   UNL A   1      41.270  27.086  28.701  1.00  0.00     0.049 A 
ATOM     53  N   UNL A   1      43.936  27.698  27.466  1.00  0.00    -0.248 NA
ATOM     54  C   UNL A   1      43.966  25.551  26.553  1.00  0.00     0.031 C 
ATOM     55  C   UNL A   1      40.001  26.823  29.384  1.00  0.00     0.029 A 
ATOM     56  N   UNL A   1      41.579  28.374  29.068  1.00  0.00    -0.354 N 
ATOM     57  C   UNL A   1      45.137  27.502  26.794  1.00  0.00     0.074 A 
ATOM     58  C   UNL A   1      45.121  26.145  26.291  1.00  0.00     0.031 C 
ATOM     59  C   UNL A   1      39.644  27.908  30.087  1.00  0.00     0.029 A 
ATOM     60  C   UNL A   1      40.676  28.930  29.942  1.00  0.00     0.049 A 
ATOM     61  H   UNL A   1      42.373  28.852  28.735  1.00  0.00     0.167 HD
ATOM     62  C   UNL A   1      46.151  28.378  26.596  1.00  0.00     0.034 A 
ATOM     63  C   UNL A   1      40.685  30.118  30.579  1.00  0.00     0.034 A 
ATOM     64  C   UNL A   1      46.147  29.738  27.065  1.00  0.00     0.049 A 
ATOM     65  C   UNL A   1      41.816  31.078  30.328  1.00  0.00     0.074 A 
ATOM     66  C   UNL A   1      47.080  30.731  26.823  1.00  0.00     0.029 A 
ATOM     67  N   UNL A   1      45.180  30.291  27.889  1.00  0.00    -0.354 N 
ATOM     68  N   UNL A   1      42.859  30.935  29.547  1.00  0.00    -0.248 NA
ATOM     69  C   UNL A   1      41.759  32.373  31.022  1.00  0.00     0.031 C 
ATOM     70  C   UNL A   1      46.698  31.873  27.536  1.00  0.00     0.029 A 
ATOM     71  C   UNL A   1      45.506  31.602  28.189  1.00  0.00     0.049 A 
ATOM     72  H   UNL A   1      44.377  29.821  28.212  1.00  0.00     0.167 HD
ATOM     73  C   UNL A   1      43.566  32.129  29.633  1.00  0.00     0.074 A 
ATOM     74  C   UNL A   1      42.820  32.994  30.521  1.00  0.00     0.031 C 
ATOM     75  C   UNL A   1      44.736  32.471  29.040  1.00  0.00     0.034 A 
BRANCH  62  76
ATOM     76  C   UNL A   1      47.345  27.910  25.806  1.00  0.00     0.023 A 
ATOM     77  C   UNL A   1      48.400  27.241  26.459  1.00  0.00     0.012 A 
ATOM     78  C   UNL A   1      47.388  28.064  24.406  1.00  0.00     0.148 A 
ATOM     79  C   UNL A   1      49.493  26.762  25.738  1.00  0.00     0.002 A 
ATOM     80  C   UNL A   1      48.457  27.542  23.687  1.00  0.00     0.091 A 
ATOM     81  F   UNL A   1      46.384  28.719  23.804  1.00  0.00    -0.205 F 
ATOM     82  C   UNL A   1      49.515  26.902  24.353  1.00  0.00     0.022 A 
BRANCH  80  83
ATOM     83  S   UNL A   1      48.541  27.599  21.894  1.00  0.00     0.127 S 
ATOM     84  O   UNL A   1      49.729  28.426  21.683  1.00  0.00    -0.237 OA
ATOM     85  O   UNL A   1      48.710  26.188  21.550  1.00  0.00    -0.237 OA
ATOM     86  O   UNL A   1      47.286  28.189  21.450  1.00  0.00    -0.744 OA
ENDBRANCH  80  83
ENDBRANCH  62  76
BRANCH  63  87
ATOM     87  C   UNL A   1      39.571  30.477  31.502  1.00  0.00     0.023 A 
ATOM     88  C   UNL A   1      38.257  30.578  31.006  1.00  0.00     0.012 A 
ATOM     89  C   UNL A   1      39.805  30.697  32.873  1.00  0.00     0.148 A 
ATOM     90  C   UNL A   1      37.203  30.925  31.851  1.00  0.00     0.002 A 
ATOM     91  C   UNL A   1      38.742  30.981  33.721  1.00  0.00     0.091 A 
ATOM     92  F   UNL A   1      41.065  30.608  33.324  1.00  0.00    -0.205 F 
ATOM     93  C   UNL A   1      37.443  31.117  33.210  1.00  0.00     0.022 A 
BRANCH  91  94
ATOM     94  S   UNL A   1      38.941  31.098  35.502  1.00  0.00     0.127 S 
ATOM     95  O   UNL A   1      39.967  32.130  35.621  1.00  0.00    -0.237 OA
ATOM     96  O   UNL A   1      37.601  31.506  35.928  1.00  0.00    -0.237 OA
ATOM     97  O   UNL A   1      39.328  29.764  35.942  1.00  0.00    -0.744 OA
ENDBRANCH  91  94
ENDBRANCH  63  87
BRANCH  75  98
ATOM     98  C   UNL A   1      45.282  33.850  29.307  1.00  0.00     0.023 A 
ATOM     99  C   UNL A   1      46.192  34.052  30.364  1.00  0.00     0.012 A 
ATOM    100  C   UNL A   1      44.961  34.925  28.454  1.00  0.00     0.148 A 
ATOM    101  C   UNL A   1      46.753  35.310  30.585  1.00  0.00     0.002 A 
ATOM    102  C   UNL A   1      45.564  36.162  28.649  1.00  0.00     0.091 A 
ATOM    103  F   UNL A   1      44.083  34.714  27.464  1.00  0.00    -0.205 F 
ATOM    104  C   UNL A   1      46.449  36.360  29.721  1.00  0.00     0.022 A 
BRANCH 102 105
ATOM    105  S   UNL A   1      45.311  37.547  27.534  1.00  0.00     0.127 S 
ATOM    106  O   UNL A   1      45.759  38.674  28.351  1.00  0.00    -0.237 OA
ATOM    107  O   UNL A   1      46.198  37.211  26.420  1.00  0.00    -0.237 OA
ATOM    108  O   UNL A   1      43.893  37.547  27.203  1.00  0.00    -0.744 OA
ENDBRANCH 102 105
ENDBRANCH  75  98
ENDBRANCH  49  50
ENDBRANCH  41  44
ENDBRANCH  39  40
ENDBRANCH  38  39
ENDBRANCH  37  38
ENDBRANCH   1  37
TORSDOF 22
ENDMDL
MODEL 3
REMARK VINA RESULT:     -11.3      1.805      2.111
REMARK SMILES O=C(COc1ccc(Cl)c2ccccc12)N[C@@H](Cc1c[nH]c2ccccc12)C(=O)NCCCCCCNC(=O)c1ccc(-c2c3nc(c(-c4cccc(S(=O)(=O)[O-])c4F)c4ccc([nH]4)c(-c4cccc(S(=O)(=O)[O-])c4F)c4nc(c(-c5cccc(S(=O)(=O)[O-])c5F)c5ccc2[nH]5)C=C4)C=C3)cc1
REMARK SMILES IDX 33 1 32 2 31 3 30 4 28 5 29 6 17 8 16 9 1 10 2 11 3 13 4 14
REMARK SMILES IDX 5 15 6 16 15 17 7 18 10 19 14 20 8 21 11 22 13 23 9 24 12 25
REMARK SMILES IDX 18 26 19 27 20 28 27 29 21 30 22 31 26 32 23 34 25 35 24 36
REMARK SMILES IDX 34 37 35 38 36 39 37 40 38 41 39 43 40 44 41 45 102 46 42 47
REMARK SMILES IDX 101 48 43 49 44 50 45 51 95 52 46 53 100 54 94 55 96 56
REMARK SMILES IDX 47 57 99 58 93 59 92 60 48 62 80 63 60 64 79 65 61 66 64 67
REMARK SMILES IDX 78 68 97 69 62 70 63 71 77 73 98 74 65 75 49 76 50 77 58 78
REMARK SMILES IDX 51 79 53 80 59 81 52 82 54 83 55 84 56 85 57 86 81 87 82 88
REMARK SMILES IDX 90 89 83 90 85 91 91 92 84 93 86 94 87 95 88 96 89 97 66 98
REMARK SMILES IDX 67 99 75 100 68 101 70 102 76 103 69 104 71 105 72 106
REMARK SMILES IDX 73 107 74 108
REMARK H PARENT 30 7 16 12 21 33 37 42 96 61 64 72
REMARK Flexibility Score: inf
ROOT
ATOM      1  C   UNL A   1      31.590  30.380  25.860  1.00  0.00     0.002 C 
ENDROOT
BRANCH   1   2
ATOM      2  C   UNL A   1      32.942  29.769  26.215  1.00  0.00     0.021 C 
BRANCH   2   3
ATOM      3  C   UNL A   1      32.895  28.354  26.769  1.00  0.00     0.116 C 
BRANCH   3   4
ATOM      4  N   UNL A   1      31.599  27.724  26.760  1.00  0.00    -0.354 N 
ATOM      5  C   UNL A   1      31.237  26.566  26.125  1.00  0.00     0.242 C 
ATOM      6  O   UNL A   1      30.164  26.056  26.469  1.00  0.00    -0.273 OA
ATOM      7  H   UNL A   1      30.891  28.180  27.270  1.00  0.00     0.163 HD
BRANCH   5   8
ATOM      8  C   UNL A   1      32.092  25.917  24.995  1.00  0.00     0.175 C 
BRANCH   8   9
ATOM      9  N   UNL A   1      32.458  24.544  25.342  1.00  0.00    -0.341 N 
ATOM     10  O   UNL A   1      30.610  23.513  24.443  1.00  0.00    -0.271 OA
ATOM     11  C   UNL A   1      31.716  23.446  24.973  1.00  0.00     0.258 C 
ATOM     12  H   UNL A   1      33.279  24.398  25.864  1.00  0.00     0.164 HD
BRANCH  11  13
ATOM     13  C   UNL A   1      32.400  22.111  25.280  1.00  0.00     0.329 C 
BRANCH  13  14
ATOM     14  O   UNL A   1      33.153  21.557  24.198  1.00  0.00    -0.483 OA
BRANCH  14  15
ATOM     15  C   UNL A   1      34.324  20.932  24.567  1.00  0.00     0.128 A 
ATOM     16  C   UNL A   1      34.433  19.540  24.538  1.00  0.00     0.048 A 
ATOM     17  C   UNL A   1      35.456  21.738  24.847  1.00  0.00     0.025 A 
ATOM     18  C   UNL A   1      35.655  18.929  24.790  1.00  0.00     0.025 A 
ATOM     19  C   UNL A   1      36.710  21.117  25.100  1.00  0.00     0.004 A 
ATOM     20  C   UNL A   1      35.380  23.149  24.889  1.00  0.00     0.012 A 
ATOM     21  C   UNL A   1      36.782  19.703  25.062  1.00  0.00     0.049 A 
ATOM     22  C   UNL A   1      37.829  21.943  25.369  1.00  0.00     0.010 A 
ATOM     23  C   UNL A   1      36.498  23.937  25.169  1.00  0.00     0.001 A 
ATOM     24  Cl  UNL A   1      38.263  18.842  25.337  1.00  0.00    -0.084 Cl
ATOM     25  C   UNL A   1      37.724  23.333  25.403  1.00  0.00     0.001 A 
ENDBRANCH  14  15
ENDBRANCH  13  14
ENDBRANCH  11  13
ENDBRANCH   8   9
BRANCH   8  26
ATOM     26  C   UNL A   1      31.647  26.144  23.533  1.00  0.00     0.072 C 
BRANCH  26  27
ATOM     27  C   UNL A   1      31.367  27.542  23.039  1.00  0.00    -0.020 A 
ATOM     28  C   UNL A   1      32.272  28.535  22.702  1.00  0.00     0.087 A 
ATOM     29  C   UNL A   1      30.069  28.155  22.934  1.00  0.00     0.003 A 
ATOM     30  N   UNL A   1      31.583  29.581  22.145  1.00  0.00    -0.361 N 
ATOM     31  C   UNL A   1      30.235  29.380  22.288  1.00  0.00     0.046 A 
ATOM     32  C   UNL A   1      28.767  27.790  23.338  1.00  0.00     0.010 A 
ATOM     33  H   UNL A   1      31.996  30.359  21.707  1.00  0.00     0.166 HD
ATOM     34  C   UNL A   1      29.166  30.214  21.941  1.00  0.00     0.026 A 
ATOM     35  C   UNL A   1      27.694  28.653  23.073  1.00  0.00     0.001 A 
ATOM     36  C   UNL A   1      27.891  29.834  22.362  1.00  0.00     0.002 A 
ENDBRANCH  26  27
ENDBRANCH   8  26
ENDBRANCH   5   8
ENDBRANCH   3   4
ENDBRANCH   2   3
ENDBRANCH   1   2
BRANCH   1  37
ATOM     37  C   UNL A   1      31.358  31.817  26.342  1.00  0.00     0.002 C 
BRANCH  37  38
ATOM     38  C   UNL A   1      32.182  32.273  27.551  1.00  0.00     0.021 C 
BRANCH  38  39
ATOM     39  C   UNL A   1      33.083  33.484  27.320  1.00  0.00     0.116 C 
BRANCH  39  40
ATOM     40  N   UNL A   1      32.825  34.562  28.262  1.00  0.00    -0.352 N 
ATOM     41  C   UNL A   1      33.393  34.822  29.484  1.00  0.00     0.251 C 
ATOM     42  H   UNL A   1      32.133  35.203  27.981  1.00  0.00     0.163 HD
ATOM     43  O   UNL A   1      32.906  35.689  30.211  1.00  0.00    -0.269 OA
BRANCH  41  44
ATOM     44  C   UNL A   1      34.574  34.058  29.941  1.00  0.00     0.039 A 
ATOM     45  C   UNL A   1      35.842  34.448  29.502  1.00  0.00     0.014 A 
ATOM     46  C   UNL A   1      34.436  32.954  30.787  1.00  0.00     0.014 A 
ATOM     47  C   UNL A   1      36.976  33.778  29.969  1.00  0.00     0.010 A 
ATOM     48  C   UNL A   1      35.571  32.332  31.305  1.00  0.00     0.010 A 
ATOM     49  C   UNL A   1      36.853  32.740  30.907  1.00  0.00    -0.014 A 
BRANCH  49  50
ATOM     50  C   UNL A   1      38.051  32.102  31.514  1.00  0.00     0.031 A 
ATOM     51  C   UNL A   1      38.746  30.962  30.819  1.00  0.00     0.074 A 
ATOM     52  C   UNL A   1      38.452  32.483  32.743  1.00  0.00     0.049 A 
ATOM     53  N   UNL A   1      39.751  30.235  31.236  1.00  0.00    -0.248 NA
ATOM     54  C   UNL A   1      38.235  30.574  29.495  1.00  0.00     0.031 C 
ATOM     55  C   UNL A   1      37.817  33.525  33.554  1.00  0.00     0.029 A 
ATOM     56  N   UNL A   1      39.467  32.016  33.544  1.00  0.00    -0.354 N 
ATOM     57  C   UNL A   1      39.965  29.280  30.249  1.00  0.00     0.074 A 
ATOM     58  C   UNL A   1      38.972  29.508  29.221  1.00  0.00     0.031 C 
ATOM     59  C   UNL A   1      38.451  33.614  34.733  1.00  0.00     0.029 A 
ATOM     60  C   UNL A   1      39.509  32.611  34.783  1.00  0.00     0.049 A 
ATOM     61  H   UNL A   1      40.103  31.322  33.256  1.00  0.00     0.167 HD
ATOM     62  C   UNL A   1      40.915  28.316  30.193  1.00  0.00     0.034 A 
ATOM     63  C   UNL A   1      40.292  32.362  35.852  1.00  0.00     0.034 A 
ATOM     64  C   UNL A   1      41.924  28.117  31.199  1.00  0.00     0.049 A 
ATOM     65  C   UNL A   1      41.349  31.295  35.756  1.00  0.00     0.074 A 
ATOM     66  C   UNL A   1      42.991  27.236  31.180  1.00  0.00     0.029 A 
ATOM     67  N   UNL A   1      41.980  28.787  32.410  1.00  0.00    -0.354 N 
ATOM     68  N   UNL A   1      41.646  30.519  34.743  1.00  0.00    -0.248 NA
ATOM     69  C   UNL A   1      42.197  31.088  36.939  1.00  0.00     0.031 C 
ATOM     70  C   UNL A   1      43.669  27.344  32.399  1.00  0.00     0.029 A 
ATOM     71  C   UNL A   1      43.046  28.321  33.160  1.00  0.00     0.049 A 
ATOM     72  H   UNL A   1      41.355  29.493  32.696  1.00  0.00     0.167 HD
ATOM     73  C   UNL A   1      42.731  29.753  35.155  1.00  0.00     0.074 A 
ATOM     74  C   UNL A   1      43.055  30.176  36.500  1.00  0.00     0.031 C 
ATOM     75  C   UNL A   1      43.389  28.777  34.482  1.00  0.00     0.034 A 
BRANCH  62  76
ATOM     76  C   UNL A   1      40.936  27.415  28.986  1.00  0.00     0.023 A 
ATOM     77  C   UNL A   1      39.999  26.368  28.875  1.00  0.00     0.012 A 
ATOM     78  C   UNL A   1      41.836  27.651  27.928  1.00  0.00     0.148 A 
ATOM     79  C   UNL A   1      39.976  25.552  27.746  1.00  0.00     0.002 A 
ATOM     80  C   UNL A   1      41.776  26.863  26.784  1.00  0.00     0.091 A 
ATOM     81  F   UNL A   1      42.733  28.639  28.060  1.00  0.00    -0.205 F 
ATOM     82  C   UNL A   1      40.855  25.806  26.697  1.00  0.00     0.022 A 
BRANCH  80  83
ATOM     83  S   UNL A   1      42.810  27.160  25.346  1.00  0.00     0.127 S 
ATOM     84  O   UNL A   1      44.128  27.321  25.961  1.00  0.00    -0.237 OA
ATOM     85  O   UNL A   1      42.638  25.924  24.585  1.00  0.00    -0.237 OA
ATOM     86  O   UNL A   1      42.274  28.352  24.704  1.00  0.00    -0.744 OA
ENDBRANCH  80  83
ENDBRANCH  62  76
BRANCH  63  87
ATOM     87  C   UNL A   1      40.120  33.155  37.102  1.00  0.00     0.023 A 
ATOM     88  C   UNL A   1      39.113  32.800  38.022  1.00  0.00     0.012 A 
ATOM     89  C   UNL A   1      40.963  34.244  37.394  1.00  0.00     0.148 A 
ATOM     90  C   UNL A   1      38.928  33.538  39.191  1.00  0.00     0.002 A 
ATOM     91  C   UNL A   1      40.813  34.936  38.590  1.00  0.00     0.091 A 
ATOM     92  F   UNL A   1      41.906  34.573  36.500  1.00  0.00    -0.205 F 
ATOM     93  C   UNL A   1      39.783  34.599  39.480  1.00  0.00     0.022 A 
BRANCH  91  94
ATOM     94  S   UNL A   1      41.959  36.218  39.105  1.00  0.00     0.127 S 
ATOM     95  O   UNL A   1      41.764  37.229  38.069  1.00  0.00    -0.237 OA
ATOM     96  O   UNL A   1      41.437  36.576  40.425  1.00  0.00    -0.237 OA
ATOM     97  O   UNL A   1      43.270  35.583  39.133  1.00  0.00    -0.744 OA
ENDBRANCH  91  94
ENDBRANCH  63  87
BRANCH  75  98
ATOM     98  C   UNL A   1      44.547  28.106  35.174  1.00  0.00     0.023 A 
ATOM     99  C   UNL A   1      44.331  26.935  35.928  1.00  0.00     0.012 A 
ATOM    100  C   UNL A   1      45.861  28.587  35.003  1.00  0.00     0.148 A 
ATOM    101  C   UNL A   1      45.402  26.268  36.523  1.00  0.00     0.002 A 
ATOM    102  C   UNL A   1      46.928  27.888  35.555  1.00  0.00     0.091 A 
ATOM    103  F   UNL A   1      46.041  29.710  34.293  1.00  0.00    -0.205 F 
ATOM    104  C   UNL A   1      46.699  26.737  36.326  1.00  0.00     0.022 A 
BRANCH 102 105
ATOM    105  S   UNL A   1      48.639  28.357  35.277  1.00  0.00     0.127 S 
ATOM    106  O   UNL A   1      49.337  27.544  36.271  1.00  0.00    -0.237 OA
ATOM    107  O   UNL A   1      48.850  27.940  33.890  1.00  0.00    -0.237 OA
ATOM    108  O   UNL A   1      48.705  29.795  35.496  1.00  0.00    -0.744 OA
ENDBRANCH 102 105
ENDBRANCH  75  98
ENDBRANCH  49  50
ENDBRANCH  41  44
ENDBRANCH  39  40
ENDBRANCH  38  39
ENDBRANCH  37  38
ENDBRANCH   1  37
TORSDOF 22
ENDMDL
