MODEL 1
REMARK VINA RESULT:     -10.4      0.000      0.000
REMARK SMILES CN(CC(N)=O)S(=O)(=O)c1ccc(C(=O)NCCCCCCNC(=O)c2ccc(-c3c4nc(c(-c5cccc(S(=O)(=O)[O-])c5F)c5ccc([nH]5)c(-c5cccc(S(=O)(=O)[O-])c5F)c5nc(c(-c6cccc(S(=O)(=O)[O-])c6F)c6ccc3[nH]6)C=C5)C=C4)cc2)cc1Br
REMARK SMILES IDX 19 1 18 2 17 3 16 4 14 5 15 6 13 8 10 9 11 10 90 11 12 12
REMARK SMILES IDX 89 13 91 14 7 15 8 16 9 17 2 18 1 19 3 20 4 21 5 22 6 23
REMARK SMILES IDX 20 26 21 27 22 28 23 29 24 30 25 32 26 33 27 34 88 35 28 36
REMARK SMILES IDX 87 37 29 38 30 39 31 40 81 41 32 42 86 43 80 44 82 45 33 46
REMARK SMILES IDX 85 47 79 48 78 49 34 51 66 52 46 53 65 54 47 55 50 56 64 57
REMARK SMILES IDX 83 58 48 59 49 60 63 62 84 63 51 64 35 65 36 66 44 67 37 68
REMARK SMILES IDX 39 69 45 70 38 71 40 72 41 73 42 74 43 75 67 76 68 77 76 78
REMARK SMILES IDX 69 79 71 80 77 81 70 82 72 83 73 84 74 85 75 86 52 87 53 88
REMARK SMILES IDX 61 89 54 90 56 91 62 92 55 93 57 94 58 95 59 96 60 97
REMARK H PARENT 16 7 5 24 5 25 23 31 82 50 50 61
REMARK Flexibility Score: inf
ROOT
ATOM      1  C   UNL A   1      30.767  27.459  25.391  1.00  0.00     0.002 C 
ENDROOT
BRANCH   1   2
ATOM      2  C   UNL A   1      31.095  28.687  24.531  1.00  0.00     0.021 C 
BRANCH   2   3
ATOM      3  C   UNL A   1      30.993  28.424  23.026  1.00  0.00     0.116 C 
BRANCH   3   4
ATOM      4  N   UNL A   1      32.295  28.562  22.396  1.00  0.00    -0.352 N 
ATOM      5  C   UNL A   1      33.378  27.729  22.298  1.00  0.00     0.251 C 
ATOM      6  O   UNL A   1      34.334  28.115  21.624  1.00  0.00    -0.269 OA
ATOM      7  H   UNL A   1      32.424  29.430  21.948  1.00  0.00     0.163 HD
BRANCH   5   8
ATOM      8  C   UNL A   1      33.441  26.375  22.919  1.00  0.00     0.041 A 
ATOM      9  C   UNL A   1      33.699  23.860  24.194  1.00  0.00     0.096 A 
ATOM     10  C   UNL A   1      34.140  25.035  24.826  1.00  0.00     0.024 A 
ATOM     11  C   UNL A   1      33.058  23.957  22.957  1.00  0.00     0.038 A 
ATOM     12  C   UNL A   1      34.015  26.277  24.192  1.00  0.00     0.015 A 
ATOM     13  C   UNL A   1      32.919  25.216  22.343  1.00  0.00     0.031 A 
ATOM     14  Br  UNL A   1      32.324  22.523  21.956  1.00  0.00    -0.049 Br
BRANCH   9  15
ATOM     15  S   UNL A   1      33.947  22.341  25.094  1.00  0.00     0.244 S 
ATOM     16  O   UNL A   1      34.625  21.366  24.281  1.00  0.00    -0.207 OA
ATOM     17  O   UNL A   1      32.667  22.014  25.697  1.00  0.00    -0.207 OA
BRANCH  15  18
ATOM     18  N   UNL A   1      34.991  22.792  26.372  1.00  0.00    -0.192 NA
ATOM     19  C   UNL A   1      34.406  22.477  27.704  1.00  0.00     0.125 C 
BRANCH  18  20
ATOM     20  C   UNL A   1      36.411  22.354  26.277  1.00  0.00     0.201 C 
BRANCH  20  21
ATOM     21  C   UNL A   1      37.377  23.237  25.509  1.00  0.00     0.232 C 
ATOM     22  N   UNL A   1      37.289  23.174  24.148  1.00  0.00    -0.369 N 
ATOM     23  O   UNL A   1      38.154  24.020  26.047  1.00  0.00    -0.274 OA
ATOM     24  H   UNL A   1      36.664  22.543  23.724  1.00  0.00     0.159 HD
ATOM     25  H   UNL A   1      37.851  23.760  23.590  1.00  0.00     0.159 HD
ENDBRANCH  20  21
ENDBRANCH  18  20
ENDBRANCH  15  18
ENDBRANCH   9  15
ENDBRANCH   5   8
ENDBRANCH   3   4
ENDBRANCH   2   3
ENDBRANCH   1   2
BRANCH   1  26
ATOM     26  C   UNL A   1      31.738  27.205  26.550  1.00  0.00     0.002 C 
BRANCH  26  27
ATOM     27  C   UNL A   1      32.061  28.436  27.402  1.00  0.00     0.021 C 
BRANCH  27  28
ATOM     28  C   UNL A   1      33.495  28.936  27.261  1.00  0.00     0.116 C 
BRANCH  28  29
ATOM     29  N   UNL A   1      33.581  30.373  27.480  1.00  0.00    -0.352 N 
ATOM     30  C   UNL A   1      34.522  31.093  28.171  1.00  0.00     0.251 C 
ATOM     31  H   UNL A   1      32.860  30.905  27.072  1.00  0.00     0.163 HD
ATOM     32  O   UNL A   1      34.297  32.261  28.477  1.00  0.00    -0.269 OA
BRANCH  30  33
ATOM     33  C   UNL A   1      35.802  30.459  28.549  1.00  0.00     0.039 A 
ATOM     34  C   UNL A   1      36.913  30.627  27.720  1.00  0.00     0.014 A 
ATOM     35  C   UNL A   1      35.901  29.690  29.711  1.00  0.00     0.014 A 
ATOM     36  C   UNL A   1      38.139  30.069  28.088  1.00  0.00     0.010 A 
ATOM     37  C   UNL A   1      37.138  29.200  30.116  1.00  0.00     0.010 A 
ATOM     38  C   UNL A   1      38.270  29.381  29.307  1.00  0.00    -0.014 A 
BRANCH  38  39
ATOM     39  C   UNL A   1      39.589  28.871  29.760  1.00  0.00     0.031 A 
ATOM     40  C   UNL A   1      40.344  29.571  30.856  1.00  0.00     0.074 A 
ATOM     41  C   UNL A   1      40.142  27.819  29.123  1.00  0.00     0.049 A 
ATOM     42  N   UNL A   1      41.522  29.290  31.352  1.00  0.00    -0.248 NA
ATOM     43  C   UNL A   1      39.707  30.752  31.460  1.00  0.00     0.031 C 
ATOM     44  C   UNL A   1      39.541  27.105  27.993  1.00  0.00     0.029 A 
ATOM     45  N   UNL A   1      41.342  27.182  29.317  1.00  0.00    -0.354 N 
ATOM     46  C   UNL A   1      41.781  30.273  32.299  1.00  0.00     0.074 A 
ATOM     47  C   UNL A   1      40.652  31.179  32.286  1.00  0.00     0.031 C 
ATOM     48  C   UNL A   1      40.370  26.126  27.601  1.00  0.00     0.029 A 
ATOM     49  C   UNL A   1      41.576  26.165  28.421  1.00  0.00     0.049 A 
ATOM     50  H   UNL A   1      41.975  27.431  30.029  1.00  0.00     0.167 HD
ATOM     51  C   UNL A   1      42.848  30.398  33.122  1.00  0.00     0.034 A 
ATOM     52  C   UNL A   1      42.647  25.362  28.267  1.00  0.00     0.034 A 
ATOM     53  C   UNL A   1      43.956  29.480  33.149  1.00  0.00     0.049 A 
ATOM     54  C   UNL A   1      43.811  25.510  29.208  1.00  0.00     0.074 A 
ATOM     55  C   UNL A   1      45.044  29.471  34.003  1.00  0.00     0.029 A 
ATOM     56  N   UNL A   1      44.128  28.420  32.272  1.00  0.00    -0.354 N 
ATOM     57  N   UNL A   1      43.965  26.349  30.204  1.00  0.00    -0.248 NA
ATOM     58  C   UNL A   1      44.933  24.578  29.029  1.00  0.00     0.031 C 
ATOM     59  C   UNL A   1      45.895  28.431  33.617  1.00  0.00     0.029 A 
ATOM     60  C   UNL A   1      45.314  27.762  32.552  1.00  0.00     0.049 A 
ATOM     61  H   UNL A   1      43.500  28.172  31.556  1.00  0.00     0.167 HD
ATOM     62  C   UNL A   1      45.183  26.025  30.790  1.00  0.00     0.074 A 
ATOM     63  C   UNL A   1      45.713  24.896  30.052  1.00  0.00     0.031 C 
ATOM     64  C   UNL A   1      45.811  26.615  31.837  1.00  0.00     0.034 A 
BRANCH  51  65
ATOM     65  C   UNL A   1      42.856  31.552  34.093  1.00  0.00     0.023 A 
ATOM     66  C   UNL A   1      43.443  32.779  33.718  1.00  0.00     0.012 A 
ATOM     67  C   UNL A   1      42.229  31.443  35.350  1.00  0.00     0.148 A 
ATOM     68  C   UNL A   1      43.438  33.866  34.591  1.00  0.00     0.002 A 
ATOM     69  C   UNL A   1      42.186  32.546  36.195  1.00  0.00     0.091 A 
ATOM     70  F   UNL A   1      41.694  30.265  35.697  1.00  0.00    -0.205 F 
ATOM     71  C   UNL A   1      42.800  33.752  35.824  1.00  0.00     0.022 A 
BRANCH  69  72
ATOM     72  S   UNL A   1      41.318  32.529  37.767  1.00  0.00     0.127 S 
ATOM     73  O   UNL A   1      42.145  31.611  38.549  1.00  0.00    -0.237 OA
ATOM     74  O   UNL A   1      41.405  33.929  38.180  1.00  0.00    -0.237 OA
ATOM     75  O   UNL A   1      39.970  32.061  37.480  1.00  0.00    -0.744 OA
ENDBRANCH  69  72
ENDBRANCH  51  65
BRANCH  52  76
ATOM     76  C   UNL A   1      42.648  24.316  27.206  1.00  0.00     0.023 A 
ATOM     77  C   UNL A   1      43.320  24.555  25.992  1.00  0.00     0.012 A 
ATOM     78  C   UNL A   1      42.007  23.077  27.404  1.00  0.00     0.148 A 
ATOM     79  C   UNL A   1      43.323  23.594  24.980  1.00  0.00     0.002 A 
ATOM     80  C   UNL A   1      42.064  22.102  26.417  1.00  0.00     0.091 A 
ATOM     81  F   UNL A   1      41.366  22.873  28.564  1.00  0.00    -0.205 F 
ATOM     82  C   UNL A   1      42.703  22.365  25.195  1.00  0.00     0.022 A 
BRANCH  80  83
ATOM     83  S   UNL A   1      41.415  20.445  26.662  1.00  0.00     0.127 S 
ATOM     84  O   UNL A   1      41.865  19.764  25.453  1.00  0.00    -0.237 OA
ATOM     85  O   UNL A   1      42.095  20.035  27.892  1.00  0.00    -0.237 OA
ATOM     86  O   UNL A   1      39.973  20.601  26.800  1.00  0.00    -0.744 OA
ENDBRANCH  80  83
ENDBRANCH  52  76
BRANCH  64  87
ATOM     87  C   UNL A   1      47.128  26.030  32.281  1.00  0.00     0.023 A 
ATOM     88  C   UNL A   1      47.174  25.137  33.369  1.00  0.00     0.012 A 
ATOM     89  C   UNL A   1      48.311  26.318  31.571  1.00  0.00     0.148 A 
ATOM     90  C   UNL A   1      48.384  24.569  33.769  1.00  0.00     0.002 A 
ATOM     91  C   UNL A   1      49.503  25.706  31.941  1.00  0.00     0.091 A 
ATOM     92  F   UNL A   1      48.250  27.183  30.549  1.00  0.00    -0.205 F 
ATOM     93  C   UNL A   1      49.544  24.844  33.048  1.00  0.00     0.022 A 
BRANCH  91  94
ATOM     94  S   UNL A   1      51.026  25.922  31.015  1.00  0.00     0.127 S 
ATOM     95  O   UNL A   1      50.630  25.472  29.682  1.00  0.00    -0.237 OA
ATOM     96  O   UNL A   1      51.257  27.362  31.131  1.00  0.00    -0.237 OA
ATOM     97  O   UNL A   1      52.023  25.094  31.681  1.00  0.00    -0.744 OA
ENDBRANCH  91  94
ENDBRANCH  64  87
ENDBRANCH  38  39
ENDBRANCH  30  33
ENDBRANCH  28  29
ENDBRANCH  27  28
ENDBRANCH  26  27
ENDBRANCH   1  26
TORSDOF 20
ENDMDL
MODEL 2
REMARK VINA RESULT:     -10.3      2.405      2.937
REMARK SMILES CN(CC(N)=O)S(=O)(=O)c1ccc(C(=O)NCCCCCCNC(=O)c2ccc(-c3c4nc(c(-c5cccc(S(=O)(=O)[O-])c5F)c5ccc([nH]5)c(-c5cccc(S(=O)(=O)[O-])c5F)c5nc(c(-c6cccc(S(=O)(=O)[O-])c6F)c6ccc3[nH]6)C=C5)C=C4)cc2)cc1Br
REMARK SMILES IDX 19 1 18 2 17 3 16 4 14 5 15 6 13 8 10 9 11 10 90 11 12 12
REMARK SMILES IDX 89 13 91 14 7 15 8 16 9 17 2 18 1 19 3 20 4 21 5 22 6 23
REMARK SMILES IDX 20 26 21 27 22 28 23 29 24 30 25 32 26 33 27 34 88 35 28 36
REMARK SMILES IDX 87 37 29 38 30 39 31 40 81 41 32 42 86 43 80 44 82 45 33 46
REMARK SMILES IDX 85 47 79 48 78 49 34 51 66 52 46 53 65 54 47 55 50 56 64 57
REMARK SMILES IDX 83 58 48 59 49 60 63 62 84 63 51 64 35 65 36 66 44 67 37 68
REMARK SMILES IDX 39 69 45 70 38 71 40 72 41 73 42 74 43 75 67 76 68 77 76 78
REMARK SMILES IDX 69 79 71 80 77 81 70 82 72 83 73 84 74 85 75 86 52 87 53 88
REMARK SMILES IDX 61 89 54 90 56 91 62 92 55 93 57 94 58 95 59 96 60 97
REMARK H PARENT 16 7 5 24 5 25 23 31 82 50 50 61
REMARK Flexibility Score: inf
ROOT
ATOM      1  C   UNL A   1      31.377  28.896  24.763  1.00  0.00     0.002 C 
ENDROOT
BRANCH   1   2
ATOM      2  C   UNL A   1      31.395  28.735  23.236  1.00  0.00     0.021 C 
BRANCH   2   3
ATOM      3  C   UNL A   1      30.954  27.348  22.763  1.00  0.00     0.116 C 
BRANCH   3   4
ATOM      4  N   UNL A   1      31.816  26.877  21.692  1.00  0.00    -0.352 N 
ATOM      5  C   UNL A   1      32.550  25.733  21.519  1.00  0.00     0.251 C 
ATOM      6  O   UNL A   1      33.139  25.593  20.446  1.00  0.00    -0.269 OA
ATOM      7  H   UNL A   1      31.886  27.508  20.939  1.00  0.00     0.163 HD
BRANCH   5   8
ATOM      8  C   UNL A   1      32.634  24.641  22.529  1.00  0.00     0.041 A 
ATOM      9  C   UNL A   1      32.804  22.451  24.317  1.00  0.00     0.096 A 
ATOM     10  C   UNL A   1      33.368  22.376  23.031  1.00  0.00     0.024 A 
ATOM     11  C   UNL A   1      32.225  23.652  24.732  1.00  0.00     0.038 A 
ATOM     12  C   UNL A   1      33.279  23.459  22.149  1.00  0.00     0.015 A 
ATOM     13  C   UNL A   1      32.163  24.740  23.840  1.00  0.00     0.031 A 
ATOM     14  Br  UNL A   1      31.467  24.005  26.435  1.00  0.00    -0.049 Br
BRANCH   9  15
ATOM     15  S   UNL A   1      32.957  20.992  25.329  1.00  0.00     0.244 S 
ATOM     16  O   UNL A   1      31.678  20.361  25.521  1.00  0.00    -0.207 OA
ATOM     17  O   UNL A   1      33.750  21.381  26.483  1.00  0.00    -0.207 OA
BRANCH  15  18
ATOM     18  N   UNL A   1      33.935  19.947  24.392  1.00  0.00    -0.192 NA
ATOM     19  C   UNL A   1      35.314  19.836  24.941  1.00  0.00     0.125 C 
BRANCH  18  20
ATOM     20  C   UNL A   1      33.370  18.613  24.049  1.00  0.00     0.201 C 
BRANCH  20  21
ATOM     21  C   UNL A   1      33.576  17.478  25.036  1.00  0.00     0.232 C 
ATOM     22  N   UNL A   1      32.824  17.535  26.174  1.00  0.00    -0.369 N 
ATOM     23  O   UNL A   1      34.314  16.521  24.824  1.00  0.00    -0.274 OA
ATOM     24  H   UNL A   1      32.235  18.306  26.337  1.00  0.00     0.159 HD
ATOM     25  H   UNL A   1      32.870  16.803  26.832  1.00  0.00     0.159 HD
ENDBRANCH  20  21
ENDBRANCH  18  20
ENDBRANCH  15  18
ENDBRANCH   9  15
ENDBRANCH   5   8
ENDBRANCH   3   4
ENDBRANCH   2   3
ENDBRANCH   1   2
BRANCH   1  26
ATOM     26  C   UNL A   1      31.896  27.683  25.545  1.00  0.00     0.002 C 
BRANCH  26  27
ATOM     27  C   UNL A   1      32.662  28.022  26.828  1.00  0.00     0.021 C 
BRANCH  27  28
ATOM     28  C   UNL A   1      33.993  28.729  26.593  1.00  0.00     0.116 C 
BRANCH  28  29
ATOM     29  N   UNL A   1      33.870  30.169  26.771  1.00  0.00    -0.352 N 
ATOM     30  C   UNL A   1      34.580  31.008  27.592  1.00  0.00     0.251 C 
ATOM     31  H   UNL A   1      33.178  30.603  26.222  1.00  0.00     0.163 HD
ATOM     32  O   UNL A   1      34.168  32.144  27.810  1.00  0.00    -0.269 OA
BRANCH  30  33
ATOM     33  C   UNL A   1      35.834  30.539  28.215  1.00  0.00     0.039 A 
ATOM     34  C   UNL A   1      35.776  29.870  29.440  1.00  0.00     0.014 A 
ATOM     35  C   UNL A   1      37.066  30.769  27.597  1.00  0.00     0.014 A 
ATOM     36  C   UNL A   1      36.951  29.384  30.017  1.00  0.00     0.010 A 
ATOM     37  C   UNL A   1      38.225  30.218  28.134  1.00  0.00     0.010 A 
ATOM     38  C   UNL A   1      38.180  29.523  29.351  1.00  0.00    -0.014 A 
BRANCH  38  39
ATOM     39  C   UNL A   1      39.422  28.922  29.902  1.00  0.00     0.031 A 
ATOM     40  C   UNL A   1      40.070  29.499  31.131  1.00  0.00     0.074 A 
ATOM     41  C   UNL A   1      40.008  27.903  29.244  1.00  0.00     0.049 A 
ATOM     42  N   UNL A   1      41.174  29.129  31.728  1.00  0.00    -0.248 NA
ATOM     43  C   UNL A   1      39.409  30.654  31.758  1.00  0.00     0.031 C 
ATOM     44  C   UNL A   1      39.517  27.308  27.998  1.00  0.00     0.029 A 
ATOM     45  N   UNL A   1      41.157  27.201  29.514  1.00  0.00    -0.354 N 
ATOM     46  C   UNL A   1      41.356  30.021  32.778  1.00  0.00     0.074 A 
ATOM     47  C   UNL A   1      40.267  30.972  32.716  1.00  0.00     0.031 C 
ATOM     48  C   UNL A   1      40.352  26.328  27.618  1.00  0.00     0.029 A 
ATOM     49  C   UNL A   1      41.457  26.251  28.567  1.00  0.00     0.049 A 
ATOM     50  H   UNL A   1      41.712  27.365  30.310  1.00  0.00     0.167 HD
ATOM     51  C   UNL A   1      42.327  30.034  33.721  1.00  0.00     0.034 A 
ATOM     52  C   UNL A   1      42.512  25.418  28.465  1.00  0.00     0.034 A 
ATOM     53  C   UNL A   1      43.393  29.071  33.792  1.00  0.00     0.049 A 
ATOM     54  C   UNL A   1      43.565  25.440  29.538  1.00  0.00     0.074 A 
ATOM     55  C   UNL A   1      44.377  28.947  34.758  1.00  0.00     0.029 A 
ATOM     56  N   UNL A   1      43.629  28.078  32.854  1.00  0.00    -0.354 N 
ATOM     57  N   UNL A   1      43.633  26.189  30.612  1.00  0.00    -0.248 NA
ATOM     58  C   UNL A   1      44.669  24.478  29.406  1.00  0.00     0.031 C 
ATOM     59  C   UNL A   1      45.231  27.906  34.381  1.00  0.00     0.029 A 
ATOM     60  C   UNL A   1      44.753  27.350  33.206  1.00  0.00     0.049 A 
ATOM     61  H   UNL A   1      43.079  27.916  32.055  1.00  0.00     0.167 HD
ATOM     62  C   UNL A   1      44.765  25.767  31.300  1.00  0.00     0.074 A 
ATOM     63  C   UNL A   1      45.337  24.680  30.532  1.00  0.00     0.031 C 
ATOM     64  C   UNL A   1      45.289  26.244  32.456  1.00  0.00     0.034 A 
BRANCH  51  65
ATOM     65  C   UNL A   1      42.263  31.105  34.781  1.00  0.00     0.023 A 
ATOM     66  C   UNL A   1      41.634  30.834  36.014  1.00  0.00     0.012 A 
ATOM     67  C   UNL A   1      42.880  32.356  34.582  1.00  0.00     0.148 A 
ATOM     68  C   UNL A   1      41.587  31.800  37.017  1.00  0.00     0.002 A 
ATOM     69  C   UNL A   1      42.871  33.298  35.605  1.00  0.00     0.091 A 
ATOM     70  F   UNL A   1      43.456  32.604  33.398  1.00  0.00    -0.205 F 
ATOM     71  C   UNL A   1      42.214  33.027  36.816  1.00  0.00     0.022 A 
BRANCH  69  72
ATOM     72  S   UNL A   1      43.721  34.874  35.478  1.00  0.00     0.127 S 
ATOM     73  O   UNL A   1      45.090  34.448  35.190  1.00  0.00    -0.237 OA
ATOM     74  O   UNL A   1      43.030  35.505  34.353  1.00  0.00    -0.237 OA
ATOM     75  O   UNL A   1      43.532  35.539  36.759  1.00  0.00    -0.744 OA
ENDBRANCH  69  72
ENDBRANCH  51  65
BRANCH  52  76
ATOM     76  C   UNL A   1      42.598  24.461  27.326  1.00  0.00     0.023 A 
ATOM     77  C   UNL A   1      43.232  24.855  26.132  1.00  0.00     0.012 A 
ATOM     78  C   UNL A   1      42.078  23.156  27.429  1.00  0.00     0.148 A 
ATOM     79  C   UNL A   1      43.313  23.980  25.048  1.00  0.00     0.002 A 
ATOM     80  C   UNL A   1      42.215  22.270  26.369  1.00  0.00     0.091 A 
ATOM     81  F   UNL A   1      41.471  22.804  28.572  1.00  0.00    -0.205 F 
ATOM     82  C   UNL A   1      42.813  22.685  25.169  1.00  0.00     0.022 A 
BRANCH  80  83
ATOM     83  S   UNL A   1      41.725  20.546  26.487  1.00  0.00     0.127 S 
ATOM     84  O   UNL A   1      42.417  19.958  25.345  1.00  0.00    -0.237 OA
ATOM     85  O   UNL A   1      42.262  20.170  27.795  1.00  0.00    -0.237 OA
ATOM     86  O   UNL A   1      40.270  20.541  26.414  1.00  0.00    -0.744 OA
ENDBRANCH  80  83
ENDBRANCH  52  76
BRANCH  64  87
ATOM     87  C   UNL A   1      46.527  25.569  32.991  1.00  0.00     0.023 A 
ATOM     88  C   UNL A   1      47.802  26.069  32.664  1.00  0.00     0.012 A 
ATOM     89  C   UNL A   1      46.418  24.476  33.874  1.00  0.00     0.148 A 
ATOM     90  C   UNL A   1      48.952  25.469  33.176  1.00  0.00     0.002 A 
ATOM     91  C   UNL A   1      47.565  23.917  34.424  1.00  0.00     0.091 A 
ATOM     92  F   UNL A   1      45.197  24.003  34.160  1.00  0.00    -0.205 F 
ATOM     93  C   UNL A   1      48.833  24.403  34.065  1.00  0.00     0.022 A 
BRANCH  91  94
ATOM     94  S   UNL A   1      47.508  22.606  35.650  1.00  0.00     0.127 S 
ATOM     95  O   UNL A   1      46.705  21.595  34.968  1.00  0.00    -0.237 OA
ATOM     96  O   UNL A   1      48.922  22.264  35.802  1.00  0.00    -0.237 OA
ATOM     97  O   UNL A   1      46.897  23.191  36.837  1.00  0.00    -0.744 OA
ENDBRANCH  91  94
ENDBRANCH  64  87
ENDBRANCH  38  39
ENDBRANCH  30  33
ENDBRANCH  28  29
ENDBRANCH  27  28
ENDBRANCH  26  27
ENDBRANCH   1  26
TORSDOF 20
ENDMDL
MODEL 3
REMARK VINA RESULT:     -10.0      1.608      2.160
REMARK SMILES CN(CC(N)=O)S(=O)(=O)c1ccc(C(=O)NCCCCCCNC(=O)c2ccc(-c3c4nc(c(-c5cccc(S(=O)(=O)[O-])c5F)c5ccc([nH]5)c(-c5cccc(S(=O)(=O)[O-])c5F)c5nc(c(-c6cccc(S(=O)(=O)[O-])c6F)c6ccc3[nH]6)C=C5)C=C4)cc2)cc1Br
REMARK SMILES IDX 19 1 18 2 17 3 16 4 14 5 15 6 13 8 10 9 11 10 90 11 12 12
REMARK SMILES IDX 89 13 91 14 7 15 8 16 9 17 2 18 1 19 3 20 4 21 5 22 6 23
REMARK SMILES IDX 20 26 21 27 22 28 23 29 24 30 25 32 26 33 27 34 88 35 28 36
REMARK SMILES IDX 87 37 29 38 30 39 31 40 81 41 32 42 86 43 80 44 82 45 33 46
REMARK SMILES IDX 85 47 79 48 78 49 34 51 66 52 46 53 65 54 47 55 50 56 64 57
REMARK SMILES IDX 83 58 48 59 49 60 63 62 84 63 51 64 35 65 36 66 44 67 37 68
REMARK SMILES IDX 39 69 45 70 38 71 40 72 41 73 42 74 43 75 67 76 68 77 76 78
REMARK SMILES IDX 69 79 71 80 77 81 70 82 72 83 73 84 74 85 75 86 52 87 53 88
REMARK SMILES IDX 61 89 54 90 56 91 62 92 55 93 57 94 58 95 59 96 60 97
REMARK H PARENT 16 7 5 24 5 25 23 31 82 50 50 61
REMARK Flexibility Score: inf
ROOT
ATOM      1  C   UNL A   1      31.424  28.742  24.747  1.00  0.00     0.002 C 
ENDROOT
BRANCH   1   2
ATOM      2  C   UNL A   1      30.797  28.408  23.386  1.00  0.00     0.021 C 
BRANCH   2   3
ATOM      3  C   UNL A   1      30.764  26.908  23.081  1.00  0.00     0.116 C 
BRANCH   3   4
ATOM      4  N   UNL A   1      31.730  26.577  22.048  1.00  0.00    -0.352 N 
ATOM      5  C   UNL A   1      32.543  25.493  21.842  1.00  0.00     0.251 C 
ATOM      6  O   UNL A   1      33.218  25.475  20.812  1.00  0.00    -0.269 OA
ATOM      7  H   UNL A   1      31.818  27.271  21.355  1.00  0.00     0.163 HD
BRANCH   5   8
ATOM      8  C   UNL A   1      32.617  24.326  22.767  1.00  0.00     0.041 A 
ATOM      9  C   UNL A   1      32.821  22.013  24.388  1.00  0.00     0.096 A 
ATOM     10  C   UNL A   1      33.654  22.183  23.268  1.00  0.00     0.024 A 
ATOM     11  C   UNL A   1      31.942  23.040  24.738  1.00  0.00     0.038 A 
ATOM     12  C   UNL A   1      33.548  23.325  22.466  1.00  0.00     0.015 A 
ATOM     13  C   UNL A   1      31.864  24.194  23.934  1.00  0.00     0.031 A 
ATOM     14  Br  UNL A   1      30.778  23.062  26.236  1.00  0.00    -0.049 Br
BRANCH   9  15
ATOM     15  S   UNL A   1      33.033  20.499  25.305  1.00  0.00     0.244 S 
ATOM     16  O   UNL A   1      31.860  19.671  25.210  1.00  0.00    -0.207 OA
ATOM     17  O   UNL A   1      33.541  20.884  26.610  1.00  0.00    -0.207 OA
BRANCH  15  18
ATOM     18  N   UNL A   1      34.314  19.708  24.493  1.00  0.00    -0.192 NA
ATOM     19  C   UNL A   1      35.643  20.238  24.903  1.00  0.00     0.125 C 
BRANCH  18  20
ATOM     20  C   UNL A   1      34.295  18.219  24.481  1.00  0.00     0.201 C 
BRANCH  20  21
ATOM     21  C   UNL A   1      33.247  17.528  23.627  1.00  0.00     0.232 C 
ATOM     22  N   UNL A   1      32.346  16.754  24.301  1.00  0.00    -0.369 N 
ATOM     23  O   UNL A   1      33.147  17.688  22.415  1.00  0.00    -0.274 OA
ATOM     24  H   UNL A   1      32.433  16.631  25.273  1.00  0.00     0.159 HD
ATOM     25  H   UNL A   1      31.608  16.321  23.813  1.00  0.00     0.159 HD
ENDBRANCH  20  21
ENDBRANCH  18  20
ENDBRANCH  15  18
ENDBRANCH   9  15
ENDBRANCH   5   8
ENDBRANCH   3   4
ENDBRANCH   2   3
ENDBRANCH   1   2
BRANCH   1  26
ATOM     26  C   UNL A   1      31.987  27.537  25.511  1.00  0.00     0.002 C 
BRANCH  26  27
ATOM     27  C   UNL A   1      32.889  27.890  26.697  1.00  0.00     0.021 C 
BRANCH  27  28
ATOM     28  C   UNL A   1      34.095  28.751  26.333  1.00  0.00     0.116 C 
BRANCH  28  29
ATOM     29  N   UNL A   1      33.862  30.153  26.646  1.00  0.00    -0.352 N 
ATOM     30  C   UNL A   1      34.497  30.958  27.558  1.00  0.00     0.251 C 
ATOM     31  H   UNL A   1      33.147  30.587  26.128  1.00  0.00     0.163 HD
ATOM     32  O   UNL A   1      33.999  32.035  27.875  1.00  0.00    -0.269 OA
BRANCH  30  33
ATOM     33  C   UNL A   1      35.775  30.525  28.157  1.00  0.00     0.039 A 
ATOM     34  C   UNL A   1      35.752  29.713  29.293  1.00  0.00     0.014 A 
ATOM     35  C   UNL A   1      36.994  30.928  27.605  1.00  0.00     0.014 A 
ATOM     36  C   UNL A   1      36.953  29.261  29.842  1.00  0.00     0.010 A 
ATOM     37  C   UNL A   1      38.186  30.415  28.107  1.00  0.00     0.010 A 
ATOM     38  C   UNL A   1      38.179  29.579  29.233  1.00  0.00    -0.014 A 
BRANCH  38  39
ATOM     39  C   UNL A   1      39.456  29.022  29.745  1.00  0.00     0.031 A 
ATOM     40  C   UNL A   1      40.177  29.687  30.886  1.00  0.00     0.074 A 
ATOM     41  C   UNL A   1      40.007  27.960  29.125  1.00  0.00     0.049 A 
ATOM     42  N   UNL A   1      41.320  29.363  31.436  1.00  0.00    -0.248 NA
ATOM     43  C   UNL A   1      39.549  30.882  31.470  1.00  0.00     0.031 C 
ATOM     44  C   UNL A   1      39.442  27.276  27.958  1.00  0.00     0.029 A 
ATOM     45  N   UNL A   1      41.175  27.283  29.370  1.00  0.00    -0.354 N 
ATOM     46  C   UNL A   1      41.562  30.329  32.406  1.00  0.00     0.074 A 
ATOM     47  C   UNL A   1      40.464  31.270  32.347  1.00  0.00     0.031 C 
ATOM     48  C   UNL A   1      40.258  26.274  27.597  1.00  0.00     0.029 A 
ATOM     49  C   UNL A   1      41.421  26.267  28.476  1.00  0.00     0.049 A 
ATOM     50  H   UNL A   1      41.779  27.504  30.116  1.00  0.00     0.167 HD
ATOM     51  C   UNL A   1      42.590  30.411  33.283  1.00  0.00     0.034 A 
ATOM     52  C   UNL A   1      42.473  25.432  28.366  1.00  0.00     0.034 A 
ATOM     53  C   UNL A   1      43.665  29.458  33.354  1.00  0.00     0.049 A 
ATOM     54  C   UNL A   1      43.592  25.533  29.366  1.00  0.00     0.074 A 
ATOM     55  C   UNL A   1      44.709  29.405  34.261  1.00  0.00     0.029 A 
ATOM     56  N   UNL A   1      43.848  28.401  32.475  1.00  0.00    -0.354 N 
ATOM     57  N   UNL A   1      43.723  26.357  30.378  1.00  0.00    -0.248 NA
ATOM     58  C   UNL A   1      44.692  24.567  29.233  1.00  0.00     0.031 C 
ATOM     59  C   UNL A   1      45.545  28.342  33.906  1.00  0.00     0.029 A 
ATOM     60  C   UNL A   1      44.997  27.703  32.806  1.00  0.00     0.049 A 
ATOM     61  H   UNL A   1      43.249  28.181  31.726  1.00  0.00     0.167 HD
ATOM     62  C   UNL A   1      44.899  25.988  31.020  1.00  0.00     0.074 A 
ATOM     63  C   UNL A   1      45.429  24.850  30.296  1.00  0.00     0.031 C 
ATOM     64  C   UNL A   1      45.493  26.547  32.104  1.00  0.00     0.034 A 
BRANCH  51  65
ATOM     65  C   UNL A   1      42.586  31.554  34.265  1.00  0.00     0.023 A 
ATOM     66  C   UNL A   1      43.268  32.749  33.954  1.00  0.00     0.012 A 
ATOM     67  C   UNL A   1      41.856  31.470  35.468  1.00  0.00     0.148 A 
ATOM     68  C   UNL A   1      43.255  33.828  34.837  1.00  0.00     0.002 A 
ATOM     69  C   UNL A   1      41.808  32.567  36.321  1.00  0.00     0.091 A 
ATOM     70  F   UNL A   1      41.230  30.322  35.757  1.00  0.00    -0.205 F 
ATOM     71  C   UNL A   1      42.516  33.740  36.015  1.00  0.00     0.022 A 
BRANCH  69  72
ATOM     72  S   UNL A   1      40.818  32.587  37.820  1.00  0.00     0.127 S 
ATOM     73  O   UNL A   1      39.616  31.875  37.387  1.00  0.00    -0.237 OA
ATOM     74  O   UNL A   1      41.663  31.842  38.754  1.00  0.00    -0.237 OA
ATOM     75  O   UNL A   1      40.624  33.989  38.158  1.00  0.00    -0.744 OA
ENDBRANCH  69  72
ENDBRANCH  51  65
BRANCH  52  76
ATOM     76  C   UNL A   1      42.494  24.396  27.295  1.00  0.00     0.023 A 
ATOM     77  C   UNL A   1      43.202  24.642  26.103  1.00  0.00     0.012 A 
ATOM     78  C   UNL A   1      41.837  23.162  27.463  1.00  0.00     0.148 A 
ATOM     79  C   UNL A   1      43.224  23.692  25.081  1.00  0.00     0.002 A 
ATOM     80  C   UNL A   1      41.913  22.196  26.467  1.00  0.00     0.091 A 
ATOM     81  F   UNL A   1      41.163  22.951  28.602  1.00  0.00    -0.205 F 
ATOM     82  C   UNL A   1      42.588  22.466  25.266  1.00  0.00     0.022 A 
BRANCH  80  83
ATOM     83  S   UNL A   1      41.243  20.543  26.677  1.00  0.00     0.127 S 
ATOM     84  O   UNL A   1      41.684  19.882  25.453  1.00  0.00    -0.237 OA
ATOM     85  O   UNL A   1      41.918  20.098  27.897  1.00  0.00    -0.237 OA
ATOM     86  O   UNL A   1      39.803  20.714  26.819  1.00  0.00    -0.744 OA
ENDBRANCH  80  83
ENDBRANCH  52  76
BRANCH  64  87
ATOM     87  C   UNL A   1      46.766  25.916  32.606  1.00  0.00     0.023 A 
ATOM     88  C   UNL A   1      46.727  24.994  33.670  1.00  0.00     0.012 A 
ATOM     89  C   UNL A   1      47.996  26.190  31.973  1.00  0.00     0.148 A 
ATOM     90  C   UNL A   1      47.896  24.384  34.123  1.00  0.00     0.002 A 
ATOM     91  C   UNL A   1      49.148  25.537  32.393  1.00  0.00     0.091 A 
ATOM     92  F   UNL A   1      48.015  27.082  30.973  1.00  0.00    -0.205 F 
ATOM     93  C   UNL A   1      49.103  24.646  33.477  1.00  0.00     0.022 A 
BRANCH  91  94
ATOM     94  S   UNL A   1      50.727  25.735  31.562  1.00  0.00     0.127 S 
ATOM     95  O   UNL A   1      51.407  24.491  31.914  1.00  0.00    -0.237 OA
ATOM     96  O   UNL A   1      50.326  25.835  30.158  1.00  0.00    -0.237 OA
ATOM     97  O   UNL A   1      51.321  26.947  32.109  1.00  0.00    -0.744 OA
ENDBRANCH  91  94
ENDBRANCH  64  87
ENDBRANCH  38  39
ENDBRANCH  30  33
ENDBRANCH  28  29
ENDBRANCH  27  28
ENDBRANCH  26  27
ENDBRANCH   1  26
TORSDOF 20
ENDMDL
