MODEL 1
REMARK VINA RESULT:     -11.7      0.000      0.000
REMARK SMILES CC[C@H]1CO[C@@H](C)CN1c1cccc(F)c1C(=O)NCCCCCCNC(=O)c1ccc(-c2c3nc(c(-c4cccc(S(=O)(=O)[O-])c4F)c4ccc([nH]4)c(-c4cccc(S(=O)(=O)[O-])c4F)c4nc(c(-c5cccc(S(=O)(=O)[O-])c5F)c5ccc2[nH]5)C=C4)C=C3)cc1
REMARK SMILES IDX 23 1 22 2 21 3 20 4 19 5 17 6 18 7 16 9 10 10 11 11 12 12
REMARK SMILES IDX 14 13 13 14 15 15 9 16 3 17 4 18 5 19 8 20 6 21 7 22 2 23
REMARK SMILES IDX 1 24 24 25 25 26 26 27 27 28 28 30 29 31 30 32 91 33 31 34
REMARK SMILES IDX 90 35 32 36 33 37 34 38 84 39 35 40 89 41 83 42 85 43 36 44
REMARK SMILES IDX 88 45 82 46 81 47 37 49 69 50 49 51 68 52 50 53 53 54 67 55
REMARK SMILES IDX 86 56 51 57 52 58 66 60 87 61 54 62 38 63 39 64 47 65 40 66
REMARK SMILES IDX 42 67 48 68 41 69 43 70 44 71 45 72 46 73 70 74 71 75 79 76
REMARK SMILES IDX 72 77 74 78 80 79 73 80 75 81 76 82 77 83 78 84 55 85 56 86
REMARK SMILES IDX 64 87 57 88 59 89 65 90 58 91 60 92 61 93 62 94 63 95
REMARK H PARENT 19 8 26 29 85 48 53 59
REMARK Flexibility Score: inf
ROOT
ATOM      1  C   UNL A   1      31.704  30.635  26.154  1.00  0.00     0.002 C 
ENDROOT
BRANCH   1   2
ATOM      2  C   UNL A   1      32.362  29.466  26.887  1.00  0.00     0.002 C 
BRANCH   2   3
ATOM      3  C   UNL A   1      31.481  28.277  27.271  1.00  0.00     0.021 C 
BRANCH   3   4
ATOM      4  C   UNL A   1      31.498  27.047  26.370  1.00  0.00     0.116 C 
BRANCH   4   5
ATOM      5  N   UNL A   1      32.653  26.180  26.510  1.00  0.00    -0.352 N 
ATOM      6  C   UNL A   1      33.625  25.889  25.570  1.00  0.00     0.256 C 
ATOM      7  O   UNL A   1      34.715  25.475  25.962  1.00  0.00    -0.269 OA
ATOM      8  H   UNL A   1      32.758  25.743  27.386  1.00  0.00     0.163 HD
BRANCH   6   9
ATOM      9  C   UNL A   1      33.329  25.999  24.118  1.00  0.00     0.098 A 
ATOM     10  C   UNL A   1      32.742  24.914  23.429  1.00  0.00     0.053 A 
ATOM     11  C   UNL A   1      32.316  25.116  22.102  1.00  0.00     0.027 A 
ATOM     12  C   UNL A   1      32.558  26.324  21.442  1.00  0.00     0.005 A 
ATOM     13  C   UNL A   1      33.641  27.166  23.420  1.00  0.00     0.138 A 
ATOM     14  C   UNL A   1      33.251  27.338  22.094  1.00  0.00     0.040 A 
ATOM     15  F   UNL A   1      34.320  28.158  24.012  1.00  0.00    -0.206 F 
BRANCH  10  16
ATOM     16  N   UNL A   1      32.629  23.660  24.007  1.00  0.00    -0.363 N 
ATOM     17  C   UNL A   1      33.519  22.539  23.612  1.00  0.00     0.108 C 
ATOM     18  C   UNL A   1      33.543  21.527  24.794  1.00  0.00     0.185 C 
ATOM     19  O   UNL A   1      32.231  21.091  25.189  1.00  0.00    -0.375 OA
ATOM     20  C   UNL A   1      31.288  23.247  24.437  1.00  0.00     0.148 C 
ATOM     21  C   UNL A   1      31.375  22.190  25.557  1.00  0.00     0.134 C 
ATOM     22  C   UNL A   1      31.758  22.783  26.914  1.00  0.00     0.040 C 
BRANCH  17  23
ATOM     23  C   UNL A   1      34.985  22.905  23.287  1.00  0.00     0.024 C 
ATOM     24  C   UNL A   1      36.037  22.464  24.299  1.00  0.00     0.006 C 
ENDBRANCH  17  23
ENDBRANCH  10  16
ENDBRANCH   6   9
ENDBRANCH   4   5
ENDBRANCH   3   4
ENDBRANCH   2   3
ENDBRANCH   1   2
BRANCH   1  25
ATOM     25  C   UNL A   1      31.522  31.940  26.930  1.00  0.00     0.021 C 
BRANCH  25  26
ATOM     26  C   UNL A   1      32.792  32.705  27.288  1.00  0.00     0.116 C 
BRANCH  26  27
ATOM     27  N   UNL A   1      32.540  34.080  27.683  1.00  0.00    -0.352 N 
ATOM     28  C   UNL A   1      33.150  34.839  28.654  1.00  0.00     0.251 C 
ATOM     29  H   UNL A   1      31.828  34.537  27.180  1.00  0.00     0.163 HD
ATOM     30  O   UNL A   1      32.711  35.955  28.918  1.00  0.00    -0.269 OA
BRANCH  28  31
ATOM     31  C   UNL A   1      34.317  34.313  29.403  1.00  0.00     0.039 A 
ATOM     32  C   UNL A   1      34.091  33.609  30.591  1.00  0.00     0.014 A 
ATOM     33  C   UNL A   1      35.626  34.521  28.959  1.00  0.00     0.014 A 
ATOM     34  C   UNL A   1      35.168  33.062  31.295  1.00  0.00     0.010 A 
ATOM     35  C   UNL A   1      36.693  33.921  29.627  1.00  0.00     0.010 A 
ATOM     36  C   UNL A   1      36.477  33.186  30.803  1.00  0.00    -0.014 A 
BRANCH  36  37
ATOM     37  C   UNL A   1      37.626  32.541  31.492  1.00  0.00     0.031 A 
ATOM     38  C   UNL A   1      38.346  31.381  30.857  1.00  0.00     0.074 A 
ATOM     39  C   UNL A   1      37.973  32.946  32.731  1.00  0.00     0.049 A 
ATOM     40  N   UNL A   1      39.325  30.659  31.335  1.00  0.00    -0.248 NA
ATOM     41  C   UNL A   1      37.892  30.963  29.521  1.00  0.00     0.031 C 
ATOM     42  C   UNL A   1      37.309  34.011  33.486  1.00  0.00     0.029 A 
ATOM     43  N   UNL A   1      38.950  32.495  33.584  1.00  0.00    -0.354 N 
ATOM     44  C   UNL A   1      39.583  29.684  30.380  1.00  0.00     0.074 A 
ATOM     45  C   UNL A   1      38.637  29.887  29.304  1.00  0.00     0.031 C 
ATOM     46  C   UNL A   1      37.902  34.135  34.684  1.00  0.00     0.029 A 
ATOM     47  C   UNL A   1      38.967  33.143  34.797  1.00  0.00     0.049 A 
ATOM     48  H   UNL A   1      39.581  31.776  33.349  1.00  0.00     0.167 HD
ATOM     49  C   UNL A   1      40.539  28.725  30.381  1.00  0.00     0.034 A 
ATOM     50  C   UNL A   1      39.747  32.960  35.882  1.00  0.00     0.034 A 
ATOM     51  C   UNL A   1      41.515  28.559  31.425  1.00  0.00     0.049 A 
ATOM     52  C   UNL A   1      40.831  31.917  35.842  1.00  0.00     0.074 A 
ATOM     53  C   UNL A   1      42.578  27.674  31.472  1.00  0.00     0.029 A 
ATOM     54  N   UNL A   1      41.550  29.289  32.603  1.00  0.00    -0.354 N 
ATOM     55  N   UNL A   1      41.152  31.102  34.866  1.00  0.00    -0.248 NA
ATOM     56  C   UNL A   1      41.682  31.789  37.034  1.00  0.00     0.031 C 
ATOM     57  C   UNL A   1      43.245  27.857  32.686  1.00  0.00     0.029 A 
ATOM     58  C   UNL A   1      42.612  28.871  33.386  1.00  0.00     0.049 A 
ATOM     59  H   UNL A   1      40.914  30.001  32.846  1.00  0.00     0.167 HD
ATOM     60  C   UNL A   1      42.258  30.387  35.312  1.00  0.00     0.074 A 
ATOM     61  C   UNL A   1      42.564  30.879  36.640  1.00  0.00     0.031 C 
ATOM     62  C   UNL A   1      42.944  29.403  34.683  1.00  0.00     0.034 A 
BRANCH  49  63
ATOM     63  C   UNL A   1      40.634  27.815  29.184  1.00  0.00     0.023 A 
ATOM     64  C   UNL A   1      39.720  26.748  29.057  1.00  0.00     0.012 A 
ATOM     65  C   UNL A   1      41.550  28.070  28.146  1.00  0.00     0.148 A 
ATOM     66  C   UNL A   1      39.733  25.935  27.925  1.00  0.00     0.002 A 
ATOM     67  C   UNL A   1      41.527  27.281  27.000  1.00  0.00     0.091 A 
ATOM     68  F   UNL A   1      42.422  29.077  28.295  1.00  0.00    -0.205 F 
ATOM     69  C   UNL A   1      40.626  26.209  26.893  1.00  0.00     0.022 A 
BRANCH  67  70
ATOM     70  S   UNL A   1      42.581  27.601  25.581  1.00  0.00     0.127 S 
ATOM     71  O   UNL A   1      42.011  28.846  25.066  1.00  0.00    -0.237 OA
ATOM     72  O   UNL A   1      43.898  27.745  26.201  1.00  0.00    -0.237 OA
ATOM     73  O   UNL A   1      42.442  26.445  24.707  1.00  0.00    -0.744 OA
ENDBRANCH  67  70
ENDBRANCH  49  63
BRANCH  50  74
ATOM     74  C   UNL A   1      39.576  33.849  37.067  1.00  0.00     0.023 A 
ATOM     75  C   UNL A   1      39.969  35.197  36.977  1.00  0.00     0.012 A 
ATOM     76  C   UNL A   1      38.967  33.388  38.251  1.00  0.00     0.148 A 
ATOM     77  C   UNL A   1      39.775  36.068  38.049  1.00  0.00     0.002 A 
ATOM     78  C   UNL A   1      38.726  34.274  39.295  1.00  0.00     0.091 A 
ATOM     79  F   UNL A   1      38.613  32.097  38.321  1.00  0.00    -0.205 F 
ATOM     80  C   UNL A   1      39.142  35.611  39.201  1.00  0.00     0.022 A 
BRANCH  78  81
ATOM     81  S   UNL A   1      37.795  33.811  40.759  1.00  0.00     0.127 S 
ATOM     82  O   UNL A   1      37.596  35.102  41.409  1.00  0.00    -0.237 OA
ATOM     83  O   UNL A   1      36.590  33.219  40.177  1.00  0.00    -0.237 OA
ATOM     84  O   UNL A   1      38.640  32.864  41.480  1.00  0.00    -0.744 OA
ENDBRANCH  78  81
ENDBRANCH  50  74
BRANCH  62  85
ATOM     85  C   UNL A   1      44.117  28.784  35.398  1.00  0.00     0.023 A 
ATOM     86  C   UNL A   1      45.397  29.354  35.253  1.00  0.00     0.012 A 
ATOM     87  C   UNL A   1      43.930  27.725  36.308  1.00  0.00     0.148 A 
ATOM     88  C   UNL A   1      46.476  28.869  35.991  1.00  0.00     0.002 A 
ATOM     89  C   UNL A   1      45.000  27.278  37.074  1.00  0.00     0.091 A 
ATOM     90  F   UNL A   1      42.706  27.185  36.417  1.00  0.00    -0.205 F 
ATOM     91  C   UNL A   1      46.275  27.843  36.911  1.00  0.00     0.022 A 
BRANCH  89  92
ATOM     92  S   UNL A   1      44.815  26.032  38.356  1.00  0.00     0.127 S 
ATOM     93  O   UNL A   1      46.186  25.902  38.846  1.00  0.00    -0.237 OA
ATOM     94  O   UNL A   1      43.893  26.681  39.288  1.00  0.00    -0.237 OA
ATOM     95  O   UNL A   1      44.274  24.852  37.694  1.00  0.00    -0.744 OA
ENDBRANCH  89  92
ENDBRANCH  62  85
ENDBRANCH  36  37
ENDBRANCH  28  31
ENDBRANCH  26  27
ENDBRANCH  25  26
ENDBRANCH   1  25
TORSDOF 18
ENDMDL
MODEL 2
REMARK VINA RESULT:     -11.5      5.333      8.645
REMARK SMILES CC[C@H]1CO[C@@H](C)CN1c1cccc(F)c1C(=O)NCCCCCCNC(=O)c1ccc(-c2c3nc(c(-c4cccc(S(=O)(=O)[O-])c4F)c4ccc([nH]4)c(-c4cccc(S(=O)(=O)[O-])c4F)c4nc(c(-c5cccc(S(=O)(=O)[O-])c5F)c5ccc2[nH]5)C=C4)C=C3)cc1
REMARK SMILES IDX 23 1 22 2 21 3 20 4 19 5 17 6 18 7 16 9 10 10 11 11 12 12
REMARK SMILES IDX 14 13 13 14 15 15 9 16 3 17 4 18 5 19 8 20 6 21 7 22 2 23
REMARK SMILES IDX 1 24 24 25 25 26 26 27 27 28 28 30 29 31 30 32 91 33 31 34
REMARK SMILES IDX 90 35 32 36 33 37 34 38 84 39 35 40 89 41 83 42 85 43 36 44
REMARK SMILES IDX 88 45 82 46 81 47 37 49 69 50 49 51 68 52 50 53 53 54 67 55
REMARK SMILES IDX 86 56 51 57 52 58 66 60 87 61 54 62 38 63 39 64 47 65 40 66
REMARK SMILES IDX 42 67 48 68 41 69 43 70 44 71 45 72 46 73 70 74 71 75 79 76
REMARK SMILES IDX 72 77 74 78 80 79 73 80 75 81 76 82 77 83 78 84 55 85 56 86
REMARK SMILES IDX 64 87 57 88 59 89 65 90 58 91 60 92 61 93 62 94 63 95
REMARK H PARENT 19 8 26 29 85 48 53 59
REMARK Flexibility Score: inf
ROOT
ATOM      1  C   UNL A   1      34.310  22.288  26.110  1.00  0.00     0.002 C 
ENDROOT
BRANCH   1   2
ATOM      2  C   UNL A   1      32.902  21.922  25.640  1.00  0.00     0.002 C 
BRANCH   2   3
ATOM      3  C   UNL A   1      31.721  22.609  26.324  1.00  0.00     0.021 C 
BRANCH   3   4
ATOM      4  C   UNL A   1      31.925  24.016  26.875  1.00  0.00     0.116 C 
BRANCH   4   5
ATOM      5  N   UNL A   1      30.912  24.989  26.510  1.00  0.00    -0.352 N 
ATOM      6  C   UNL A   1      30.604  25.474  25.252  1.00  0.00     0.256 C 
ATOM      7  O   UNL A   1      29.492  25.967  25.070  1.00  0.00    -0.269 OA
ATOM      8  H   UNL A   1      30.377  25.349  27.253  1.00  0.00     0.163 HD
BRANCH   6   9
ATOM      9  C   UNL A   1      31.622  25.470  24.170  1.00  0.00     0.098 A 
ATOM     10  C   UNL A   1      32.560  26.522  24.073  1.00  0.00     0.053 A 
ATOM     11  C   UNL A   1      33.614  26.395  23.148  1.00  0.00     0.027 A 
ATOM     12  C   UNL A   1      33.680  25.309  22.273  1.00  0.00     0.005 A 
ATOM     13  C   UNL A   1      31.652  24.437  23.233  1.00  0.00     0.138 A 
ATOM     14  C   UNL A   1      32.677  24.345  22.294  1.00  0.00     0.040 A 
ATOM     15  F   UNL A   1      30.695  23.498  23.214  1.00  0.00    -0.206 F 
BRANCH  10  16
ATOM     16  N   UNL A   1      32.432  27.682  24.821  1.00  0.00    -0.363 N 
ATOM     17  C   UNL A   1      32.062  28.975  24.193  1.00  0.00     0.108 C 
ATOM     18  C   UNL A   1      31.444  29.871  25.305  1.00  0.00     0.185 C 
ATOM     19  O   UNL A   1      32.306  30.026  26.446  1.00  0.00    -0.375 OA
ATOM     20  C   UNL A   1      33.295  27.806  26.002  1.00  0.00     0.148 C 
ATOM     21  C   UNL A   1      32.667  28.763  27.037  1.00  0.00     0.134 C 
ATOM     22  C   UNL A   1      31.502  28.137  27.805  1.00  0.00     0.040 C 
BRANCH  17  23
ATOM     23  C   UNL A   1      31.042  28.910  23.033  1.00  0.00     0.024 C 
ATOM     24  C   UNL A   1      29.756  29.708  23.212  1.00  0.00     0.006 C 
ENDBRANCH  17  23
ENDBRANCH  10  16
ENDBRANCH   6   9
ENDBRANCH   4   5
ENDBRANCH   3   4
ENDBRANCH   2   3
ENDBRANCH   1   2
BRANCH   1  25
ATOM     25  C   UNL A   1      35.133  23.217  25.216  1.00  0.00     0.021 C 
BRANCH  25  26
ATOM     26  C   UNL A   1      36.457  23.716  25.783  1.00  0.00     0.116 C 
BRANCH  26  27
ATOM     27  N   UNL A   1      37.453  22.667  25.920  1.00  0.00    -0.352 N 
ATOM     28  C   UNL A   1      38.761  22.750  26.337  1.00  0.00     0.251 C 
ATOM     29  H   UNL A   1      37.146  21.763  25.682  1.00  0.00     0.163 HD
ATOM     30  O   UNL A   1      39.483  21.758  26.272  1.00  0.00    -0.269 OA
BRANCH  28  31
ATOM     31  C   UNL A   1      39.316  24.031  26.838  1.00  0.00     0.039 A 
ATOM     32  C   UNL A   1      39.942  24.892  25.932  1.00  0.00     0.014 A 
ATOM     33  C   UNL A   1      39.240  24.381  28.189  1.00  0.00     0.014 A 
ATOM     34  C   UNL A   1      40.435  26.127  26.368  1.00  0.00     0.010 A 
ATOM     35  C   UNL A   1      39.673  25.638  28.610  1.00  0.00     0.010 A 
ATOM     36  C   UNL A   1      40.277  26.525  27.705  1.00  0.00    -0.014 A 
BRANCH  36  37
ATOM     37  C   UNL A   1      40.717  27.867  28.169  1.00  0.00     0.031 A 
ATOM     38  C   UNL A   1      42.178  28.227  28.190  1.00  0.00     0.074 A 
ATOM     39  C   UNL A   1      39.806  28.737  28.651  1.00  0.00     0.049 A 
ATOM     40  N   UNL A   1      42.750  29.323  28.617  1.00  0.00    -0.248 NA
ATOM     41  C   UNL A   1      43.124  27.217  27.689  1.00  0.00     0.031 C 
ATOM     42  C   UNL A   1      38.368  28.482  28.751  1.00  0.00     0.029 A 
ATOM     43  N   UNL A   1      39.956  30.000  29.169  1.00  0.00    -0.354 N 
ATOM     44  C   UNL A   1      44.117  29.125  28.469  1.00  0.00     0.074 A 
ATOM     45  C   UNL A   1      44.294  27.790  27.939  1.00  0.00     0.031 C 
ATOM     46  C   UNL A   1      37.768  29.555  29.290  1.00  0.00     0.029 A 
ATOM     47  C   UNL A   1      38.777  30.563  29.601  1.00  0.00     0.049 A 
ATOM     48  H   UNL A   1      40.825  30.460  29.226  1.00  0.00     0.167 HD
ATOM     49  C   UNL A   1      45.132  29.985  28.721  1.00  0.00     0.034 A 
ATOM     50  C   UNL A   1      38.533  31.754  30.186  1.00  0.00     0.034 A 
ATOM     51  C   UNL A   1      44.952  31.330  29.195  1.00  0.00     0.049 A 
ATOM     52  C   UNL A   1      39.673  32.709  30.415  1.00  0.00     0.074 A 
ATOM     53  C   UNL A   1      45.913  32.305  29.395  1.00  0.00     0.029 A 
ATOM     54  N   UNL A   1      43.734  31.893  29.545  1.00  0.00    -0.354 N 
ATOM     55  N   UNL A   1      40.943  32.556  30.130  1.00  0.00    -0.248 NA
ATOM     56  C   UNL A   1      39.346  34.012  31.013  1.00  0.00     0.031 C 
ATOM     57  C   UNL A   1      45.280  33.452  29.882  1.00  0.00     0.029 A 
ATOM     58  C   UNL A   1      43.920  33.199  29.965  1.00  0.00     0.049 A 
ATOM     59  H   UNL A   1      42.865  31.432  29.500  1.00  0.00     0.167 HD
ATOM     60  C   UNL A   1      41.562  33.750  30.484  1.00  0.00     0.074 A 
ATOM     61  C   UNL A   1      40.523  34.624  30.988  1.00  0.00     0.031 C 
ATOM     62  C   UNL A   1      42.874  34.082  30.413  1.00  0.00     0.034 A 
BRANCH  49  63
ATOM     63  C   UNL A   1      46.537  29.530  28.423  1.00  0.00     0.023 A 
ATOM     64  C   UNL A   1      47.127  29.881  27.191  1.00  0.00     0.012 A 
ATOM     65  C   UNL A   1      47.304  28.851  29.389  1.00  0.00     0.148 A 
ATOM     66  C   UNL A   1      48.451  29.540  26.916  1.00  0.00     0.002 A 
ATOM     67  C   UNL A   1      48.636  28.553  29.125  1.00  0.00     0.091 A 
ATOM     68  F   UNL A   1      46.719  28.510  30.547  1.00  0.00    -0.205 F 
ATOM     69  C   UNL A   1      49.208  28.890  27.886  1.00  0.00     0.022 A 
BRANCH  67  70
ATOM     70  S   UNL A   1      49.720  27.790  30.337  1.00  0.00     0.127 S 
ATOM     71  O   UNL A   1      51.040  28.142  29.816  1.00  0.00    -0.237 OA
ATOM     72  O   UNL A   1      49.346  28.488  31.567  1.00  0.00    -0.237 OA
ATOM     73  O   UNL A   1      49.403  26.369  30.323  1.00  0.00    -0.744 OA
ENDBRANCH  67  70
ENDBRANCH  49  63
BRANCH  50  74
ATOM     74  C   UNL A   1      37.130  32.135  30.516  1.00  0.00     0.023 A 
ATOM     75  C   UNL A   1      36.664  31.963  31.833  1.00  0.00     0.012 A 
ATOM     76  C   UNL A   1      36.283  32.726  29.559  1.00  0.00     0.148 A 
ATOM     77  C   UNL A   1      35.374  32.358  32.188  1.00  0.00     0.002 A 
ATOM     78  C   UNL A   1      35.019  33.168  29.932  1.00  0.00     0.091 A 
ATOM     79  F   UNL A   1      36.742  32.868  28.307  1.00  0.00    -0.205 F 
ATOM     80  C   UNL A   1      34.557  32.972  31.243  1.00  0.00     0.022 A 
BRANCH  78  81
ATOM     81  S   UNL A   1      33.952  34.093  28.822  1.00  0.00     0.127 S 
ATOM     82  O   UNL A   1      32.956  34.632  29.742  1.00  0.00    -0.237 OA
ATOM     83  O   UNL A   1      34.877  35.080  28.266  1.00  0.00    -0.237 OA
ATOM     84  O   UNL A   1      33.457  33.121  27.853  1.00  0.00    -0.744 OA
ENDBRANCH  78  81
ENDBRANCH  50  74
BRANCH  62  85
ATOM     85  C   UNL A   1      43.286  35.457  30.869  1.00  0.00     0.023 A 
ATOM     86  C   UNL A   1      43.688  35.654  32.205  1.00  0.00     0.012 A 
ATOM     87  C   UNL A   1      43.396  36.519  29.949  1.00  0.00     0.148 A 
ATOM     88  C   UNL A   1      44.180  36.890  32.621  1.00  0.00     0.002 A 
ATOM     89  C   UNL A   1      43.930  37.734  30.360  1.00  0.00     0.091 A 
ATOM     90  F   UNL A   1      42.991  36.315  28.686  1.00  0.00    -0.205 F 
ATOM     91  C   UNL A   1      44.315  37.925  31.697  1.00  0.00     0.022 A 
BRANCH  89  92
ATOM     92  S   UNL A   1      44.237  39.089  29.220  1.00  0.00     0.127 S 
ATOM     93  O   UNL A   1      44.772  38.383  28.056  1.00  0.00    -0.237 OA
ATOM     94  O   UNL A   1      42.898  39.646  29.032  1.00  0.00    -0.237 OA
ATOM     95  O   UNL A   1      45.174  39.977  29.894  1.00  0.00    -0.744 OA
ENDBRANCH  89  92
ENDBRANCH  62  85
ENDBRANCH  36  37
ENDBRANCH  28  31
ENDBRANCH  26  27
ENDBRANCH  25  26
ENDBRANCH   1  25
TORSDOF 18
ENDMDL
MODEL 3
REMARK VINA RESULT:     -11.5      6.306     11.487
REMARK SMILES CC[C@H]1CO[C@@H](C)CN1c1cccc(F)c1C(=O)NCCCCCCNC(=O)c1ccc(-c2c3nc(c(-c4cccc(S(=O)(=O)[O-])c4F)c4ccc([nH]4)c(-c4cccc(S(=O)(=O)[O-])c4F)c4nc(c(-c5cccc(S(=O)(=O)[O-])c5F)c5ccc2[nH]5)C=C4)C=C3)cc1
REMARK SMILES IDX 23 1 22 2 21 3 20 4 19 5 17 6 18 7 16 9 10 10 11 11 12 12
REMARK SMILES IDX 14 13 13 14 15 15 9 16 3 17 4 18 5 19 8 20 6 21 7 22 2 23
REMARK SMILES IDX 1 24 24 25 25 26 26 27 27 28 28 30 29 31 30 32 91 33 31 34
REMARK SMILES IDX 90 35 32 36 33 37 34 38 84 39 35 40 89 41 83 42 85 43 36 44
REMARK SMILES IDX 88 45 82 46 81 47 37 49 69 50 49 51 68 52 50 53 53 54 67 55
REMARK SMILES IDX 86 56 51 57 52 58 66 60 87 61 54 62 38 63 39 64 47 65 40 66
REMARK SMILES IDX 42 67 48 68 41 69 43 70 44 71 45 72 46 73 70 74 71 75 79 76
REMARK SMILES IDX 72 77 74 78 80 79 73 80 75 81 76 82 77 83 78 84 55 85 56 86
REMARK SMILES IDX 64 87 57 88 59 89 65 90 58 91 60 92 61 93 62 94 63 95
REMARK H PARENT 19 8 26 29 85 48 53 59
REMARK Flexibility Score: inf
ROOT
ATOM      1  C   UNL A   1      36.211  19.876  25.050  1.00  0.00     0.002 C 
ENDROOT
BRANCH   1   2
ATOM      2  C   UNL A   1      35.209  20.944  24.610  1.00  0.00     0.002 C 
BRANCH   2   3
ATOM      3  C   UNL A   1      35.755  22.317  24.219  1.00  0.00     0.021 C 
BRANCH   3   4
ATOM      4  C   UNL A   1      34.828  23.277  23.481  1.00  0.00     0.116 C 
BRANCH   4   5
ATOM      5  N   UNL A   1      34.777  24.630  24.003  1.00  0.00    -0.352 N 
ATOM      6  C   UNL A   1      34.159  25.080  25.156  1.00  0.00     0.256 C 
ATOM      7  O   UNL A   1      34.540  26.140  25.649  1.00  0.00    -0.269 OA
ATOM      8  H   UNL A   1      35.240  25.314  23.468  1.00  0.00     0.163 HD
BRANCH   6   9
ATOM      9  C   UNL A   1      33.010  24.339  25.736  1.00  0.00     0.098 A 
ATOM     10  C   UNL A   1      31.693  24.617  25.304  1.00  0.00     0.053 A 
ATOM     11  C   UNL A   1      30.653  23.777  25.746  1.00  0.00     0.027 A 
ATOM     12  C   UNL A   1      30.892  22.756  26.669  1.00  0.00     0.005 A 
ATOM     13  C   UNL A   1      33.217  23.375  26.723  1.00  0.00     0.138 A 
ATOM     14  C   UNL A   1      32.172  22.577  27.182  1.00  0.00     0.040 A 
ATOM     15  F   UNL A   1      34.434  23.184  27.251  1.00  0.00    -0.206 F 
BRANCH  10  16
ATOM     16  N   UNL A   1      31.405  25.716  24.510  1.00  0.00    -0.363 N 
ATOM     17  C   UNL A   1      30.739  26.921  25.064  1.00  0.00     0.108 C 
ATOM     18  C   UNL A   1      31.094  28.117  24.133  1.00  0.00     0.185 C 
ATOM     19  O   UNL A   1      30.763  27.874  22.755  1.00  0.00    -0.375 OA
ATOM     20  C   UNL A   1      31.105  25.451  23.098  1.00  0.00     0.148 C 
ATOM     21  C   UNL A   1      31.406  26.694  22.235  1.00  0.00     0.134 C 
ATOM     22  C   UNL A   1      32.901  26.914  22.000  1.00  0.00     0.040 C 
BRANCH  17  23
ATOM     23  C   UNL A   1      31.132  27.325  26.504  1.00  0.00     0.024 C 
ATOM     24  C   UNL A   1      32.085  28.507  26.643  1.00  0.00     0.006 C 
ENDBRANCH  17  23
ENDBRANCH  10  16
ENDBRANCH   6   9
ENDBRANCH   4   5
ENDBRANCH   3   4
ENDBRANCH   2   3
ENDBRANCH   1   2
BRANCH   1  25
ATOM     25  C   UNL A   1      37.670  20.064  24.629  1.00  0.00     0.021 C 
BRANCH  25  26
ATOM     26  C   UNL A   1      38.667  20.382  25.739  1.00  0.00     0.116 C 
BRANCH  26  27
ATOM     27  N   UNL A   1      39.712  19.382  25.873  1.00  0.00    -0.352 N 
ATOM     28  C   UNL A   1      41.052  19.546  26.132  1.00  0.00     0.251 C 
ATOM     29  H   UNL A   1      39.418  18.449  25.763  1.00  0.00     0.163 HD
ATOM     30  O   UNL A   1      41.803  18.574  26.090  1.00  0.00    -0.269 OA
BRANCH  28  31
ATOM     31  C   UNL A   1      41.606  20.888  26.436  1.00  0.00     0.039 A 
ATOM     32  C   UNL A   1      41.878  21.759  25.376  1.00  0.00     0.014 A 
ATOM     33  C   UNL A   1      41.875  21.288  27.748  1.00  0.00     0.014 A 
ATOM     34  C   UNL A   1      42.358  23.047  25.634  1.00  0.00     0.010 A 
ATOM     35  C   UNL A   1      42.292  22.593  28.008  1.00  0.00     0.010 A 
ATOM     36  C   UNL A   1      42.539  23.487  26.955  1.00  0.00    -0.014 A 
BRANCH  36  37
ATOM     37  C   UNL A   1      42.967  24.879  27.254  1.00  0.00     0.031 A 
ATOM     38  C   UNL A   1      42.012  25.854  27.888  1.00  0.00     0.074 A 
ATOM     39  C   UNL A   1      44.195  25.293  26.878  1.00  0.00     0.049 A 
ATOM     40  N   UNL A   1      42.191  27.120  28.164  1.00  0.00    -0.248 NA
ATOM     41  C   UNL A   1      40.674  25.350  28.236  1.00  0.00     0.031 C 
ATOM     42  C   UNL A   1      45.190  24.467  26.192  1.00  0.00     0.029 A 
ATOM     43  N   UNL A   1      44.807  26.517  26.998  1.00  0.00    -0.354 N 
ATOM     44  C   UNL A   1      40.985  27.571  28.685  1.00  0.00     0.074 A 
ATOM     45  C   UNL A   1      40.069  26.451  28.660  1.00  0.00     0.031 C 
ATOM     46  C   UNL A   1      46.287  25.204  25.957  1.00  0.00     0.029 A 
ATOM     47  C   UNL A   1      46.067  26.560  26.448  1.00  0.00     0.049 A 
ATOM     48  H   UNL A   1      44.383  27.291  27.436  1.00  0.00     0.167 HD
ATOM     49  C   UNL A   1      40.674  28.797  29.169  1.00  0.00     0.034 A 
ATOM     50  C   UNL A   1      46.948  27.577  26.346  1.00  0.00     0.034 A 
ATOM     51  C   UNL A   1      41.601  29.894  29.244  1.00  0.00     0.049 A 
ATOM     52  C   UNL A   1      46.596  28.917  26.931  1.00  0.00     0.074 A 
ATOM     53  C   UNL A   1      41.405  31.146  29.801  1.00  0.00     0.029 A 
ATOM     54  N   UNL A   1      42.896  29.875  28.751  1.00  0.00    -0.354 N 
ATOM     55  N   UNL A   1      45.500  29.281  27.553  1.00  0.00    -0.248 NA
ATOM     56  C   UNL A   1      47.609  29.979  26.833  1.00  0.00     0.031 C 
ATOM     57  C   UNL A   1      42.575  31.890  29.628  1.00  0.00     0.029 A 
ATOM     58  C   UNL A   1      43.509  31.094  28.984  1.00  0.00     0.049 A 
ATOM     59  H   UNL A   1      43.319  29.106  28.302  1.00  0.00     0.167 HD
ATOM     60  C   UNL A   1      45.702  30.600  27.946  1.00  0.00     0.074 A 
ATOM     61  C   UNL A   1      47.034  30.966  27.510  1.00  0.00     0.031 C 
ATOM     62  C   UNL A   1      44.854  31.433  28.595  1.00  0.00     0.034 A 
BRANCH  49  63
ATOM     63  C   UNL A   1      39.291  29.011  29.727  1.00  0.00     0.023 A 
ATOM     64  C   UNL A   1      39.026  28.653  31.065  1.00  0.00     0.012 A 
ATOM     65  C   UNL A   1      38.290  29.650  28.970  1.00  0.00     0.148 A 
ATOM     66  C   UNL A   1      37.779  28.907  31.633  1.00  0.00     0.002 A 
ATOM     67  C   UNL A   1      37.063  29.940  29.558  1.00  0.00     0.091 A 
ATOM     68  F   UNL A   1      38.556  29.966  27.694  1.00  0.00    -0.205 F 
ATOM     69  C   UNL A   1      36.804  29.561  30.886  1.00  0.00     0.022 A 
BRANCH  67  70
ATOM     70  S   UNL A   1      35.770  30.851  28.707  1.00  0.00     0.127 S 
ATOM     71  O   UNL A   1      36.544  31.873  28.003  1.00  0.00    -0.237 OA
ATOM     72  O   UNL A   1      35.190  29.824  27.841  1.00  0.00    -0.237 OA
ATOM     73  O   UNL A   1      34.878  31.349  29.744  1.00  0.00    -0.744 OA
ENDBRANCH  67  70
ENDBRANCH  49  63
BRANCH  50  74
ATOM     74  C   UNL A   1      48.284  27.331  25.732  1.00  0.00     0.023 A 
ATOM     75  C   UNL A   1      49.328  26.834  26.535  1.00  0.00     0.012 A 
ATOM     76  C   UNL A   1      48.506  27.519  24.354  1.00  0.00     0.148 A 
ATOM     77  C   UNL A   1      50.575  26.543  25.981  1.00  0.00     0.002 A 
ATOM     78  C   UNL A   1      49.734  27.176  23.798  1.00  0.00     0.091 A 
ATOM     79  F   UNL A   1      47.503  28.006  23.610  1.00  0.00    -0.205 F 
ATOM     80  C   UNL A   1      50.774  26.701  24.612  1.00  0.00     0.022 A 
BRANCH  78  81
ATOM     81  S   UNL A   1      50.037  27.213  22.028  1.00  0.00     0.127 S 
ATOM     82  O   UNL A   1      49.025  26.287  21.530  1.00  0.00    -0.237 OA
ATOM     83  O   UNL A   1      49.797  28.620  21.709  1.00  0.00    -0.237 OA
ATOM     84  O   UNL A   1      51.422  26.786  21.858  1.00  0.00    -0.744 OA
ENDBRANCH  78  81
ENDBRANCH  50  74
BRANCH  62  85
ATOM     85  C   UNL A   1      45.325  32.830  28.904  1.00  0.00     0.023 A 
ATOM     86  C   UNL A   1      46.092  33.064  30.062  1.00  0.00     0.012 A 
ATOM     87  C   UNL A   1      45.119  33.879  27.986  1.00  0.00     0.148 A 
ATOM     88  C   UNL A   1      46.633  34.325  30.310  1.00  0.00     0.002 A 
ATOM     89  C   UNL A   1      45.701  35.120  28.216  1.00  0.00     0.091 A 
ATOM     90  F   UNL A   1      44.372  33.639  26.898  1.00  0.00    -0.205 F 
ATOM     91  C   UNL A   1      46.451  35.347  29.382  1.00  0.00     0.022 A 
BRANCH  89  92
ATOM     92  S   UNL A   1      45.608  36.466  27.028  1.00  0.00     0.127 S 
ATOM     93  O   UNL A   1      46.398  37.503  27.690  1.00  0.00    -0.237 OA
ATOM     94  O   UNL A   1      46.238  35.879  25.846  1.00  0.00    -0.237 OA
ATOM     95  O   UNL A   1      44.191  36.766  26.873  1.00  0.00    -0.744 OA
ENDBRANCH  89  92
ENDBRANCH  62  85
ENDBRANCH  36  37
ENDBRANCH  28  31
ENDBRANCH  26  27
ENDBRANCH  25  26
ENDBRANCH   1  25
TORSDOF 18
ENDMDL
