MODEL 1
REMARK VINA RESULT:     -12.4      0.000      0.000
REMARK SMILES Cc1ccc2cc(C[N@H+]3CC[NH2+][C@H](C(=O)NCCCCCCNC(=O)c4ccc(-c5c6nc(c(-c7cccc(S(=O)(=O)[O-])c7F)c7ccc([nH]7)c(-c7cccc(S(=O)(=O)[O-])c7F)c7nc(c(-c8cccc(S(=O)(=O)[O-])c8F)c8ccc5[nH]8)C=C7)C=C6)cc4)C3)c(N3CCOCC3)nc2c1
REMARK SMILES IDX 19 1 18 2 17 3 16 4 14 5 15 6 13 8 9 9 10 10 89 11 11 13
REMARK SMILES IDX 12 14 8 17 7 18 1 19 2 20 3 21 99 22 4 23 98 24 5 25 97 26
REMARK SMILES IDX 6 27 90 28 91 29 92 30 96 31 93 32 95 33 94 34 20 35 21 36
REMARK SMILES IDX 22 37 23 38 24 39 25 41 26 42 27 43 88 44 28 45 87 46 29 47
REMARK SMILES IDX 30 48 31 49 81 50 32 51 86 52 80 53 82 54 33 55 85 56 79 57
REMARK SMILES IDX 78 58 34 60 66 61 46 62 65 63 47 64 50 65 64 66 83 67 48 68
REMARK SMILES IDX 49 69 63 71 84 72 51 73 35 74 36 75 44 76 37 77 39 78 45 79
REMARK SMILES IDX 38 80 40 81 41 82 42 83 43 84 67 85 68 86 76 87 69 88 71 89
REMARK SMILES IDX 77 90 70 91 72 92 73 93 74 94 75 95 52 96 53 97 61 98 54 99
REMARK SMILES IDX 56 100 62 101 55 102 57 103 58 104 59 105 60 106
REMARK H PARENT 16 7 9 12 12 15 12 16 23 40 82 59 50 70
REMARK Flexibility Score: inf
ROOT
ATOM      1  C   UNL A   1      35.936  21.806  24.401  1.00  0.00     0.002 C 
ENDROOT
BRANCH   1   2
ATOM      2  C   UNL A   1      34.594  21.684  25.132  1.00  0.00     0.021 C 
BRANCH   2   3
ATOM      3  C   UNL A   1      33.400  21.725  24.174  1.00  0.00     0.116 C 
BRANCH   3   4
ATOM      4  N   UNL A   1      32.286  22.381  24.832  1.00  0.00    -0.351 N 
ATOM      5  C   UNL A   1      31.940  23.708  24.813  1.00  0.00     0.284 C 
ATOM      6  O   UNL A   1      31.316  24.138  25.787  1.00  0.00    -0.268 OA
ATOM      7  H   UNL A   1      31.700  21.794  25.364  1.00  0.00     0.163 HD
BRANCH   5   8
ATOM      8  C   UNL A   1      32.217  24.547  23.549  1.00  0.00     0.328 C 
ATOM      9  N   UNL A   1      31.483  26.452  22.050  1.00  0.00    -0.321 N 
ATOM     10  C   UNL A   1      31.935  25.652  20.903  1.00  0.00     0.324 C 
ATOM     11  C   UNL A   1      31.122  25.565  23.166  1.00  0.00     0.339 C 
ATOM     12  H   UNL A   1      30.631  26.932  21.759  1.00  0.00     0.348 HD
ATOM     13  C   UNL A   1      32.903  24.482  21.226  1.00  0.00     0.323 C 
ATOM     14  N   UNL A   1      32.532  23.662  22.392  1.00  0.00    -0.327 N 
ATOM     15  H   UNL A   1      33.310  23.049  22.636  1.00  0.00     0.347 HD
ATOM     16  H   UNL A   1      31.711  23.101  22.163  1.00  0.00     0.347 HD
BRANCH   9  17
ATOM     17  C   UNL A   1      32.297  27.646  22.394  1.00  0.00     0.303 C 
BRANCH  17  18
ATOM     18  C   UNL A   1      32.168  28.239  23.787  1.00  0.00     0.049 A 
ATOM     19  C   UNL A   1      34.346  31.947  28.571  1.00  0.00     0.044 C 
ATOM     20  C   UNL A   1      33.962  30.810  27.670  1.00  0.00    -0.049 A 
ATOM     21  C   UNL A   1      34.817  29.719  27.514  1.00  0.00     0.004 A 
ATOM     22  C   UNL A   1      32.789  30.876  26.896  1.00  0.00     0.032 A 
ATOM     23  C   UNL A   1      34.499  28.716  26.605  1.00  0.00     0.010 A 
ATOM     24  C   UNL A   1      32.467  29.909  25.945  1.00  0.00     0.073 A 
ATOM     25  C   UNL A   1      33.349  28.825  25.806  1.00  0.00     0.001 A 
ATOM     26  N   UNL A   1      31.386  30.056  25.151  1.00  0.00    -0.230 NA
ATOM     27  C   UNL A   1      33.124  27.934  24.758  1.00  0.00     0.023 A 
ATOM     28  C   UNL A   1      31.221  29.224  24.094  1.00  0.00     0.138 A 
BRANCH  28  29
ATOM     29  N   UNL A   1      30.131  29.402  23.265  1.00  0.00    -0.352 N 
ATOM     30  C   UNL A   1      30.368  30.012  21.949  1.00  0.00     0.146 C 
ATOM     31  C   UNL A   1      29.048  28.422  23.269  1.00  0.00     0.146 C 
ATOM     32  C   UNL A   1      29.057  30.660  21.473  1.00  0.00     0.181 C 
ATOM     33  C   UNL A   1      27.779  29.129  22.751  1.00  0.00     0.181 C 
ATOM     34  O   UNL A   1      27.980  29.704  21.445  1.00  0.00    -0.378 OA
ENDBRANCH  28  29
ENDBRANCH  17  18
ENDBRANCH   9  17
ENDBRANCH   5   8
ENDBRANCH   3   4
ENDBRANCH   2   3
ENDBRANCH   1   2
BRANCH   1  35
ATOM     35  C   UNL A   1      37.148  21.917  25.331  1.00  0.00     0.002 C 
BRANCH  35  36
ATOM     36  C   UNL A   1      38.146  20.765  25.214  1.00  0.00     0.021 C 
BRANCH  36  37
ATOM     37  C   UNL A   1      39.341  20.873  26.153  1.00  0.00     0.116 C 
BRANCH  37  38
ATOM     38  N   UNL A   1      40.183  19.684  26.111  1.00  0.00    -0.352 N 
ATOM     39  C   UNL A   1      41.556  19.616  26.091  1.00  0.00     0.251 C 
ATOM     40  H   UNL A   1      39.708  18.822  26.094  1.00  0.00     0.163 HD
ATOM     41  O   UNL A   1      42.126  18.551  25.879  1.00  0.00    -0.269 OA
BRANCH  39  42
ATOM     42  C   UNL A   1      42.324  20.860  26.296  1.00  0.00     0.039 A 
ATOM     43  C   UNL A   1      42.586  21.304  27.595  1.00  0.00     0.014 A 
ATOM     44  C   UNL A   1      42.699  21.627  25.191  1.00  0.00     0.014 A 
ATOM     45  C   UNL A   1      43.066  22.592  27.791  1.00  0.00     0.010 A 
ATOM     46  C   UNL A   1      43.258  22.891  25.394  1.00  0.00     0.010 A 
ATOM     47  C   UNL A   1      43.395  23.405  26.693  1.00  0.00    -0.014 A 
BRANCH  47  48
ATOM     48  C   UNL A   1      43.868  24.794  26.932  1.00  0.00     0.031 A 
ATOM     49  C   UNL A   1      42.944  25.838  27.501  1.00  0.00     0.074 A 
ATOM     50  C   UNL A   1      45.154  25.102  26.673  1.00  0.00     0.049 A 
ATOM     51  N   UNL A   1      43.197  27.090  27.783  1.00  0.00    -0.248 NA
ATOM     52  C   UNL A   1      41.559  25.431  27.795  1.00  0.00     0.031 C 
ATOM     53  C   UNL A   1      46.143  24.179  26.111  1.00  0.00     0.029 A 
ATOM     54  N   UNL A   1      45.853  26.265  26.861  1.00  0.00    -0.354 N 
ATOM     55  C   UNL A   1      42.002  27.631  28.241  1.00  0.00     0.074 A 
ATOM     56  C   UNL A   1      41.018  26.572  28.204  1.00  0.00     0.031 C 
ATOM     57  C   UNL A   1      47.329  24.799  26.038  1.00  0.00     0.029 A 
ATOM     58  C   UNL A   1      47.175  26.176  26.496  1.00  0.00     0.049 A 
ATOM     59  H   UNL A   1      45.447  27.087  27.222  1.00  0.00     0.167 HD
ATOM     60  C   UNL A   1      41.753  28.889  28.672  1.00  0.00     0.034 A 
ATOM     61  C   UNL A   1      48.157  27.098  26.517  1.00  0.00     0.034 A 
ATOM     62  C   UNL A   1      42.745  29.926  28.767  1.00  0.00     0.049 A 
ATOM     63  C   UNL A   1      47.854  28.481  27.010  1.00  0.00     0.074 A 
ATOM     64  C   UNL A   1      42.590  31.218  29.238  1.00  0.00     0.029 A 
ATOM     65  N   UNL A   1      44.071  29.790  28.394  1.00  0.00    -0.354 N 
ATOM     66  N   UNL A   1      46.732  28.949  27.501  1.00  0.00    -0.248 NA
ATOM     67  C   UNL A   1      48.949  29.460  26.964  1.00  0.00     0.031 C 
ATOM     68  C   UNL A   1      43.824  31.866  29.148  1.00  0.00     0.029 A 
ATOM     69  C   UNL A   1      44.747  30.975  28.624  1.00  0.00     0.049 A 
ATOM     70  H   UNL A   1      44.473  28.973  28.020  1.00  0.00     0.167 HD
ATOM     71  C   UNL A   1      46.988  30.274  27.830  1.00  0.00     0.074 A 
ATOM     72  C   UNL A   1      48.376  30.528  27.505  1.00  0.00     0.031 C 
ATOM     73  C   UNL A   1      46.140  31.200  28.337  1.00  0.00     0.034 A 
BRANCH  60  74
ATOM     74  C   UNL A   1      40.361  29.220  29.136  1.00  0.00     0.023 A 
ATOM     75  C   UNL A   1      39.401  29.624  28.188  1.00  0.00     0.012 A 
ATOM     76  C   UNL A   1      39.977  29.021  30.476  1.00  0.00     0.148 A 
ATOM     77  C   UNL A   1      38.075  29.829  28.568  1.00  0.00     0.002 A 
ATOM     78  C   UNL A   1      38.647  29.202  30.841  1.00  0.00     0.091 A 
ATOM     79  F   UNL A   1      40.914  28.648  31.359  1.00  0.00    -0.205 F 
ATOM     80  C   UNL A   1      37.698  29.609  29.890  1.00  0.00     0.022 A 
BRANCH  78  81
ATOM     81  S   UNL A   1      38.042  28.893  32.505  1.00  0.00     0.127 S 
ATOM     82  O   UNL A   1      38.237  27.448  32.623  1.00  0.00    -0.237 OA
ATOM     83  O   UNL A   1      38.952  29.700  33.316  1.00  0.00    -0.237 OA
ATOM     84  O   UNL A   1      36.653  29.332  32.517  1.00  0.00    -0.744 OA
ENDBRANCH  78  81
ENDBRANCH  60  74
BRANCH  61  85
ATOM     85  C   UNL A   1      49.527  26.709  26.092  1.00  0.00     0.023 A 
ATOM     86  C   UNL A   1      50.282  25.849  26.912  1.00  0.00     0.012 A 
ATOM     87  C   UNL A   1      50.046  27.113  24.847  1.00  0.00     0.148 A 
ATOM     88  C   UNL A   1      51.537  25.402  26.500  1.00  0.00     0.002 A 
ATOM     89  C   UNL A   1      51.276  26.627  24.424  1.00  0.00     0.091 A 
ATOM     90  F   UNL A   1      49.307  27.938  24.092  1.00  0.00    -0.205 F 
ATOM     91  C   UNL A   1      52.028  25.780  25.252  1.00  0.00     0.022 A 
BRANCH  89  92
ATOM     92  S   UNL A   1      51.935  26.963  22.786  1.00  0.00     0.127 S 
ATOM     93  O   UNL A   1      53.004  25.973  22.687  1.00  0.00    -0.237 OA
ATOM     94  O   UNL A   1      50.772  26.703  21.938  1.00  0.00    -0.237 OA
ATOM     95  O   UNL A   1      52.366  28.354  22.811  1.00  0.00    -0.744 OA
ENDBRANCH  89  92
ENDBRANCH  61  85
BRANCH  73  96
ATOM     96  C   UNL A   1      46.673  32.583  28.582  1.00  0.00     0.023 A 
ATOM     97  C   UNL A   1      47.295  32.871  29.811  1.00  0.00     0.012 A 
ATOM     98  C   UNL A   1      46.665  33.551  27.559  1.00  0.00     0.148 A 
ATOM     99  C   UNL A   1      47.899  34.109  30.023  1.00  0.00     0.002 A 
ATOM    100  C   UNL A   1      47.296  34.771  27.766  1.00  0.00     0.091 A 
ATOM    101  F   UNL A   1      46.056  33.252  26.403  1.00  0.00    -0.205 F 
ATOM    102  C   UNL A   1      47.909  35.053  28.998  1.00  0.00     0.022 A 
BRANCH 100 103
ATOM    103  S   UNL A   1      47.428  36.021  26.483  1.00  0.00     0.127 S 
ATOM    104  O   UNL A   1      47.736  35.209  25.307  1.00  0.00    -0.237 OA
ATOM    105  O   UNL A   1      46.088  36.608  26.486  1.00  0.00    -0.237 OA
ATOM    106  O   UNL A   1      48.488  36.925  26.908  1.00  0.00    -0.744 OA
ENDBRANCH 100 103
ENDBRANCH  73  96
ENDBRANCH  47  48
ENDBRANCH  39  42
ENDBRANCH  37  38
ENDBRANCH  36  37
ENDBRANCH  35  36
ENDBRANCH   1  35
TORSDOF 19
ENDMDL
MODEL 2
REMARK VINA RESULT:     -12.0      5.203     10.020
REMARK SMILES Cc1ccc2cc(C[N@H+]3CC[NH2+][C@H](C(=O)NCCCCCCNC(=O)c4ccc(-c5c6nc(c(-c7cccc(S(=O)(=O)[O-])c7F)c7ccc([nH]7)c(-c7cccc(S(=O)(=O)[O-])c7F)c7nc(c(-c8cccc(S(=O)(=O)[O-])c8F)c8ccc5[nH]8)C=C7)C=C6)cc4)C3)c(N3CCOCC3)nc2c1
REMARK SMILES IDX 19 1 18 2 17 3 16 4 14 5 15 6 13 8 9 9 10 10 89 11 11 13
REMARK SMILES IDX 12 14 8 17 7 18 1 19 2 20 3 21 99 22 4 23 98 24 5 25 97 26
REMARK SMILES IDX 6 27 90 28 91 29 92 30 96 31 93 32 95 33 94 34 20 35 21 36
REMARK SMILES IDX 22 37 23 38 24 39 25 41 26 42 27 43 88 44 28 45 87 46 29 47
REMARK SMILES IDX 30 48 31 49 81 50 32 51 86 52 80 53 82 54 33 55 85 56 79 57
REMARK SMILES IDX 78 58 34 60 66 61 46 62 65 63 47 64 50 65 64 66 83 67 48 68
REMARK SMILES IDX 49 69 63 71 84 72 51 73 35 74 36 75 44 76 37 77 39 78 45 79
REMARK SMILES IDX 38 80 40 81 41 82 42 83 43 84 67 85 68 86 76 87 69 88 71 89
REMARK SMILES IDX 77 90 70 91 72 92 73 93 74 94 75 95 52 96 53 97 61 98 54 99
REMARK SMILES IDX 56 100 62 101 55 102 57 103 58 104 59 105 60 106
REMARK H PARENT 16 7 9 12 12 15 12 16 23 40 82 59 50 70
REMARK Flexibility Score: inf
ROOT
ATOM      1  C   UNL A   1      31.361  28.615  25.709  1.00  0.00     0.002 C 
ENDROOT
BRANCH   1   2
ATOM      2  C   UNL A   1      30.614  27.399  25.148  1.00  0.00     0.021 C 
BRANCH   2   3
ATOM      3  C   UNL A   1      30.492  27.440  23.622  1.00  0.00     0.116 C 
BRANCH   3   4
ATOM      4  N   UNL A   1      31.734  27.934  23.060  1.00  0.00    -0.351 N 
ATOM      5  C   UNL A   1      32.821  27.222  22.619  1.00  0.00     0.284 C 
ATOM      6  O   UNL A   1      33.916  27.789  22.661  1.00  0.00    -0.268 OA
ATOM      7  H   UNL A   1      31.807  28.914  22.984  1.00  0.00     0.163 HD
BRANCH   5   8
ATOM      8  C   UNL A   1      32.610  25.834  21.981  1.00  0.00     0.328 C 
ATOM      9  N   UNL A   1      33.016  23.338  22.120  1.00  0.00    -0.321 N 
ATOM     10  C   UNL A   1      33.169  23.337  20.658  1.00  0.00     0.324 C 
ATOM     11  C   UNL A   1      33.357  24.665  22.655  1.00  0.00     0.339 C 
ATOM     12  H   UNL A   1      33.700  22.679  22.489  1.00  0.00     0.348 HD
ATOM     13  C   UNL A   1      32.603  24.575  19.911  1.00  0.00     0.323 C 
ATOM     14  N   UNL A   1      32.918  25.876  20.523  1.00  0.00    -0.327 N 
ATOM     15  H   UNL A   1      32.357  26.603  20.079  1.00  0.00     0.347 HD
ATOM     16  H   UNL A   1      33.909  26.080  20.393  1.00  0.00     0.347 HD
BRANCH   9  17
ATOM     17  C   UNL A   1      31.788  22.703  22.664  1.00  0.00     0.303 C 
BRANCH  17  18
ATOM     18  C   UNL A   1      31.921  21.396  23.428  1.00  0.00     0.049 A 
ATOM     19  C   UNL A   1      35.155  16.047  24.946  1.00  0.00     0.044 C 
ATOM     20  C   UNL A   1      34.201  17.062  24.389  1.00  0.00    -0.049 A 
ATOM     21  C   UNL A   1      33.798  16.987  23.056  1.00  0.00     0.004 A 
ATOM     22  C   UNL A   1      33.783  18.156  25.170  1.00  0.00     0.032 A 
ATOM     23  C   UNL A   1      32.990  17.986  22.521  1.00  0.00     0.010 A 
ATOM     24  C   UNL A   1      33.011  19.193  24.649  1.00  0.00     0.073 A 
ATOM     25  C   UNL A   1      32.625  19.094  23.303  1.00  0.00     0.001 A 
ATOM     26  N   UNL A   1      32.713  20.274  25.400  1.00  0.00    -0.230 NA
ATOM     27  C   UNL A   1      31.987  20.191  22.727  1.00  0.00     0.023 A 
ATOM     28  C   UNL A   1      32.158  21.360  24.808  1.00  0.00     0.138 A 
BRANCH  28  29
ATOM     29  N   UNL A   1      31.888  22.475  25.575  1.00  0.00    -0.352 N 
ATOM     30  C   UNL A   1      30.587  22.536  26.256  1.00  0.00     0.146 C 
ATOM     31  C   UNL A   1      32.966  23.127  26.314  1.00  0.00     0.146 C 
ATOM     32  C   UNL A   1      30.244  24.013  26.514  1.00  0.00     0.181 C 
ATOM     33  C   UNL A   1      32.542  24.588  26.566  1.00  0.00     0.181 C 
ATOM     34  O   UNL A   1      31.285  24.669  27.265  1.00  0.00    -0.378 OA
ENDBRANCH  28  29
ENDBRANCH  17  18
ENDBRANCH   9  17
ENDBRANCH   5   8
ENDBRANCH   3   4
ENDBRANCH   2   3
ENDBRANCH   1   2
BRANCH   1  35
ATOM     35  C   UNL A   1      32.517  28.260  26.649  1.00  0.00     0.002 C 
BRANCH  35  36
ATOM     36  C   UNL A   1      33.906  28.387  26.022  1.00  0.00     0.021 C 
BRANCH  36  37
ATOM     37  C   UNL A   1      34.922  29.116  26.892  1.00  0.00     0.116 C 
BRANCH  37  38
ATOM     38  N   UNL A   1      34.469  30.450  27.268  1.00  0.00    -0.352 N 
ATOM     39  C   UNL A   1      34.954  31.263  28.264  1.00  0.00     0.251 C 
ATOM     40  H   UNL A   1      33.720  30.812  26.741  1.00  0.00     0.163 HD
ATOM     41  O   UNL A   1      34.360  32.289  28.579  1.00  0.00    -0.269 OA
BRANCH  39  42
ATOM     42  C   UNL A   1      36.187  30.854  28.966  1.00  0.00     0.039 A 
ATOM     43  C   UNL A   1      37.393  31.497  28.677  1.00  0.00     0.014 A 
ATOM     44  C   UNL A   1      36.151  29.767  29.842  1.00  0.00     0.014 A 
ATOM     45  C   UNL A   1      38.585  30.946  29.129  1.00  0.00     0.010 A 
ATOM     46  C   UNL A   1      37.347  29.265  30.359  1.00  0.00     0.010 A 
ATOM     47  C   UNL A   1      38.576  29.816  29.964  1.00  0.00    -0.014 A 
BRANCH  47  48
ATOM     48  C   UNL A   1      39.868  29.223  30.398  1.00  0.00     0.031 A 
ATOM     49  C   UNL A   1      40.539  28.149  29.582  1.00  0.00     0.074 A 
ATOM     50  C   UNL A   1      40.460  29.688  31.515  1.00  0.00     0.049 A 
ATOM     51  N   UNL A   1      41.671  27.535  29.809  1.00  0.00    -0.248 NA
ATOM     52  C   UNL A   1      39.858  27.706  28.352  1.00  0.00     0.031 C 
ATOM     53  C   UNL A   1      39.904  30.719  32.394  1.00  0.00     0.029 A 
ATOM     54  N   UNL A   1      41.661  29.370  32.093  1.00  0.00    -0.354 N 
ATOM     55  C   UNL A   1      41.818  26.607  28.785  1.00  0.00     0.074 A 
ATOM     56  C   UNL A   1      40.659  26.736  27.929  1.00  0.00     0.031 C 
ATOM     57  C   UNL A   1      40.780  30.977  33.376  1.00  0.00     0.029 A 
ATOM     58  C   UNL A   1      41.933  30.095  33.229  1.00  0.00     0.049 A 
ATOM     59  H   UNL A   1      42.271  28.687  31.730  1.00  0.00     0.167 HD
ATOM     60  C   UNL A   1      42.834  25.740  28.568  1.00  0.00     0.034 A 
ATOM     61  C   UNL A   1      42.986  30.053  34.067  1.00  0.00     0.034 A 
ATOM     62  C   UNL A   1      44.014  25.652  29.384  1.00  0.00     0.049 A 
ATOM     63  C   UNL A   1      44.103  29.090  33.794  1.00  0.00     0.074 A 
ATOM     64  C   UNL A   1      45.117  24.834  29.210  1.00  0.00     0.029 A 
ATOM     65  N   UNL A   1      44.251  26.409  30.519  1.00  0.00    -0.354 N 
ATOM     66  N   UNL A   1      44.250  28.270  32.782  1.00  0.00    -0.248 NA
ATOM     67  C   UNL A   1      45.203  29.052  34.768  1.00  0.00     0.031 C 
ATOM     68  C   UNL A   1      46.022  25.095  30.242  1.00  0.00     0.029 A 
ATOM     69  C   UNL A   1      45.482  26.078  31.056  1.00  0.00     0.049 A 
ATOM     70  H   UNL A   1      43.635  27.082  30.889  1.00  0.00     0.167 HD
ATOM     71  C   UNL A   1      45.462  27.624  32.993  1.00  0.00     0.074 A 
ATOM     72  C   UNL A   1      46.020  28.164  34.215  1.00  0.00     0.031 C 
ATOM     73  C   UNL A   1      46.045  26.656  32.248  1.00  0.00     0.034 A 
BRANCH  60  74
ATOM     74  C   UNL A   1      42.758  24.841  27.365  1.00  0.00     0.023 A 
ATOM     75  C   UNL A   1      43.346  25.262  26.156  1.00  0.00     0.012 A 
ATOM     76  C   UNL A   1      42.214  23.545  27.461  1.00  0.00     0.148 A 
ATOM     77  C   UNL A   1      43.391  24.407  25.056  1.00  0.00     0.002 A 
ATOM     78  C   UNL A   1      42.288  22.689  26.368  1.00  0.00     0.091 A 
ATOM     79  F   UNL A   1      41.651  23.175  28.620  1.00  0.00    -0.205 F 
ATOM     80  C   UNL A   1      42.872  23.119  25.166  1.00  0.00     0.022 A 
BRANCH  78  81
ATOM     81  S   UNL A   1      41.700  20.992  26.417  1.00  0.00     0.127 S 
ATOM     82  O   UNL A   1      42.046  20.602  27.784  1.00  0.00    -0.237 OA
ATOM     83  O   UNL A   1      40.268  21.157  26.174  1.00  0.00    -0.237 OA
ATOM     84  O   UNL A   1      42.424  20.283  25.370  1.00  0.00    -0.744 OA
ENDBRANCH  78  81
ENDBRANCH  60  74
BRANCH  61  85
ATOM     85  C   UNL A   1      43.036  30.994  35.216  1.00  0.00     0.023 A 
ATOM     86  C   UNL A   1      42.547  30.576  36.468  1.00  0.00     0.012 A 
ATOM     87  C   UNL A   1      43.642  32.259  35.096  1.00  0.00     0.148 A 
ATOM     88  C   UNL A   1      42.656  31.407  37.582  1.00  0.00     0.002 A 
ATOM     89  C   UNL A   1      43.788  33.062  36.219  1.00  0.00     0.091 A 
ATOM     90  F   UNL A   1      44.092  32.633  33.890  1.00  0.00    -0.205 F 
ATOM     91  C   UNL A   1      43.287  32.643  37.462  1.00  0.00     0.022 A 
BRANCH  89  92
ATOM     92  S   UNL A   1      44.690  34.616  36.186  1.00  0.00     0.127 S 
ATOM     93  O   UNL A   1      43.730  35.504  35.535  1.00  0.00    -0.237 OA
ATOM     94  O   UNL A   1      44.899  34.870  37.611  1.00  0.00    -0.237 OA
ATOM     95  O   UNL A   1      45.909  34.349  35.435  1.00  0.00    -0.744 OA
ENDBRANCH  89  92
ENDBRANCH  61  85
BRANCH  73  96
ATOM     96  C   UNL A   1      47.362  26.105  32.718  1.00  0.00     0.023 A 
ATOM     97  C   UNL A   1      48.552  26.753  32.337  1.00  0.00     0.012 A 
ATOM     98  C   UNL A   1      47.412  25.029  33.625  1.00  0.00     0.148 A 
ATOM     99  C   UNL A   1      49.779  26.333  32.849  1.00  0.00     0.002 A 
ATOM    100  C   UNL A   1      48.634  24.637  34.156  1.00  0.00     0.091 A 
ATOM    101  F   UNL A   1      46.263  24.425  33.961  1.00  0.00    -0.205 F 
ATOM    102  C   UNL A   1      49.818  25.284  33.766  1.00  0.00     0.022 A 
BRANCH 100 103
ATOM    103  S   UNL A   1      48.780  23.348  35.398  1.00  0.00     0.127 S 
ATOM    104  O   UNL A   1      48.410  22.157  34.635  1.00  0.00    -0.237 OA
ATOM    105  O   UNL A   1      50.196  23.426  35.759  1.00  0.00    -0.237 OA
ATOM    106  O   UNL A   1      47.859  23.711  36.467  1.00  0.00    -0.744 OA
ENDBRANCH 100 103
ENDBRANCH  73  96
ENDBRANCH  47  48
ENDBRANCH  39  42
ENDBRANCH  37  38
ENDBRANCH  36  37
ENDBRANCH  35  36
ENDBRANCH   1  35
TORSDOF 19
ENDMDL
MODEL 3
REMARK VINA RESULT:     -12.0      1.323      7.491
REMARK SMILES Cc1ccc2cc(C[N@H+]3CC[NH2+][C@H](C(=O)NCCCCCCNC(=O)c4ccc(-c5c6nc(c(-c7cccc(S(=O)(=O)[O-])c7F)c7ccc([nH]7)c(-c7cccc(S(=O)(=O)[O-])c7F)c7nc(c(-c8cccc(S(=O)(=O)[O-])c8F)c8ccc5[nH]8)C=C7)C=C6)cc4)C3)c(N3CCOCC3)nc2c1
REMARK SMILES IDX 19 1 18 2 17 3 16 4 14 5 15 6 13 8 9 9 10 10 89 11 11 13
REMARK SMILES IDX 12 14 8 17 7 18 1 19 2 20 3 21 99 22 4 23 98 24 5 25 97 26
REMARK SMILES IDX 6 27 90 28 91 29 92 30 96 31 93 32 95 33 94 34 20 35 21 36
REMARK SMILES IDX 22 37 23 38 24 39 25 41 26 42 27 43 88 44 28 45 87 46 29 47
REMARK SMILES IDX 30 48 31 49 81 50 32 51 86 52 80 53 82 54 33 55 85 56 79 57
REMARK SMILES IDX 78 58 34 60 66 61 46 62 65 63 47 64 50 65 64 66 83 67 48 68
REMARK SMILES IDX 49 69 63 71 84 72 51 73 35 74 36 75 44 76 37 77 39 78 45 79
REMARK SMILES IDX 38 80 40 81 41 82 42 83 43 84 67 85 68 86 76 87 69 88 71 89
REMARK SMILES IDX 77 90 70 91 72 92 73 93 74 94 75 95 52 96 53 97 61 98 54 99
REMARK SMILES IDX 56 100 62 101 55 102 57 103 58 104 59 105 60 106
REMARK H PARENT 16 7 9 12 12 15 12 16 23 40 82 59 50 70
REMARK Flexibility Score: inf
ROOT
ATOM      1  C   UNL A   1      36.004  21.502  24.601  1.00  0.00     0.002 C 
ENDROOT
BRANCH   1   2
ATOM      2  C   UNL A   1      34.847  21.850  25.546  1.00  0.00     0.021 C 
BRANCH   2   3
ATOM      3  C   UNL A   1      33.476  21.620  24.902  1.00  0.00     0.116 C 
BRANCH   3   4
ATOM      4  N   UNL A   1      32.481  22.398  25.614  1.00  0.00    -0.351 N 
ATOM      5  C   UNL A   1      32.220  23.742  25.527  1.00  0.00     0.284 C 
ATOM      6  O   UNL A   1      31.729  24.282  26.522  1.00  0.00    -0.268 OA
ATOM      7  H   UNL A   1      31.918  21.893  26.245  1.00  0.00     0.163 HD
BRANCH   5   8
ATOM      8  C   UNL A   1      32.416  24.468  24.180  1.00  0.00     0.328 C 
ATOM      9  N   UNL A   1      31.534  26.172  22.528  1.00  0.00    -0.321 N 
ATOM     10  C   UNL A   1      32.006  25.291  21.450  1.00  0.00     0.324 C 
ATOM     11  C   UNL A   1      31.254  25.379  23.734  1.00  0.00     0.339 C 
ATOM     12  H   UNL A   1      30.649  26.572  22.216  1.00  0.00     0.348 HD
ATOM     13  C   UNL A   1      33.050  24.215  21.856  1.00  0.00     0.323 C 
ATOM     14  N   UNL A   1      32.756  23.494  23.105  1.00  0.00    -0.327 N 
ATOM     15  H   UNL A   1      33.575  22.953  23.384  1.00  0.00     0.347 HD
ATOM     16  H   UNL A   1      31.966  22.866  22.955  1.00  0.00     0.347 HD
BRANCH   9  17
ATOM     17  C   UNL A   1      32.284  27.439  22.731  1.00  0.00     0.303 C 
BRANCH  17  18
ATOM     18  C   UNL A   1      32.152  28.156  24.064  1.00  0.00     0.049 A 
ATOM     19  C   UNL A   1      34.365  32.218  28.534  1.00  0.00     0.044 C 
ATOM     20  C   UNL A   1      33.963  31.016  27.731  1.00  0.00    -0.049 A 
ATOM     21  C   UNL A   1      34.790  29.894  27.686  1.00  0.00     0.004 A 
ATOM     22  C   UNL A   1      32.802  31.043  26.936  1.00  0.00     0.032 A 
ATOM     23  C   UNL A   1      34.457  28.823  26.864  1.00  0.00     0.010 A 
ATOM     24  C   UNL A   1      32.467  30.004  26.070  1.00  0.00     0.073 A 
ATOM     25  C   UNL A   1      33.321  28.890  26.041  1.00  0.00     0.001 A 
ATOM     26  N   UNL A   1      31.400  30.107  25.249  1.00  0.00    -0.230 NA
ATOM     27  C   UNL A   1      33.086  27.915  25.073  1.00  0.00     0.023 A 
ATOM     28  C   UNL A   1      31.228  29.189  24.268  1.00  0.00     0.138 A 
BRANCH  28  29
ATOM     29  N   UNL A   1      30.154  29.320  23.409  1.00  0.00    -0.352 N 
ATOM     30  C   UNL A   1      30.412  29.883  22.076  1.00  0.00     0.146 C 
ATOM     31  C   UNL A   1      29.084  28.326  23.427  1.00  0.00     0.146 C 
ATOM     32  C   UNL A   1      29.103  30.494  21.547  1.00  0.00     0.181 C 
ATOM     33  C   UNL A   1      27.817  28.995  22.856  1.00  0.00     0.181 C 
ATOM     34  O   UNL A   1      28.039  29.522  21.533  1.00  0.00    -0.378 OA
ENDBRANCH  28  29
ENDBRANCH  17  18
ENDBRANCH   9  17
ENDBRANCH   5   8
ENDBRANCH   3   4
ENDBRANCH   2   3
ENDBRANCH   1   2
BRANCH   1  35
ATOM     35  C   UNL A   1      37.393  21.735  25.202  1.00  0.00     0.002 C 
BRANCH  35  36
ATOM     36  C   UNL A   1      38.238  20.470  25.355  1.00  0.00     0.021 C 
BRANCH  36  37
ATOM     37  C   UNL A   1      39.568  20.688  26.066  1.00  0.00     0.116 C 
BRANCH  37  38
ATOM     38  N   UNL A   1      40.427  19.512  25.998  1.00  0.00    -0.352 N 
ATOM     39  C   UNL A   1      41.800  19.460  26.038  1.00  0.00     0.251 C 
ATOM     40  H   UNL A   1      39.965  18.647  25.913  1.00  0.00     0.163 HD
ATOM     41  O   UNL A   1      42.394  18.414  25.795  1.00  0.00    -0.269 OA
BRANCH  39  42
ATOM     42  C   UNL A   1      42.542  20.698  26.346  1.00  0.00     0.039 A 
ATOM     43  C   UNL A   1      42.665  21.119  27.673  1.00  0.00     0.014 A 
ATOM     44  C   UNL A   1      43.030  21.485  25.301  1.00  0.00     0.014 A 
ATOM     45  C   UNL A   1      43.121  22.403  27.942  1.00  0.00     0.010 A 
ATOM     46  C   UNL A   1      43.565  22.744  25.585  1.00  0.00     0.010 A 
ATOM     47  C   UNL A   1      43.564  23.235  26.900  1.00  0.00    -0.014 A 
BRANCH  47  48
ATOM     48  C   UNL A   1      44.008  24.618  27.212  1.00  0.00     0.031 A 
ATOM     49  C   UNL A   1      45.426  25.053  26.950  1.00  0.00     0.074 A 
ATOM     50  C   UNL A   1      43.112  25.500  27.696  1.00  0.00     0.049 A 
ATOM     51  N   UNL A   1      45.975  26.223  27.151  1.00  0.00    -0.248 NA
ATOM     52  C   UNL A   1      46.350  24.052  26.388  1.00  0.00     0.031 C 
ATOM     53  C   UNL A   1      41.712  25.196  28.000  1.00  0.00     0.029 A 
ATOM     54  N   UNL A   1      43.238  26.831  28.001  1.00  0.00    -0.354 N 
ATOM     55  C   UNL A   1      47.310  26.090  26.788  1.00  0.00     0.074 A 
ATOM     56  C   UNL A   1      47.494  24.724  26.350  1.00  0.00     0.031 C 
ATOM     57  C   UNL A   1      41.099  26.316  28.409  1.00  0.00     0.029 A 
ATOM     58  C   UNL A   1      42.071  27.403  28.448  1.00  0.00     0.049 A 
ATOM     59  H   UNL A   1      44.082  27.328  27.909  1.00  0.00     0.167 HD
ATOM     60  C   UNL A   1      48.286  27.025  26.801  1.00  0.00     0.034 A 
ATOM     61  C   UNL A   1      41.808  28.660  28.854  1.00  0.00     0.034 A 
ATOM     62  C   UNL A   1      48.091  28.399  27.179  1.00  0.00     0.049 A 
ATOM     63  C   UNL A   1      42.909  29.679  28.846  1.00  0.00     0.074 A 
ATOM     64  C   UNL A   1      49.017  29.428  27.176  1.00  0.00     0.029 A 
ATOM     65  N   UNL A   1      46.893  28.937  27.618  1.00  0.00    -0.354 N 
ATOM     66  N   UNL A   1      44.146  29.546  28.434  1.00  0.00    -0.248 NA
ATOM     67  C   UNL A   1      42.579  31.021  29.346  1.00  0.00     0.031 C 
ATOM     68  C   UNL A   1      48.378  30.590  27.615  1.00  0.00     0.029 A 
ATOM     69  C   UNL A   1      47.055  30.284  27.889  1.00  0.00     0.049 A 
ATOM     70  H   UNL A   1      46.053  28.436  27.722  1.00  0.00     0.167 HD
ATOM     71  C   UNL A   1      44.741  30.788  28.618  1.00  0.00     0.074 A 
ATOM     72  C   UNL A   1      43.723  31.667  29.156  1.00  0.00     0.031 C 
ATOM     73  C   UNL A   1      46.022  31.157  28.380  1.00  0.00     0.034 A 
BRANCH  60  74
ATOM     74  C   UNL A   1      49.661  26.626  26.339  1.00  0.00     0.023 A 
ATOM     75  C   UNL A   1      50.413  25.728  27.121  1.00  0.00     0.012 A 
ATOM     76  C   UNL A   1      50.154  27.041  25.086  1.00  0.00     0.148 A 
ATOM     77  C   UNL A   1      51.642  25.252  26.666  1.00  0.00     0.002 A 
ATOM     78  C   UNL A   1      51.368  26.540  24.628  1.00  0.00     0.091 A 
ATOM     79  F   UNL A   1      49.422  27.904  24.367  1.00  0.00    -0.205 F 
ATOM     80  C   UNL A   1      52.113  25.649  25.417  1.00  0.00     0.022 A 
BRANCH  78  81
ATOM     81  S   UNL A   1      52.041  26.943  23.011  1.00  0.00     0.127 S 
ATOM     82  O   UNL A   1      53.137  25.980  22.903  1.00  0.00    -0.237 OA
ATOM     83  O   UNL A   1      50.905  26.675  22.132  1.00  0.00    -0.237 OA
ATOM     84  O   UNL A   1      52.449  28.339  23.080  1.00  0.00    -0.744 OA
ENDBRANCH  78  81
ENDBRANCH  60  74
BRANCH  61  85
ATOM     85  C   UNL A   1      40.423  29.018  29.257  1.00  0.00     0.023 A 
ATOM     86  C   UNL A   1      39.490  29.378  28.267  1.00  0.00     0.012 A 
ATOM     87  C   UNL A   1      40.007  28.919  30.599  1.00  0.00     0.148 A 
ATOM     88  C   UNL A   1      38.164  29.639  28.607  1.00  0.00     0.002 A 
ATOM     89  C   UNL A   1      38.674  29.135  30.924  1.00  0.00     0.091 A 
ATOM     90  F   UNL A   1      40.919  28.582  31.521  1.00  0.00    -0.205 F 
ATOM     91  C   UNL A   1      37.752  29.505  29.932  1.00  0.00     0.022 A 
BRANCH  89  92
ATOM     92  S   UNL A   1      38.028  28.872  32.579  1.00  0.00     0.127 S 
ATOM     93  O   UNL A   1      38.212  27.432  32.745  1.00  0.00    -0.237 OA
ATOM     94  O   UNL A   1      38.923  29.705  33.384  1.00  0.00    -0.237 OA
ATOM     95  O   UNL A   1      36.647  29.330  32.543  1.00  0.00    -0.744 OA
ENDBRANCH  89  92
ENDBRANCH  61  85
BRANCH  73  96
ATOM     96  C   UNL A   1      46.414  32.573  28.692  1.00  0.00     0.023 A 
ATOM     97  C   UNL A   1      46.253  33.563  27.704  1.00  0.00     0.012 A 
ATOM     98  C   UNL A   1      46.825  32.940  29.988  1.00  0.00     0.148 A 
ATOM     99  C   UNL A   1      46.502  34.902  28.000  1.00  0.00     0.002 A 
ATOM    100  C   UNL A   1      47.040  34.280  30.285  1.00  0.00     0.091 A 
ATOM    101  F   UNL A   1      46.979  31.974  30.905  1.00  0.00    -0.205 F 
ATOM    102  C   UNL A   1      46.883  35.261  29.291  1.00  0.00     0.022 A 
BRANCH 100 103
ATOM    103  S   UNL A   1      47.460  34.849  31.935  1.00  0.00     0.127 S 
ATOM    104  O   UNL A   1      46.338  34.338  32.721  1.00  0.00    -0.237 OA
ATOM    105  O   UNL A   1      48.735  34.173  32.180  1.00  0.00    -0.237 OA
ATOM    106  O   UNL A   1      47.550  36.301  31.852  1.00  0.00    -0.744 OA
ENDBRANCH 100 103
ENDBRANCH  73  96
ENDBRANCH  47  48
ENDBRANCH  39  42
ENDBRANCH  37  38
ENDBRANCH  36  37
ENDBRANCH  35  36
ENDBRANCH   1  35
TORSDOF 19
ENDMDL
