MODEL 1
REMARK VINA RESULT:     -12.7      0.000      0.000
REMARK SMILES O=C(NCCCCCCNC(=O)c1ccc2c(=O)[nH]c(N3CC[NH2+]CC3)nc2c1)c1ccc(-c2c3nc(c(-c4cccc(S(=O)(=O)[O-])c4F)c4ccc([nH]4)c(-c4cccc(S(=O)(=O)[O-])c4F)c4nc(c(-c5cccc(S(=O)(=O)[O-])c5F)c5ccc2[nH]5)C=C4)C=C3)cc1
REMARK SMILES IDX 5 1 4 2 3 3 1 4 2 5 30 7 31 8 92 9 32 10 91 11 33 12 34 13
REMARK SMILES IDX 35 14 85 15 36 16 90 17 84 18 86 19 37 20 89 21 83 22 82 23
REMARK SMILES IDX 38 25 70 26 50 27 69 28 51 29 54 30 68 31 87 32 52 33 53 34
REMARK SMILES IDX 67 36 88 37 55 38 39 39 40 40 48 41 41 42 43 43 49 44 42 45
REMARK SMILES IDX 44 46 45 47 46 48 47 49 71 50 72 51 80 52 73 53 75 54 81 55
REMARK SMILES IDX 74 56 76 57 77 58 78 59 79 60 56 61 57 62 65 63 58 64 60 65
REMARK SMILES IDX 66 66 59 67 61 68 62 69 63 70 64 71 6 72 7 73 8 74 9 75
REMARK SMILES IDX 10 76 11 77 12 79 13 80 14 81 29 82 15 83 28 84 16 85 27 86
REMARK SMILES IDX 17 87 20 88 18 89 19 90 21 92 22 93 26 94 23 95 25 96 24 97
REMARK H PARENT 3 6 86 24 54 35 10 78 19 91 24 98 24 99
REMARK Flexibility Score: inf
ROOT
ATOM      1  C   UNL A   1      32.130  28.359  24.829  1.00  0.00     0.021 C 
ENDROOT
BRANCH   1   2
ATOM      2  C   UNL A   1      33.219  29.331  25.261  1.00  0.00     0.116 C 
BRANCH   2   3
ATOM      3  N   UNL A   1      32.679  30.587  25.750  1.00  0.00    -0.352 N 
ATOM      4  O   UNL A   1      32.379  32.273  27.215  1.00  0.00    -0.269 OA
ATOM      5  C   UNL A   1      33.066  31.327  26.843  1.00  0.00     0.251 C 
ATOM      6  H   UNL A   1      31.933  30.961  25.227  1.00  0.00     0.163 HD
BRANCH   5   7
ATOM      7  C   UNL A   1      34.297  30.956  27.573  1.00  0.00     0.039 A 
ATOM      8  C   UNL A   1      34.521  29.631  27.957  1.00  0.00     0.014 A 
ATOM      9  C   UNL A   1      35.235  31.944  27.882  1.00  0.00     0.014 A 
ATOM     10  C   UNL A   1      35.607  29.320  28.768  1.00  0.00     0.010 A 
ATOM     11  C   UNL A   1      36.374  31.612  28.620  1.00  0.00     0.010 A 
ATOM     12  C   UNL A   1      36.556  30.302  29.093  1.00  0.00    -0.014 A 
BRANCH  12  13
ATOM     13  C   UNL A   1      37.774  29.914  29.849  1.00  0.00     0.031 A 
ATOM     14  C   UNL A   1      38.036  30.432  31.235  1.00  0.00     0.074 A 
ATOM     15  C   UNL A   1      38.660  29.093  29.254  1.00  0.00     0.049 A 
ATOM     16  N   UNL A   1      39.050  30.181  32.025  1.00  0.00    -0.248 NA
ATOM     17  C   UNL A   1      37.045  31.354  31.808  1.00  0.00     0.031 C 
ATOM     18  C   UNL A   1      38.536  28.571  27.890  1.00  0.00     0.029 A 
ATOM     19  N   UNL A   1      39.841  28.563  29.706  1.00  0.00    -0.354 N 
ATOM     20  C   UNL A   1      38.843  30.944  33.168  1.00  0.00     0.074 A 
ATOM     21  C   UNL A   1      37.608  31.672  32.968  1.00  0.00     0.031 C 
ATOM     22  C   UNL A   1      39.590  27.790  27.619  1.00  0.00     0.029 A 
ATOM     23  C   UNL A   1      40.490  27.797  28.765  1.00  0.00     0.049 A 
ATOM     24  H   UNL A   1      40.189  28.714  30.614  1.00  0.00     0.167 HD
ATOM     25  C   UNL A   1      39.608  31.020  34.284  1.00  0.00     0.034 A 
ATOM     26  C   UNL A   1      41.692  27.192  28.804  1.00  0.00     0.034 A 
ATOM     27  C   UNL A   1      40.823  30.273  34.483  1.00  0.00     0.049 A 
ATOM     28  C   UNL A   1      42.507  27.277  30.061  1.00  0.00     0.074 A 
ATOM     29  C   UNL A   1      41.625  30.220  35.611  1.00  0.00     0.029 A 
ATOM     30  N   UNL A   1      41.423  29.463  33.531  1.00  0.00    -0.354 N 
ATOM     31  N   UNL A   1      42.221  27.884  31.187  1.00  0.00    -0.248 NA
ATOM     32  C   UNL A   1      43.792  26.566  30.067  1.00  0.00     0.031 C 
ATOM     33  C   UNL A   1      42.726  29.404  35.327  1.00  0.00     0.029 A 
ATOM     34  C   UNL A   1      42.594  28.921  34.036  1.00  0.00     0.049 A 
ATOM     35  H   UNL A   1      41.069  29.297  32.628  1.00  0.00     0.167 HD
ATOM     36  C   UNL A   1      43.281  27.613  32.044  1.00  0.00     0.074 A 
ATOM     37  C   UNL A   1      44.199  26.762  31.314  1.00  0.00     0.031 C 
ATOM     38  C   UNL A   1      43.481  28.043  33.313  1.00  0.00     0.034 A 
BRANCH  25  39
ATOM     39  C   UNL A   1      39.143  31.927  35.396  1.00  0.00     0.023 A 
ATOM     40  C   UNL A   1      39.353  33.318  35.300  1.00  0.00     0.012 A 
ATOM     41  C   UNL A   1      38.440  31.413  36.504  1.00  0.00     0.148 A 
ATOM     42  C   UNL A   1      38.903  34.177  36.303  1.00  0.00     0.002 A 
ATOM     43  C   UNL A   1      37.957  32.279  37.478  1.00  0.00     0.091 A 
ATOM     44  F   UNL A   1      38.264  30.086  36.589  1.00  0.00    -0.205 F 
ATOM     45  C   UNL A   1      38.198  33.659  37.385  1.00  0.00     0.022 A 
BRANCH  43  46
ATOM     46  S   UNL A   1      36.968  31.716  38.869  1.00  0.00     0.127 S 
ATOM     47  O   UNL A   1      37.910  31.864  39.978  1.00  0.00    -0.237 OA
ATOM     48  O   UNL A   1      35.867  32.680  38.875  1.00  0.00    -0.237 OA
ATOM     49  O   UNL A   1      36.576  30.351  38.555  1.00  0.00    -0.744 OA
ENDBRANCH  43  46
ENDBRANCH  25  39
BRANCH  26  50
ATOM     50  C   UNL A   1      42.169  26.436  27.614  1.00  0.00     0.023 A 
ATOM     51  C   UNL A   1      42.984  27.076  26.662  1.00  0.00     0.012 A 
ATOM     52  C   UNL A   1      41.873  25.068  27.459  1.00  0.00     0.148 A 
ATOM     53  C   UNL A   1      43.476  26.372  25.562  1.00  0.00     0.002 A 
ATOM     54  C   UNL A   1      42.417  24.358  26.397  1.00  0.00     0.091 A 
ATOM     55  F   UNL A   1      41.086  24.481  28.373  1.00  0.00    -0.205 F 
ATOM     56  C   UNL A   1      43.204  25.012  25.437  1.00  0.00     0.022 A 
BRANCH  54  57
ATOM     57  S   UNL A   1      42.241  22.577  26.241  1.00  0.00     0.127 S 
ATOM     58  O   UNL A   1      42.888  22.105  27.461  1.00  0.00    -0.237 OA
ATOM     59  O   UNL A   1      40.785  22.420  26.213  1.00  0.00    -0.237 OA
ATOM     60  O   UNL A   1      42.905  22.225  24.994  1.00  0.00    -0.744 OA
ENDBRANCH  54  57
ENDBRANCH  26  50
BRANCH  38  61
ATOM     61  C   UNL A   1      44.731  27.580  34.012  1.00  0.00     0.023 A 
ATOM     62  C   UNL A   1      45.895  28.372  33.964  1.00  0.00     0.012 A 
ATOM     63  C   UNL A   1      44.733  26.391  34.768  1.00  0.00     0.148 A 
ATOM     64  C   UNL A   1      47.053  27.971  34.631  1.00  0.00     0.002 A 
ATOM     65  C   UNL A   1      45.875  26.024  35.471  1.00  0.00     0.091 A 
ATOM     66  F   UNL A   1      43.622  25.641  34.784  1.00  0.00    -0.205 F 
ATOM     67  C   UNL A   1      47.039  26.806  35.393  1.00  0.00     0.022 A 
BRANCH  65  68
ATOM     68  S   UNL A   1      45.920  24.592  36.553  1.00  0.00     0.127 S 
ATOM     69  O   UNL A   1      45.762  23.494  35.601  1.00  0.00    -0.237 OA
ATOM     70  O   UNL A   1      47.252  24.695  37.150  1.00  0.00    -0.237 OA
ATOM     71  O   UNL A   1      44.821  24.765  37.494  1.00  0.00    -0.744 OA
ENDBRANCH  65  68
ENDBRANCH  38  61
ENDBRANCH  12  13
ENDBRANCH   5   7
ENDBRANCH   2   3
ENDBRANCH   1   2
BRANCH   1  72
ATOM     72  C   UNL A   1      31.926  27.168  25.765  1.00  0.00     0.002 C 
BRANCH  72  73
ATOM     73  C   UNL A   1      30.621  26.392  25.563  1.00  0.00     0.002 C 
BRANCH  73  74
ATOM     74  C   UNL A   1      30.033  26.449  24.149  1.00  0.00     0.021 C 
BRANCH  74  75
ATOM     75  C   UNL A   1      30.518  25.351  23.206  1.00  0.00     0.116 C 
BRANCH  75  76
ATOM     76  N   UNL A   1      31.518  25.842  22.274  1.00  0.00    -0.352 N 
ATOM     77  C   UNL A   1      32.867  25.603  22.257  1.00  0.00     0.251 C 
ATOM     78  H   UNL A   1      31.181  26.424  21.556  1.00  0.00     0.163 HD
ATOM     79  O   UNL A   1      33.610  26.232  21.510  1.00  0.00    -0.269 OA
BRANCH  77  80
ATOM     80  C   UNL A   1      33.430  24.575  23.154  1.00  0.00     0.041 A 
ATOM     81  C   UNL A   1      34.356  24.934  24.141  1.00  0.00     0.015 A 
ATOM     82  C   UNL A   1      33.000  23.250  23.017  1.00  0.00     0.043 A 
ATOM     83  C   UNL A   1      34.899  23.952  24.961  1.00  0.00     0.017 A 
ATOM     84  C   UNL A   1      33.531  22.259  23.843  1.00  0.00     0.081 A 
ATOM     85  C   UNL A   1      34.478  22.629  24.804  1.00  0.00     0.066 A 
ATOM     86  N   UNL A   1      33.085  20.932  23.694  1.00  0.00    -0.214 NA
ATOM     87  C   UNL A   1      35.006  21.569  25.671  1.00  0.00     0.260 A 
ATOM     88  C   UNL A   1      33.521  20.036  24.523  1.00  0.00     0.206 A 
ATOM     89  O   UNL A   1      35.881  21.775  26.501  1.00  0.00    -0.269 OA
ATOM     90  N   UNL A   1      34.448  20.334  25.485  1.00  0.00    -0.292 N 
ATOM     91  H   UNL A   1      34.731  19.609  26.087  1.00  0.00     0.173 HD
BRANCH  88  92
ATOM     92  N   UNL A   1      33.123  18.729  24.486  1.00  0.00    -0.331 N 
ATOM     93  C   UNL A   1      32.953  18.015  23.220  1.00  0.00     0.181 C 
ATOM     94  C   UNL A   1      32.529  18.055  25.643  1.00  0.00     0.181 C 
ATOM     95  C   UNL A   1      33.499  16.575  23.377  1.00  0.00     0.282 C 
ATOM     96  C   UNL A   1      33.074  16.617  25.750  1.00  0.00     0.282 C 
ATOM     97  N   UNL A   1      32.903  15.830  24.511  1.00  0.00    -0.343 N 
ATOM     98  H   UNL A   1      33.371  14.930  24.611  1.00  0.00     0.346 HD
ATOM     99  H   UNL A   1      31.910  15.676  24.336  1.00  0.00     0.346 HD
ENDBRANCH  88  92
ENDBRANCH  77  80
ENDBRANCH  75  76
ENDBRANCH  74  75
ENDBRANCH  73  74
ENDBRANCH  72  73
ENDBRANCH   1  72
TORSDOF 17
ENDMDL
MODEL 2
REMARK VINA RESULT:     -12.6      2.223      2.879
REMARK SMILES O=C(NCCCCCCNC(=O)c1ccc2c(=O)[nH]c(N3CC[NH2+]CC3)nc2c1)c1ccc(-c2c3nc(c(-c4cccc(S(=O)(=O)[O-])c4F)c4ccc([nH]4)c(-c4cccc(S(=O)(=O)[O-])c4F)c4nc(c(-c5cccc(S(=O)(=O)[O-])c5F)c5ccc2[nH]5)C=C4)C=C3)cc1
REMARK SMILES IDX 5 1 4 2 3 3 1 4 2 5 30 7 31 8 92 9 32 10 91 11 33 12 34 13
REMARK SMILES IDX 35 14 85 15 36 16 90 17 84 18 86 19 37 20 89 21 83 22 82 23
REMARK SMILES IDX 38 25 70 26 50 27 69 28 51 29 54 30 68 31 87 32 52 33 53 34
REMARK SMILES IDX 67 36 88 37 55 38 39 39 40 40 48 41 41 42 43 43 49 44 42 45
REMARK SMILES IDX 44 46 45 47 46 48 47 49 71 50 72 51 80 52 73 53 75 54 81 55
REMARK SMILES IDX 74 56 76 57 77 58 78 59 79 60 56 61 57 62 65 63 58 64 60 65
REMARK SMILES IDX 66 66 59 67 61 68 62 69 63 70 64 71 6 72 7 73 8 74 9 75
REMARK SMILES IDX 10 76 11 77 12 79 13 80 14 81 29 82 15 83 28 84 16 85 27 86
REMARK SMILES IDX 17 87 20 88 18 89 19 90 21 92 22 93 26 94 23 95 25 96 24 97
REMARK H PARENT 3 6 86 24 54 35 10 78 19 91 24 98 24 99
REMARK Flexibility Score: inf
ROOT
ATOM      1  C   UNL A   1      33.193  28.402  25.158  1.00  0.00     0.021 C 
ENDROOT
BRANCH   1   2
ATOM      2  C   UNL A   1      34.202  28.885  26.191  1.00  0.00     0.116 C 
BRANCH   2   3
ATOM      3  N   UNL A   1      33.905  30.222  26.673  1.00  0.00    -0.352 N 
ATOM      4  O   UNL A   1      34.062  32.004  28.044  1.00  0.00    -0.269 OA
ATOM      5  C   UNL A   1      34.559  30.961  27.631  1.00  0.00     0.251 C 
ATOM      6  H   UNL A   1      33.129  30.661  26.256  1.00  0.00     0.163 HD
BRANCH   5   7
ATOM      7  C   UNL A   1      35.847  30.473  28.171  1.00  0.00     0.039 A 
ATOM      8  C   UNL A   1      37.050  30.803  27.541  1.00  0.00     0.014 A 
ATOM      9  C   UNL A   1      35.850  29.675  29.318  1.00  0.00     0.014 A 
ATOM     10  C   UNL A   1      38.237  30.220  27.971  1.00  0.00     0.010 A 
ATOM     11  C   UNL A   1      37.057  29.166  29.803  1.00  0.00     0.010 A 
ATOM     12  C   UNL A   1      38.258  29.411  29.117  1.00  0.00    -0.014 A 
BRANCH  12  13
ATOM     13  C   UNL A   1      39.559  28.910  29.630  1.00  0.00     0.031 A 
ATOM     14  C   UNL A   1      40.265  29.585  30.772  1.00  0.00     0.074 A 
ATOM     15  C   UNL A   1      40.110  27.836  29.033  1.00  0.00     0.049 A 
ATOM     16  N   UNL A   1      41.403  29.265  31.335  1.00  0.00    -0.248 NA
ATOM     17  C   UNL A   1      39.625  30.775  31.352  1.00  0.00     0.031 C 
ATOM     18  C   UNL A   1      39.540  27.132  27.880  1.00  0.00     0.029 A 
ATOM     19  N   UNL A   1      41.270  27.155  29.296  1.00  0.00    -0.354 N 
ATOM     20  C   UNL A   1      41.637  30.232  32.304  1.00  0.00     0.074 A 
ATOM     21  C   UNL A   1      40.524  31.157  32.250  1.00  0.00     0.031 C 
ATOM     22  C   UNL A   1      40.345  26.116  27.542  1.00  0.00     0.029 A 
ATOM     23  C   UNL A   1      41.512  26.127  28.416  1.00  0.00     0.049 A 
ATOM     24  H   UNL A   1      41.871  27.380  30.043  1.00  0.00     0.167 HD
ATOM     25  C   UNL A   1      42.678  30.333  33.167  1.00  0.00     0.034 A 
ATOM     26  C   UNL A   1      42.569  25.301  28.299  1.00  0.00     0.034 A 
ATOM     27  C   UNL A   1      43.768  29.394  33.229  1.00  0.00     0.049 A 
ATOM     28  C   UNL A   1      43.696  25.423  29.280  1.00  0.00     0.074 A 
ATOM     29  C   UNL A   1      44.827  29.364  34.121  1.00  0.00     0.029 A 
ATOM     30  N   UNL A   1      43.952  28.331  32.358  1.00  0.00    -0.354 N 
ATOM     31  N   UNL A   1      43.826  26.255  30.285  1.00  0.00    -0.248 NA
ATOM     32  C   UNL A   1      44.807  24.473  29.135  1.00  0.00     0.031 C 
ATOM     33  C   UNL A   1      45.667  28.303  33.766  1.00  0.00     0.029 A 
ATOM     34  C   UNL A   1      45.116  27.650  32.677  1.00  0.00     0.049 A 
ATOM     35  H   UNL A   1      43.345  28.094  31.620  1.00  0.00     0.167 HD
ATOM     36  C   UNL A   1      45.022  25.916  30.906  1.00  0.00     0.074 A 
ATOM     37  C   UNL A   1      45.563  24.784  30.180  1.00  0.00     0.031 C 
ATOM     38  C   UNL A   1      45.624  26.500  31.971  1.00  0.00     0.034 A 
BRANCH  25  39
ATOM     39  C   UNL A   1      42.680  31.489  34.136  1.00  0.00     0.023 A 
ATOM     40  C   UNL A   1      43.323  32.694  33.788  1.00  0.00     0.012 A 
ATOM     41  C   UNL A   1      41.991  31.405  35.363  1.00  0.00     0.148 A 
ATOM     42  C   UNL A   1      43.310  33.784  34.658  1.00  0.00     0.002 A 
ATOM     43  C   UNL A   1      41.946  32.510  36.205  1.00  0.00     0.091 A 
ATOM     44  F   UNL A   1      41.399  30.246  35.687  1.00  0.00    -0.205 F 
ATOM     45  C   UNL A   1      42.615  33.696  35.861  1.00  0.00     0.022 A 
BRANCH  43  46
ATOM     46  S   UNL A   1      41.008  32.520  37.739  1.00  0.00     0.127 S 
ATOM     47  O   UNL A   1      41.893  31.771  38.629  1.00  0.00    -0.237 OA
ATOM     48  O   UNL A   1      40.918  33.950  38.036  1.00  0.00    -0.237 OA
ATOM     49  O   UNL A   1      39.736  31.883  37.434  1.00  0.00    -0.744 OA
ENDBRANCH  43  46
ENDBRANCH  25  39
BRANCH  26  50
ATOM     50  C   UNL A   1      42.580  24.276  27.220  1.00  0.00     0.023 A 
ATOM     51  C   UNL A   1      43.290  24.523  26.030  1.00  0.00     0.012 A 
ATOM     52  C   UNL A   1      41.945  23.031  27.397  1.00  0.00     0.148 A 
ATOM     53  C   UNL A   1      43.348  23.557  25.025  1.00  0.00     0.002 A 
ATOM     54  C   UNL A   1      42.059  22.051  26.420  1.00  0.00     0.091 A 
ATOM     55  F   UNL A   1      41.266  22.821  28.534  1.00  0.00    -0.205 F 
ATOM     56  C   UNL A   1      42.745  22.318  25.226  1.00  0.00     0.022 A 
BRANCH  54  57
ATOM     57  S   UNL A   1      41.442  20.381  26.659  1.00  0.00     0.127 S 
ATOM     58  O   UNL A   1      41.883  19.722  25.433  1.00  0.00    -0.237 OA
ATOM     59  O   UNL A   1      42.151  19.968  27.871  1.00  0.00    -0.237 OA
ATOM     60  O   UNL A   1      40.001  20.514  26.824  1.00  0.00    -0.744 OA
ENDBRANCH  54  57
ENDBRANCH  26  50
BRANCH  38  61
ATOM     61  C   UNL A   1      46.928  25.911  32.437  1.00  0.00     0.023 A 
ATOM     62  C   UNL A   1      48.143  26.384  31.902  1.00  0.00     0.012 A 
ATOM     63  C   UNL A   1      46.953  24.934  33.452  1.00  0.00     0.148 A 
ATOM     64  C   UNL A   1      49.361  25.869  32.346  1.00  0.00     0.002 A 
ATOM     65  C   UNL A   1      48.172  24.462  33.924  1.00  0.00     0.091 A 
ATOM     66  F   UNL A   1      45.786  24.482  33.934  1.00  0.00    -0.205 F 
ATOM     67  C   UNL A   1      49.376  24.919  33.364  1.00  0.00     0.022 A 
BRANCH  65  68
ATOM     68  S   UNL A   1      48.292  23.310  35.297  1.00  0.00     0.127 S 
ATOM     69  O   UNL A   1      49.739  23.151  35.427  1.00  0.00    -0.237 OA
ATOM     70  O   UNL A   1      47.659  24.055  36.385  1.00  0.00    -0.237 OA
ATOM     71  O   UNL A   1      47.568  22.115  34.882  1.00  0.00    -0.744 OA
ENDBRANCH  65  68
ENDBRANCH  38  61
ENDBRANCH  12  13
ENDBRANCH   5   7
ENDBRANCH   2   3
ENDBRANCH   1   2
BRANCH   1  72
ATOM     72  C   UNL A   1      33.776  27.516  24.058  1.00  0.00     0.002 C 
BRANCH  72  73
ATOM     73  C   UNL A   1      32.953  27.447  22.768  1.00  0.00     0.002 C 
BRANCH  73  74
ATOM     74  C   UNL A   1      31.453  27.199  22.955  1.00  0.00     0.021 C 
BRANCH  74  75
ATOM     75  C   UNL A   1      31.086  25.790  23.412  1.00  0.00     0.116 C 
BRANCH  75  76
ATOM     76  N   UNL A   1      30.452  25.794  24.720  1.00  0.00    -0.352 N 
ATOM     77  C   UNL A   1      30.711  24.995  25.802  1.00  0.00     0.251 C 
ATOM     78  H   UNL A   1      29.740  26.462  24.845  1.00  0.00     0.163 HD
ATOM     79  O   UNL A   1      29.970  24.999  26.780  1.00  0.00    -0.269 OA
BRANCH  77  80
ATOM     80  C   UNL A   1      31.898  24.119  25.786  1.00  0.00     0.041 A 
ATOM     81  C   UNL A   1      33.158  24.637  26.112  1.00  0.00     0.015 A 
ATOM     82  C   UNL A   1      31.736  22.766  25.466  1.00  0.00     0.043 A 
ATOM     83  C   UNL A   1      34.273  23.807  26.066  1.00  0.00     0.017 A 
ATOM     84  C   UNL A   1      32.846  21.923  25.428  1.00  0.00     0.081 A 
ATOM     85  C   UNL A   1      34.102  22.462  25.728  1.00  0.00     0.066 A 
ATOM     86  N   UNL A   1      32.665  20.565  25.108  1.00  0.00    -0.214 NA
ATOM     87  C   UNL A   1      35.251  21.549  25.698  1.00  0.00     0.260 A 
ATOM     88  C   UNL A   1      33.691  19.774  25.160  1.00  0.00     0.206 A 
ATOM     89  O   UNL A   1      36.398  21.931  25.884  1.00  0.00    -0.269 OA
ATOM     90  N   UNL A   1      34.945  20.239  25.447  1.00  0.00    -0.292 N 
ATOM     91  H   UNL A   1      35.680  19.585  25.477  1.00  0.00     0.173 HD
BRANCH  88  92
ATOM     92  N   UNL A   1      33.614  18.434  24.903  1.00  0.00    -0.331 N 
ATOM     93  C   UNL A   1      34.731  17.703  24.305  1.00  0.00     0.181 C 
ATOM     94  C   UNL A   1      32.341  17.708  24.888  1.00  0.00     0.181 C 
ATOM     95  C   UNL A   1      34.859  16.324  24.998  1.00  0.00     0.282 C 
ATOM     96  C   UNL A   1      32.514  16.332  25.559  1.00  0.00     0.282 C 
ATOM     97  N   UNL A   1      33.609  15.527  24.978  1.00  0.00    -0.343 N 
ATOM     98  H   UNL A   1      33.738  14.678  25.527  1.00  0.00     0.346 HD
ATOM     99  H   UNL A   1      33.378  15.276  24.017  1.00  0.00     0.346 HD
ENDBRANCH  88  92
ENDBRANCH  77  80
ENDBRANCH  75  76
ENDBRANCH  74  75
ENDBRANCH  73  74
ENDBRANCH  72  73
ENDBRANCH   1  72
TORSDOF 17
ENDMDL
MODEL 3
REMARK VINA RESULT:     -12.5      2.321      8.079
REMARK SMILES O=C(NCCCCCCNC(=O)c1ccc2c(=O)[nH]c(N3CC[NH2+]CC3)nc2c1)c1ccc(-c2c3nc(c(-c4cccc(S(=O)(=O)[O-])c4F)c4ccc([nH]4)c(-c4cccc(S(=O)(=O)[O-])c4F)c4nc(c(-c5cccc(S(=O)(=O)[O-])c5F)c5ccc2[nH]5)C=C4)C=C3)cc1
REMARK SMILES IDX 5 1 4 2 3 3 1 4 2 5 30 7 31 8 92 9 32 10 91 11 33 12 34 13
REMARK SMILES IDX 35 14 85 15 36 16 90 17 84 18 86 19 37 20 89 21 83 22 82 23
REMARK SMILES IDX 38 25 70 26 50 27 69 28 51 29 54 30 68 31 87 32 52 33 53 34
REMARK SMILES IDX 67 36 88 37 55 38 39 39 40 40 48 41 41 42 43 43 49 44 42 45
REMARK SMILES IDX 44 46 45 47 46 48 47 49 71 50 72 51 80 52 73 53 75 54 81 55
REMARK SMILES IDX 74 56 76 57 77 58 78 59 79 60 56 61 57 62 65 63 58 64 60 65
REMARK SMILES IDX 66 66 59 67 61 68 62 69 63 70 64 71 6 72 7 73 8 74 9 75
REMARK SMILES IDX 10 76 11 77 12 79 13 80 14 81 29 82 15 83 28 84 16 85 27 86
REMARK SMILES IDX 17 87 20 88 18 89 19 90 21 92 22 93 26 94 23 95 25 96 24 97
REMARK H PARENT 3 6 86 24 54 35 10 78 19 91 24 98 24 99
REMARK Flexibility Score: inf
ROOT
ATOM      1  C   UNL A   1      31.484  32.468  26.499  1.00  0.00     0.021 C 
ENDROOT
BRANCH   1   2
ATOM      2  C   UNL A   1      32.690  32.890  27.328  1.00  0.00     0.116 C 
BRANCH   2   3
ATOM      3  N   UNL A   1      32.586  34.260  27.800  1.00  0.00    -0.352 N 
ATOM      4  O   UNL A   1      32.939  35.993  29.195  1.00  0.00    -0.269 OA
ATOM      5  C   UNL A   1      33.283  34.881  28.809  1.00  0.00     0.251 C 
ATOM      6  H   UNL A   1      31.926  34.821  27.332  1.00  0.00     0.163 HD
BRANCH   5   7
ATOM      7  C   UNL A   1      34.428  34.187  29.436  1.00  0.00     0.039 A 
ATOM      8  C   UNL A   1      34.221  33.266  30.467  1.00  0.00     0.014 A 
ATOM      9  C   UNL A   1      35.724  34.462  28.992  1.00  0.00     0.014 A 
ATOM     10  C   UNL A   1      35.310  32.731  31.145  1.00  0.00     0.010 A 
ATOM     11  C   UNL A   1      36.815  33.852  29.615  1.00  0.00     0.010 A 
ATOM     12  C   UNL A   1      36.619  33.002  30.716  1.00  0.00    -0.014 A 
BRANCH  12  13
ATOM     13  C   UNL A   1      37.758  32.313  31.375  1.00  0.00     0.031 A 
ATOM     14  C   UNL A   1      38.472  31.169  30.715  1.00  0.00     0.074 A 
ATOM     15  C   UNL A   1      38.131  32.728  32.601  1.00  0.00     0.049 A 
ATOM     16  N   UNL A   1      39.486  30.470  31.159  1.00  0.00    -0.248 NA
ATOM     17  C   UNL A   1      37.987  30.745  29.393  1.00  0.00     0.031 C 
ATOM     18  C   UNL A   1      37.475  33.795  33.363  1.00  0.00     0.029 A 
ATOM     19  N   UNL A   1      39.138  32.301  33.429  1.00  0.00    -0.354 N 
ATOM     20  C   UNL A   1      39.734  29.499  30.197  1.00  0.00     0.074 A 
ATOM     21  C   UNL A   1      38.760  29.694  29.144  1.00  0.00     0.031 C 
ATOM     22  C   UNL A   1      38.100  33.945  34.539  1.00  0.00     0.029 A 
ATOM     23  C   UNL A   1      39.163  32.953  34.639  1.00  0.00     0.049 A 
ATOM     24  H   UNL A   1      39.779  31.597  33.180  1.00  0.00     0.167 HD
ATOM     25  C   UNL A   1      40.692  28.540  30.188  1.00  0.00     0.034 A 
ATOM     26  C   UNL A   1      39.934  32.759  35.725  1.00  0.00     0.034 A 
ATOM     27  C   UNL A   1      41.672  28.369  31.230  1.00  0.00     0.049 A 
ATOM     28  C   UNL A   1      41.001  31.705  35.679  1.00  0.00     0.074 A 
ATOM     29  C   UNL A   1      42.733  27.480  31.275  1.00  0.00     0.029 A 
ATOM     30  N   UNL A   1      41.703  29.085  32.417  1.00  0.00    -0.354 N 
ATOM     31  N   UNL A   1      41.314  30.895  34.696  1.00  0.00    -0.248 NA
ATOM     32  C   UNL A   1      41.841  31.559  36.874  1.00  0.00     0.031 C 
ATOM     33  C   UNL A   1      43.384  27.638  32.503  1.00  0.00     0.029 A 
ATOM     34  C   UNL A   1      42.752  28.647  33.210  1.00  0.00     0.049 A 
ATOM     35  H   UNL A   1      41.073  29.800  32.661  1.00  0.00     0.167 HD
ATOM     36  C   UNL A   1      42.402  30.156  35.147  1.00  0.00     0.074 A 
ATOM     37  C   UNL A   1      42.709  30.637  36.479  1.00  0.00     0.031 C 
ATOM     38  C   UNL A   1      43.073  29.161  34.518  1.00  0.00     0.034 A 
BRANCH  25  39
ATOM     39  C   UNL A   1      40.748  27.611  29.002  1.00  0.00     0.023 A 
ATOM     40  C   UNL A   1      39.821  26.555  28.893  1.00  0.00     0.012 A 
ATOM     41  C   UNL A   1      41.677  27.821  27.961  1.00  0.00     0.148 A 
ATOM     42  C   UNL A   1      39.837  25.704  27.788  1.00  0.00     0.002 A 
ATOM     43  C   UNL A   1      41.658  26.995  26.843  1.00  0.00     0.091 A 
ATOM     44  F   UNL A   1      42.564  28.819  28.088  1.00  0.00    -0.205 F 
ATOM     45  C   UNL A   1      40.748  25.929  26.760  1.00  0.00     0.022 A 
BRANCH  43  46
ATOM     46  S   UNL A   1      42.740  27.255  25.431  1.00  0.00     0.127 S 
ATOM     47  O   UNL A   1      44.034  27.444  26.083  1.00  0.00    -0.237 OA
ATOM     48  O   UNL A   1      42.604  25.993  24.702  1.00  0.00    -0.237 OA
ATOM     49  O   UNL A   1      42.212  28.417  24.731  1.00  0.00    -0.744 OA
ENDBRANCH  43  46
ENDBRANCH  25  39
BRANCH  26  50
ATOM     50  C   UNL A   1      39.728  33.608  36.930  1.00  0.00     0.023 A 
ATOM     51  C   UNL A   1      40.188  34.937  36.935  1.00  0.00     0.012 A 
ATOM     52  C   UNL A   1      39.017  33.121  38.045  1.00  0.00     0.148 A 
ATOM     53  C   UNL A   1      39.966  35.761  38.039  1.00  0.00     0.002 A 
ATOM     54  C   UNL A   1      38.744  33.964  39.114  1.00  0.00     0.091 A 
ATOM     55  F   UNL A   1      38.596  31.847  38.023  1.00  0.00    -0.205 F 
ATOM     56  C   UNL A   1      39.233  35.279  39.121  1.00  0.00     0.022 A 
BRANCH  54  57
ATOM     57  S   UNL A   1      37.684  33.474  40.478  1.00  0.00     0.127 S 
ATOM     58  O   UNL A   1      38.482  32.432  41.117  1.00  0.00    -0.237 OA
ATOM     59  O   UNL A   1      37.574  34.721  41.238  1.00  0.00    -0.237 OA
ATOM     60  O   UNL A   1      36.437  33.033  39.868  1.00  0.00    -0.744 OA
ENDBRANCH  54  57
ENDBRANCH  26  50
BRANCH  38  61
ATOM     61  C   UNL A   1      44.230  28.536  35.252  1.00  0.00     0.023 A 
ATOM     62  C   UNL A   1      45.541  28.994  35.015  1.00  0.00     0.012 A 
ATOM     63  C   UNL A   1      44.010  27.539  36.223  1.00  0.00     0.148 A 
ATOM     64  C   UNL A   1      46.619  28.446  35.709  1.00  0.00     0.002 A 
ATOM     65  C   UNL A   1      45.084  27.033  36.946  1.00  0.00     0.091 A 
ATOM     66  F   UNL A   1      42.757  27.102  36.419  1.00  0.00    -0.205 F 
ATOM     67  C   UNL A   1      46.390  27.476  36.682  1.00  0.00     0.022 A 
BRANCH  65  68
ATOM     68  S   UNL A   1      44.873  25.851  38.282  1.00  0.00     0.127 S 
ATOM     69  O   UNL A   1      46.234  25.751  38.808  1.00  0.00    -0.237 OA
ATOM     70  O   UNL A   1      43.929  26.541  39.161  1.00  0.00    -0.237 OA
ATOM     71  O   UNL A   1      44.350  24.638  37.667  1.00  0.00    -0.744 OA
ENDBRANCH  65  68
ENDBRANCH  38  61
ENDBRANCH  12  13
ENDBRANCH   5   7
ENDBRANCH   2   3
ENDBRANCH   1   2
BRANCH   1  72
ATOM     72  C   UNL A   1      31.319  30.958  26.332  1.00  0.00     0.002 C 
BRANCH  72  73
ATOM     73  C   UNL A   1      32.581  30.129  26.588  1.00  0.00     0.002 C 
BRANCH  73  74
ATOM     74  C   UNL A   1      32.610  28.750  25.921  1.00  0.00     0.021 C 
BRANCH  74  75
ATOM     75  C   UNL A   1      33.250  28.719  24.536  1.00  0.00     0.116 C 
BRANCH  75  76
ATOM     76  N   UNL A   1      32.252  28.702  23.480  1.00  0.00    -0.352 N 
ATOM     77  C   UNL A   1      31.354  27.717  23.163  1.00  0.00     0.251 C 
ATOM     78  H   UNL A   1      32.216  29.507  22.916  1.00  0.00     0.163 HD
ATOM     79  O   UNL A   1      30.694  27.774  22.131  1.00  0.00    -0.269 OA
BRANCH  77  80
ATOM     80  C   UNL A   1      31.184  26.573  24.079  1.00  0.00     0.041 A 
ATOM     81  C   UNL A   1      30.087  26.525  24.947  1.00  0.00     0.015 A 
ATOM     82  C   UNL A   1      32.120  25.532  24.042  1.00  0.00     0.043 A 
ATOM     83  C   UNL A   1      29.953  25.455  25.825  1.00  0.00     0.017 A 
ATOM     84  C   UNL A   1      31.988  24.449  24.911  1.00  0.00     0.081 A 
ATOM     85  C   UNL A   1      30.903  24.430  25.793  1.00  0.00     0.066 A 
ATOM     86  N   UNL A   1      32.936  23.410  24.858  1.00  0.00    -0.214 NA
ATOM     87  C   UNL A   1      30.779  23.269  26.683  1.00  0.00     0.260 A 
ATOM     88  C   UNL A   1      32.756  22.368  25.609  1.00  0.00     0.206 A 
ATOM     89  O   UNL A   1      29.902  23.185  27.532  1.00  0.00    -0.269 OA
ATOM     90  N   UNL A   1      31.714  22.290  26.493  1.00  0.00    -0.292 N 
ATOM     91  H   UNL A   1      31.630  21.468  27.029  1.00  0.00     0.173 HD
BRANCH  88  92
ATOM     92  N   UNL A   1      33.598  21.292  25.607  1.00  0.00    -0.331 N 
ATOM     93  C   UNL A   1      33.091  19.923  25.508  1.00  0.00     0.181 C 
ATOM     94  C   UNL A   1      34.998  21.388  26.027  1.00  0.00     0.181 C 
ATOM     95  C   UNL A   1      34.018  19.109  24.573  1.00  0.00     0.282 C 
ATOM     96  C   UNL A   1      35.886  20.544  25.093  1.00  0.00     0.282 C 
ATOM     97  N   UNL A   1      35.445  19.138  24.974  1.00  0.00    -0.343 N 
ATOM     98  H   UNL A   1      36.007  18.662  24.269  1.00  0.00     0.346 HD
ATOM     99  H   UNL A   1      35.559  18.666  25.871  1.00  0.00     0.346 HD
ENDBRANCH  88  92
ENDBRANCH  77  80
ENDBRANCH  75  76
ENDBRANCH  74  75
ENDBRANCH  73  74
ENDBRANCH  72  73
ENDBRANCH   1  72
TORSDOF 17
ENDMDL
