MODEL 1
REMARK VINA RESULT:     -10.6      0.000      0.000
REMARK SMILES [N-]=[N+]=NC[C@H](Nc1ccc(Br)cc1)C(=O)NCCCCCCNC(=O)c1ccc(-c2c3nc(c(-c4cccc(S(=O)(=O)[O-])c4F)c4ccc([nH]4)c(-c4cccc(S(=O)(=O)[O-])c4F)c4nc(c(-c5cccc(S(=O)(=O)[O-])c5F)c5ccc2[nH]5)C=C4)C=C3)cc1
REMARK SMILES IDX 20 1 19 2 18 3 17 4 16 5 14 6 15 7 5 9 4 10 3 11 1 12 2 13
REMARK SMILES IDX 6 14 7 16 8 17 13 18 9 19 12 20 10 21 11 22 21 23 22 24
REMARK SMILES IDX 23 25 24 26 25 28 26 29 27 30 88 31 28 32 87 33 29 34 30 35
REMARK SMILES IDX 31 36 81 37 32 38 86 39 80 40 82 41 33 42 85 43 79 44 78 45
REMARK SMILES IDX 34 47 66 48 46 49 65 50 47 51 50 52 64 53 83 54 48 55 49 56
REMARK SMILES IDX 63 58 84 59 51 60 35 61 36 62 44 63 37 64 39 65 45 66 38 67
REMARK SMILES IDX 40 68 41 69 42 70 43 71 67 72 68 73 76 74 69 75 71 76 77 77
REMARK SMILES IDX 70 78 72 79 73 80 74 81 75 82 52 83 53 84 61 85 54 86 56 87
REMARK SMILES IDX 62 88 55 89 57 90 58 91 59 92 60 93
REMARK H PARENT 16 8 6 15 23 27 82 46 50 57
REMARK Flexibility Score: inf
ROOT
ATOM      1  C   UNL A   1      31.350  30.885  26.218  1.00  0.00     0.002 C 
ENDROOT
BRANCH   1   2
ATOM      2  C   UNL A   1      32.300  30.041  27.070  1.00  0.00     0.002 C 
BRANCH   2   3
ATOM      3  C   UNL A   1      31.968  28.545  27.114  1.00  0.00     0.021 C 
BRANCH   3   4
ATOM      4  C   UNL A   1      33.096  27.635  26.633  1.00  0.00     0.116 C 
BRANCH   4   5
ATOM      5  N   UNL A   1      33.729  28.149  25.435  1.00  0.00    -0.354 N 
ATOM      6  C   UNL A   1      33.685  27.676  24.160  1.00  0.00     0.242 C 
ATOM      7  O   UNL A   1      34.367  28.263  23.312  1.00  0.00    -0.273 OA
ATOM      8  H   UNL A   1      34.271  28.961  25.563  1.00  0.00     0.163 HD
BRANCH   6   9
ATOM      9  C   UNL A   1      32.772  26.515  23.758  1.00  0.00     0.174 C 
BRANCH   9  10
ATOM     10  C   UNL A   1      33.119  26.140  22.296  1.00  0.00     0.125 C 
BRANCH  10  11
ATOM     11  N   UNL A   1      33.993  24.949  22.257  1.00  0.00    -0.091 NA
ATOM     12  N   UNL A   1      32.889  22.898  22.771  1.00  0.00    -0.003 NA
ATOM     13  N   UNL A   1      33.427  23.875  22.529  1.00  0.00     0.001 N 
ENDBRANCH  10  11
ENDBRANCH   9  10
BRANCH   9  14
ATOM     14  N   UNL A   1      31.320  26.739  23.904  1.00  0.00    -0.374 N 
ATOM     15  H   UNL A   1      30.820  26.092  24.452  1.00  0.00     0.161 HD
BRANCH  14  16
ATOM     16  C   UNL A   1      30.600  27.778  23.339  1.00  0.00     0.035 A 
ATOM     17  C   UNL A   1      31.169  28.838  22.625  1.00  0.00     0.027 A 
ATOM     18  C   UNL A   1      29.199  27.762  23.448  1.00  0.00     0.027 A 
ATOM     19  C   UNL A   1      30.381  29.825  22.021  1.00  0.00     0.018 A 
ATOM     20  C   UNL A   1      28.403  28.760  22.874  1.00  0.00     0.018 A 
ATOM     21  C   UNL A   1      29.000  29.786  22.153  1.00  0.00     0.018 A 
ATOM     22  Br  UNL A   1      27.939  31.125  21.347  1.00  0.00    -0.051 Br
ENDBRANCH  14  16
ENDBRANCH   9  14
ENDBRANCH   6   9
ENDBRANCH   4   5
ENDBRANCH   3   4
ENDBRANCH   2   3
ENDBRANCH   1   2
BRANCH   1  23
ATOM     23  C   UNL A   1      31.368  32.384  26.528  1.00  0.00     0.021 C 
BRANCH  23  24
ATOM     24  C   UNL A   1      32.697  32.903  27.065  1.00  0.00     0.116 C 
BRANCH  24  25
ATOM     25  N   UNL A   1      32.556  34.207  27.692  1.00  0.00    -0.352 N 
ATOM     26  C   UNL A   1      33.182  34.706  28.806  1.00  0.00     0.251 C 
ATOM     27  H   UNL A   1      31.922  34.819  27.255  1.00  0.00     0.163 HD
ATOM     28  O   UNL A   1      32.783  35.749  29.316  1.00  0.00    -0.269 OA
BRANCH  26  29
ATOM     29  C   UNL A   1      34.323  33.976  29.400  1.00  0.00     0.039 A 
ATOM     30  C   UNL A   1      35.620  34.364  29.061  1.00  0.00     0.014 A 
ATOM     31  C   UNL A   1      34.117  32.913  30.284  1.00  0.00     0.014 A 
ATOM     32  C   UNL A   1      36.710  33.721  29.650  1.00  0.00     0.010 A 
ATOM     33  C   UNL A   1      35.202  32.328  30.932  1.00  0.00     0.010 A 
ATOM     34  C   UNL A   1      36.511  32.721  30.617  1.00  0.00    -0.014 A 
BRANCH  34  35
ATOM     35  C   UNL A   1      37.664  32.104  31.323  1.00  0.00     0.031 A 
ATOM     36  C   UNL A   1      38.440  30.980  30.693  1.00  0.00     0.074 A 
ATOM     37  C   UNL A   1      37.973  32.518  32.569  1.00  0.00     0.049 A 
ATOM     38  N   UNL A   1      39.466  30.322  31.168  1.00  0.00    -0.248 NA
ATOM     39  C   UNL A   1      37.995  30.519  29.367  1.00  0.00     0.031 C 
ATOM     40  C   UNL A   1      37.245  33.542  33.322  1.00  0.00     0.029 A 
ATOM     41  N   UNL A   1      38.962  32.115  33.429  1.00  0.00    -0.354 N 
ATOM     42  C   UNL A   1      39.770  29.352  30.220  1.00  0.00     0.074 A 
ATOM     43  C   UNL A   1      38.798  29.485  29.156  1.00  0.00     0.031 C 
ATOM     44  C   UNL A   1      37.820  33.696  34.525  1.00  0.00     0.029 A 
ATOM     45  C   UNL A   1      38.931  32.758  34.645  1.00  0.00     0.049 A 
ATOM     46  H   UNL A   1      39.633  31.431  33.198  1.00  0.00     0.167 HD
ATOM     47  C   UNL A   1      40.779  28.449  30.222  1.00  0.00     0.034 A 
ATOM     48  C   UNL A   1      39.701  32.602  35.740  1.00  0.00     0.034 A 
ATOM     49  C   UNL A   1      41.758  28.335  31.270  1.00  0.00     0.049 A 
ATOM     50  C   UNL A   1      40.830  31.609  35.705  1.00  0.00     0.074 A 
ATOM     51  C   UNL A   1      42.870  27.513  31.321  1.00  0.00     0.029 A 
ATOM     52  N   UNL A   1      41.733  29.048  32.459  1.00  0.00    -0.354 N 
ATOM     53  N   UNL A   1      41.201  30.815  34.731  1.00  0.00    -0.248 NA
ATOM     54  C   UNL A   1      41.669  31.517  36.908  1.00  0.00     0.031 C 
ATOM     55  C   UNL A   1      43.492  27.696  32.561  1.00  0.00     0.029 A 
ATOM     56  C   UNL A   1      42.797  28.669  33.261  1.00  0.00     0.049 A 
ATOM     57  H   UNL A   1      41.058  29.724  32.698  1.00  0.00     0.167 HD
ATOM     58  C   UNL A   1      42.334  30.154  35.189  1.00  0.00     0.074 A 
ATOM     59  C   UNL A   1      42.603  30.660  36.519  1.00  0.00     0.031 C 
ATOM     60  C   UNL A   1      43.078  29.205  34.569  1.00  0.00     0.034 A 
BRANCH  47  61
ATOM     61  C   UNL A   1      40.899  27.527  29.035  1.00  0.00     0.023 A 
ATOM     62  C   UNL A   1      40.094  26.372  28.957  1.00  0.00     0.012 A 
ATOM     63  C   UNL A   1      41.763  27.837  27.965  1.00  0.00     0.148 A 
ATOM     64  C   UNL A   1      40.173  25.521  27.855  1.00  0.00     0.002 A 
ATOM     65  C   UNL A   1      41.800  27.010  26.847  1.00  0.00     0.091 A 
ATOM     66  F   UNL A   1      42.535  28.928  28.063  1.00  0.00    -0.205 F 
ATOM     67  C   UNL A   1      41.016  25.846  26.797  1.00  0.00     0.022 A 
BRANCH  65  68
ATOM     68  S   UNL A   1      42.789  27.384  25.396  1.00  0.00     0.127 S 
ATOM     69  O   UNL A   1      42.628  26.164  24.607  1.00  0.00    -0.237 OA
ATOM     70  O   UNL A   1      42.106  28.558  24.853  1.00  0.00    -0.237 OA
ATOM     71  O   UNL A   1      44.139  27.637  25.883  1.00  0.00    -0.744 OA
ENDBRANCH  65  68
ENDBRANCH  47  61
BRANCH  48  72
ATOM     72  C   UNL A   1      39.453  33.439  36.948  1.00  0.00     0.023 A 
ATOM     73  C   UNL A   1      39.937  34.761  36.993  1.00  0.00     0.012 A 
ATOM     74  C   UNL A   1      38.721  32.937  38.042  1.00  0.00     0.148 A 
ATOM     75  C   UNL A   1      39.728  35.555  38.121  1.00  0.00     0.002 A 
ATOM     76  C   UNL A   1      38.465  33.753  39.136  1.00  0.00     0.091 A 
ATOM     77  F   UNL A   1      38.278  31.673  37.982  1.00  0.00    -0.205 F 
ATOM     78  C   UNL A   1      38.985  35.056  39.188  1.00  0.00     0.022 A 
BRANCH  76  79
ATOM     79  S   UNL A   1      37.405  33.240  40.492  1.00  0.00     0.127 S 
ATOM     80  O   UNL A   1      37.395  34.434  41.332  1.00  0.00    -0.237 OA
ATOM     81  O   UNL A   1      36.146  32.962  39.799  1.00  0.00    -0.237 OA
ATOM     82  O   UNL A   1      38.043  32.066  41.071  1.00  0.00    -0.744 OA
ENDBRANCH  76  79
ENDBRANCH  48  72
BRANCH  60  83
ATOM     83  C   UNL A   1      44.282  28.672  35.303  1.00  0.00     0.023 A 
ATOM     84  C   UNL A   1      45.554  29.235  35.077  1.00  0.00     0.012 A 
ATOM     85  C   UNL A   1      44.140  27.652  36.264  1.00  0.00     0.148 A 
ATOM     86  C   UNL A   1      46.671  28.761  35.764  1.00  0.00     0.002 A 
ATOM     87  C   UNL A   1      45.247  27.223  36.984  1.00  0.00     0.091 A 
ATOM     88  F   UNL A   1      42.924  27.117  36.454  1.00  0.00    -0.205 F 
ATOM     89  C   UNL A   1      46.516  27.764  36.725  1.00  0.00     0.022 A 
BRANCH  87  90
ATOM     90  S   UNL A   1      45.129  26.016  38.309  1.00  0.00     0.127 S 
ATOM     91  O   UNL A   1      44.049  26.573  39.123  1.00  0.00    -0.237 OA
ATOM     92  O   UNL A   1      44.778  24.795  37.583  1.00  0.00    -0.237 OA
ATOM     93  O   UNL A   1      46.438  25.985  38.946  1.00  0.00    -0.744 OA
ENDBRANCH  87  90
ENDBRANCH  60  83
ENDBRANCH  34  35
ENDBRANCH  26  29
ENDBRANCH  24  25
ENDBRANCH  23  24
ENDBRANCH   1  23
TORSDOF 20
ENDMDL
MODEL 2
REMARK VINA RESULT:     -10.6      5.952     10.772
REMARK SMILES [N-]=[N+]=NC[C@H](Nc1ccc(Br)cc1)C(=O)NCCCCCCNC(=O)c1ccc(-c2c3nc(c(-c4cccc(S(=O)(=O)[O-])c4F)c4ccc([nH]4)c(-c4cccc(S(=O)(=O)[O-])c4F)c4nc(c(-c5cccc(S(=O)(=O)[O-])c5F)c5ccc2[nH]5)C=C4)C=C3)cc1
REMARK SMILES IDX 20 1 19 2 18 3 17 4 16 5 14 6 15 7 5 9 4 10 3 11 1 12 2 13
REMARK SMILES IDX 6 14 7 16 8 17 13 18 9 19 12 20 10 21 11 22 21 23 22 24
REMARK SMILES IDX 23 25 24 26 25 28 26 29 27 30 88 31 28 32 87 33 29 34 30 35
REMARK SMILES IDX 31 36 81 37 32 38 86 39 80 40 82 41 33 42 85 43 79 44 78 45
REMARK SMILES IDX 34 47 66 48 46 49 65 50 47 51 50 52 64 53 83 54 48 55 49 56
REMARK SMILES IDX 63 58 84 59 51 60 35 61 36 62 44 63 37 64 39 65 45 66 38 67
REMARK SMILES IDX 40 68 41 69 42 70 43 71 67 72 68 73 76 74 69 75 71 76 77 77
REMARK SMILES IDX 70 78 72 79 73 80 74 81 75 82 52 83 53 84 61 85 54 86 56 87
REMARK SMILES IDX 62 88 55 89 57 90 58 91 59 92 60 93
REMARK H PARENT 16 8 6 15 23 27 82 46 50 57
REMARK Flexibility Score: inf
ROOT
ATOM      1  C   UNL A   1      35.753  23.331  26.286  1.00  0.00     0.002 C 
ENDROOT
BRANCH   1   2
ATOM      2  C   UNL A   1      34.424  24.035  25.999  1.00  0.00     0.002 C 
BRANCH   2   3
ATOM      3  C   UNL A   1      34.400  24.864  24.710  1.00  0.00     0.021 C 
BRANCH   3   4
ATOM      4  C   UNL A   1      33.961  26.314  24.902  1.00  0.00     0.116 C 
BRANCH   4   5
ATOM      5  N   UNL A   1      32.888  26.429  25.868  1.00  0.00    -0.354 N 
ATOM      6  C   UNL A   1      31.542  26.354  25.683  1.00  0.00     0.242 C 
ATOM      7  O   UNL A   1      30.820  26.546  26.668  1.00  0.00    -0.273 OA
ATOM      8  H   UNL A   1      33.175  26.583  26.797  1.00  0.00     0.163 HD
BRANCH   6   9
ATOM      9  C   UNL A   1      30.931  25.970  24.333  1.00  0.00     0.174 C 
BRANCH   9  10
ATOM     10  C   UNL A   1      29.885  27.053  23.974  1.00  0.00     0.125 C 
BRANCH  10  11
ATOM     11  N   UNL A   1      30.238  27.718  22.703  1.00  0.00    -0.091 NA
ATOM     12  N   UNL A   1      32.308  28.902  22.752  1.00  0.00    -0.003 NA
ATOM     13  N   UNL A   1      31.314  28.342  22.720  1.00  0.00     0.001 N 
ENDBRANCH  10  11
ENDBRANCH   9  10
BRANCH   9  14
ATOM     14  N   UNL A   1      30.333  24.623  24.241  1.00  0.00    -0.374 N 
ATOM     15  H   UNL A   1      29.351  24.570  24.188  1.00  0.00     0.161 HD
BRANCH  14  16
ATOM     16  C   UNL A   1      31.032  23.426  24.224  1.00  0.00     0.035 A 
ATOM     17  C   UNL A   1      31.746  22.945  23.122  1.00  0.00     0.027 A 
ATOM     18  C   UNL A   1      31.066  22.651  25.395  1.00  0.00     0.027 A 
ATOM     19  C   UNL A   1      32.487  21.758  23.186  1.00  0.00     0.018 A 
ATOM     20  C   UNL A   1      31.778  21.448  25.462  1.00  0.00     0.018 A 
ATOM     21  C   UNL A   1      32.494  21.010  24.356  1.00  0.00     0.018 A 
ATOM     22  Br  UNL A   1      33.485  19.404  24.439  1.00  0.00    -0.051 Br
ENDBRANCH  14  16
ENDBRANCH   9  14
ENDBRANCH   6   9
ENDBRANCH   4   5
ENDBRANCH   3   4
ENDBRANCH   2   3
ENDBRANCH   1   2
BRANCH   1  23
ATOM     23  C   UNL A   1      35.853  21.903  25.746  1.00  0.00     0.021 C 
BRANCH  23  24
ATOM     24  C   UNL A   1      37.055  21.650  24.844  1.00  0.00     0.116 C 
BRANCH  24  25
ATOM     25  N   UNL A   1      37.892  20.571  25.344  1.00  0.00    -0.352 N 
ATOM     26  C   UNL A   1      39.114  20.635  25.963  1.00  0.00     0.251 C 
ATOM     27  H   UNL A   1      37.528  19.664  25.221  1.00  0.00     0.163 HD
ATOM     28  O   UNL A   1      39.772  19.613  26.126  1.00  0.00    -0.269 OA
BRANCH  26  29
ATOM     29  C   UNL A   1      39.642  21.941  26.415  1.00  0.00     0.039 A 
ATOM     30  C   UNL A   1      40.560  21.967  27.467  1.00  0.00     0.014 A 
ATOM     31  C   UNL A   1      39.234  23.133  25.810  1.00  0.00     0.014 A 
ATOM     32  C   UNL A   1      41.109  23.184  27.874  1.00  0.00     0.010 A 
ATOM     33  C   UNL A   1      39.843  24.334  26.162  1.00  0.00     0.010 A 
ATOM     34  C   UNL A   1      40.783  24.375  27.203  1.00  0.00    -0.014 A 
BRANCH  34  35
ATOM     35  C   UNL A   1      41.440  25.657  27.564  1.00  0.00     0.031 A 
ATOM     36  C   UNL A   1      40.691  26.721  28.319  1.00  0.00     0.074 A 
ATOM     37  C   UNL A   1      42.703  25.890  27.151  1.00  0.00     0.049 A 
ATOM     38  N   UNL A   1      41.105  27.898  28.709  1.00  0.00    -0.248 NA
ATOM     39  C   UNL A   1      39.288  26.436  28.664  1.00  0.00     0.031 C 
ATOM     40  C   UNL A   1      43.509  24.973  26.341  1.00  0.00     0.029 A 
ATOM     41  N   UNL A   1      43.522  26.975  27.335  1.00  0.00    -0.354 N 
ATOM     42  C   UNL A   1      40.012  28.507  29.314  1.00  0.00     0.074 A 
ATOM     43  C   UNL A   1      38.905  27.581  29.210  1.00  0.00     0.031 C 
ATOM     44  C   UNL A   1      44.708  25.528  26.109  1.00  0.00     0.029 A 
ATOM     45  C   UNL A   1      44.747  26.852  26.720  1.00  0.00     0.049 A 
ATOM     46  H   UNL A   1      43.260  27.767  27.859  1.00  0.00     0.167 HD
ATOM     47  C   UNL A   1      39.940  29.715  29.922  1.00  0.00     0.034 A 
ATOM     48  C   UNL A   1      45.780  27.713  26.643  1.00  0.00     0.034 A 
ATOM     49  C   UNL A   1      41.050  30.623  30.044  1.00  0.00     0.049 A 
ATOM     50  C   UNL A   1      45.683  29.038  27.348  1.00  0.00     0.074 A 
ATOM     51  C   UNL A   1      41.101  31.830  30.720  1.00  0.00     0.029 A 
ATOM     52  N   UNL A   1      42.294  30.438  29.463  1.00  0.00    -0.354 N 
ATOM     53  N   UNL A   1      44.694  29.525  28.056  1.00  0.00    -0.248 NA
ATOM     54  C   UNL A   1      46.859  29.917  27.274  1.00  0.00     0.031 C 
ATOM     55  C   UNL A   1      42.363  32.395  30.510  1.00  0.00     0.029 A 
ATOM     56  C   UNL A   1      43.115  31.517  29.745  1.00  0.00     0.049 A 
ATOM     57  H   UNL A   1      42.557  29.653  28.929  1.00  0.00     0.167 HD
ATOM     58  C   UNL A   1      45.138  30.750  28.540  1.00  0.00     0.074 A 
ATOM     59  C   UNL A   1      46.495  30.917  28.064  1.00  0.00     0.031 C 
ATOM     60  C   UNL A   1      44.478  31.659  29.299  1.00  0.00     0.034 A 
BRANCH  47  61
ATOM     61  C   UNL A   1      38.622  30.117  30.534  1.00  0.00     0.023 A 
ATOM     62  C   UNL A   1      38.323  29.751  31.863  1.00  0.00     0.012 A 
ATOM     63  C   UNL A   1      37.705  30.911  29.816  1.00  0.00     0.148 A 
ATOM     64  C   UNL A   1      37.121  30.135  32.454  1.00  0.00     0.002 A 
ATOM     65  C   UNL A   1      36.531  31.332  30.429  1.00  0.00     0.091 A 
ATOM     66  F   UNL A   1      37.996  31.234  28.549  1.00  0.00    -0.205 F 
ATOM     67  C   UNL A   1      36.231  30.933  31.742  1.00  0.00     0.022 A 
BRANCH  65  68
ATOM     68  S   UNL A   1      35.358  32.431  29.628  1.00  0.00     0.127 S 
ATOM     69  O   UNL A   1      36.216  33.555  29.254  1.00  0.00    -0.237 OA
ATOM     70  O   UNL A   1      34.894  31.617  28.505  1.00  0.00    -0.237 OA
ATOM     71  O   UNL A   1      34.339  32.730  30.625  1.00  0.00    -0.744 OA
ENDBRANCH  65  68
ENDBRANCH  47  61
BRANCH  48  72
ATOM     72  C   UNL A   1      47.014  27.329  25.902  1.00  0.00     0.023 A 
ATOM     73  C   UNL A   1      47.137  27.646  24.535  1.00  0.00     0.012 A 
ATOM     74  C   UNL A   1      48.076  26.670  26.552  1.00  0.00     0.148 A 
ATOM     75  C   UNL A   1      48.278  27.282  23.821  1.00  0.00     0.002 A 
ATOM     76  C   UNL A   1      49.235  26.363  25.850  1.00  0.00     0.091 A 
ATOM     77  F   UNL A   1      47.936  26.369  27.850  1.00  0.00    -0.205 F 
ATOM     78  C   UNL A   1      49.331  26.650  24.479  1.00  0.00     0.022 A 
BRANCH  76  79
ATOM     79  S   UNL A   1      50.689  25.674  26.646  1.00  0.00     0.127 S 
ATOM     80  O   UNL A   1      51.041  26.728  27.593  1.00  0.00    -0.237 OA
ATOM     81  O   UNL A   1      50.150  24.455  27.250  1.00  0.00    -0.237 OA
ATOM     82  O   UNL A   1      51.651  25.439  25.577  1.00  0.00    -0.744 OA
ENDBRANCH  76  79
ENDBRANCH  48  72
BRANCH  60  83
ATOM     83  C   UNL A   1      45.223  32.906  29.700  1.00  0.00     0.023 A 
ATOM     84  C   UNL A   1      45.952  32.938  30.905  1.00  0.00     0.012 A 
ATOM     85  C   UNL A   1      45.248  34.029  28.848  1.00  0.00     0.148 A 
ATOM     86  C   UNL A   1      46.660  34.081  31.276  1.00  0.00     0.002 A 
ATOM     87  C   UNL A   1      46.000  35.143  29.198  1.00  0.00     0.091 A 
ATOM     88  F   UNL A   1      44.535  33.986  27.713  1.00  0.00    -0.205 F 
ATOM     89  C   UNL A   1      46.693  35.178  30.418  1.00  0.00     0.022 A 
BRANCH  87  90
ATOM     90  S   UNL A   1      46.182  36.563  28.113  1.00  0.00     0.127 S 
ATOM     91  O   UNL A   1      44.844  37.150  28.163  1.00  0.00    -0.237 OA
ATOM     92  O   UNL A   1      47.216  37.342  28.796  1.00  0.00    -0.237 OA
ATOM     93  O   UNL A   1      46.583  36.032  26.817  1.00  0.00    -0.744 OA
ENDBRANCH  87  90
ENDBRANCH  60  83
ENDBRANCH  34  35
ENDBRANCH  26  29
ENDBRANCH  24  25
ENDBRANCH  23  24
ENDBRANCH   1  23
TORSDOF 20
ENDMDL
MODEL 3
REMARK VINA RESULT:     -10.5      5.609      8.612
REMARK SMILES [N-]=[N+]=NC[C@H](Nc1ccc(Br)cc1)C(=O)NCCCCCCNC(=O)c1ccc(-c2c3nc(c(-c4cccc(S(=O)(=O)[O-])c4F)c4ccc([nH]4)c(-c4cccc(S(=O)(=O)[O-])c4F)c4nc(c(-c5cccc(S(=O)(=O)[O-])c5F)c5ccc2[nH]5)C=C4)C=C3)cc1
REMARK SMILES IDX 20 1 19 2 18 3 17 4 16 5 14 6 15 7 5 9 4 10 3 11 1 12 2 13
REMARK SMILES IDX 6 14 7 16 8 17 13 18 9 19 12 20 10 21 11 22 21 23 22 24
REMARK SMILES IDX 23 25 24 26 25 28 26 29 27 30 88 31 28 32 87 33 29 34 30 35
REMARK SMILES IDX 31 36 81 37 32 38 86 39 80 40 82 41 33 42 85 43 79 44 78 45
REMARK SMILES IDX 34 47 66 48 46 49 65 50 47 51 50 52 64 53 83 54 48 55 49 56
REMARK SMILES IDX 63 58 84 59 51 60 35 61 36 62 44 63 37 64 39 65 45 66 38 67
REMARK SMILES IDX 40 68 41 69 42 70 43 71 67 72 68 73 76 74 69 75 71 76 77 77
REMARK SMILES IDX 70 78 72 79 73 80 74 81 75 82 52 83 53 84 61 85 54 86 56 87
REMARK SMILES IDX 62 88 55 89 57 90 58 91 59 92 60 93
REMARK H PARENT 16 8 6 15 23 27 82 46 50 57
REMARK Flexibility Score: inf
ROOT
ATOM      1  C   UNL A   1      34.924  22.226  26.782  1.00  0.00     0.002 C 
ENDROOT
BRANCH   1   2
ATOM      2  C   UNL A   1      33.772  23.182  26.461  1.00  0.00     0.002 C 
BRANCH   2   3
ATOM      3  C   UNL A   1      34.186  24.475  25.751  1.00  0.00     0.021 C 
BRANCH   3   4
ATOM      4  C   UNL A   1      33.126  25.574  25.773  1.00  0.00     0.116 C 
BRANCH   4   5
ATOM      5  N   UNL A   1      31.876  25.105  26.335  1.00  0.00    -0.354 N 
ATOM      6  C   UNL A   1      30.605  25.261  25.873  1.00  0.00     0.242 C 
ATOM      7  O   UNL A   1      29.687  24.813  26.570  1.00  0.00    -0.273 OA
ATOM      8  H   UNL A   1      31.957  24.597  27.175  1.00  0.00     0.163 HD
BRANCH   6   9
ATOM      9  C   UNL A   1      30.311  25.891  24.510  1.00  0.00     0.174 C 
BRANCH   9  10
ATOM     10  C   UNL A   1      31.081  25.073  23.445  1.00  0.00     0.125 C 
BRANCH  10  11
ATOM     11  N   UNL A   1      30.857  23.625  23.638  1.00  0.00    -0.091 NA
ATOM     12  N   UNL A   1      32.685  22.247  22.966  1.00  0.00    -0.003 NA
ATOM     13  N   UNL A   1      31.803  22.898  23.286  1.00  0.00     0.001 N 
ENDBRANCH  10  11
ENDBRANCH   9  10
BRANCH   9  14
ATOM     14  N   UNL A   1      30.610  27.331  24.372  1.00  0.00    -0.374 N 
ATOM     15  H   UNL A   1      31.320  27.698  24.947  1.00  0.00     0.161 HD
BRANCH  14  16
ATOM     16  C   UNL A   1      29.979  28.210  23.507  1.00  0.00     0.035 A 
ATOM     17  C   UNL A   1      28.592  28.320  23.365  1.00  0.00     0.027 A 
ATOM     18  C   UNL A   1      30.771  29.082  22.741  1.00  0.00     0.027 A 
ATOM     19  C   UNL A   1      28.012  29.274  22.520  1.00  0.00     0.018 A 
ATOM     20  C   UNL A   1      30.203  30.020  21.870  1.00  0.00     0.018 A 
ATOM     21  C   UNL A   1      28.821  30.117  21.770  1.00  0.00     0.018 A 
ATOM     22  Br  UNL A   1      28.039  31.397  20.622  1.00  0.00    -0.051 Br
ENDBRANCH  14  16
ENDBRANCH   9  14
ENDBRANCH   6   9
ENDBRANCH   4   5
ENDBRANCH   3   4
ENDBRANCH   2   3
ENDBRANCH   1   2
BRANCH   1  23
ATOM     23  C   UNL A   1      35.413  21.389  25.597  1.00  0.00     0.021 C 
BRANCH  23  24
ATOM     24  C   UNL A   1      36.831  21.711  25.137  1.00  0.00     0.116 C 
BRANCH  24  25
ATOM     25  N   UNL A   1      37.770  20.662  25.499  1.00  0.00    -0.352 N 
ATOM     26  C   UNL A   1      39.046  20.772  25.990  1.00  0.00     0.251 C 
ATOM     27  H   UNL A   1      37.443  19.742  25.375  1.00  0.00     0.163 HD
ATOM     28  O   UNL A   1      39.770  19.782  26.038  1.00  0.00    -0.269 OA
BRANCH  26  29
ATOM     29  C   UNL A   1      39.552  22.087  26.441  1.00  0.00     0.039 A 
ATOM     30  C   UNL A   1      40.654  22.126  27.297  1.00  0.00     0.014 A 
ATOM     31  C   UNL A   1      38.942  23.275  26.027  1.00  0.00     0.014 A 
ATOM     32  C   UNL A   1      41.177  23.358  27.692  1.00  0.00     0.010 A 
ATOM     33  C   UNL A   1      39.515  24.500  26.356  1.00  0.00     0.010 A 
ATOM     34  C   UNL A   1      40.635  24.556  27.198  1.00  0.00    -0.014 A 
BRANCH  34  35
ATOM     35  C   UNL A   1      41.250  25.866  27.533  1.00  0.00     0.031 A 
ATOM     36  C   UNL A   1      42.669  26.175  27.138  1.00  0.00     0.074 A 
ATOM     37  C   UNL A   1      40.545  26.761  28.256  1.00  0.00     0.049 A 
ATOM     38  N   UNL A   1      43.365  27.260  27.356  1.00  0.00    -0.248 NA
ATOM     39  C   UNL A   1      43.411  25.120  26.427  1.00  0.00     0.031 C 
ATOM     40  C   UNL A   1      39.190  26.549  28.770  1.00  0.00     0.029 A 
ATOM     41  N   UNL A   1      40.875  28.016  28.701  1.00  0.00    -0.354 N 
ATOM     42  C   UNL A   1      44.631  27.012  26.839  1.00  0.00     0.074 A 
ATOM     43  C   UNL A   1      44.618  25.659  26.327  1.00  0.00     0.031 C 
ATOM     44  C   UNL A   1      38.800  27.638  29.449  1.00  0.00     0.029 A 
ATOM     45  C   UNL A   1      39.887  28.612  29.451  1.00  0.00     0.049 A 
ATOM     46  H   UNL A   1      41.736  28.450  28.502  1.00  0.00     0.167 HD
ATOM     47  C   UNL A   1      45.700  27.841  26.774  1.00  0.00     0.034 A 
ATOM     48  C   UNL A   1      39.863  29.802  30.083  1.00  0.00     0.034 A 
ATOM     49  C   UNL A   1      45.702  29.194  27.263  1.00  0.00     0.049 A 
ATOM     50  C   UNL A   1      41.055  30.712  29.973  1.00  0.00     0.074 A 
ATOM     51  C   UNL A   1      46.706  30.142  27.162  1.00  0.00     0.029 A 
ATOM     52  N   UNL A   1      44.662  29.787  27.961  1.00  0.00    -0.354 N 
ATOM     53  N   UNL A   1      42.184  30.521  29.337  1.00  0.00    -0.248 NA
ATOM     54  C   UNL A   1      40.954  32.020  30.638  1.00  0.00     0.031 C 
ATOM     55  C   UNL A   1      46.289  31.293  27.839  1.00  0.00     0.029 A 
ATOM     56  C   UNL A   1      45.006  31.080  28.317  1.00  0.00     0.049 A 
ATOM     57  H   UNL A   1      43.803  29.352  28.171  1.00  0.00     0.167 HD
ATOM     58  C   UNL A   1      42.915  31.692  29.496  1.00  0.00     0.074 A 
ATOM     59  C   UNL A   1      42.088  32.597  30.267  1.00  0.00     0.031 C 
ATOM     60  C   UNL A   1      44.162  31.987  29.053  1.00  0.00     0.034 A 
BRANCH  47  61
ATOM     61  C   UNL A   1      46.955  27.319  26.121  1.00  0.00     0.023 A 
ATOM     62  C   UNL A   1      47.188  27.562  24.751  1.00  0.00     0.012 A 
ATOM     63  C   UNL A   1      47.934  26.643  26.876  1.00  0.00     0.148 A 
ATOM     64  C   UNL A   1      48.354  27.110  24.136  1.00  0.00     0.002 A 
ATOM     65  C   UNL A   1      49.117  26.239  26.267  1.00  0.00     0.091 A 
ATOM     66  F   UNL A   1      47.689  26.403  28.172  1.00  0.00    -0.205 F 
ATOM     67  C   UNL A   1      49.322  26.459  24.895  1.00  0.00     0.022 A 
BRANCH  65  68
ATOM     68  S   UNL A   1      50.461  25.467  27.174  1.00  0.00     0.127 S 
ATOM     69  O   UNL A   1      49.819  24.253  27.676  1.00  0.00    -0.237 OA
ATOM     70  O   UNL A   1      51.451  25.243  26.122  1.00  0.00    -0.237 OA
ATOM     71  O   UNL A   1      50.862  26.426  28.194  1.00  0.00    -0.744 OA
ENDBRANCH  65  68
ENDBRANCH  47  61
BRANCH  48  72
ATOM     72  C   UNL A   1      38.649  30.217  30.840  1.00  0.00     0.023 A 
ATOM     73  C   UNL A   1      38.502  29.835  32.188  1.00  0.00     0.012 A 
ATOM     74  C   UNL A   1      37.651  31.007  30.237  1.00  0.00     0.148 A 
ATOM     75  C   UNL A   1      37.365  30.202  32.909  1.00  0.00     0.002 A 
ATOM     76  C   UNL A   1      36.551  31.419  30.978  1.00  0.00     0.091 A 
ATOM     77  F   UNL A   1      37.806  31.351  28.951  1.00  0.00    -0.205 F 
ATOM     78  C   UNL A   1      36.396  31.001  32.309  1.00  0.00     0.022 A 
BRANCH  76  79
ATOM     79  S   UNL A   1      35.324  32.558  30.329  1.00  0.00     0.127 S 
ATOM     80  O   UNL A   1      36.125  33.754  30.085  1.00  0.00    -0.237 OA
ATOM     81  O   UNL A   1      34.875  31.858  29.124  1.00  0.00    -0.237 OA
ATOM     82  O   UNL A   1      34.309  32.678  31.366  1.00  0.00    -0.744 OA
ENDBRANCH  76  79
ENDBRANCH  48  72
BRANCH  60  83
ATOM     83  C   UNL A   1      44.704  33.361  29.356  1.00  0.00     0.023 A 
ATOM     84  C   UNL A   1      45.411  33.595  30.552  1.00  0.00     0.012 A 
ATOM     85  C   UNL A   1      44.562  34.407  28.423  1.00  0.00     0.148 A 
ATOM     86  C   UNL A   1      45.931  34.858  30.833  1.00  0.00     0.002 A 
ATOM     87  C   UNL A   1      45.130  35.647  28.685  1.00  0.00     0.091 A 
ATOM     88  F   UNL A   1      43.872  34.171  27.297  1.00  0.00    -0.205 F 
ATOM     89  C   UNL A   1      45.801  35.880  29.896  1.00  0.00     0.022 A 
BRANCH  87  90
ATOM     90  S   UNL A   1      45.099  36.993  27.495  1.00  0.00     0.127 S 
ATOM     91  O   UNL A   1      45.828  36.412  26.369  1.00  0.00    -0.237 OA
ATOM     92  O   UNL A   1      43.665  37.170  27.268  1.00  0.00    -0.237 OA
ATOM     93  O   UNL A   1      45.752  38.121  28.145  1.00  0.00    -0.744 OA
ENDBRANCH  87  90
ENDBRANCH  60  83
ENDBRANCH  34  35
ENDBRANCH  26  29
ENDBRANCH  24  25
ENDBRANCH  23  24
ENDBRANCH   1  23
TORSDOF 20
ENDMDL
