MODEL 1
REMARK VINA RESULT:     -11.3      0.000      0.000
REMARK SMILES COc1ccc(-c2sc(N)nc2C(=O)NCCCCCCNC(=O)c2ccc(-c3c4nc(c(-c5cccc(S(=O)(=O)[O-])c5F)c5ccc([nH]5)c(-c5cccc(S(=O)(=O)[O-])c5F)c5nc(c(-c6cccc(S(=O)(=O)[O-])c6F)c6ccc3[nH]6)C=C5)C=C4)cc2)cc1OC
REMARK SMILES IDX 19 1 18 2 17 3 16 4 15 5 13 6 14 7 12 9 7 10 8 11 9 12 11 13
REMARK SMILES IDX 6 14 3 15 4 16 89 17 5 18 88 19 2 20 1 21 90 22 91 23 10 24
REMARK SMILES IDX 20 27 21 28 22 29 23 30 24 32 25 33 26 34 87 35 27 36 86 37
REMARK SMILES IDX 28 38 29 39 30 40 80 41 31 42 85 43 79 44 81 45 32 46 84 47
REMARK SMILES IDX 78 48 77 49 33 51 65 52 45 53 64 54 46 55 49 56 63 57 82 58
REMARK SMILES IDX 47 59 48 60 62 62 83 63 50 64 34 65 35 66 43 67 36 68 38 69
REMARK SMILES IDX 44 70 37 71 39 72 40 73 41 74 42 75 66 76 67 77 75 78 68 79
REMARK SMILES IDX 70 80 76 81 69 82 71 83 72 84 73 85 74 86 51 87 52 88 60 89
REMARK SMILES IDX 53 90 55 91 61 92 54 93 56 94 57 95 58 96 59 97
REMARK H PARENT 15 8 10 25 10 26 22 31 81 50 49 61
REMARK Flexibility Score: inf
ROOT
ATOM      1  C   UNL A   1      31.498  30.668  25.763  1.00  0.00     0.002 C 
ENDROOT
BRANCH   1   2
ATOM      2  C   UNL A   1      32.843  29.961  25.962  1.00  0.00     0.002 C 
BRANCH   2   3
ATOM      3  C   UNL A   1      32.772  28.614  26.691  1.00  0.00     0.021 C 
BRANCH   3   4
ATOM      4  C   UNL A   1      31.450  28.355  27.413  1.00  0.00     0.116 C 
BRANCH   4   5
ATOM      5  N   UNL A   1      31.002  26.989  27.219  1.00  0.00    -0.351 N 
ATOM      6  C   UNL A   1      30.899  26.198  26.102  1.00  0.00     0.271 C 
ATOM      7  O   UNL A   1      30.463  25.058  26.297  1.00  0.00    -0.267 OA
ATOM      8  H   UNL A   1      30.716  26.543  28.049  1.00  0.00     0.163 HD
BRANCH   6   9
ATOM      9  C   UNL A   1      31.299  26.679  24.768  1.00  0.00     0.149 A 
ATOM     10  C   UNL A   1      32.395  26.200  24.047  1.00  0.00     0.069 A 
ATOM     11  S   UNL A   1      32.555  27.081  22.575  1.00  0.00    -0.096 S 
ATOM     12  C   UNL A   1      31.178  28.008  22.977  1.00  0.00     0.181 A 
ATOM     13  N   UNL A   1      30.623  27.706  24.116  1.00  0.00    -0.215 NA
BRANCH  10  14
ATOM     14  C   UNL A   1      33.338  25.118  24.346  1.00  0.00    -0.002 A 
ATOM     15  C   UNL A   1      35.001  22.960  25.053  1.00  0.00     0.160 A 
ATOM     16  C   UNL A   1      35.305  24.262  25.477  1.00  0.00     0.051 A 
ATOM     17  C   UNL A   1      33.869  22.724  24.266  1.00  0.00     0.161 A 
ATOM     18  C   UNL A   1      34.480  25.336  25.123  1.00  0.00     0.014 A 
ATOM     19  C   UNL A   1      33.064  23.815  23.905  1.00  0.00     0.060 A 
BRANCH  15  20
ATOM     20  O   UNL A   1      35.779  21.945  25.538  1.00  0.00    -0.493 OA
ATOM     21  C   UNL A   1      37.165  22.278  25.505  1.00  0.00     0.278 C 
ENDBRANCH  15  20
BRANCH  17  22
ATOM     22  O   UNL A   1      33.378  21.542  23.787  1.00  0.00    -0.493 OA
ATOM     23  C   UNL A   1      32.251  21.554  22.931  1.00  0.00     0.278 C 
ENDBRANCH  17  22
ENDBRANCH  10  14
BRANCH  12  24
ATOM     24  N   UNL A   1      30.707  28.978  22.187  1.00  0.00    -0.375 N 
ATOM     25  H   UNL A   1      30.455  28.776  21.257  1.00  0.00     0.159 HD
ATOM     26  H   UNL A   1      30.612  29.893  22.536  1.00  0.00     0.159 HD
ENDBRANCH  12  24
ENDBRANCH   6   9
ENDBRANCH   4   5
ENDBRANCH   3   4
ENDBRANCH   2   3
ENDBRANCH   1   2
BRANCH   1  27
ATOM     27  C   UNL A   1      31.360  32.013  26.480  1.00  0.00     0.021 C 
BRANCH  27  28
ATOM     28  C   UNL A   1      32.648  32.532  27.105  1.00  0.00     0.116 C 
BRANCH  28  29
ATOM     29  N   UNL A   1      32.493  33.878  27.638  1.00  0.00    -0.352 N 
ATOM     30  C   UNL A   1      33.185  34.485  28.657  1.00  0.00     0.251 C 
ATOM     31  H   UNL A   1      31.798  34.429  27.209  1.00  0.00     0.163 HD
ATOM     32  O   UNL A   1      32.802  35.557  29.116  1.00  0.00    -0.269 OA
BRANCH  30  33
ATOM     33  C   UNL A   1      34.385  33.824  29.211  1.00  0.00     0.039 A 
ATOM     34  C   UNL A   1      35.650  34.310  28.869  1.00  0.00     0.014 A 
ATOM     35  C   UNL A   1      34.256  32.743  30.086  1.00  0.00     0.014 A 
ATOM     36  C   UNL A   1      36.785  33.749  29.459  1.00  0.00     0.010 A 
ATOM     37  C   UNL A   1      35.381  32.240  30.729  1.00  0.00     0.010 A 
ATOM     38  C   UNL A   1      36.657  32.734  30.422  1.00  0.00    -0.014 A 
BRANCH  38  39
ATOM     39  C   UNL A   1      37.839  32.182  31.133  1.00  0.00     0.031 A 
ATOM     40  C   UNL A   1      38.610  31.038  30.533  1.00  0.00     0.074 A 
ATOM     41  C   UNL A   1      38.151  32.635  32.364  1.00  0.00     0.049 A 
ATOM     42  N   UNL A   1      39.595  30.348  31.046  1.00  0.00    -0.248 NA
ATOM     43  C   UNL A   1      38.202  30.591  29.190  1.00  0.00     0.031 C 
ATOM     44  C   UNL A   1      37.437  33.694  33.081  1.00  0.00     0.029 A 
ATOM     45  N   UNL A   1      39.126  32.237  33.245  1.00  0.00    -0.354 N 
ATOM     46  C   UNL A   1      39.896  29.364  30.113  1.00  0.00     0.074 A 
ATOM     47  C   UNL A   1      38.971  29.526  29.014  1.00  0.00     0.031 C 
ATOM     48  C   UNL A   1      37.994  33.857  34.292  1.00  0.00     0.029 A 
ATOM     49  C   UNL A   1      39.075  32.889  34.455  1.00  0.00     0.049 A 
ATOM     50  H   UNL A   1      39.798  31.550  33.031  1.00  0.00     0.167 HD
ATOM     51  C   UNL A   1      40.868  28.422  30.157  1.00  0.00     0.034 A 
ATOM     52  C   UNL A   1      39.798  32.714  35.578  1.00  0.00     0.034 A 
ATOM     53  C   UNL A   1      41.809  28.288  31.236  1.00  0.00     0.049 A 
ATOM     54  C   UNL A   1      40.886  31.673  35.593  1.00  0.00     0.074 A 
ATOM     55  C   UNL A   1      42.886  27.426  31.333  1.00  0.00     0.029 A 
ATOM     56  N   UNL A   1      41.778  29.022  32.411  1.00  0.00    -0.354 N 
ATOM     57  N   UNL A   1      41.253  30.850  34.641  1.00  0.00    -0.248 NA
ATOM     58  C   UNL A   1      41.680  31.556  36.825  1.00  0.00     0.031 C 
ATOM     59  C   UNL A   1      43.484  27.612  32.583  1.00  0.00     0.029 A 
ATOM     60  C   UNL A   1      42.805  28.621  33.247  1.00  0.00     0.049 A 
ATOM     61  H   UNL A   1      41.121  29.725  32.620  1.00  0.00     0.167 HD
ATOM     62  C   UNL A   1      42.344  30.149  35.141  1.00  0.00     0.074 A 
ATOM     63  C   UNL A   1      42.587  30.654  36.477  1.00  0.00     0.031 C 
ATOM     64  C   UNL A   1      43.071  29.169  34.552  1.00  0.00     0.034 A 
BRANCH  51  65
ATOM     65  C   UNL A   1      40.991  27.481  28.987  1.00  0.00     0.023 A 
ATOM     66  C   UNL A   1      40.167  26.339  28.917  1.00  0.00     0.012 A 
ATOM     67  C   UNL A   1      41.874  27.760  27.926  1.00  0.00     0.148 A 
ATOM     68  C   UNL A   1      40.246  25.471  27.828  1.00  0.00     0.002 A 
ATOM     69  C   UNL A   1      41.912  26.918  26.822  1.00  0.00     0.091 A 
ATOM     70  F   UNL A   1      42.663  28.841  28.020  1.00  0.00    -0.205 F 
ATOM     71  C   UNL A   1      41.109  25.767  26.777  1.00  0.00     0.022 A 
BRANCH  69  72
ATOM     72  S   UNL A   1      42.928  27.256  25.379  1.00  0.00     0.127 S 
ATOM     73  O   UNL A   1      42.879  25.974  24.678  1.00  0.00    -0.237 OA
ATOM     74  O   UNL A   1      42.185  28.336  24.729  1.00  0.00    -0.237 OA
ATOM     75  O   UNL A   1      44.238  27.637  25.888  1.00  0.00    -0.744 OA
ENDBRANCH  69  72
ENDBRANCH  51  65
BRANCH  52  76
ATOM     76  C   UNL A   1      39.545  33.571  36.771  1.00  0.00     0.023 A 
ATOM     77  C   UNL A   1      39.970  34.914  36.765  1.00  0.00     0.012 A 
ATOM     78  C   UNL A   1      38.873  33.069  37.902  1.00  0.00     0.148 A 
ATOM     79  C   UNL A   1      39.762  35.731  37.876  1.00  0.00     0.002 A 
ATOM     80  C   UNL A   1      38.618  33.904  38.983  1.00  0.00     0.091 A 
ATOM     81  F   UNL A   1      38.485  31.786  37.893  1.00  0.00    -0.205 F 
ATOM     82  C   UNL A   1      39.079  35.230  38.981  1.00  0.00     0.022 A 
BRANCH  80  83
ATOM     83  S   UNL A   1      37.635  33.383  40.394  1.00  0.00     0.127 S 
ATOM     84  O   UNL A   1      37.600  34.601  41.200  1.00  0.00    -0.237 OA
ATOM     85  O   UNL A   1      36.366  33.028  39.759  1.00  0.00    -0.237 OA
ATOM     86  O   UNL A   1      38.350  32.258  40.979  1.00  0.00    -0.744 OA
ENDBRANCH  80  83
ENDBRANCH  52  76
BRANCH  64  87
ATOM     87  C   UNL A   1      44.240  28.602  35.314  1.00  0.00     0.023 A 
ATOM     88  C   UNL A   1      45.523  29.162  35.160  1.00  0.00     0.012 A 
ATOM     89  C   UNL A   1      44.042  27.575  36.258  1.00  0.00     0.148 A 
ATOM     90  C   UNL A   1      46.597  28.687  35.913  1.00  0.00     0.002 A 
ATOM     91  C   UNL A   1      45.103  27.145  37.044  1.00  0.00     0.091 A 
ATOM     92  F   UNL A   1      42.814  27.046  36.378  1.00  0.00    -0.205 F 
ATOM     93  C   UNL A   1      46.384  27.691  36.864  1.00  0.00     0.022 A 
BRANCH  91  94
ATOM     94  S   UNL A   1      44.905  25.940  38.361  1.00  0.00     0.127 S 
ATOM     95  O   UNL A   1      43.986  26.632  39.263  1.00  0.00    -0.237 OA
ATOM     96  O   UNL A   1      44.323  24.802  37.651  1.00  0.00    -0.237 OA
ATOM     97  O   UNL A   1      46.240  25.703  38.896  1.00  0.00    -0.744 OA
ENDBRANCH  91  94
ENDBRANCH  64  87
ENDBRANCH  38  39
ENDBRANCH  30  33
ENDBRANCH  28  29
ENDBRANCH  27  28
ENDBRANCH   1  27
TORSDOF 20
ENDMDL
MODEL 2
REMARK VINA RESULT:     -11.1      2.641      8.160
REMARK SMILES COc1ccc(-c2sc(N)nc2C(=O)NCCCCCCNC(=O)c2ccc(-c3c4nc(c(-c5cccc(S(=O)(=O)[O-])c5F)c5ccc([nH]5)c(-c5cccc(S(=O)(=O)[O-])c5F)c5nc(c(-c6cccc(S(=O)(=O)[O-])c6F)c6ccc3[nH]6)C=C5)C=C4)cc2)cc1OC
REMARK SMILES IDX 19 1 18 2 17 3 16 4 15 5 13 6 14 7 12 9 7 10 8 11 9 12 11 13
REMARK SMILES IDX 6 14 3 15 4 16 89 17 5 18 88 19 2 20 1 21 90 22 91 23 10 24
REMARK SMILES IDX 20 27 21 28 22 29 23 30 24 32 25 33 26 34 87 35 27 36 86 37
REMARK SMILES IDX 28 38 29 39 30 40 80 41 31 42 85 43 79 44 81 45 32 46 84 47
REMARK SMILES IDX 78 48 77 49 33 51 65 52 45 53 64 54 46 55 49 56 63 57 82 58
REMARK SMILES IDX 47 59 48 60 62 62 83 63 50 64 34 65 35 66 43 67 36 68 38 69
REMARK SMILES IDX 44 70 37 71 39 72 40 73 41 74 42 75 66 76 67 77 75 78 68 79
REMARK SMILES IDX 70 80 76 81 69 82 71 83 72 84 73 85 74 86 51 87 52 88 60 89
REMARK SMILES IDX 53 90 55 91 61 92 54 93 56 94 57 95 58 96 59 97
REMARK H PARENT 15 8 10 25 10 26 22 31 81 50 49 61
REMARK Flexibility Score: inf
ROOT
ATOM      1  C   UNL A   1      33.063  28.706  24.988  1.00  0.00     0.002 C 
ENDROOT
BRANCH   1   2
ATOM      2  C   UNL A   1      33.191  27.473  25.890  1.00  0.00     0.002 C 
BRANCH   2   3
ATOM      3  C   UNL A   1      33.571  26.174  25.170  1.00  0.00     0.021 C 
BRANCH   3   4
ATOM      4  C   UNL A   1      33.851  24.995  26.101  1.00  0.00     0.116 C 
BRANCH   4   5
ATOM      5  N   UNL A   1      32.641  24.550  26.768  1.00  0.00    -0.351 N 
ATOM      6  C   UNL A   1      31.753  23.541  26.499  1.00  0.00     0.271 C 
ATOM      7  O   UNL A   1      30.805  23.442  27.287  1.00  0.00    -0.267 OA
ATOM      8  H   UNL A   1      32.413  25.077  27.570  1.00  0.00     0.163 HD
BRANCH   6   9
ATOM      9  C   UNL A   1      31.933  22.629  25.355  1.00  0.00     0.149 A 
ATOM     10  C   UNL A   1      31.727  22.980  24.020  1.00  0.00     0.069 A 
ATOM     11  S   UNL A   1      31.970  21.604  23.010  1.00  0.00    -0.096 S 
ATOM     12  C   UNL A   1      32.340  20.659  24.384  1.00  0.00     0.181 A 
ATOM     13  N   UNL A   1      32.293  21.294  25.520  1.00  0.00    -0.215 NA
BRANCH  10  14
ATOM     14  C   UNL A   1      31.381  24.269  23.411  1.00  0.00    -0.002 A 
ATOM     15  C   UNL A   1      30.904  26.816  22.315  1.00  0.00     0.160 A 
ATOM     16  C   UNL A   1      30.163  26.365  23.417  1.00  0.00     0.051 A 
ATOM     17  C   UNL A   1      31.884  25.997  21.745  1.00  0.00     0.161 A 
ATOM     18  C   UNL A   1      30.398  25.097  23.961  1.00  0.00     0.014 A 
ATOM     19  C   UNL A   1      32.093  24.722  22.291  1.00  0.00     0.060 A 
BRANCH  15  20
ATOM     20  O   UNL A   1      30.708  28.111  21.915  1.00  0.00    -0.493 OA
ATOM     21  C   UNL A   1      29.636  28.726  22.624  1.00  0.00     0.278 C 
ENDBRANCH  15  20
BRANCH  17  22
ATOM     22  O   UNL A   1      32.734  26.257  20.706  1.00  0.00    -0.493 OA
ATOM     23  C   UNL A   1      32.642  25.485  19.524  1.00  0.00     0.278 C 
ENDBRANCH  17  22
ENDBRANCH  10  14
BRANCH  12  24
ATOM     24  N   UNL A   1      32.648  19.362  24.303  1.00  0.00    -0.375 N 
ATOM     25  H   UNL A   1      32.516  18.875  23.457  1.00  0.00     0.159 HD
ATOM     26  H   UNL A   1      33.009  18.892  25.090  1.00  0.00     0.159 HD
ENDBRANCH  12  24
ENDBRANCH   6   9
ENDBRANCH   4   5
ENDBRANCH   3   4
ENDBRANCH   2   3
ENDBRANCH   1   2
BRANCH   1  27
ATOM     27  C   UNL A   1      31.946  29.678  25.374  1.00  0.00     0.021 C 
BRANCH  27  28
ATOM     28  C   UNL A   1      32.051  30.233  26.789  1.00  0.00     0.116 C 
BRANCH  28  29
ATOM     29  N   UNL A   1      32.093  31.688  26.804  1.00  0.00    -0.352 N 
ATOM     30  C   UNL A   1      33.013  32.516  27.401  1.00  0.00     0.251 C 
ATOM     31  H   UNL A   1      31.365  32.140  26.320  1.00  0.00     0.163 HD
ATOM     32  O   UNL A   1      32.799  33.722  27.485  1.00  0.00    -0.269 OA
BRANCH  30  33
ATOM     33  C   UNL A   1      34.253  31.937  27.958  1.00  0.00     0.039 A 
ATOM     34  C   UNL A   1      35.286  32.791  28.353  1.00  0.00     0.014 A 
ATOM     35  C   UNL A   1      34.380  30.554  28.112  1.00  0.00     0.014 A 
ATOM     36  C   UNL A   1      36.423  32.258  28.965  1.00  0.00     0.010 A 
ATOM     37  C   UNL A   1      35.478  30.036  28.790  1.00  0.00     0.010 A 
ATOM     38  C   UNL A   1      36.512  30.881  29.221  1.00  0.00    -0.014 A 
BRANCH  38  39
ATOM     39  C   UNL A   1      37.667  30.296  29.951  1.00  0.00     0.031 A 
ATOM     40  C   UNL A   1      37.965  30.734  31.359  1.00  0.00     0.074 A 
ATOM     41  C   UNL A   1      38.507  29.458  29.311  1.00  0.00     0.049 A 
ATOM     42  N   UNL A   1      38.983  30.428  32.119  1.00  0.00    -0.248 NA
ATOM     43  C   UNL A   1      37.008  31.662  31.985  1.00  0.00     0.031 C 
ATOM     44  C   UNL A   1      38.363  29.011  27.924  1.00  0.00     0.029 A 
ATOM     45  N   UNL A   1      39.669  28.860  29.733  1.00  0.00    -0.354 N 
ATOM     46  C   UNL A   1      38.814  31.153  33.292  1.00  0.00     0.074 A 
ATOM     47  C   UNL A   1      37.609  31.938  33.133  1.00  0.00     0.031 C 
ATOM     48  C   UNL A   1      39.398  28.217  27.608  1.00  0.00     0.029 A 
ATOM     49  C   UNL A   1      40.300  28.130  28.753  1.00  0.00     0.049 A 
ATOM     50  H   UNL A   1      40.018  28.947  30.649  1.00  0.00     0.167 HD
ATOM     51  C   UNL A   1      39.579  31.151  34.409  1.00  0.00     0.034 A 
ATOM     52  C   UNL A   1      41.483  27.484  28.763  1.00  0.00     0.034 A 
ATOM     53  C   UNL A   1      40.756  30.341  34.576  1.00  0.00     0.049 A 
ATOM     54  C   UNL A   1      42.304  27.481  30.025  1.00  0.00     0.074 A 
ATOM     55  C   UNL A   1      41.547  30.200  35.701  1.00  0.00     0.029 A 
ATOM     56  N   UNL A   1      41.319  29.550  33.588  1.00  0.00    -0.354 N 
ATOM     57  N   UNL A   1      42.049  28.054  31.176  1.00  0.00    -0.248 NA
ATOM     58  C   UNL A   1      43.561  26.718  30.000  1.00  0.00     0.031 C 
ATOM     59  C   UNL A   1      42.612  29.353  35.382  1.00  0.00     0.029 A 
ATOM     60  C   UNL A   1      42.458  28.931  34.071  1.00  0.00     0.049 A 
ATOM     61  H   UNL A   1      40.961  29.444  32.677  1.00  0.00     0.167 HD
ATOM     62  C   UNL A   1      43.089  27.688  32.023  1.00  0.00     0.074 A 
ATOM     63  C   UNL A   1      43.971  26.832  31.256  1.00  0.00     0.031 C 
ATOM     64  C   UNL A   1      43.299  28.038  33.316  1.00  0.00     0.034 A 
BRANCH  51  65
ATOM     65  C   UNL A   1      39.149  32.025  35.559  1.00  0.00     0.023 A 
ATOM     66  C   UNL A   1      38.280  31.512  36.543  1.00  0.00     0.012 A 
ATOM     67  C   UNL A   1      39.657  33.332  35.700  1.00  0.00     0.148 A 
ATOM     68  C   UNL A   1      37.894  32.296  37.629  1.00  0.00     0.002 A 
ATOM     69  C   UNL A   1      39.306  34.089  36.810  1.00  0.00     0.091 A 
ATOM     70  F   UNL A   1      40.467  33.809  34.744  1.00  0.00    -0.205 F 
ATOM     71  C   UNL A   1      38.415  33.579  37.769  1.00  0.00     0.022 A 
BRANCH  69  72
ATOM     72  S   UNL A   1      39.989  35.721  37.126  1.00  0.00     0.127 S 
ATOM     73  O   UNL A   1      39.300  36.096  38.359  1.00  0.00    -0.237 OA
ATOM     74  O   UNL A   1      41.414  35.429  37.288  1.00  0.00    -0.237 OA
ATOM     75  O   UNL A   1      39.662  36.528  35.959  1.00  0.00    -0.744 OA
ENDBRANCH  69  72
ENDBRANCH  51  65
BRANCH  52  76
ATOM     76  C   UNL A   1      41.943  26.750  27.551  1.00  0.00     0.023 A 
ATOM     77  C   UNL A   1      42.565  27.458  26.503  1.00  0.00     0.012 A 
ATOM     78  C   UNL A   1      41.785  25.355  27.437  1.00  0.00     0.148 A 
ATOM     79  C   UNL A   1      42.987  26.797  25.350  1.00  0.00     0.002 A 
ATOM     80  C   UNL A   1      42.261  24.694  26.310  1.00  0.00     0.091 A 
ATOM     81  F   UNL A   1      41.184  24.700  28.440  1.00  0.00    -0.205 F 
ATOM     82  C   UNL A   1      42.844  25.415  25.256  1.00  0.00     0.022 A 
BRANCH  80  83
ATOM     83  S   UNL A   1      42.235  22.904  26.160  1.00  0.00     0.127 S 
ATOM     84  O   UNL A   1      42.874  22.704  24.861  1.00  0.00    -0.237 OA
ATOM     85  O   UNL A   1      43.039  22.496  27.312  1.00  0.00    -0.237 OA
ATOM     86  O   UNL A   1      40.832  22.521  26.239  1.00  0.00    -0.744 OA
ENDBRANCH  80  83
ENDBRANCH  52  76
BRANCH  64  87
ATOM     87  C   UNL A   1      44.500  27.459  34.017  1.00  0.00     0.023 A 
ATOM     88  C   UNL A   1      45.735  28.135  33.979  1.00  0.00     0.012 A 
ATOM     89  C   UNL A   1      44.374  26.291  34.795  1.00  0.00     0.148 A 
ATOM     90  C   UNL A   1      46.834  27.642  34.682  1.00  0.00     0.002 A 
ATOM     91  C   UNL A   1      45.456  25.835  35.536  1.00  0.00     0.091 A 
ATOM     92  F   UNL A   1      43.192  25.654  34.804  1.00  0.00    -0.205 F 
ATOM     93  C   UNL A   1      46.690  26.501  35.471  1.00  0.00     0.022 A 
BRANCH  91  94
ATOM     94  S   UNL A   1      45.340  24.436  36.657  1.00  0.00     0.127 S 
ATOM     95  O   UNL A   1      44.960  23.356  35.747  1.00  0.00    -0.237 OA
ATOM     96  O   UNL A   1      46.704  24.346  37.177  1.00  0.00    -0.237 OA
ATOM     97  O   UNL A   1      44.334  24.795  37.649  1.00  0.00    -0.744 OA
ENDBRANCH  91  94
ENDBRANCH  64  87
ENDBRANCH  38  39
ENDBRANCH  30  33
ENDBRANCH  28  29
ENDBRANCH  27  28
ENDBRANCH   1  27
TORSDOF 20
ENDMDL
MODEL 3
REMARK VINA RESULT:     -11.0      6.205     11.383
REMARK SMILES COc1ccc(-c2sc(N)nc2C(=O)NCCCCCCNC(=O)c2ccc(-c3c4nc(c(-c5cccc(S(=O)(=O)[O-])c5F)c5ccc([nH]5)c(-c5cccc(S(=O)(=O)[O-])c5F)c5nc(c(-c6cccc(S(=O)(=O)[O-])c6F)c6ccc3[nH]6)C=C5)C=C4)cc2)cc1OC
REMARK SMILES IDX 19 1 18 2 17 3 16 4 15 5 13 6 14 7 12 9 7 10 8 11 9 12 11 13
REMARK SMILES IDX 6 14 3 15 4 16 89 17 5 18 88 19 2 20 1 21 90 22 91 23 10 24
REMARK SMILES IDX 20 27 21 28 22 29 23 30 24 32 25 33 26 34 87 35 27 36 86 37
REMARK SMILES IDX 28 38 29 39 30 40 80 41 31 42 85 43 79 44 81 45 32 46 84 47
REMARK SMILES IDX 78 48 77 49 33 51 65 52 45 53 64 54 46 55 49 56 63 57 82 58
REMARK SMILES IDX 47 59 48 60 62 62 83 63 50 64 34 65 35 66 43 67 36 68 38 69
REMARK SMILES IDX 44 70 37 71 39 72 40 73 41 74 42 75 66 76 67 77 75 78 68 79
REMARK SMILES IDX 70 80 76 81 69 82 71 83 72 84 73 85 74 86 51 87 52 88 60 89
REMARK SMILES IDX 53 90 55 91 61 92 54 93 56 94 57 95 58 96 59 97
REMARK H PARENT 15 8 10 25 10 26 22 31 81 50 49 61
REMARK Flexibility Score: inf
ROOT
ATOM      1  C   UNL A   1      37.648  21.445  24.747  1.00  0.00     0.002 C 
ENDROOT
BRANCH   1   2
ATOM      2  C   UNL A   1      38.283  22.486  25.675  1.00  0.00     0.002 C 
BRANCH   2   3
ATOM      3  C   UNL A   1      37.343  23.605  26.143  1.00  0.00     0.021 C 
BRANCH   3   4
ATOM      4  C   UNL A   1      35.963  23.585  25.486  1.00  0.00     0.116 C 
BRANCH   4   5
ATOM      5  N   UNL A   1      34.932  23.218  26.439  1.00  0.00    -0.351 N 
ATOM      6  C   UNL A   1      33.590  22.968  26.301  1.00  0.00     0.271 C 
ATOM      7  O   UNL A   1      32.993  22.680  27.344  1.00  0.00    -0.267 OA
ATOM      8  H   UNL A   1      35.259  23.130  27.364  1.00  0.00     0.163 HD
BRANCH   6   9
ATOM      9  C   UNL A   1      32.917  23.027  24.991  1.00  0.00     0.149 A 
ATOM     10  C   UNL A   1      32.302  24.163  24.464  1.00  0.00     0.069 A 
ATOM     11  S   UNL A   1      31.570  23.782  22.951  1.00  0.00    -0.096 S 
ATOM     12  C   UNL A   1      32.123  22.172  23.086  1.00  0.00     0.181 A 
ATOM     13  N   UNL A   1      32.802  21.910  24.167  1.00  0.00    -0.215 NA
BRANCH  10  14
ATOM     14  C   UNL A   1      32.221  25.534  24.979  1.00  0.00    -0.002 A 
ATOM     15  C   UNL A   1      32.262  28.135  26.052  1.00  0.00     0.160 A 
ATOM     16  C   UNL A   1      31.403  27.161  26.580  1.00  0.00     0.051 A 
ATOM     17  C   UNL A   1      33.103  27.823  24.979  1.00  0.00     0.161 A 
ATOM     18  C   UNL A   1      31.381  25.867  26.045  1.00  0.00     0.014 A 
ATOM     19  C   UNL A   1      33.053  26.528  24.443  1.00  0.00     0.060 A 
BRANCH  15  20
ATOM     20  O   UNL A   1      32.322  29.338  26.703  1.00  0.00    -0.493 OA
ATOM     21  C   UNL A   1      31.692  30.375  25.955  1.00  0.00     0.278 C 
ENDBRANCH  15  20
BRANCH  17  22
ATOM     22  O   UNL A   1      34.032  28.604  24.350  1.00  0.00    -0.493 OA
ATOM     23  C   UNL A   1      33.972  28.759  22.944  1.00  0.00     0.278 C 
ENDBRANCH  17  22
ENDBRANCH  10  14
BRANCH  12  24
ATOM     24  N   UNL A   1      31.873  21.244  22.158  1.00  0.00    -0.375 N 
ATOM     25  H   UNL A   1      31.423  21.495  21.319  1.00  0.00     0.159 HD
ATOM     26  H   UNL A   1      32.139  20.309  22.313  1.00  0.00     0.159 HD
ENDBRANCH  12  24
ENDBRANCH   6   9
ENDBRANCH   4   5
ENDBRANCH   3   4
ENDBRANCH   2   3
ENDBRANCH   1   2
BRANCH   1  27
ATOM     27  C   UNL A   1      38.194  20.024  24.898  1.00  0.00     0.021 C 
BRANCH  27  28
ATOM     28  C   UNL A   1      38.912  19.758  26.215  1.00  0.00     0.116 C 
BRANCH  28  29
ATOM     29  N   UNL A   1      40.138  18.996  26.024  1.00  0.00    -0.352 N 
ATOM     30  C   UNL A   1      41.435  19.448  25.992  1.00  0.00     0.251 C 
ATOM     31  H   UNL A   1      40.023  18.026  25.902  1.00  0.00     0.163 HD
ATOM     32  O   UNL A   1      42.342  18.706  25.627  1.00  0.00    -0.269 OA
BRANCH  30  33
ATOM     33  C   UNL A   1      41.725  20.843  26.382  1.00  0.00     0.039 A 
ATOM     34  C   UNL A   1      42.034  21.129  27.715  1.00  0.00     0.014 A 
ATOM     35  C   UNL A   1      41.716  21.861  25.425  1.00  0.00     0.014 A 
ATOM     36  C   UNL A   1      42.399  22.428  28.074  1.00  0.00     0.010 A 
ATOM     37  C   UNL A   1      42.154  23.135  25.771  1.00  0.00     0.010 A 
ATOM     38  C   UNL A   1      42.497  23.433  27.098  1.00  0.00    -0.014 A 
BRANCH  38  39
ATOM     39  C   UNL A   1      42.970  24.802  27.433  1.00  0.00     0.031 A 
ATOM     40  C   UNL A   1      42.030  25.784  28.077  1.00  0.00     0.074 A 
ATOM     41  C   UNL A   1      44.205  25.192  27.060  1.00  0.00     0.049 A 
ATOM     42  N   UNL A   1      42.217  27.050  28.343  1.00  0.00    -0.248 NA
ATOM     43  C   UNL A   1      40.693  25.286  28.443  1.00  0.00     0.031 C 
ATOM     44  C   UNL A   1      45.185  24.352  26.369  1.00  0.00     0.029 A 
ATOM     45  N   UNL A   1      44.834  26.407  27.178  1.00  0.00    -0.354 N 
ATOM     46  C   UNL A   1      41.015  27.510  28.867  1.00  0.00     0.074 A 
ATOM     47  C   UNL A   1      40.094  26.394  28.855  1.00  0.00     0.031 C 
ATOM     48  C   UNL A   1      46.287  25.077  26.120  1.00  0.00     0.029 A 
ATOM     49  C   UNL A   1      46.079  26.442  26.594  1.00  0.00     0.049 A 
ATOM     50  H   UNL A   1      44.433  27.180  27.637  1.00  0.00     0.167 HD
ATOM     51  C   UNL A   1      40.710  28.743  29.336  1.00  0.00     0.034 A 
ATOM     52  C   UNL A   1      46.946  27.461  26.434  1.00  0.00     0.034 A 
ATOM     53  C   UNL A   1      41.640  29.839  29.379  1.00  0.00     0.049 A 
ATOM     54  C   UNL A   1      46.589  28.817  26.983  1.00  0.00     0.074 A 
ATOM     55  C   UNL A   1      41.455  31.100  29.918  1.00  0.00     0.029 A 
ATOM     56  N   UNL A   1      42.921  29.813  28.852  1.00  0.00    -0.354 N 
ATOM     57  N   UNL A   1      45.502  29.193  27.610  1.00  0.00    -0.248 NA
ATOM     58  C   UNL A   1      47.591  29.883  26.828  1.00  0.00     0.031 C 
ATOM     59  C   UNL A   1      42.611  31.849  29.682  1.00  0.00     0.029 A 
ATOM     60  C   UNL A   1      43.533  31.040  29.036  1.00  0.00     0.049 A 
ATOM     61  H   UNL A   1      43.334  29.035  28.412  1.00  0.00     0.167 HD
ATOM     62  C   UNL A   1      45.704  30.523  27.962  1.00  0.00     0.074 A 
ATOM     63  C   UNL A   1      47.026  30.883  27.490  1.00  0.00     0.031 C 
ATOM     64  C   UNL A   1      44.868  31.371  28.610  1.00  0.00     0.034 A 
BRANCH  51  65
ATOM     65  C   UNL A   1      39.321  28.968  29.876  1.00  0.00     0.023 A 
ATOM     66  C   UNL A   1      38.992  28.520  31.172  1.00  0.00     0.012 A 
ATOM     67  C   UNL A   1      38.362  29.678  29.127  1.00  0.00     0.148 A 
ATOM     68  C   UNL A   1      37.721  28.744  31.700  1.00  0.00     0.002 A 
ATOM     69  C   UNL A   1      37.115  29.940  29.679  1.00  0.00     0.091 A 
ATOM     70  F   UNL A   1      38.687  30.079  27.890  1.00  0.00    -0.205 F 
ATOM     71  C   UNL A   1      36.787  29.463  30.959  1.00  0.00     0.022 A 
BRANCH  69  72
ATOM     72  S   UNL A   1      35.872  30.929  28.840  1.00  0.00     0.127 S 
ATOM     73  O   UNL A   1      35.220  29.930  27.995  1.00  0.00    -0.237 OA
ATOM     74  O   UNL A   1      35.056  31.408  29.958  1.00  0.00    -0.237 OA
ATOM     75  O   UNL A   1      36.598  31.970  28.127  1.00  0.00    -0.744 OA
ENDBRANCH  69  72
ENDBRANCH  51  65
BRANCH  52  76
ATOM     76  C   UNL A   1      48.255  27.230  25.760  1.00  0.00     0.023 A 
ATOM     77  C   UNL A   1      49.356  26.782  26.515  1.00  0.00     0.012 A 
ATOM     78  C   UNL A   1      48.409  27.435  24.375  1.00  0.00     0.148 A 
ATOM     79  C   UNL A   1      50.597  26.577  25.911  1.00  0.00     0.002 A 
ATOM     80  C   UNL A   1      49.632  27.173  23.769  1.00  0.00     0.091 A 
ATOM     81  F   UNL A   1      47.351  27.869  23.676  1.00  0.00    -0.205 F 
ATOM     82  C   UNL A   1      50.733  26.764  24.537  1.00  0.00     0.022 A 
BRANCH  80  83
ATOM     83  S   UNL A   1      49.865  27.262  21.990  1.00  0.00     0.127 S 
ATOM     84  O   UNL A   1      49.653  28.684  21.731  1.00  0.00    -0.237 OA
ATOM     85  O   UNL A   1      51.249  26.807  21.846  1.00  0.00    -0.237 OA
ATOM     86  O   UNL A   1      48.874  26.361  21.417  1.00  0.00    -0.744 OA
ENDBRANCH  80  83
ENDBRANCH  52  76
BRANCH  64  87
ATOM     87  C   UNL A   1      45.362  32.764  28.901  1.00  0.00     0.023 A 
ATOM     88  C   UNL A   1      46.152  33.010  30.041  1.00  0.00     0.012 A 
ATOM     89  C   UNL A   1      45.122  33.809  27.987  1.00  0.00     0.148 A 
ATOM     90  C   UNL A   1      46.670  34.282  30.282  1.00  0.00     0.002 A 
ATOM     91  C   UNL A   1      45.686  35.058  28.204  1.00  0.00     0.091 A 
ATOM     92  F   UNL A   1      44.354  33.555  26.916  1.00  0.00    -0.205 F 
ATOM     93  C   UNL A   1      46.449  35.301  29.357  1.00  0.00     0.022 A 
BRANCH  91  94
ATOM     94  S   UNL A   1      45.542  36.403  27.021  1.00  0.00     0.127 S 
ATOM     95  O   UNL A   1      46.137  37.515  27.760  1.00  0.00    -0.237 OA
ATOM     96  O   UNL A   1      46.345  35.914  25.901  1.00  0.00    -0.237 OA
ATOM     97  O   UNL A   1      44.119  36.538  26.734  1.00  0.00    -0.744 OA
ENDBRANCH  91  94
ENDBRANCH  64  87
ENDBRANCH  38  39
ENDBRANCH  30  33
ENDBRANCH  28  29
ENDBRANCH  27  28
ENDBRANCH   1  27
TORSDOF 20
ENDMDL
