MODEL 1
REMARK VINA RESULT:     -13.0      0.000      0.000
REMARK SMILES O=C(NCCCCCCNC(=O)c1ccc(Cl)cc1NC(=O)c1cc(Cl)nnc1Cl)c1ccc(-c2c3nc(c(-c4cccc(S(=O)(=O)[O-])c4F)c4ccc([nH]4)c(-c4cccc(S(=O)(=O)[O-])c4F)c4nc(c(-c5cccc(S(=O)(=O)[O-])c5F)c5ccc2[nH]5)C=C4)C=C3)cc1
REMARK SMILES IDX 6 1 5 2 4 3 3 4 1 5 2 6 31 8 32 9 93 10 33 11 92 12 34 13
REMARK SMILES IDX 35 14 36 15 86 16 37 17 91 18 85 19 87 20 38 21 90 22 84 23
REMARK SMILES IDX 83 24 39 26 71 27 51 28 70 29 52 30 55 31 69 32 88 33 53 34
REMARK SMILES IDX 54 35 68 37 89 38 56 39 40 40 41 41 49 42 42 43 44 44 50 45
REMARK SMILES IDX 43 46 45 47 46 48 47 49 48 50 72 51 73 52 81 53 74 54 76 55
REMARK SMILES IDX 82 56 75 57 77 58 78 59 79 60 80 61 57 62 58 63 66 64 59 65
REMARK SMILES IDX 61 66 67 67 60 68 62 69 63 70 64 71 65 72 7 73 8 74 9 75
REMARK SMILES IDX 10 76 11 77 12 79 13 80 14 81 19 82 15 83 18 84 16 85 17 86
REMARK SMILES IDX 20 87 21 88 22 90 23 91 24 92 29 93 25 94 28 95 30 96 26 97
REMARK SMILES IDX 27 98
REMARK H PARENT 3 7 87 25 55 36 10 78 20 89
REMARK Flexibility Score: inf
ROOT
ATOM      1  C   UNL A   1      36.081  23.326  23.597  1.00  0.00     0.002 C 
ENDROOT
BRANCH   1   2
ATOM      2  C   UNL A   1      36.955  22.150  24.046  1.00  0.00     0.021 C 
BRANCH   2   3
ATOM      3  C   UNL A   1      37.296  22.126  25.535  1.00  0.00     0.116 C 
BRANCH   3   4
ATOM      4  N   UNL A   1      38.279  21.102  25.851  1.00  0.00    -0.352 N 
ATOM      5  O   UNL A   1      40.320  20.280  26.332  1.00  0.00    -0.269 OA
ATOM      6  C   UNL A   1      39.565  21.248  26.308  1.00  0.00     0.251 C 
ATOM      7  H   UNL A   1      37.979  20.174  25.718  1.00  0.00     0.163 HD
BRANCH   6   8
ATOM      8  C   UNL A   1      40.038  22.574  26.759  1.00  0.00     0.039 A 
ATOM      9  C   UNL A   1      39.620  23.737  26.106  1.00  0.00     0.014 A 
ATOM     10  C   UNL A   1      40.890  22.654  27.865  1.00  0.00     0.014 A 
ATOM     11  C   UNL A   1      40.132  24.972  26.497  1.00  0.00     0.010 A 
ATOM     12  C   UNL A   1      41.374  23.898  28.279  1.00  0.00     0.010 A 
ATOM     13  C   UNL A   1      41.023  25.062  27.579  1.00  0.00    -0.014 A 
BRANCH  13  14
ATOM     14  C   UNL A   1      41.561  26.387  27.972  1.00  0.00     0.031 A 
ATOM     15  C   UNL A   1      42.975  26.773  27.634  1.00  0.00     0.074 A 
ATOM     16  C   UNL A   1      40.764  27.255  28.624  1.00  0.00     0.049 A 
ATOM     17  N   UNL A   1      43.574  27.921  27.814  1.00  0.00    -0.248 NA
ATOM     18  C   UNL A   1      43.827  25.743  27.016  1.00  0.00     0.031 C 
ATOM     19  C   UNL A   1      39.393  26.977  29.056  1.00  0.00     0.029 A 
ATOM     20  N   UNL A   1      40.994  28.540  29.045  1.00  0.00    -0.354 N 
ATOM     21  C   UNL A   1      44.872  27.752  27.350  1.00  0.00     0.074 A 
ATOM     22  C   UNL A   1      44.983  26.385  26.888  1.00  0.00     0.031 C 
ATOM     23  C   UNL A   1      38.904  28.060  29.681  1.00  0.00     0.029 A 
ATOM     24  C   UNL A   1      39.928  29.102  29.704  1.00  0.00     0.049 A 
ATOM     25  H   UNL A   1      41.842  29.016  28.889  1.00  0.00     0.167 HD
ATOM     26  C   UNL A   1      45.870  28.662  27.289  1.00  0.00     0.034 A 
ATOM     27  C   UNL A   1      39.786  30.319  30.266  1.00  0.00     0.034 A 
ATOM     28  C   UNL A   1      45.748  30.030  27.710  1.00  0.00     0.049 A 
ATOM     29  C   UNL A   1      40.907  31.314  30.169  1.00  0.00     0.074 A 
ATOM     30  C   UNL A   1      46.682  31.046  27.593  1.00  0.00     0.029 A 
ATOM     31  N   UNL A   1      44.641  30.571  28.339  1.00  0.00    -0.354 N 
ATOM     32  N   UNL A   1      42.065  31.188  29.568  1.00  0.00    -0.248 NA
ATOM     33  C   UNL A   1      40.697  32.627  30.800  1.00  0.00     0.031 C 
ATOM     34  C   UNL A   1      46.142  32.201  28.165  1.00  0.00     0.029 A 
ATOM     35  C   UNL A   1      44.874  31.902  28.634  1.00  0.00     0.049 A 
ATOM     36  H   UNL A   1      43.812  30.082  28.546  1.00  0.00     0.167 HD
ATOM     37  C   UNL A   1      42.716  32.404  29.738  1.00  0.00     0.074 A 
ATOM     38  C   UNL A   1      41.816  33.264  30.478  1.00  0.00     0.031 C 
ATOM     39  C   UNL A   1      43.956  32.764  29.331  1.00  0.00     0.034 A 
BRANCH  26  40
ATOM     40  C   UNL A   1      47.180  28.248  26.682  1.00  0.00     0.023 A 
ATOM     41  C   UNL A   1      48.248  27.912  27.536  1.00  0.00     0.012 A 
ATOM     42  C   UNL A   1      47.305  28.048  25.294  1.00  0.00     0.148 A 
ATOM     43  C   UNL A   1      49.427  27.378  27.017  1.00  0.00     0.002 A 
ATOM     44  C   UNL A   1      48.474  27.494  24.786  1.00  0.00     0.091 A 
ATOM     45  F   UNL A   1      46.272  28.379  24.506  1.00  0.00    -0.205 F 
ATOM     46  C   UNL A   1      49.535  27.159  25.645  1.00  0.00     0.022 A 
BRANCH  44  47
ATOM     47  S   UNL A   1      48.703  27.124  23.044  1.00  0.00     0.127 S 
ATOM     48  O   UNL A   1      48.252  25.733  22.977  1.00  0.00    -0.237 OA
ATOM     49  O   UNL A   1      47.805  28.087  22.407  1.00  0.00    -0.237 OA
ATOM     50  O   UNL A   1      50.119  27.323  22.770  1.00  0.00    -0.744 OA
ENDBRANCH  44  47
ENDBRANCH  26  40
BRANCH  27  51
ATOM     51  C   UNL A   1      38.503  30.670  30.931  1.00  0.00     0.023 A 
ATOM     52  C   UNL A   1      38.322  30.363  32.292  1.00  0.00     0.012 A 
ATOM     53  C   UNL A   1      37.489  31.355  30.235  1.00  0.00     0.148 A 
ATOM     54  C   UNL A   1      37.144  30.723  32.948  1.00  0.00     0.002 A 
ATOM     55  C   UNL A   1      36.337  31.746  30.903  1.00  0.00     0.091 A 
ATOM     56  F   UNL A   1      37.685  31.626  28.936  1.00  0.00    -0.205 F 
ATOM     57  C   UNL A   1      36.157  31.422  32.257  1.00  0.00     0.022 A 
BRANCH  55  58
ATOM     58  S   UNL A   1      35.056  32.738  30.124  1.00  0.00     0.127 S 
ATOM     59  O   UNL A   1      35.821  33.885  29.642  1.00  0.00    -0.237 OA
ATOM     60  O   UNL A   1      34.573  31.836  29.079  1.00  0.00    -0.237 OA
ATOM     61  O   UNL A   1      34.086  33.022  31.172  1.00  0.00    -0.744 OA
ENDBRANCH  55  58
ENDBRANCH  27  51
BRANCH  39  62
ATOM     62  C   UNL A   1      44.450  34.142  29.675  1.00  0.00     0.023 A 
ATOM     63  C   UNL A   1      45.236  34.314  30.829  1.00  0.00     0.012 A 
ATOM     64  C   UNL A   1      44.272  35.216  28.782  1.00  0.00     0.148 A 
ATOM     65  C   UNL A   1      45.843  35.541  31.092  1.00  0.00     0.002 A 
ATOM     66  C   UNL A   1      44.906  36.427  29.034  1.00  0.00     0.091 A 
ATOM     67  F   UNL A   1      43.516  35.021  27.693  1.00  0.00    -0.205 F 
ATOM     68  C   UNL A   1      45.689  36.592  30.189  1.00  0.00     0.022 A 
BRANCH  66  69
ATOM     69  S   UNL A   1      44.838  37.814  27.894  1.00  0.00     0.127 S 
ATOM     70  O   UNL A   1      44.946  38.953  28.805  1.00  0.00    -0.237 OA
ATOM     71  O   UNL A   1      46.017  37.586  27.059  1.00  0.00    -0.237 OA
ATOM     72  O   UNL A   1      43.564  37.702  27.196  1.00  0.00    -0.744 OA
ENDBRANCH  66  69
ENDBRANCH  39  62
ENDBRANCH  13  14
ENDBRANCH   6   8
ENDBRANCH   3   4
ENDBRANCH   2   3
ENDBRANCH   1   2
BRANCH   1  73
ATOM     73  C   UNL A   1      34.824  23.575  24.437  1.00  0.00     0.002 C 
BRANCH  73  74
ATOM     74  C   UNL A   1      34.340  25.027  24.482  1.00  0.00     0.021 C 
BRANCH  74  75
ATOM     75  C   UNL A   1      33.689  25.450  25.798  1.00  0.00     0.116 C 
BRANCH  75  76
ATOM     76  N   UNL A   1      32.256  25.183  25.818  1.00  0.00    -0.352 N 
ATOM     77  C   UNL A   1      31.224  26.058  26.056  1.00  0.00     0.253 C 
ATOM     78  H   UNL A   1      31.993  24.252  25.637  1.00  0.00     0.163 HD
ATOM     79  O   UNL A   1      30.083  25.650  26.247  1.00  0.00    -0.269 OA
BRANCH  77  80
ATOM     80  C   UNL A   1      31.514  27.505  26.156  1.00  0.00     0.063 A 
ATOM     81  C   UNL A   1      31.749  28.046  27.431  1.00  0.00     0.017 A 
ATOM     82  C   UNL A   1      31.519  28.322  25.006  1.00  0.00     0.055 A 
ATOM     83  C   UNL A   1      31.862  29.423  27.592  1.00  0.00     0.021 A 
ATOM     84  C   UNL A   1      31.544  29.706  25.203  1.00  0.00     0.047 A 
ATOM     85  C   UNL A   1      31.720  30.247  26.481  1.00  0.00     0.043 A 
ATOM     86  Cl  UNL A   1      31.765  31.955  26.677  1.00  0.00    -0.084 Cl
BRANCH  82  87
ATOM     87  N   UNL A   1      31.491  27.711  23.727  1.00  0.00    -0.321 N 
ATOM     88  C   UNL A   1      30.592  27.737  22.687  1.00  0.00     0.258 C 
ATOM     89  H   UNL A   1      32.281  27.151  23.545  1.00  0.00     0.170 HD
ATOM     90  O   UNL A   1      30.745  27.020  21.700  1.00  0.00    -0.269 OA
BRANCH  88  91
ATOM     91  C   UNL A   1      29.420  28.605  22.687  1.00  0.00     0.082 A 
ATOM     92  C   UNL A   1      29.567  29.900  22.184  1.00  0.00     0.060 A 
ATOM     93  C   UNL A   1      28.199  28.210  23.203  1.00  0.00     0.164 A 
ATOM     94  C   UNL A   1      28.450  30.701  22.166  1.00  0.00     0.152 A 
ATOM     95  N   UNL A   1      27.126  29.027  23.160  1.00  0.00    -0.136 NA
ATOM     96  Cl  UNL A   1      27.889  26.690  23.932  1.00  0.00    -0.059 Cl
ATOM     97  Cl  UNL A   1      28.496  32.292  21.541  1.00  0.00    -0.060 Cl
ATOM     98  N   UNL A   1      27.252  30.287  22.622  1.00  0.00    -0.137 NA
ENDBRANCH  88  91
ENDBRANCH  82  87
ENDBRANCH  77  80
ENDBRANCH  75  76
ENDBRANCH  74  75
ENDBRANCH  73  74
ENDBRANCH   1  73
TORSDOF 18
ENDMDL
MODEL 2
REMARK VINA RESULT:     -12.9      5.435     10.527
REMARK SMILES O=C(NCCCCCCNC(=O)c1ccc(Cl)cc1NC(=O)c1cc(Cl)nnc1Cl)c1ccc(-c2c3nc(c(-c4cccc(S(=O)(=O)[O-])c4F)c4ccc([nH]4)c(-c4cccc(S(=O)(=O)[O-])c4F)c4nc(c(-c5cccc(S(=O)(=O)[O-])c5F)c5ccc2[nH]5)C=C4)C=C3)cc1
REMARK SMILES IDX 6 1 5 2 4 3 3 4 1 5 2 6 31 8 32 9 93 10 33 11 92 12 34 13
REMARK SMILES IDX 35 14 36 15 86 16 37 17 91 18 85 19 87 20 38 21 90 22 84 23
REMARK SMILES IDX 83 24 39 26 71 27 51 28 70 29 52 30 55 31 69 32 88 33 53 34
REMARK SMILES IDX 54 35 68 37 89 38 56 39 40 40 41 41 49 42 42 43 44 44 50 45
REMARK SMILES IDX 43 46 45 47 46 48 47 49 48 50 72 51 73 52 81 53 74 54 76 55
REMARK SMILES IDX 82 56 75 57 77 58 78 59 79 60 80 61 57 62 58 63 66 64 59 65
REMARK SMILES IDX 61 66 67 67 60 68 62 69 63 70 64 71 65 72 7 73 8 74 9 75
REMARK SMILES IDX 10 76 11 77 12 79 13 80 14 81 19 82 15 83 18 84 16 85 17 86
REMARK SMILES IDX 20 87 21 88 22 90 23 91 24 92 29 93 25 94 28 95 30 96 26 97
REMARK SMILES IDX 27 98
REMARK H PARENT 3 7 87 25 55 36 10 78 20 89
REMARK Flexibility Score: inf
ROOT
ATOM      1  C   UNL A   1      31.514  27.366  25.107  1.00  0.00     0.002 C 
ENDROOT
BRANCH   1   2
ATOM      2  C   UNL A   1      32.129  28.573  24.390  1.00  0.00     0.021 C 
BRANCH   2   3
ATOM      3  C   UNL A   1      33.172  29.345  25.197  1.00  0.00     0.116 C 
BRANCH   3   4
ATOM      4  N   UNL A   1      32.626  30.568  25.762  1.00  0.00    -0.352 N 
ATOM      5  O   UNL A   1      32.334  32.171  27.317  1.00  0.00    -0.269 OA
ATOM      6  C   UNL A   1      33.036  31.268  26.869  1.00  0.00     0.251 C 
ATOM      7  H   UNL A   1      31.852  30.946  25.284  1.00  0.00     0.163 HD
BRANCH   6   8
ATOM      8  C   UNL A   1      34.316  30.924  27.523  1.00  0.00     0.039 A 
ATOM      9  C   UNL A   1      34.559  29.621  27.967  1.00  0.00     0.014 A 
ATOM     10  C   UNL A   1      35.293  31.913  27.670  1.00  0.00     0.014 A 
ATOM     11  C   UNL A   1      35.740  29.331  28.647  1.00  0.00     0.010 A 
ATOM     12  C   UNL A   1      36.494  31.610  28.320  1.00  0.00     0.010 A 
ATOM     13  C   UNL A   1      36.712  30.325  28.840  1.00  0.00    -0.014 A 
BRANCH  13  14
ATOM     14  C   UNL A   1      37.958  29.995  29.573  1.00  0.00     0.031 A 
ATOM     15  C   UNL A   1      38.212  30.553  30.946  1.00  0.00     0.074 A 
ATOM     16  C   UNL A   1      38.859  29.172  29.003  1.00  0.00     0.049 A 
ATOM     17  N   UNL A   1      39.197  30.292  31.765  1.00  0.00    -0.248 NA
ATOM     18  C   UNL A   1      37.242  31.529  31.469  1.00  0.00     0.031 C 
ATOM     19  C   UNL A   1      38.751  28.610  27.656  1.00  0.00     0.029 A 
ATOM     20  N   UNL A   1      40.044  28.672  29.481  1.00  0.00    -0.354 N 
ATOM     21  C   UNL A   1      38.978  31.076  32.890  1.00  0.00     0.074 A 
ATOM     22  C   UNL A   1      37.771  31.836  32.648  1.00  0.00     0.031 C 
ATOM     23  C   UNL A   1      39.827  27.844  27.414  1.00  0.00     0.029 A 
ATOM     24  C   UNL A   1      40.704  27.869  28.583  1.00  0.00     0.049 A 
ATOM     25  H   UNL A   1      40.390  28.871  30.381  1.00  0.00     0.167 HD
ATOM     26  C   UNL A   1      39.703  31.135  34.029  1.00  0.00     0.034 A 
ATOM     27  C   UNL A   1      41.883  27.222  28.685  1.00  0.00     0.034 A 
ATOM     28  C   UNL A   1      40.878  30.350  34.287  1.00  0.00     0.049 A 
ATOM     29  C   UNL A   1      42.657  27.295  29.970  1.00  0.00     0.074 A 
ATOM     30  C   UNL A   1      41.618  30.276  35.455  1.00  0.00     0.029 A 
ATOM     31  N   UNL A   1      41.495  29.520  33.367  1.00  0.00    -0.354 N 
ATOM     32  N   UNL A   1      42.340  27.905  31.085  1.00  0.00    -0.248 NA
ATOM     33  C   UNL A   1      43.936  26.570  30.025  1.00  0.00     0.031 C 
ATOM     34  C   UNL A   1      42.692  29.410  35.236  1.00  0.00     0.029 A 
ATOM     35  C   UNL A   1      42.617  28.944  33.934  1.00  0.00     0.049 A 
ATOM     36  H   UNL A   1      41.182  29.363  32.446  1.00  0.00     0.167 HD
ATOM     37  C   UNL A   1      43.370  27.630  31.976  1.00  0.00     0.074 A 
ATOM     38  C   UNL A   1      44.313  26.779  31.281  1.00  0.00     0.031 C 
ATOM     39  C   UNL A   1      43.525  28.063  33.250  1.00  0.00     0.034 A 
BRANCH  26  40
ATOM     40  C   UNL A   1      39.221  32.027  35.138  1.00  0.00     0.023 A 
ATOM     41  C   UNL A   1      38.338  31.498  36.099  1.00  0.00     0.012 A 
ATOM     42  C   UNL A   1      39.752  33.318  35.313  1.00  0.00     0.148 A 
ATOM     43  C   UNL A   1      37.989  32.242  37.225  1.00  0.00     0.002 A 
ATOM     44  C   UNL A   1      39.419  34.046  36.449  1.00  0.00     0.091 A 
ATOM     45  F   UNL A   1      40.589  33.796  34.381  1.00  0.00    -0.205 F 
ATOM     46  C   UNL A   1      38.538  33.510  37.405  1.00  0.00     0.022 A 
BRANCH  44  47
ATOM     47  S   UNL A   1      40.103  35.667  36.807  1.00  0.00     0.127 S 
ATOM     48  O   UNL A   1      41.540  35.410  36.696  1.00  0.00    -0.237 OA
ATOM     49  O   UNL A   1      39.545  36.479  35.726  1.00  0.00    -0.237 OA
ATOM     50  O   UNL A   1      39.645  36.015  38.144  1.00  0.00    -0.744 OA
ENDBRANCH  44  47
ENDBRANCH  26  40
BRANCH  27  51
ATOM     51  C   UNL A   1      42.371  26.411  27.539  1.00  0.00     0.023 A 
ATOM     52  C   UNL A   1      43.237  26.996  26.596  1.00  0.00     0.012 A 
ATOM     53  C   UNL A   1      42.025  25.053  27.412  1.00  0.00     0.148 A 
ATOM     54  C   UNL A   1      43.743  26.241  25.537  1.00  0.00     0.002 A 
ATOM     55  C   UNL A   1      42.563  24.297  26.379  1.00  0.00     0.091 A 
ATOM     56  F   UNL A   1      41.190  24.525  28.319  1.00  0.00    -0.205 F 
ATOM     57  C   UNL A   1      43.414  24.891  25.434  1.00  0.00     0.022 A 
BRANCH  55  58
ATOM     58  S   UNL A   1      42.280  22.529  26.224  1.00  0.00     0.127 S 
ATOM     59  O   UNL A   1      42.847  22.027  27.474  1.00  0.00    -0.237 OA
ATOM     60  O   UNL A   1      40.821  22.466  26.140  1.00  0.00    -0.237 OA
ATOM     61  O   UNL A   1      42.973  22.124  25.009  1.00  0.00    -0.744 OA
ENDBRANCH  55  58
ENDBRANCH  27  51
BRANCH  39  62
ATOM     62  C   UNL A   1      44.761  27.650  33.999  1.00  0.00     0.023 A 
ATOM     63  C   UNL A   1      45.858  28.529  34.041  1.00  0.00     0.012 A 
ATOM     64  C   UNL A   1      44.773  26.480  34.783  1.00  0.00     0.148 A 
ATOM     65  C   UNL A   1      46.955  28.252  34.855  1.00  0.00     0.002 A 
ATOM     66  C   UNL A   1      45.855  26.226  35.618  1.00  0.00     0.091 A 
ATOM     67  F   UNL A   1      43.714  25.661  34.721  1.00  0.00    -0.205 F 
ATOM     68  C   UNL A   1      46.947  27.109  35.652  1.00  0.00     0.022 A 
BRANCH  66  69
ATOM     69  S   UNL A   1      45.907  24.826  36.742  1.00  0.00     0.127 S 
ATOM     70  O   UNL A   1      44.505  24.711  37.139  1.00  0.00    -0.237 OA
ATOM     71  O   UNL A   1      46.387  23.751  35.875  1.00  0.00    -0.237 OA
ATOM     72  O   UNL A   1      46.821  25.201  37.814  1.00  0.00    -0.744 OA
ENDBRANCH  66  69
ENDBRANCH  39  62
ENDBRANCH  13  14
ENDBRANCH   6   8
ENDBRANCH   3   4
ENDBRANCH   2   3
ENDBRANCH   1   2
BRANCH   1  73
ATOM     73  C   UNL A   1      32.338  26.792  26.263  1.00  0.00     0.002 C 
BRANCH  73  74
ATOM     74  C   UNL A   1      32.934  25.402  26.021  1.00  0.00     0.021 C 
BRANCH  74  75
ATOM     75  C   UNL A   1      34.030  25.345  24.958  1.00  0.00     0.116 C 
BRANCH  75  76
ATOM     76  N   UNL A   1      33.565  24.748  23.713  1.00  0.00    -0.352 N 
ATOM     77  C   UNL A   1      34.047  23.639  23.062  1.00  0.00     0.253 C 
ATOM     78  H   UNL A   1      32.804  25.200  23.282  1.00  0.00     0.163 HD
ATOM     79  O   UNL A   1      33.692  23.376  21.917  1.00  0.00    -0.269 OA
BRANCH  77  80
ATOM     80  C   UNL A   1      35.064  22.796  23.728  1.00  0.00     0.063 A 
ATOM     81  C   UNL A   1      36.415  23.019  23.413  1.00  0.00     0.017 A 
ATOM     82  C   UNL A   1      34.683  21.777  24.626  1.00  0.00     0.055 A 
ATOM     83  C   UNL A   1      37.391  22.147  23.886  1.00  0.00     0.021 A 
ATOM     84  C   UNL A   1      35.668  20.864  25.014  1.00  0.00     0.047 A 
ATOM     85  C   UNL A   1      37.006  21.053  24.652  1.00  0.00     0.043 A 
ATOM     86  Cl  UNL A   1      38.189  19.915  25.167  1.00  0.00    -0.084 Cl
BRANCH  82  87
ATOM     87  N   UNL A   1      33.340  21.724  25.078  1.00  0.00    -0.321 N 
ATOM     88  C   UNL A   1      32.318  20.824  24.897  1.00  0.00     0.258 C 
ATOM     89  H   UNL A   1      33.088  22.493  25.639  1.00  0.00     0.170 HD
ATOM     90  O   UNL A   1      31.185  21.060  25.313  1.00  0.00    -0.269 OA
BRANCH  88  91
ATOM     91  C   UNL A   1      32.508  19.549  24.214  1.00  0.00     0.082 A 
ATOM     92  C   UNL A   1      32.964  18.466  24.969  1.00  0.00     0.060 A 
ATOM     93  C   UNL A   1      32.301  19.393  22.856  1.00  0.00     0.164 A 
ATOM     94  C   UNL A   1      33.117  17.264  24.321  1.00  0.00     0.152 A 
ATOM     95  N   UNL A   1      32.457  18.192  22.260  1.00  0.00    -0.136 NA
ATOM     96  Cl  UNL A   1      31.829  20.646  21.785  1.00  0.00    -0.059 Cl
ATOM     97  Cl  UNL A   1      33.632  15.857  25.145  1.00  0.00    -0.060 Cl
ATOM     98  N   UNL A   1      32.860  17.109  23.007  1.00  0.00    -0.137 NA
ENDBRANCH  88  91
ENDBRANCH  82  87
ENDBRANCH  77  80
ENDBRANCH  75  76
ENDBRANCH  74  75
ENDBRANCH  73  74
ENDBRANCH   1  73
TORSDOF 18
ENDMDL
MODEL 3
REMARK VINA RESULT:     -12.6      5.520     10.434
REMARK SMILES O=C(NCCCCCCNC(=O)c1ccc(Cl)cc1NC(=O)c1cc(Cl)nnc1Cl)c1ccc(-c2c3nc(c(-c4cccc(S(=O)(=O)[O-])c4F)c4ccc([nH]4)c(-c4cccc(S(=O)(=O)[O-])c4F)c4nc(c(-c5cccc(S(=O)(=O)[O-])c5F)c5ccc2[nH]5)C=C4)C=C3)cc1
REMARK SMILES IDX 6 1 5 2 4 3 3 4 1 5 2 6 31 8 32 9 93 10 33 11 92 12 34 13
REMARK SMILES IDX 35 14 36 15 86 16 37 17 91 18 85 19 87 20 38 21 90 22 84 23
REMARK SMILES IDX 83 24 39 26 71 27 51 28 70 29 52 30 55 31 69 32 88 33 53 34
REMARK SMILES IDX 54 35 68 37 89 38 56 39 40 40 41 41 49 42 42 43 44 44 50 45
REMARK SMILES IDX 43 46 45 47 46 48 47 49 48 50 72 51 73 52 81 53 74 54 76 55
REMARK SMILES IDX 82 56 75 57 77 58 78 59 79 60 80 61 57 62 58 63 66 64 59 65
REMARK SMILES IDX 61 66 67 67 60 68 62 69 63 70 64 71 65 72 7 73 8 74 9 75
REMARK SMILES IDX 10 76 11 77 12 79 13 80 14 81 19 82 15 83 18 84 16 85 17 86
REMARK SMILES IDX 20 87 21 88 22 90 23 91 24 92 29 93 25 94 28 95 30 96 26 97
REMARK SMILES IDX 27 98
REMARK H PARENT 3 7 87 25 55 36 10 78 20 89
REMARK Flexibility Score: inf
ROOT
ATOM      1  C   UNL A   1      32.044  27.783  25.212  1.00  0.00     0.002 C 
ENDROOT
BRANCH   1   2
ATOM      2  C   UNL A   1      33.220  28.715  24.898  1.00  0.00     0.021 C 
BRANCH   2   3
ATOM      3  C   UNL A   1      34.188  28.952  26.055  1.00  0.00     0.116 C 
BRANCH   3   4
ATOM      4  N   UNL A   1      33.951  30.227  26.711  1.00  0.00    -0.352 N 
ATOM      5  O   UNL A   1      34.179  31.801  28.305  1.00  0.00    -0.269 OA
ATOM      6  C   UNL A   1      34.641  30.812  27.743  1.00  0.00     0.251 C 
ATOM      7  H   UNL A   1      33.186  30.743  26.366  1.00  0.00     0.163 HD
BRANCH   6   8
ATOM      8  C   UNL A   1      35.932  30.240  28.180  1.00  0.00     0.039 A 
ATOM      9  C   UNL A   1      36.033  29.565  29.401  1.00  0.00     0.014 A 
ATOM     10  C   UNL A   1      37.047  30.359  27.346  1.00  0.00     0.014 A 
ATOM     11  C   UNL A   1      37.272  29.097  29.831  1.00  0.00     0.010 A 
ATOM     12  C   UNL A   1      38.283  29.855  27.764  1.00  0.00     0.010 A 
ATOM     13  C   UNL A   1      38.409  29.248  29.023  1.00  0.00    -0.014 A 
BRANCH  13  14
ATOM     14  C   UNL A   1      39.720  28.748  29.506  1.00  0.00     0.031 A 
ATOM     15  C   UNL A   1      40.431  29.429  30.642  1.00  0.00     0.074 A 
ATOM     16  C   UNL A   1      40.264  27.661  28.926  1.00  0.00     0.049 A 
ATOM     17  N   UNL A   1      41.530  29.069  31.252  1.00  0.00    -0.248 NA
ATOM     18  C   UNL A   1      39.837  30.672  31.162  1.00  0.00     0.031 C 
ATOM     19  C   UNL A   1      39.698  26.946  27.781  1.00  0.00     0.029 A 
ATOM     20  N   UNL A   1      41.416  26.974  29.213  1.00  0.00    -0.354 N 
ATOM     21  C   UNL A   1      41.770  30.042  32.213  1.00  0.00     0.074 A 
ATOM     22  C   UNL A   1      40.709  31.019  32.102  1.00  0.00     0.031 C 
ATOM     23  C   UNL A   1      40.506  25.921  27.463  1.00  0.00     0.029 A 
ATOM     24  C   UNL A   1      41.650  25.913  28.372  1.00  0.00     0.049 A 
ATOM     25  H   UNL A   1      42.020  27.218  29.952  1.00  0.00     0.167 HD
ATOM     26  C   UNL A   1      42.769  30.099  33.122  1.00  0.00     0.034 A 
ATOM     27  C   UNL A   1      42.668  25.032  28.333  1.00  0.00     0.034 A 
ATOM     28  C   UNL A   1      43.800  29.107  33.260  1.00  0.00     0.049 A 
ATOM     29  C   UNL A   1      43.755  25.111  29.366  1.00  0.00     0.074 A 
ATOM     30  C   UNL A   1      44.795  29.037  34.220  1.00  0.00     0.029 A 
ATOM     31  N   UNL A   1      43.981  28.029  32.413  1.00  0.00    -0.354 N 
ATOM     32  N   UNL A   1      43.867  25.938  30.376  1.00  0.00    -0.248 NA
ATOM     33  C   UNL A   1      44.842  24.123  29.276  1.00  0.00     0.031 C 
ATOM     34  C   UNL A   1      45.588  27.921  33.944  1.00  0.00     0.029 A 
ATOM     35  C   UNL A   1      45.083  27.297  32.816  1.00  0.00     0.049 A 
ATOM     36  H   UNL A   1      43.411  27.814  31.639  1.00  0.00     0.167 HD
ATOM     37  C   UNL A   1      45.026  25.566  31.046  1.00  0.00     0.074 A 
ATOM     38  C   UNL A   1      45.571  24.424  30.343  1.00  0.00     0.031 C 
ATOM     39  C   UNL A   1      45.593  26.135  32.137  1.00  0.00     0.034 A 
BRANCH  26  40
ATOM     40  C   UNL A   1      42.777  31.234  34.106  1.00  0.00     0.023 A 
ATOM     41  C   UNL A   1      43.480  32.409  33.780  1.00  0.00     0.012 A 
ATOM     42  C   UNL A   1      41.977  31.196  35.264  1.00  0.00     0.148 A 
ATOM     43  C   UNL A   1      43.387  33.537  34.594  1.00  0.00     0.002 A 
ATOM     44  C   UNL A   1      41.870  32.331  36.058  1.00  0.00     0.091 A 
ATOM     45  F   UNL A   1      41.321  30.062  35.549  1.00  0.00    -0.205 F 
ATOM     46  C   UNL A   1      42.574  33.502  35.725  1.00  0.00     0.022 A 
BRANCH  44  47
ATOM     47  S   UNL A   1      40.816  32.413  37.509  1.00  0.00     0.127 S 
ATOM     48  O   UNL A   1      40.598  33.855  37.633  1.00  0.00    -0.237 OA
ATOM     49  O   UNL A   1      39.642  31.655  37.076  1.00  0.00    -0.237 OA
ATOM     50  O   UNL A   1      41.575  31.813  38.596  1.00  0.00    -0.744 OA
ENDBRANCH  44  47
ENDBRANCH  26  40
BRANCH  27  51
ATOM     51  C   UNL A   1      42.671  23.967  27.295  1.00  0.00     0.023 A 
ATOM     52  C   UNL A   1      43.284  24.213  26.053  1.00  0.00     0.012 A 
ATOM     53  C   UNL A   1      42.120  22.698  27.556  1.00  0.00     0.148 A 
ATOM     54  C   UNL A   1      43.339  23.213  25.080  1.00  0.00     0.002 A 
ATOM     55  C   UNL A   1      42.212  21.696  26.600  1.00  0.00     0.091 A 
ATOM     56  F   UNL A   1      41.532  22.496  28.745  1.00  0.00    -0.205 F 
ATOM     57  C   UNL A   1      42.812  21.954  25.357  1.00  0.00     0.022 A 
BRANCH  55  58
ATOM     58  S   UNL A   1      41.654  20.015  26.903  1.00  0.00     0.127 S 
ATOM     59  O   UNL A   1      40.336  20.241  27.490  1.00  0.00    -0.237 OA
ATOM     60  O   UNL A   1      41.640  19.456  25.552  1.00  0.00    -0.237 OA
ATOM     61  O   UNL A   1      42.647  19.424  27.790  1.00  0.00    -0.744 OA
ENDBRANCH  55  58
ENDBRANCH  27  51
BRANCH  39  62
ATOM     62  C   UNL A   1      46.882  25.560  32.654  1.00  0.00     0.023 A 
ATOM     63  C   UNL A   1      48.098  26.135  32.241  1.00  0.00     0.012 A 
ATOM     64  C   UNL A   1      46.881  24.572  33.657  1.00  0.00     0.148 A 
ATOM     65  C   UNL A   1      49.300  25.735  32.821  1.00  0.00     0.002 A 
ATOM     66  C   UNL A   1      48.080  24.201  34.255  1.00  0.00     0.091 A 
ATOM     67  F   UNL A   1      45.707  24.042  34.028  1.00  0.00    -0.205 F 
ATOM     68  C   UNL A   1      49.290  24.779  33.836  1.00  0.00     0.022 A 
BRANCH  66  69
ATOM     69  S   UNL A   1      48.165  23.041  35.623  1.00  0.00     0.127 S 
ATOM     70  O   UNL A   1      49.606  22.818  35.735  1.00  0.00    -0.237 OA
ATOM     71  O   UNL A   1      47.579  23.812  36.719  1.00  0.00    -0.237 OA
ATOM     72  O   UNL A   1      47.392  21.875  35.214  1.00  0.00    -0.744 OA
ENDBRANCH  66  69
ENDBRANCH  39  62
ENDBRANCH  13  14
ENDBRANCH   6   8
ENDBRANCH   3   4
ENDBRANCH   2   3
ENDBRANCH   1   2
BRANCH   1  73
ATOM     73  C   UNL A   1      32.224  26.880  26.436  1.00  0.00     0.002 C 
BRANCH  73  74
ATOM     74  C   UNL A   1      32.486  25.402  26.130  1.00  0.00     0.021 C 
BRANCH  74  75
ATOM     75  C   UNL A   1      33.724  25.128  25.279  1.00  0.00     0.116 C 
BRANCH  75  76
ATOM     76  N   UNL A   1      33.383  24.690  23.931  1.00  0.00    -0.352 N 
ATOM     77  C   UNL A   1      33.972  23.708  23.174  1.00  0.00     0.253 C 
ATOM     78  H   UNL A   1      32.630  25.163  23.506  1.00  0.00     0.163 HD
ATOM     79  O   UNL A   1      33.715  23.592  21.979  1.00  0.00    -0.269 OA
BRANCH  77  80
ATOM     80  C   UNL A   1      34.986  22.828  23.796  1.00  0.00     0.063 A 
ATOM     81  C   UNL A   1      36.339  23.063  23.496  1.00  0.00     0.017 A 
ATOM     82  C   UNL A   1      34.600  21.764  24.638  1.00  0.00     0.055 A 
ATOM     83  C   UNL A   1      37.311  22.164  23.924  1.00  0.00     0.021 A 
ATOM     84  C   UNL A   1      35.581  20.828  24.979  1.00  0.00     0.047 A 
ATOM     85  C   UNL A   1      36.921  21.032  24.630  1.00  0.00     0.043 A 
ATOM     86  Cl  UNL A   1      38.099  19.865  25.086  1.00  0.00    -0.084 Cl
BRANCH  82  87
ATOM     87  N   UNL A   1      33.256  21.691  25.084  1.00  0.00    -0.321 N 
ATOM     88  C   UNL A   1      32.247  20.778  24.895  1.00  0.00     0.258 C 
ATOM     89  H   UNL A   1      32.991  22.454  25.647  1.00  0.00     0.170 HD
ATOM     90  O   UNL A   1      31.109  20.998  25.307  1.00  0.00    -0.269 OA
BRANCH  88  91
ATOM     91  C   UNL A   1      32.457  19.509  24.207  1.00  0.00     0.082 A 
ATOM     92  C   UNL A   1      32.878  18.417  24.968  1.00  0.00     0.060 A 
ATOM     93  C   UNL A   1      32.300  19.367  22.840  1.00  0.00     0.164 A 
ATOM     94  C   UNL A   1      33.050  17.220  24.314  1.00  0.00     0.152 A 
ATOM     95  N   UNL A   1      32.473  18.171  22.239  1.00  0.00    -0.136 NA
ATOM     96  Cl  UNL A   1      31.875  20.633  21.765  1.00  0.00    -0.059 Cl
ATOM     97  Cl  UNL A   1      33.527  15.803  25.143  1.00  0.00    -0.060 Cl
ATOM     98  N   UNL A   1      32.842  17.079  22.990  1.00  0.00    -0.137 NA
ENDBRANCH  88  91
ENDBRANCH  82  87
ENDBRANCH  77  80
ENDBRANCH  75  76
ENDBRANCH  74  75
ENDBRANCH  73  74
ENDBRANCH   1  73
TORSDOF 18
ENDMDL
