MODEL 1
REMARK VINA RESULT:     -12.2      0.000      0.000
REMARK SMILES Cc1ccc(-c2cc3cccnc3n2CCC(=O)NCCCCCCNC(=O)c2ccc(-c3c4nc(c(-c5cccc(S(=O)(=O)[O-])c5F)c5ccc([nH]5)c(-c5cccc(S(=O)(=O)[O-])c5F)c5nc(c(-c6cccc(S(=O)(=O)[O-])c6F)c6ccc3[nH]6)C=C5)C=C4)cc2)cn1
REMARK SMILES IDX 22 1 21 2 20 3 19 4 17 5 18 6 16 8 15 9 14 10 6 11 7 12 8 13
REMARK SMILES IDX 13 14 9 15 12 16 10 17 11 18 5 19 1 20 2 21 3 22 93 23 4 24
REMARK SMILES IDX 92 25 23 26 24 27 25 28 26 29 27 30 28 32 29 33 30 34 91 35
REMARK SMILES IDX 31 36 90 37 32 38 33 39 34 40 84 41 35 42 89 43 83 44 85 45
REMARK SMILES IDX 36 46 88 47 82 48 81 49 37 51 69 52 49 53 68 54 50 55 53 56
REMARK SMILES IDX 67 57 86 58 51 59 52 60 66 62 87 63 54 64 38 65 39 66 47 67
REMARK SMILES IDX 40 68 42 69 48 70 41 71 43 72 44 73 45 74 46 75 70 76 71 77
REMARK SMILES IDX 79 78 72 79 74 80 80 81 73 82 75 83 76 84 77 85 78 86 55 87
REMARK SMILES IDX 56 88 64 89 57 90 59 91 65 92 58 93 60 94 61 95 62 96 63 97
REMARK H PARENT 19 7 26 31 85 50 53 61
REMARK Flexibility Score: inf
ROOT
ATOM      1  C   UNL A   1      36.251  21.821  23.907  1.00  0.00     0.002 C 
ENDROOT
BRANCH   1   2
ATOM      2  C   UNL A   1      36.656  23.198  24.422  1.00  0.00     0.021 C 
BRANCH   2   3
ATOM      3  C   UNL A   1      36.307  23.587  25.854  1.00  0.00     0.116 C 
BRANCH   3   4
ATOM      4  N   UNL A   1      35.029  24.276  25.945  1.00  0.00    -0.356 N 
ATOM      5  C   UNL A   1      33.780  23.808  26.217  1.00  0.00     0.221 C 
ATOM      6  O   UNL A   1      32.861  24.633  26.266  1.00  0.00    -0.275 OA
ATOM      7  H   UNL A   1      35.076  25.246  25.781  1.00  0.00     0.163 HD
BRANCH   5   8
ATOM      8  C   UNL A   1      33.490  22.339  26.455  1.00  0.00     0.122 C 
BRANCH   8   9
ATOM      9  C   UNL A   1      32.129  21.828  25.954  1.00  0.00     0.134 C 
BRANCH   9  10
ATOM     10  N   UNL A   1      32.175  21.132  24.679  1.00  0.00    -0.325 N 
ATOM     11  C   UNL A   1      32.133  21.636  23.375  1.00  0.00     0.052 A 
ATOM     12  C   UNL A   1      32.236  20.499  22.555  1.00  0.00     0.039 A 
ATOM     13  C   UNL A   1      32.491  19.354  23.353  1.00  0.00     0.020 A 
ATOM     14  C   UNL A   1      32.350  19.758  24.666  1.00  0.00     0.140 A 
ATOM     15  C   UNL A   1      32.881  18.023  23.121  1.00  0.00     0.013 A 
ATOM     16  N   UNL A   1      32.471  18.985  25.770  1.00  0.00    -0.238 NA
ATOM     17  C   UNL A   1      33.034  17.187  24.229  1.00  0.00     0.021 A 
ATOM     18  C   UNL A   1      32.786  17.701  25.492  1.00  0.00     0.113 A 
BRANCH  11  19
ATOM     19  C   UNL A   1      32.307  23.054  22.916  1.00  0.00     0.017 A 
ATOM     20  C   UNL A   1      33.357  27.215  22.563  1.00  0.00     0.066 C 
ATOM     21  C   UNL A   1      32.971  25.770  22.659  1.00  0.00     0.037 A 
ATOM     22  C   UNL A   1      31.700  25.418  23.062  1.00  0.00     0.024 A 
ATOM     23  N   UNL A   1      33.887  24.841  22.316  1.00  0.00    -0.261 NA
ATOM     24  C   UNL A   1      31.379  24.065  23.167  1.00  0.00     0.014 A 
ATOM     25  C   UNL A   1      33.537  23.524  22.445  1.00  0.00     0.121 A 
ENDBRANCH  11  19
ENDBRANCH   9  10
ENDBRANCH   8   9
ENDBRANCH   5   8
ENDBRANCH   3   4
ENDBRANCH   2   3
ENDBRANCH   1   2
BRANCH   1  26
ATOM     26  C   UNL A   1      36.274  20.704  24.945  1.00  0.00     0.002 C 
BRANCH  26  27
ATOM     27  C   UNL A   1      37.487  19.768  24.877  1.00  0.00     0.021 C 
BRANCH  27  28
ATOM     28  C   UNL A   1      38.713  20.308  25.594  1.00  0.00     0.116 C 
BRANCH  28  29
ATOM     29  N   UNL A   1      39.752  19.294  25.692  1.00  0.00    -0.352 N 
ATOM     30  C   UNL A   1      41.091  19.474  25.952  1.00  0.00     0.251 C 
ATOM     31  H   UNL A   1      39.461  18.364  25.555  1.00  0.00     0.163 HD
ATOM     32  O   UNL A   1      41.904  18.619  25.639  1.00  0.00    -0.269 OA
BRANCH  30  33
ATOM     33  C   UNL A   1      41.515  20.681  26.687  1.00  0.00     0.039 A 
ATOM     34  C   UNL A   1      41.232  20.813  28.053  1.00  0.00     0.014 A 
ATOM     35  C   UNL A   1      42.078  21.738  25.966  1.00  0.00     0.014 A 
ATOM     36  C   UNL A   1      41.486  22.029  28.675  1.00  0.00     0.010 A 
ATOM     37  C   UNL A   1      42.421  22.899  26.595  1.00  0.00     0.010 A 
ATOM     38  C   UNL A   1      42.042  23.065  27.920  1.00  0.00    -0.014 A 
BRANCH  38  39
ATOM     39  C   UNL A   1      42.299  24.370  28.487  1.00  0.00     0.031 A 
ATOM     40  C   UNL A   1      41.220  25.350  28.216  1.00  0.00     0.074 A 
ATOM     41  C   UNL A   1      43.279  24.536  29.400  1.00  0.00     0.049 A 
ATOM     42  N   UNL A   1      41.268  26.378  27.437  1.00  0.00    -0.248 NA
ATOM     43  C   UNL A   1      39.868  25.048  28.722  1.00  0.00     0.031 C 
ATOM     44  C   UNL A   1      44.153  23.513  29.992  1.00  0.00     0.029 A 
ATOM     45  N   UNL A   1      43.603  25.646  30.108  1.00  0.00    -0.354 N 
ATOM     46  C   UNL A   1      40.025  26.988  27.568  1.00  0.00     0.074 A 
ATOM     47  C   UNL A   1      39.144  26.005  28.142  1.00  0.00     0.031 C 
ATOM     48  C   UNL A   1      44.724  24.006  31.116  1.00  0.00     0.029 A 
ATOM     49  C   UNL A   1      44.369  25.407  31.248  1.00  0.00     0.049 A 
ATOM     50  H   UNL A   1      43.321  26.549  29.838  1.00  0.00     0.167 HD
ATOM     51  C   UNL A   1      39.882  28.339  27.492  1.00  0.00     0.034 A 
ATOM     52  C   UNL A   1      44.608  26.298  32.245  1.00  0.00     0.034 A 
ATOM     53  C   UNL A   1      41.067  28.970  26.973  1.00  0.00     0.049 A 
ATOM     54  C   UNL A   1      44.334  27.642  31.675  1.00  0.00     0.074 A 
ATOM     55  C   UNL A   1      41.781  28.882  25.796  1.00  0.00     0.029 A 
ATOM     56  N   UNL A   1      41.926  29.507  27.901  1.00  0.00    -0.354 N 
ATOM     57  N   UNL A   1      45.021  28.163  30.698  1.00  0.00    -0.248 NA
ATOM     58  C   UNL A   1      43.009  28.203  31.882  1.00  0.00     0.031 C 
ATOM     59  C   UNL A   1      43.150  28.925  26.193  1.00  0.00     0.029 A 
ATOM     60  C   UNL A   1      43.199  29.111  27.576  1.00  0.00     0.049 A 
ATOM     61  H   UNL A   1      41.675  30.076  28.664  1.00  0.00     0.167 HD
ATOM     62  C   UNL A   1      44.068  28.776  29.895  1.00  0.00     0.074 A 
ATOM     63  C   UNL A   1      42.866  28.855  30.725  1.00  0.00     0.031 C 
ATOM     64  C   UNL A   1      44.248  28.880  28.546  1.00  0.00     0.034 A 
BRANCH  51  65
ATOM     65  C   UNL A   1      38.823  29.115  28.230  1.00  0.00     0.023 A 
ATOM     66  C   UNL A   1      37.992  29.972  27.483  1.00  0.00     0.012 A 
ATOM     67  C   UNL A   1      38.757  29.219  29.640  1.00  0.00     0.148 A 
ATOM     68  C   UNL A   1      37.135  30.885  28.110  1.00  0.00     0.002 A 
ATOM     69  C   UNL A   1      37.845  30.063  30.258  1.00  0.00     0.091 A 
ATOM     70  F   UNL A   1      39.671  28.602  30.396  1.00  0.00    -0.205 F 
ATOM     71  C   UNL A   1      37.045  30.917  29.498  1.00  0.00     0.022 A 
BRANCH  69  72
ATOM     72  S   UNL A   1      37.665  30.102  32.046  1.00  0.00     0.127 S 
ATOM     73  O   UNL A   1      37.250  28.732  32.328  1.00  0.00    -0.237 OA
ATOM     74  O   UNL A   1      39.022  30.443  32.476  1.00  0.00    -0.237 OA
ATOM     75  O   UNL A   1      36.680  31.143  32.312  1.00  0.00    -0.744 OA
ENDBRANCH  69  72
ENDBRANCH  51  65
BRANCH  52  76
ATOM     76  C   UNL A   1      44.733  26.102  33.716  1.00  0.00     0.023 A 
ATOM     77  C   UNL A   1      45.982  26.342  34.334  1.00  0.00     0.012 A 
ATOM     78  C   UNL A   1      43.599  26.001  34.550  1.00  0.00     0.148 A 
ATOM     79  C   UNL A   1      46.086  26.548  35.716  1.00  0.00     0.002 A 
ATOM     80  C   UNL A   1      43.708  26.198  35.926  1.00  0.00     0.091 A 
ATOM     81  F   UNL A   1      42.397  25.815  33.990  1.00  0.00    -0.205 F 
ATOM     82  C   UNL A   1      44.946  26.491  36.510  1.00  0.00     0.022 A 
BRANCH  80  83
ATOM     83  S   UNL A   1      42.274  26.158  37.012  1.00  0.00     0.127 S 
ATOM     84  O   UNL A   1      41.473  27.272  36.502  1.00  0.00    -0.237 OA
ATOM     85  O   UNL A   1      41.724  24.833  36.739  1.00  0.00    -0.237 OA
ATOM     86  O   UNL A   1      42.794  26.361  38.360  1.00  0.00    -0.744 OA
ENDBRANCH  80  83
ENDBRANCH  52  76
BRANCH  64  87
ATOM     87  C   UNL A   1      45.600  28.499  27.990  1.00  0.00     0.023 A 
ATOM     88  C   UNL A   1      46.722  29.354  28.070  1.00  0.00     0.012 A 
ATOM     89  C   UNL A   1      45.782  27.186  27.534  1.00  0.00     0.148 A 
ATOM     90  C   UNL A   1      47.994  28.908  27.693  1.00  0.00     0.002 A 
ATOM     91  C   UNL A   1      47.051  26.736  27.192  1.00  0.00     0.091 A 
ATOM     92  F   UNL A   1      44.707  26.385  27.480  1.00  0.00    -0.205 F 
ATOM     93  C   UNL A   1      48.160  27.595  27.266  1.00  0.00     0.022 A 
BRANCH  91  94
ATOM     94  S   UNL A   1      47.350  25.031  26.724  1.00  0.00     0.127 S 
ATOM     95  O   UNL A   1      46.909  25.015  25.330  1.00  0.00    -0.237 OA
ATOM     96  O   UNL A   1      48.797  24.905  26.909  1.00  0.00    -0.237 OA
ATOM     97  O   UNL A   1      46.559  24.216  27.637  1.00  0.00    -0.744 OA
ENDBRANCH  91  94
ENDBRANCH  64  87
ENDBRANCH  38  39
ENDBRANCH  30  33
ENDBRANCH  28  29
ENDBRANCH  27  28
ENDBRANCH  26  27
ENDBRANCH   1  26
TORSDOF 19
ENDMDL
MODEL 2
REMARK VINA RESULT:     -11.5      4.720      9.827
REMARK SMILES Cc1ccc(-c2cc3cccnc3n2CCC(=O)NCCCCCCNC(=O)c2ccc(-c3c4nc(c(-c5cccc(S(=O)(=O)[O-])c5F)c5ccc([nH]5)c(-c5cccc(S(=O)(=O)[O-])c5F)c5nc(c(-c6cccc(S(=O)(=O)[O-])c6F)c6ccc3[nH]6)C=C5)C=C4)cc2)cn1
REMARK SMILES IDX 22 1 21 2 20 3 19 4 17 5 18 6 16 8 15 9 14 10 6 11 7 12 8 13
REMARK SMILES IDX 13 14 9 15 12 16 10 17 11 18 5 19 1 20 2 21 3 22 93 23 4 24
REMARK SMILES IDX 92 25 23 26 24 27 25 28 26 29 27 30 28 32 29 33 30 34 91 35
REMARK SMILES IDX 31 36 90 37 32 38 33 39 34 40 84 41 35 42 89 43 83 44 85 45
REMARK SMILES IDX 36 46 88 47 82 48 81 49 37 51 69 52 49 53 68 54 50 55 53 56
REMARK SMILES IDX 67 57 86 58 51 59 52 60 66 62 87 63 54 64 38 65 39 66 47 67
REMARK SMILES IDX 40 68 42 69 48 70 41 71 43 72 44 73 45 74 46 75 70 76 71 77
REMARK SMILES IDX 79 78 72 79 74 80 80 81 73 82 75 83 76 84 77 85 78 86 55 87
REMARK SMILES IDX 56 88 64 89 57 90 59 91 65 92 58 93 60 94 61 95 62 96 63 97
REMARK H PARENT 19 7 26 31 85 50 53 61
REMARK Flexibility Score: inf
ROOT
ATOM      1  C   UNL A   1      33.019  29.887  26.793  1.00  0.00     0.002 C 
ENDROOT
BRANCH   1   2
ATOM      2  C   UNL A   1      32.903  28.403  27.118  1.00  0.00     0.021 C 
BRANCH   2   3
ATOM      3  C   UNL A   1      31.534  27.734  27.055  1.00  0.00     0.116 C 
BRANCH   3   4
ATOM      4  N   UNL A   1      31.629  26.284  26.990  1.00  0.00    -0.356 N 
ATOM      5  C   UNL A   1      30.856  25.366  26.345  1.00  0.00     0.221 C 
ATOM      6  O   UNL A   1      31.189  24.179  26.433  1.00  0.00    -0.275 OA
ATOM      7  H   UNL A   1      32.380  25.901  27.499  1.00  0.00     0.163 HD
BRANCH   5   8
ATOM      8  C   UNL A   1      29.627  25.749  25.545  1.00  0.00     0.122 C 
BRANCH   8   9
ATOM      9  C   UNL A   1      29.804  25.806  24.018  1.00  0.00     0.134 C 
BRANCH   9  10
ATOM     10  N   UNL A   1      30.437  27.018  23.526  1.00  0.00    -0.325 N 
ATOM     11  C   UNL A   1      31.789  27.305  23.311  1.00  0.00     0.052 A 
ATOM     12  C   UNL A   1      31.793  28.617  22.807  1.00  0.00     0.039 A 
ATOM     13  C   UNL A   1      30.461  29.049  22.580  1.00  0.00     0.020 A 
ATOM     14  C   UNL A   1      29.642  28.078  23.124  1.00  0.00     0.140 A 
ATOM     15  C   UNL A   1      29.843  30.128  21.924  1.00  0.00     0.013 A 
ATOM     16  N   UNL A   1      28.290  28.089  23.166  1.00  0.00    -0.238 NA
ATOM     17  C   UNL A   1      28.448  30.177  21.927  1.00  0.00     0.021 A 
ATOM     18  C   UNL A   1      27.745  29.177  22.578  1.00  0.00     0.113 A 
BRANCH  11  19
ATOM     19  C   UNL A   1      32.950  26.355  23.265  1.00  0.00     0.017 A 
ATOM     20  C   UNL A   1      35.503  22.893  23.442  1.00  0.00     0.066 C 
ATOM     21  C   UNL A   1      34.643  24.118  23.377  1.00  0.00     0.037 A 
ATOM     22  C   UNL A   1      34.643  25.021  24.419  1.00  0.00     0.024 A 
ATOM     23  N   UNL A   1      33.899  24.316  22.269  1.00  0.00    -0.261 NA
ATOM     24  C   UNL A   1      33.811  26.138  24.341  1.00  0.00     0.014 A 
ATOM     25  C   UNL A   1      33.087  25.417  22.236  1.00  0.00     0.121 A 
ENDBRANCH  11  19
ENDBRANCH   9  10
ENDBRANCH   8   9
ENDBRANCH   5   8
ENDBRANCH   3   4
ENDBRANCH   2   3
ENDBRANCH   1   2
BRANCH   1  26
ATOM     26  C   UNL A   1      31.715  30.574  26.402  1.00  0.00     0.002 C 
BRANCH  26  27
ATOM     27  C   UNL A   1      31.426  31.897  27.122  1.00  0.00     0.021 C 
BRANCH  27  28
ATOM     28  C   UNL A   1      32.269  33.058  26.622  1.00  0.00     0.116 C 
BRANCH  28  29
ATOM     29  N   UNL A   1      32.205  34.185  27.540  1.00  0.00    -0.352 N 
ATOM     30  C   UNL A   1      32.892  34.359  28.720  1.00  0.00     0.251 C 
ATOM     31  H   UNL A   1      31.594  34.914  27.286  1.00  0.00     0.163 HD
ATOM     32  O   UNL A   1      32.483  35.137  29.566  1.00  0.00    -0.269 OA
BRANCH  30  33
ATOM     33  C   UNL A   1      34.172  33.649  28.907  1.00  0.00     0.039 A 
ATOM     34  C   UNL A   1      34.329  32.740  29.961  1.00  0.00     0.014 A 
ATOM     35  C   UNL A   1      35.255  34.003  28.097  1.00  0.00     0.014 A 
ATOM     36  C   UNL A   1      35.593  32.223  30.216  1.00  0.00     0.010 A 
ATOM     37  C   UNL A   1      36.475  33.420  28.282  1.00  0.00     0.010 A 
ATOM     38  C   UNL A   1      36.653  32.605  29.391  1.00  0.00    -0.014 A 
BRANCH  38  39
ATOM     39  C   UNL A   1      38.003  32.139  29.616  1.00  0.00     0.031 A 
ATOM     40  C   UNL A   1      38.211  30.728  29.211  1.00  0.00     0.074 A 
ATOM     41  C   UNL A   1      38.991  33.017  29.886  1.00  0.00     0.049 A 
ATOM     42  N   UNL A   1      38.407  29.709  29.980  1.00  0.00    -0.248 NA
ATOM     43  C   UNL A   1      37.989  30.373  27.798  1.00  0.00     0.031 C 
ATOM     44  C   UNL A   1      38.917  34.484  29.935  1.00  0.00     0.029 A 
ATOM     45  N   UNL A   1      40.320  32.785  30.029  1.00  0.00    -0.354 N 
ATOM     46  C   UNL A   1      38.589  28.635  29.115  1.00  0.00     0.074 A 
ATOM     47  C   UNL A   1      38.067  29.043  27.838  1.00  0.00     0.031 C 
ATOM     48  C   UNL A   1      40.165  35.001  29.858  1.00  0.00     0.029 A 
ATOM     49  C   UNL A   1      41.126  33.914  29.892  1.00  0.00     0.049 A 
ATOM     50  H   UNL A   1      40.686  31.891  30.214  1.00  0.00     0.167 HD
ATOM     51  C   UNL A   1      39.431  27.610  29.418  1.00  0.00     0.034 A 
ATOM     52  C   UNL A   1      42.476  33.912  29.741  1.00  0.00     0.034 A 
ATOM     53  C   UNL A   1      39.828  27.640  30.801  1.00  0.00     0.049 A 
ATOM     54  C   UNL A   1      42.946  32.590  30.228  1.00  0.00     0.074 A 
ATOM     55  C   UNL A   1      39.161  27.577  32.007  1.00  0.00     0.029 A 
ATOM     56  N   UNL A   1      41.051  28.206  31.071  1.00  0.00    -0.354 N 
ATOM     57  N   UNL A   1      42.827  32.193  31.463  1.00  0.00    -0.248 NA
ATOM     58  C   UNL A   1      43.123  31.535  29.243  1.00  0.00     0.031 C 
ATOM     59  C   UNL A   1      39.819  28.529  32.841  1.00  0.00     0.029 A 
ATOM     60  C   UNL A   1      40.893  29.065  32.129  1.00  0.00     0.049 A 
ATOM     61  H   UNL A   1      41.892  28.027  30.591  1.00  0.00     0.167 HD
ATOM     62  C   UNL A   1      42.456  30.858  31.363  1.00  0.00     0.074 A 
ATOM     63  C   UNL A   1      42.754  30.484  29.980  1.00  0.00     0.031 C 
ATOM     64  C   UNL A   1      41.665  30.276  32.311  1.00  0.00     0.034 A 
BRANCH  51  65
ATOM     65  C   UNL A   1      40.185  26.809  28.390  1.00  0.00     0.023 A 
ATOM     66  C   UNL A   1      40.031  25.410  28.400  1.00  0.00     0.012 A 
ATOM     67  C   UNL A   1      41.208  27.341  27.569  1.00  0.00     0.148 A 
ATOM     68  C   UNL A   1      40.854  24.580  27.628  1.00  0.00     0.002 A 
ATOM     69  C   UNL A   1      41.965  26.523  26.740  1.00  0.00     0.091 A 
ATOM     70  F   UNL A   1      41.553  28.628  27.684  1.00  0.00    -0.205 F 
ATOM     71  C   UNL A   1      41.808  25.137  26.782  1.00  0.00     0.022 A 
BRANCH  69  72
ATOM     72  S   UNL A   1      43.175  27.205  25.601  1.00  0.00     0.127 S 
ATOM     73  O   UNL A   1      42.326  27.984  24.704  1.00  0.00    -0.237 OA
ATOM     74  O   UNL A   1      44.022  27.992  26.498  1.00  0.00    -0.237 OA
ATOM     75  O   UNL A   1      43.845  26.051  25.014  1.00  0.00    -0.744 OA
ENDBRANCH  69  72
ENDBRANCH  51  65
BRANCH  52  76
ATOM     76  C   UNL A   1      43.367  34.790  28.932  1.00  0.00     0.023 A 
ATOM     77  C   UNL A   1      43.500  34.539  27.547  1.00  0.00     0.012 A 
ATOM     78  C   UNL A   1      43.822  36.034  29.419  1.00  0.00     0.148 A 
ATOM     79  C   UNL A   1      43.996  35.515  26.673  1.00  0.00     0.002 A 
ATOM     80  C   UNL A   1      44.324  36.999  28.547  1.00  0.00     0.091 A 
ATOM     81  F   UNL A   1      43.672  36.316  30.719  1.00  0.00    -0.205 F 
ATOM     82  C   UNL A   1      44.394  36.751  27.171  1.00  0.00     0.022 A 
BRANCH  80  83
ATOM     83  S   UNL A   1      44.839  38.626  29.116  1.00  0.00     0.127 S 
ATOM     84  O   UNL A   1      43.570  39.215  29.547  1.00  0.00    -0.237 OA
ATOM     85  O   UNL A   1      45.757  38.290  30.201  1.00  0.00    -0.237 OA
ATOM     86  O   UNL A   1      45.440  39.278  27.959  1.00  0.00    -0.744 OA
ENDBRANCH  80  83
ENDBRANCH  52  76
BRANCH  64  87
ATOM     87  C   UNL A   1      41.384  31.066  33.568  1.00  0.00     0.023 A 
ATOM     88  C   UNL A   1      42.321  31.182  34.618  1.00  0.00     0.012 A 
ATOM     89  C   UNL A   1      40.220  31.846  33.611  1.00  0.00     0.148 A 
ATOM     90  C   UNL A   1      42.095  32.050  35.692  1.00  0.00     0.002 A 
ATOM     91  C   UNL A   1      40.013  32.732  34.662  1.00  0.00     0.091 A 
ATOM     92  F   UNL A   1      39.349  31.734  32.597  1.00  0.00    -0.205 F 
ATOM     93  C   UNL A   1      40.946  32.835  35.707  1.00  0.00     0.022 A 
BRANCH  91  94
ATOM     94  S   UNL A   1      38.602  33.838  34.696  1.00  0.00     0.127 S 
ATOM     95  O   UNL A   1      37.486  32.905  34.839  1.00  0.00    -0.237 OA
ATOM     96  O   UNL A   1      38.874  34.654  35.881  1.00  0.00    -0.237 OA
ATOM     97  O   UNL A   1      38.638  34.578  33.441  1.00  0.00    -0.744 OA
ENDBRANCH  91  94
ENDBRANCH  64  87
ENDBRANCH  38  39
ENDBRANCH  30  33
ENDBRANCH  28  29
ENDBRANCH  27  28
ENDBRANCH  26  27
ENDBRANCH   1  26
TORSDOF 19
ENDMDL
MODEL 3
REMARK VINA RESULT:     -11.5      4.557      9.834
REMARK SMILES Cc1ccc(-c2cc3cccnc3n2CCC(=O)NCCCCCCNC(=O)c2ccc(-c3c4nc(c(-c5cccc(S(=O)(=O)[O-])c5F)c5ccc([nH]5)c(-c5cccc(S(=O)(=O)[O-])c5F)c5nc(c(-c6cccc(S(=O)(=O)[O-])c6F)c6ccc3[nH]6)C=C5)C=C4)cc2)cn1
REMARK SMILES IDX 22 1 21 2 20 3 19 4 17 5 18 6 16 8 15 9 14 10 6 11 7 12 8 13
REMARK SMILES IDX 13 14 9 15 12 16 10 17 11 18 5 19 1 20 2 21 3 22 93 23 4 24
REMARK SMILES IDX 92 25 23 26 24 27 25 28 26 29 27 30 28 32 29 33 30 34 91 35
REMARK SMILES IDX 31 36 90 37 32 38 33 39 34 40 84 41 35 42 89 43 83 44 85 45
REMARK SMILES IDX 36 46 88 47 82 48 81 49 37 51 69 52 49 53 68 54 50 55 53 56
REMARK SMILES IDX 67 57 86 58 51 59 52 60 66 62 87 63 54 64 38 65 39 66 47 67
REMARK SMILES IDX 40 68 42 69 48 70 41 71 43 72 44 73 45 74 46 75 70 76 71 77
REMARK SMILES IDX 79 78 72 79 74 80 80 81 73 82 75 83 76 84 77 85 78 86 55 87
REMARK SMILES IDX 56 88 64 89 57 90 59 91 65 92 58 93 60 94 61 95 62 96 63 97
REMARK H PARENT 19 7 26 31 85 50 53 61
REMARK Flexibility Score: inf
ROOT
ATOM      1  C   UNL A   1      31.633  29.333  27.493  1.00  0.00     0.002 C 
ENDROOT
BRANCH   1   2
ATOM      2  C   UNL A   1      32.228  27.999  27.059  1.00  0.00     0.021 C 
BRANCH   2   3
ATOM      3  C   UNL A   1      33.670  27.954  26.565  1.00  0.00     0.116 C 
BRANCH   3   4
ATOM      4  N   UNL A   1      33.899  26.868  25.624  1.00  0.00    -0.356 N 
ATOM      5  C   UNL A   1      33.552  26.734  24.314  1.00  0.00     0.221 C 
ATOM      6  O   UNL A   1      33.908  25.703  23.733  1.00  0.00    -0.275 OA
ATOM      7  H   UNL A   1      34.387  26.100  25.999  1.00  0.00     0.163 HD
BRANCH   5   8
ATOM      8  C   UNL A   1      32.758  27.786  23.566  1.00  0.00     0.122 C 
BRANCH   8   9
ATOM      9  C   UNL A   1      31.785  27.266  22.495  1.00  0.00     0.134 C 
BRANCH   9  10
ATOM     10  N   UNL A   1      30.384  27.296  22.882  1.00  0.00    -0.325 N 
ATOM     11  C   UNL A   1      29.643  26.393  23.652  1.00  0.00     0.052 A 
ATOM     12  C   UNL A   1      28.356  26.954  23.708  1.00  0.00     0.039 A 
ATOM     13  C   UNL A   1      28.368  28.243  23.115  1.00  0.00     0.020 A 
ATOM     14  C   UNL A   1      29.609  28.387  22.527  1.00  0.00     0.140 A 
ATOM     15  C   UNL A   1      27.488  29.338  23.052  1.00  0.00     0.013 A 
ATOM     16  N   UNL A   1      30.051  29.451  21.817  1.00  0.00    -0.238 NA
ATOM     17  C   UNL A   1      27.904  30.466  22.342  1.00  0.00     0.021 A 
ATOM     18  C   UNL A   1      29.147  30.450  21.732  1.00  0.00     0.113 A 
BRANCH  11  19
ATOM     19  C   UNL A   1      30.143  25.281  24.528  1.00  0.00     0.017 A 
ATOM     20  C   UNL A   1      32.489  22.733  27.085  1.00  0.00     0.066 C 
ATOM     21  C   UNL A   1      31.649  23.595  26.191  1.00  0.00     0.037 A 
ATOM     22  C   UNL A   1      31.545  23.304  24.847  1.00  0.00     0.024 A 
ATOM     23  N   UNL A   1      30.989  24.633  26.744  1.00  0.00    -0.261 NA
ATOM     24  C   UNL A   1      30.778  24.140  24.036  1.00  0.00     0.014 A 
ATOM     25  C   UNL A   1      30.257  25.437  25.913  1.00  0.00     0.121 A 
ENDBRANCH  11  19
ENDBRANCH   9  10
ENDBRANCH   8   9
ENDBRANCH   5   8
ENDBRANCH   3   4
ENDBRANCH   2   3
ENDBRANCH   1   2
BRANCH   1  26
ATOM     26  C   UNL A   1      32.298  30.569  26.896  1.00  0.00     0.002 C 
BRANCH  26  27
ATOM     27  C   UNL A   1      31.611  31.903  27.213  1.00  0.00     0.021 C 
BRANCH  27  28
ATOM     28  C   UNL A   1      32.324  33.109  26.624  1.00  0.00     0.116 C 
BRANCH  28  29
ATOM     29  N   UNL A   1      32.259  34.248  27.526  1.00  0.00    -0.352 N 
ATOM     30  C   UNL A   1      32.932  34.431  28.712  1.00  0.00     0.251 C 
ATOM     31  H   UNL A   1      31.658  34.980  27.254  1.00  0.00     0.163 HD
ATOM     32  O   UNL A   1      32.519  35.224  29.542  1.00  0.00    -0.269 OA
BRANCH  30  33
ATOM     33  C   UNL A   1      34.201  33.711  28.925  1.00  0.00     0.039 A 
ATOM     34  C   UNL A   1      34.370  32.889  30.047  1.00  0.00     0.014 A 
ATOM     35  C   UNL A   1      35.269  33.974  28.062  1.00  0.00     0.014 A 
ATOM     36  C   UNL A   1      35.629  32.367  30.313  1.00  0.00     0.010 A 
ATOM     37  C   UNL A   1      36.482  33.381  28.264  1.00  0.00     0.010 A 
ATOM     38  C   UNL A   1      36.674  32.657  29.432  1.00  0.00    -0.014 A 
BRANCH  38  39
ATOM     39  C   UNL A   1      38.020  32.181  29.661  1.00  0.00     0.031 A 
ATOM     40  C   UNL A   1      38.215  30.763  29.276  1.00  0.00     0.074 A 
ATOM     41  C   UNL A   1      39.017  33.054  29.917  1.00  0.00     0.049 A 
ATOM     42  N   UNL A   1      38.403  29.753  30.058  1.00  0.00    -0.248 NA
ATOM     43  C   UNL A   1      37.986  30.391  27.868  1.00  0.00     0.031 C 
ATOM     44  C   UNL A   1      38.956  34.522  29.946  1.00  0.00     0.029 A 
ATOM     45  N   UNL A   1      40.343  32.813  30.060  1.00  0.00    -0.354 N 
ATOM     46  C   UNL A   1      38.573  28.665  29.208  1.00  0.00     0.074 A 
ATOM     47  C   UNL A   1      38.052  29.061  27.927  1.00  0.00     0.031 C 
ATOM     48  C   UNL A   1      40.209  35.026  29.858  1.00  0.00     0.029 A 
ATOM     49  C   UNL A   1      41.160  33.932  29.906  1.00  0.00     0.049 A 
ATOM     50  H   UNL A   1      40.702  31.917  30.257  1.00  0.00     0.167 HD
ATOM     51  C   UNL A   1      39.406  27.637  29.524  1.00  0.00     0.034 A 
ATOM     52  C   UNL A   1      42.510  33.916  29.752  1.00  0.00     0.034 A 
ATOM     53  C   UNL A   1      39.807  27.683  30.906  1.00  0.00     0.049 A 
ATOM     54  C   UNL A   1      42.968  32.596  30.257  1.00  0.00     0.074 A 
ATOM     55  C   UNL A   1      39.141  27.644  32.114  1.00  0.00     0.029 A 
ATOM     56  N   UNL A   1      41.035  28.242  31.166  1.00  0.00    -0.354 N 
ATOM     57  N   UNL A   1      42.848  32.217  31.498  1.00  0.00    -0.248 NA
ATOM     58  C   UNL A   1      43.134  31.526  29.287  1.00  0.00     0.031 C 
ATOM     59  C   UNL A   1      39.810  28.601  32.933  1.00  0.00     0.029 A 
ATOM     60  C   UNL A   1      40.888  29.117  32.211  1.00  0.00     0.049 A 
ATOM     61  H   UNL A   1      41.873  28.048  30.687  1.00  0.00     0.167 HD
ATOM     62  C   UNL A   1      42.465  30.885  31.418  1.00  0.00     0.074 A 
ATOM     63  C   UNL A   1      42.757  30.489  30.040  1.00  0.00     0.031 C 
ATOM     64  C   UNL A   1      41.671  30.323  32.375  1.00  0.00     0.034 A 
BRANCH  51  65
ATOM     65  C   UNL A   1      40.151  26.816  28.506  1.00  0.00     0.023 A 
ATOM     66  C   UNL A   1      40.085  25.413  28.613  1.00  0.00     0.012 A 
ATOM     67  C   UNL A   1      41.094  27.350  27.595  1.00  0.00     0.148 A 
ATOM     68  C   UNL A   1      40.914  24.584  27.848  1.00  0.00     0.002 A 
ATOM     69  C   UNL A   1      41.853  26.525  26.776  1.00  0.00     0.091 A 
ATOM     70  F   UNL A   1      41.364  28.660  27.608  1.00  0.00    -0.205 F 
ATOM     71  C   UNL A   1      41.784  25.137  26.914  1.00  0.00     0.022 A 
BRANCH  69  72
ATOM     72  S   UNL A   1      42.954  27.198  25.527  1.00  0.00     0.127 S 
ATOM     73  O   UNL A   1      42.093  28.181  24.877  1.00  0.00    -0.237 OA
ATOM     74  O   UNL A   1      44.030  27.758  26.347  1.00  0.00    -0.237 OA
ATOM     75  O   UNL A   1      43.360  26.057  24.715  1.00  0.00    -0.744 OA
ENDBRANCH  69  72
ENDBRANCH  51  65
BRANCH  52  76
ATOM     76  C   UNL A   1      43.407  34.774  28.930  1.00  0.00     0.023 A 
ATOM     77  C   UNL A   1      43.954  35.943  29.508  1.00  0.00     0.012 A 
ATOM     78  C   UNL A   1      43.980  34.308  27.727  1.00  0.00     0.148 A 
ATOM     79  C   UNL A   1      45.072  36.577  28.952  1.00  0.00     0.002 A 
ATOM     80  C   UNL A   1      45.087  34.948  27.172  1.00  0.00     0.091 A 
ATOM     81  F   UNL A   1      43.510  33.181  27.179  1.00  0.00    -0.205 F 
ATOM     82  C   UNL A   1      45.649  36.071  27.792  1.00  0.00     0.022 A 
BRANCH  80  83
ATOM     83  S   UNL A   1      45.896  34.339  25.685  1.00  0.00     0.127 S 
ATOM     84  O   UNL A   1      46.948  35.336  25.480  1.00  0.00    -0.237 OA
ATOM     85  O   UNL A   1      46.371  33.027  26.116  1.00  0.00    -0.237 OA
ATOM     86  O   UNL A   1      44.868  34.331  24.651  1.00  0.00    -0.744 OA
ENDBRANCH  80  83
ENDBRANCH  52  76
BRANCH  64  87
ATOM     87  C   UNL A   1      41.399  31.133  33.621  1.00  0.00     0.023 A 
ATOM     88  C   UNL A   1      42.341  31.259  34.666  1.00  0.00     0.012 A 
ATOM     89  C   UNL A   1      40.240  31.921  33.658  1.00  0.00     0.148 A 
ATOM     90  C   UNL A   1      42.125  32.144  35.727  1.00  0.00     0.002 A 
ATOM     91  C   UNL A   1      40.042  32.823  34.696  1.00  0.00     0.091 A 
ATOM     92  F   UNL A   1      39.364  31.799  32.649  1.00  0.00    -0.205 F 
ATOM     93  C   UNL A   1      40.980  32.936  35.736  1.00  0.00     0.022 A 
BRANCH  91  94
ATOM     94  S   UNL A   1      38.638  33.939  34.720  1.00  0.00     0.127 S 
ATOM     95  O   UNL A   1      37.516  33.013  34.866  1.00  0.00    -0.237 OA
ATOM     96  O   UNL A   1      38.912  34.761  35.899  1.00  0.00    -0.237 OA
ATOM     97  O   UNL A   1      38.681  34.669  33.460  1.00  0.00    -0.744 OA
ENDBRANCH  91  94
ENDBRANCH  64  87
ENDBRANCH  38  39
ENDBRANCH  30  33
ENDBRANCH  28  29
ENDBRANCH  27  28
ENDBRANCH  26  27
ENDBRANCH   1  26
TORSDOF 19
ENDMDL
