MODEL 1
REMARK VINA RESULT:     -11.5      0.000      0.000
REMARK SMILES COc1ccc(C(=O)Nc2ccccc2C(=O)N[C@@H](C(=O)NCCCCCCNC(=O)c2ccc(-c3c4nc(c(-c5cccc(S(=O)(=O)[O-])c5F)c5ccc([nH]5)c(-c5cccc(S(=O)(=O)[O-])c5F)c5nc(c(-c6cccc(S(=O)(=O)[O-])c6F)c6ccc3[nH]6)C=C5)C=C4)cc2)C(C)C)cc1
REMARK SMILES IDX 24 1 23 2 22 3 20 4 21 5 19 7 18 8 16 9 17 10 15 12 10 13
REMARK SMILES IDX 11 14 12 15 14 16 13 17 9 18 7 19 8 20 6 22 3 23 4 24 99 25
REMARK SMILES IDX 5 26 98 27 2 28 1 29 95 30 96 31 97 32 25 33 26 34 27 35
REMARK SMILES IDX 28 36 29 37 30 38 31 40 32 41 33 42 94 43 34 44 93 45 35 46
REMARK SMILES IDX 36 47 37 48 87 49 38 50 92 51 86 52 88 53 39 54 91 55 85 56
REMARK SMILES IDX 84 57 40 59 72 60 52 61 71 62 53 63 56 64 70 65 89 66 54 67
REMARK SMILES IDX 55 68 69 70 90 71 57 72 41 73 42 74 50 75 43 76 45 77 51 78
REMARK SMILES IDX 44 79 46 80 47 81 48 82 49 83 73 84 74 85 82 86 75 87 77 88
REMARK SMILES IDX 83 89 76 90 78 91 79 92 80 93 81 94 58 95 59 96 67 97 60 98
REMARK SMILES IDX 62 99 68 100 61 101 63 102 64 103 65 104 66 105
REMARK H PARENT 22 6 18 11 9 21 29 39 88 58 56 69
REMARK Flexibility Score: inf
ROOT
ATOM      1  C   UNL A   1      37.109  22.625  25.347  1.00  0.00     0.021 C 
ENDROOT
BRANCH   1   2
ATOM      2  C   UNL A   1      36.156  23.561  26.092  1.00  0.00     0.116 C 
BRANCH   2   3
ATOM      3  N   UNL A   1      35.170  22.778  26.789  1.00  0.00    -0.354 N 
ATOM      4  C   UNL A   1      33.821  22.869  26.702  1.00  0.00     0.242 C 
ATOM      5  O   UNL A   1      33.201  22.521  27.714  1.00  0.00    -0.273 OA
ATOM      6  H   UNL A   1      35.518  22.092  27.403  1.00  0.00     0.163 HD
BRANCH   4   7
ATOM      7  C   UNL A   1      33.111  23.378  25.398  1.00  0.00     0.174 C 
BRANCH   7   8
ATOM      8  N   UNL A   1      31.776  23.874  25.794  1.00  0.00    -0.340 N 
ATOM      9  C   UNL A   1      31.214  25.099  26.140  1.00  0.00     0.254 C 
ATOM     10  O   UNL A   1      30.171  25.001  26.798  1.00  0.00    -0.269 OA
ATOM     11  H   UNL A   1      31.111  23.149  25.820  1.00  0.00     0.164 HD
BRANCH   9  12
ATOM     12  C   UNL A   1      31.716  26.503  25.857  1.00  0.00     0.063 A 
ATOM     13  C   UNL A   1      32.438  26.961  24.745  1.00  0.00     0.054 A 
ATOM     14  C   UNL A   1      33.029  28.245  24.739  1.00  0.00     0.027 A 
ATOM     15  C   UNL A   1      32.720  29.175  25.726  1.00  0.00     0.002 A 
ATOM     16  C   UNL A   1      31.397  27.484  26.831  1.00  0.00     0.016 A 
ATOM     17  C   UNL A   1      31.857  28.809  26.745  1.00  0.00     0.001 A 
BRANCH  13  18
ATOM     18  N   UNL A   1      32.452  26.344  23.489  1.00  0.00    -0.321 N 
ATOM     19  C   UNL A   1      31.555  26.597  22.471  1.00  0.00     0.255 C 
ATOM     20  O   UNL A   1      31.790  26.178  21.339  1.00  0.00    -0.269 OA
ATOM     21  H   UNL A   1      33.155  25.677  23.319  1.00  0.00     0.170 HD
BRANCH  19  22
ATOM     22  C   UNL A   1      30.352  27.432  22.697  1.00  0.00     0.040 A 
ATOM     23  C   UNL A   1      28.166  29.113  23.146  1.00  0.00     0.118 A 
ATOM     24  C   UNL A   1      29.280  29.601  22.487  1.00  0.00     0.047 A 
ATOM     25  C   UNL A   1      28.118  27.770  23.535  1.00  0.00     0.047 A 
ATOM     26  C   UNL A   1      30.367  28.763  22.291  1.00  0.00     0.017 A 
ATOM     27  C   UNL A   1      29.215  26.923  23.314  1.00  0.00     0.017 A 
BRANCH  23  28
ATOM     28  O   UNL A   1      27.175  30.032  23.337  1.00  0.00    -0.497 OA
ATOM     29  C   UNL A   1      27.639  31.370  23.429  1.00  0.00     0.278 C 
ENDBRANCH  23  28
ENDBRANCH  19  22
ENDBRANCH  13  18
ENDBRANCH   9  12
ENDBRANCH   7   8
BRANCH   7  30
ATOM     30  C   UNL A   1      33.140  22.104  24.444  1.00  0.00     0.015 C 
ATOM     31  C   UNL A   1      32.283  20.868  24.697  1.00  0.00     0.010 C 
ATOM     32  C   UNL A   1      32.829  22.558  23.007  1.00  0.00     0.010 C 
ENDBRANCH   7  30
ENDBRANCH   4   7
ENDBRANCH   2   3
ENDBRANCH   1   2
BRANCH   1  33
ATOM     33  C   UNL A   1      36.521  21.218  25.162  1.00  0.00     0.002 C 
BRANCH  33  34
ATOM     34  C   UNL A   1      37.576  20.131  24.926  1.00  0.00     0.002 C 
BRANCH  34  35
ATOM     35  C   UNL A   1      39.000  20.551  25.295  1.00  0.00     0.021 C 
BRANCH  35  36
ATOM     36  C   UNL A   1      39.580  19.782  26.476  1.00  0.00     0.116 C 
BRANCH  36  37
ATOM     37  N   UNL A   1      40.814  19.097  26.110  1.00  0.00    -0.352 N 
ATOM     38  C   UNL A   1      42.058  19.627  25.903  1.00  0.00     0.251 C 
ATOM     39  H   UNL A   1      40.743  18.121  25.998  1.00  0.00     0.163 HD
ATOM     40  O   UNL A   1      42.942  18.954  25.364  1.00  0.00    -0.269 OA
BRANCH  38  41
ATOM     41  C   UNL A   1      42.329  21.013  26.323  1.00  0.00     0.039 A 
ATOM     42  C   UNL A   1      42.698  21.271  27.645  1.00  0.00     0.014 A 
ATOM     43  C   UNL A   1      42.235  22.053  25.394  1.00  0.00     0.014 A 
ATOM     44  C   UNL A   1      43.027  22.574  28.023  1.00  0.00     0.010 A 
ATOM     45  C   UNL A   1      42.635  23.332  25.753  1.00  0.00     0.010 A 
ATOM     46  C   UNL A   1      43.026  23.607  27.073  1.00  0.00    -0.014 A 
BRANCH  46  47
ATOM     47  C   UNL A   1      43.427  24.992  27.426  1.00  0.00     0.031 A 
ATOM     48  C   UNL A   1      42.429  25.920  28.061  1.00  0.00     0.074 A 
ATOM     49  C   UNL A   1      44.648  25.440  27.078  1.00  0.00     0.049 A 
ATOM     50  N   UNL A   1      42.552  27.187  28.354  1.00  0.00    -0.248 NA
ATOM     51  C   UNL A   1      41.104  25.356  28.378  1.00  0.00     0.031 C 
ATOM     52  C   UNL A   1      45.677  24.651  26.397  1.00  0.00     0.029 A 
ATOM     53  N   UNL A   1      45.220  26.679  27.220  1.00  0.00    -0.354 N 
ATOM     54  C   UNL A   1      41.315  27.583  28.848  1.00  0.00     0.074 A 
ATOM     55  C   UNL A   1      40.444  26.430  28.783  1.00  0.00     0.031 C 
ATOM     56  C   UNL A   1      46.756  25.424  26.185  1.00  0.00     0.029 A 
ATOM     57  C   UNL A   1      46.482  26.770  26.681  1.00  0.00     0.049 A 
ATOM     58  H   UNL A   1      44.769  27.432  27.666  1.00  0.00     0.167 HD
ATOM     59  C   UNL A   1      40.944  28.790  29.336  1.00  0.00     0.034 A 
ATOM     60  C   UNL A   1      47.319  27.821  26.588  1.00  0.00     0.034 A 
ATOM     61  C   UNL A   1      41.829  29.918  29.438  1.00  0.00     0.049 A 
ATOM     62  C   UNL A   1      46.891  29.146  27.161  1.00  0.00     0.074 A 
ATOM     63  C   UNL A   1      41.583  31.156  30.003  1.00  0.00     0.029 A 
ATOM     64  N   UNL A   1      43.128  29.949  28.954  1.00  0.00    -0.354 N 
ATOM     65  N   UNL A   1      45.773  29.459  27.768  1.00  0.00    -0.248 NA
ATOM     66  C   UNL A   1      47.854  30.253  27.067  1.00  0.00     0.031 C 
ATOM     67  C   UNL A   1      42.724  31.947  29.835  1.00  0.00     0.029 A 
ATOM     68  C   UNL A   1      43.692  31.189  29.194  1.00  0.00     0.049 A 
ATOM     69  H   UNL A   1      43.582  29.199  28.506  1.00  0.00     0.167 HD
ATOM     70  C   UNL A   1      45.913  30.784  28.167  1.00  0.00     0.074 A 
ATOM     71  C   UNL A   1      47.231  31.210  27.742  1.00  0.00     0.031 C 
ATOM     72  C   UNL A   1      45.028  31.579  28.816  1.00  0.00     0.034 A 
BRANCH  59  73
ATOM     73  C   UNL A   1      39.532  28.937  29.840  1.00  0.00     0.023 A 
ATOM     74  C   UNL A   1      39.200  28.481  31.133  1.00  0.00     0.012 A 
ATOM     75  C   UNL A   1      38.543  29.560  29.054  1.00  0.00     0.148 A 
ATOM     76  C   UNL A   1      37.899  28.605  31.619  1.00  0.00     0.002 A 
ATOM     77  C   UNL A   1      37.260  29.723  29.564  1.00  0.00     0.091 A 
ATOM     78  F   UNL A   1      38.868  29.967  27.819  1.00  0.00    -0.205 F 
ATOM     79  C   UNL A   1      36.933  29.234  30.839  1.00  0.00     0.022 A 
BRANCH  77  80
ATOM     80  S   UNL A   1      35.968  30.594  28.670  1.00  0.00     0.127 S 
ATOM     81  O   UNL A   1      35.111  29.490  28.239  1.00  0.00    -0.237 OA
ATOM     82  O   UNL A   1      35.390  31.444  29.712  1.00  0.00    -0.237 OA
ATOM     83  O   UNL A   1      36.641  31.320  27.602  1.00  0.00    -0.744 OA
ENDBRANCH  77  80
ENDBRANCH  59  73
BRANCH  60  84
ATOM     84  C   UNL A   1      48.673  27.645  25.991  1.00  0.00     0.023 A 
ATOM     85  C   UNL A   1      49.765  27.368  26.838  1.00  0.00     0.012 A 
ATOM     86  C   UNL A   1      48.885  27.718  24.601  1.00  0.00     0.148 A 
ATOM     87  C   UNL A   1      51.047  27.201  26.316  1.00  0.00     0.002 A 
ATOM     88  C   UNL A   1      50.156  27.497  24.082  1.00  0.00     0.091 A 
ATOM     89  F   UNL A   1      47.836  27.990  23.812  1.00  0.00    -0.205 F 
ATOM     90  C   UNL A   1      51.241  27.257  24.938  1.00  0.00     0.022 A 
BRANCH  88  91
ATOM     91  S   UNL A   1      50.477  27.423  22.315  1.00  0.00     0.127 S 
ATOM     92  O   UNL A   1      50.435  28.835  21.943  1.00  0.00    -0.237 OA
ATOM     93  O   UNL A   1      51.807  26.815  22.275  1.00  0.00    -0.237 OA
ATOM     94  O   UNL A   1      49.421  26.591  21.754  1.00  0.00    -0.744 OA
ENDBRANCH  88  91
ENDBRANCH  60  84
BRANCH  72  95
ATOM     95  C   UNL A   1      45.460  32.980  29.158  1.00  0.00     0.023 A 
ATOM     96  C   UNL A   1      46.211  33.219  30.325  1.00  0.00     0.012 A 
ATOM     97  C   UNL A   1      45.204  34.043  28.268  1.00  0.00     0.148 A 
ATOM     98  C   UNL A   1      46.679  34.501  30.615  1.00  0.00     0.002 A 
ATOM     99  C   UNL A   1      45.717  35.305  28.537  1.00  0.00     0.091 A 
ATOM    100  F   UNL A   1      44.473  33.795  27.171  1.00  0.00    -0.205 F 
ATOM    101  C   UNL A   1      46.444  35.539  29.715  1.00  0.00     0.022 A 
BRANCH  99 102
ATOM    102  S   UNL A   1      45.551  36.678  27.390  1.00  0.00     0.127 S 
ATOM    103  O   UNL A   1      44.130  36.615  27.054  1.00  0.00    -0.237 OA
ATOM    104  O   UNL A   1      45.931  37.821  28.221  1.00  0.00    -0.237 OA
ATOM    105  O   UNL A   1      46.464  36.398  26.290  1.00  0.00    -0.744 OA
ENDBRANCH  99 102
ENDBRANCH  72  95
ENDBRANCH  46  47
ENDBRANCH  38  41
ENDBRANCH  36  37
ENDBRANCH  35  36
ENDBRANCH  34  35
ENDBRANCH  33  34
ENDBRANCH   1  33
TORSDOF 22
ENDMDL
MODEL 2
REMARK VINA RESULT:     -10.7      2.511      7.753
REMARK SMILES COc1ccc(C(=O)Nc2ccccc2C(=O)N[C@@H](C(=O)NCCCCCCNC(=O)c2ccc(-c3c4nc(c(-c5cccc(S(=O)(=O)[O-])c5F)c5ccc([nH]5)c(-c5cccc(S(=O)(=O)[O-])c5F)c5nc(c(-c6cccc(S(=O)(=O)[O-])c6F)c6ccc3[nH]6)C=C5)C=C4)cc2)C(C)C)cc1
REMARK SMILES IDX 24 1 23 2 22 3 20 4 21 5 19 7 18 8 16 9 17 10 15 12 10 13
REMARK SMILES IDX 11 14 12 15 14 16 13 17 9 18 7 19 8 20 6 22 3 23 4 24 99 25
REMARK SMILES IDX 5 26 98 27 2 28 1 29 95 30 96 31 97 32 25 33 26 34 27 35
REMARK SMILES IDX 28 36 29 37 30 38 31 40 32 41 33 42 94 43 34 44 93 45 35 46
REMARK SMILES IDX 36 47 37 48 87 49 38 50 92 51 86 52 88 53 39 54 91 55 85 56
REMARK SMILES IDX 84 57 40 59 72 60 52 61 71 62 53 63 56 64 70 65 89 66 54 67
REMARK SMILES IDX 55 68 69 70 90 71 57 72 41 73 42 74 50 75 43 76 45 77 51 78
REMARK SMILES IDX 44 79 46 80 47 81 48 82 49 83 73 84 74 85 82 86 75 87 77 88
REMARK SMILES IDX 83 89 76 90 78 91 79 92 80 93 81 94 58 95 59 96 67 97 60 98
REMARK SMILES IDX 62 99 68 100 61 101 63 102 64 103 65 104 66 105
REMARK H PARENT 22 6 18 11 9 21 29 39 88 58 56 69
REMARK Flexibility Score: inf
ROOT
ATOM      1  C   UNL A   1      39.047  24.016  27.012  1.00  0.00     0.021 C 
ENDROOT
BRANCH   1   2
ATOM      2  C   UNL A   1      37.778  23.840  26.178  1.00  0.00     0.116 C 
BRANCH   2   3
ATOM      3  N   UNL A   1      37.984  22.792  25.214  1.00  0.00    -0.354 N 
ATOM      4  C   UNL A   1      37.084  21.884  24.766  1.00  0.00     0.242 C 
ATOM      5  O   UNL A   1      37.561  20.806  24.392  1.00  0.00    -0.273 OA
ATOM      6  H   UNL A   1      38.890  22.726  24.835  1.00  0.00     0.163 HD
BRANCH   4   7
ATOM      7  C   UNL A   1      35.547  22.198  24.724  1.00  0.00     0.174 C 
BRANCH   7   8
ATOM      8  N   UNL A   1      35.380  23.614  25.109  1.00  0.00    -0.340 N 
ATOM      9  C   UNL A   1      34.506  24.652  24.798  1.00  0.00     0.254 C 
ATOM     10  O   UNL A   1      34.969  25.777  25.022  1.00  0.00    -0.269 OA
ATOM     11  H   UNL A   1      36.067  23.899  25.756  1.00  0.00     0.164 HD
BRANCH   9  12
ATOM     12  C   UNL A   1      33.112  24.590  24.203  1.00  0.00     0.063 A 
ATOM     13  C   UNL A   1      32.528  25.451  23.263  1.00  0.00     0.054 A 
ATOM     14  C   UNL A   1      31.144  25.394  22.983  1.00  0.00     0.027 A 
ATOM     15  C   UNL A   1      30.367  24.339  23.451  1.00  0.00     0.002 A 
ATOM     16  C   UNL A   1      32.299  23.513  24.640  1.00  0.00     0.016 A 
ATOM     17  C   UNL A   1      30.961  23.366  24.237  1.00  0.00     0.001 A 
BRANCH  13  18
ATOM     18  N   UNL A   1      33.239  26.251  22.361  1.00  0.00    -0.321 N 
ATOM     19  C   UNL A   1      33.591  27.568  22.575  1.00  0.00     0.255 C 
ATOM     20  O   UNL A   1      34.406  28.107  21.829  1.00  0.00    -0.269 OA
ATOM     21  H   UNL A   1      33.508  25.843  21.507  1.00  0.00     0.170 HD
BRANCH  19  22
ATOM     22  C   UNL A   1      33.066  28.324  23.737  1.00  0.00     0.040 A 
ATOM     23  C   UNL A   1      32.010  29.829  25.840  1.00  0.00     0.118 A 
ATOM     24  C   UNL A   1      31.233  29.574  24.725  1.00  0.00     0.047 A 
ATOM     25  C   UNL A   1      33.297  29.287  25.934  1.00  0.00     0.047 A 
ATOM     26  C   UNL A   1      31.777  28.846  23.678  1.00  0.00     0.017 A 
ATOM     27  C   UNL A   1      33.833  28.533  24.879  1.00  0.00     0.017 A 
BRANCH  23  28
ATOM     28  O   UNL A   1      31.401  30.600  26.788  1.00  0.00    -0.497 OA
ATOM     29  C   UNL A   1      31.277  31.967  26.426  1.00  0.00     0.278 C 
ENDBRANCH  23  28
ENDBRANCH  19  22
ENDBRANCH  13  18
ENDBRANCH   9  12
ENDBRANCH   7   8
BRANCH   7  30
ATOM     30  C   UNL A   1      34.925  21.115  25.712  1.00  0.00     0.015 C 
ATOM     31  C   UNL A   1      34.220  21.496  27.009  1.00  0.00     0.010 C 
ATOM     32  C   UNL A   1      33.933  20.241  24.923  1.00  0.00     0.010 C 
ENDBRANCH   7  30
ENDBRANCH   4   7
ENDBRANCH   2   3
ENDBRANCH   1   2
BRANCH   1  33
ATOM     33  C   UNL A   1      40.144  23.013  26.626  1.00  0.00     0.002 C 
BRANCH  33  34
ATOM     34  C   UNL A   1      40.759  22.276  27.820  1.00  0.00     0.002 C 
BRANCH  34  35
ATOM     35  C   UNL A   1      41.068  20.801  27.554  1.00  0.00     0.021 C 
BRANCH  35  36
ATOM     36  C   UNL A   1      41.041  20.426  26.077  1.00  0.00     0.116 C 
BRANCH  36  37
ATOM     37  N   UNL A   1      42.228  19.670  25.697  1.00  0.00    -0.352 N 
ATOM     38  C   UNL A   1      43.470  20.138  25.365  1.00  0.00     0.251 C 
ATOM     39  H   UNL A   1      42.123  18.692  25.678  1.00  0.00     0.163 HD
ATOM     40  O   UNL A   1      44.298  19.391  24.834  1.00  0.00    -0.269 OA
BRANCH  38  41
ATOM     41  C   UNL A   1      43.807  21.545  25.641  1.00  0.00     0.039 A 
ATOM     42  C   UNL A   1      43.498  22.525  24.694  1.00  0.00     0.014 A 
ATOM     43  C   UNL A   1      44.413  21.891  26.851  1.00  0.00     0.014 A 
ATOM     44  C   UNL A   1      43.749  23.866  24.988  1.00  0.00     0.010 A 
ATOM     45  C   UNL A   1      44.592  23.230  27.172  1.00  0.00     0.010 A 
ATOM     46  C   UNL A   1      44.271  24.230  26.240  1.00  0.00    -0.014 A 
BRANCH  46  47
ATOM     47  C   UNL A   1      44.495  25.649  26.608  1.00  0.00     0.031 A 
ATOM     48  C   UNL A   1      45.874  26.241  26.499  1.00  0.00     0.074 A 
ATOM     49  C   UNL A   1      43.487  26.366  27.140  1.00  0.00     0.049 A 
ATOM     50  N   UNL A   1      46.294  27.424  26.861  1.00  0.00    -0.248 NA
ATOM     51  C   UNL A   1      46.926  25.375  25.938  1.00  0.00     0.031 C 
ATOM     52  C   UNL A   1      42.124  25.877  27.358  1.00  0.00     0.029 A 
ATOM     53  N   UNL A   1      43.460  27.650  27.624  1.00  0.00    -0.354 N 
ATOM     54  C   UNL A   1      47.661  27.431  26.614  1.00  0.00     0.074 A 
ATOM     55  C   UNL A   1      48.006  26.123  26.102  1.00  0.00     0.031 C 
ATOM     56  C   UNL A   1      41.393  26.851  27.927  1.00  0.00     0.029 A 
ATOM     57  C   UNL A   1      42.243  28.017  28.148  1.00  0.00     0.049 A 
ATOM     58  H   UNL A   1      44.239  28.251  27.597  1.00  0.00     0.167 HD
ATOM     59  C   UNL A   1      48.545  28.444  26.773  1.00  0.00     0.034 A 
ATOM     60  C   UNL A   1      41.858  29.160  28.747  1.00  0.00     0.034 A 
ATOM     61  C   UNL A   1      48.186  29.755  27.240  1.00  0.00     0.049 A 
ATOM     62  C   UNL A   1      42.855  30.280  28.888  1.00  0.00     0.074 A 
ATOM     63  C   UNL A   1      48.984  30.878  27.347  1.00  0.00     0.029 A 
ATOM     64  N   UNL A   1      46.924  30.114  27.687  1.00  0.00    -0.354 N 
ATOM     65  N   UNL A   1      44.107  30.322  28.503  1.00  0.00    -0.248 NA
ATOM     66  C   UNL A   1      42.378  31.520  29.517  1.00  0.00     0.031 C 
ATOM     67  C   UNL A   1      48.212  31.912  27.887  1.00  0.00     0.029 A 
ATOM     68  C   UNL A   1      46.924  31.439  28.085  1.00  0.00     0.049 A 
ATOM     69  H   UNL A   1      46.143  29.516  27.716  1.00  0.00     0.167 HD
ATOM     70  C   UNL A   1      44.555  31.605  28.801  1.00  0.00     0.074 A 
ATOM     71  C   UNL A   1      43.435  32.311  29.389  1.00  0.00     0.031 C 
ATOM     72  C   UNL A   1      45.784  32.145  28.614  1.00  0.00     0.034 A 
BRANCH  59  73
ATOM     73  C   UNL A   1      49.980  28.184  26.394  1.00  0.00     0.023 A 
ATOM     74  C   UNL A   1      50.381  28.304  25.047  1.00  0.00     0.012 A 
ATOM     75  C   UNL A   1      50.942  27.862  27.372  1.00  0.00     0.148 A 
ATOM     76  C   UNL A   1      51.702  28.067  24.673  1.00  0.00     0.002 A 
ATOM     77  C   UNL A   1      52.267  27.675  26.999  1.00  0.00     0.091 A 
ATOM     78  F   UNL A   1      50.541  27.730  28.644  1.00  0.00    -0.205 F 
ATOM     79  C   UNL A   1      52.646  27.763  25.649  1.00  0.00     0.022 A 
BRANCH  77  80
ATOM     80  S   UNL A   1      53.572  27.361  28.193  1.00  0.00     0.127 S 
ATOM     81  O   UNL A   1      53.011  26.250  28.959  1.00  0.00    -0.237 OA
ATOM     82  O   UNL A   1      54.699  27.000  27.331  1.00  0.00    -0.237 OA
ATOM     83  O   UNL A   1      53.749  28.605  28.928  1.00  0.00    -0.744 OA
ENDBRANCH  77  80
ENDBRANCH  59  73
BRANCH  60  84
ATOM     84  C   UNL A   1      40.447  29.331  29.192  1.00  0.00     0.023 A 
ATOM     85  C   UNL A   1      39.456  29.622  28.234  1.00  0.00     0.012 A 
ATOM     86  C   UNL A   1      40.072  29.178  30.541  1.00  0.00     0.148 A 
ATOM     87  C   UNL A   1      38.124  29.792  28.614  1.00  0.00     0.002 A 
ATOM     88  C   UNL A   1      38.735  29.295  30.906  1.00  0.00     0.091 A 
ATOM     89  F   UNL A   1      41.029  28.908  31.439  1.00  0.00    -0.205 F 
ATOM     90  C   UNL A   1      37.763  29.620  29.948  1.00  0.00     0.022 A 
BRANCH  88  91
ATOM     91  S   UNL A   1      38.158  28.965  32.576  1.00  0.00     0.127 S 
ATOM     92  O   UNL A   1      38.587  27.583  32.775  1.00  0.00    -0.237 OA
ATOM     93  O   UNL A   1      38.899  29.959  33.353  1.00  0.00    -0.237 OA
ATOM     94  O   UNL A   1      36.718  29.181  32.547  1.00  0.00    -0.744 OA
ENDBRANCH  88  91
ENDBRANCH  60  84
BRANCH  72  95
ATOM     95  C   UNL A   1      45.984  33.587  29.002  1.00  0.00     0.023 A 
ATOM     96  C   UNL A   1      46.485  33.909  30.277  1.00  0.00     0.012 A 
ATOM     97  C   UNL A   1      45.766  34.615  28.061  1.00  0.00     0.148 A 
ATOM     98  C   UNL A   1      46.742  35.236  30.621  1.00  0.00     0.002 A 
ATOM     99  C   UNL A   1      46.072  35.928  28.394  1.00  0.00     0.091 A 
ATOM    100  F   UNL A   1      45.272  34.286  26.858  1.00  0.00    -0.205 F 
ATOM    101  C   UNL A   1      46.549  36.242  29.676  1.00  0.00     0.022 A 
BRANCH  99 102
ATOM    102  S   UNL A   1      45.952  37.275  27.211  1.00  0.00     0.127 S 
ATOM    103  O   UNL A   1      44.516  37.306  26.941  1.00  0.00    -0.237 OA
ATOM    104  O   UNL A   1      46.452  38.411  27.987  1.00  0.00    -0.237 OA
ATOM    105  O   UNL A   1      46.790  36.897  26.082  1.00  0.00    -0.744 OA
ENDBRANCH  99 102
ENDBRANCH  72  95
ENDBRANCH  46  47
ENDBRANCH  38  41
ENDBRANCH  36  37
ENDBRANCH  35  36
ENDBRANCH  34  35
ENDBRANCH  33  34
ENDBRANCH   1  33
TORSDOF 22
ENDMDL
MODEL 3
REMARK VINA RESULT:     -10.5      1.941      2.338
REMARK SMILES COc1ccc(C(=O)Nc2ccccc2C(=O)N[C@@H](C(=O)NCCCCCCNC(=O)c2ccc(-c3c4nc(c(-c5cccc(S(=O)(=O)[O-])c5F)c5ccc([nH]5)c(-c5cccc(S(=O)(=O)[O-])c5F)c5nc(c(-c6cccc(S(=O)(=O)[O-])c6F)c6ccc3[nH]6)C=C5)C=C4)cc2)C(C)C)cc1
REMARK SMILES IDX 24 1 23 2 22 3 20 4 21 5 19 7 18 8 16 9 17 10 15 12 10 13
REMARK SMILES IDX 11 14 12 15 14 16 13 17 9 18 7 19 8 20 6 22 3 23 4 24 99 25
REMARK SMILES IDX 5 26 98 27 2 28 1 29 95 30 96 31 97 32 25 33 26 34 27 35
REMARK SMILES IDX 28 36 29 37 30 38 31 40 32 41 33 42 94 43 34 44 93 45 35 46
REMARK SMILES IDX 36 47 37 48 87 49 38 50 92 51 86 52 88 53 39 54 91 55 85 56
REMARK SMILES IDX 84 57 40 59 72 60 52 61 71 62 53 63 56 64 70 65 89 66 54 67
REMARK SMILES IDX 55 68 69 70 90 71 57 72 41 73 42 74 50 75 43 76 45 77 51 78
REMARK SMILES IDX 44 79 46 80 47 81 48 82 49 83 73 84 74 85 82 86 75 87 77 88
REMARK SMILES IDX 83 89 76 90 78 91 79 92 80 93 81 94 58 95 59 96 67 97 60 98
REMARK SMILES IDX 62 99 68 100 61 101 63 102 64 103 65 104 66 105
REMARK H PARENT 22 6 18 11 9 21 29 39 88 58 56 69
REMARK Flexibility Score: inf
ROOT
ATOM      1  C   UNL A   1      37.800  23.125  25.644  1.00  0.00     0.021 C 
ENDROOT
BRANCH   1   2
ATOM      2  C   UNL A   1      36.467  23.786  25.998  1.00  0.00     0.116 C 
BRANCH   2   3
ATOM      3  N   UNL A   1      35.669  22.863  26.761  1.00  0.00    -0.354 N 
ATOM      4  C   UNL A   1      34.327  22.686  26.713  1.00  0.00     0.242 C 
ATOM      5  O   UNL A   1      33.809  22.277  27.759  1.00  0.00    -0.273 OA
ATOM      6  H   UNL A   1      36.158  22.291  27.396  1.00  0.00     0.163 HD
BRANCH   4   7
ATOM      7  C   UNL A   1      33.502  22.978  25.410  1.00  0.00     0.174 C 
BRANCH   7   8
ATOM      8  N   UNL A   1      32.234  23.611  25.829  1.00  0.00    -0.340 N 
ATOM      9  C   UNL A   1      31.795  24.898  26.124  1.00  0.00     0.254 C 
ATOM     10  O   UNL A   1      30.778  24.929  26.827  1.00  0.00    -0.269 OA
ATOM     11  H   UNL A   1      31.511  22.949  25.924  1.00  0.00     0.164 HD
BRANCH   9  12
ATOM     12  C   UNL A   1      32.401  26.234  25.737  1.00  0.00     0.063 A 
ATOM     13  C   UNL A   1      33.069  26.577  24.553  1.00  0.00     0.054 A 
ATOM     14  C   UNL A   1      33.776  27.796  24.441  1.00  0.00     0.027 A 
ATOM     15  C   UNL A   1      33.638  28.788  25.405  1.00  0.00     0.002 A 
ATOM     16  C   UNL A   1      32.259  27.278  26.688  1.00  0.00     0.016 A 
ATOM     17  C   UNL A   1      32.832  28.547  26.505  1.00  0.00     0.001 A 
BRANCH  13  18
ATOM     18  N   UNL A   1      32.920  25.914  23.329  1.00  0.00    -0.321 N 
ATOM     19  C   UNL A   1      32.015  26.257  22.345  1.00  0.00     0.255 C 
ATOM     20  O   UNL A   1      32.121  25.762  21.225  1.00  0.00    -0.269 OA
ATOM     21  H   UNL A   1      33.507  25.143  23.157  1.00  0.00     0.170 HD
BRANCH  19  22
ATOM     22  C   UNL A   1      30.964  27.273  22.590  1.00  0.00     0.040 A 
ATOM     23  C   UNL A   1      28.890  29.091  23.028  1.00  0.00     0.118 A 
ATOM     24  C   UNL A   1      28.758  27.786  23.465  1.00  0.00     0.047 A 
ATOM     25  C   UNL A   1      30.079  29.508  22.420  1.00  0.00     0.047 A 
ATOM     26  C   UNL A   1      29.785  26.888  23.220  1.00  0.00     0.017 A 
ATOM     27  C   UNL A   1      31.123  28.597  22.195  1.00  0.00     0.017 A 
BRANCH  23  28
ATOM     28  O   UNL A   1      27.802  29.880  23.269  1.00  0.00    -0.497 OA
ATOM     29  C   UNL A   1      27.915  31.194  22.742  1.00  0.00     0.278 C 
ENDBRANCH  23  28
ENDBRANCH  19  22
ENDBRANCH  13  18
ENDBRANCH   9  12
ENDBRANCH   7   8
BRANCH   7  30
ATOM     30  C   UNL A   1      33.388  21.547  24.720  1.00  0.00     0.015 C 
ATOM     31  C   UNL A   1      34.421  20.447  24.936  1.00  0.00     0.010 C 
ATOM     32  C   UNL A   1      32.023  20.934  25.082  1.00  0.00     0.010 C 
ENDBRANCH   7  30
ENDBRANCH   4   7
ENDBRANCH   2   3
ENDBRANCH   1   2
BRANCH   1  33
ATOM     33  C   UNL A   1      37.637  21.647  25.261  1.00  0.00     0.002 C 
BRANCH  33  34
ATOM     34  C   UNL A   1      38.944  20.847  25.305  1.00  0.00     0.002 C 
BRANCH  34  35
ATOM     35  C   UNL A   1      39.879  21.240  26.450  1.00  0.00     0.021 C 
BRANCH  35  36
ATOM     36  C   UNL A   1      40.578  20.054  27.106  1.00  0.00     0.116 C 
BRANCH  36  37
ATOM     37  N   UNL A   1      41.660  19.546  26.271  1.00  0.00    -0.352 N 
ATOM     38  C   UNL A   1      42.703  20.232  25.710  1.00  0.00     0.251 C 
ATOM     39  H   UNL A   1      41.637  18.579  26.086  1.00  0.00     0.163 HD
ATOM     40  O   UNL A   1      43.396  19.706  24.834  1.00  0.00    -0.269 OA
BRANCH  38  41
ATOM     41  C   UNL A   1      42.985  21.606  26.158  1.00  0.00     0.039 A 
ATOM     42  C   UNL A   1      43.257  21.847  27.507  1.00  0.00     0.014 A 
ATOM     43  C   UNL A   1      42.998  22.651  25.232  1.00  0.00     0.014 A 
ATOM     44  C   UNL A   1      43.597  23.137  27.917  1.00  0.00     0.010 A 
ATOM     45  C   UNL A   1      43.410  23.916  25.628  1.00  0.00     0.010 A 
ATOM     46  C   UNL A   1      43.705  24.174  26.977  1.00  0.00    -0.014 A 
BRANCH  46  47
ATOM     47  C   UNL A   1      44.122  25.542  27.369  1.00  0.00     0.031 A 
ATOM     48  C   UNL A   1      43.101  26.511  27.899  1.00  0.00     0.074 A 
ATOM     49  C   UNL A   1      45.388  25.941  27.145  1.00  0.00     0.049 A 
ATOM     50  N   UNL A   1      43.243  27.774  28.203  1.00  0.00    -0.248 NA
ATOM     51  C   UNL A   1      41.730  26.000  28.081  1.00  0.00     0.031 C 
ATOM     52  C   UNL A   1      46.449  25.111  26.571  1.00  0.00     0.029 A 
ATOM     53  N   UNL A   1      45.991  27.159  27.344  1.00  0.00    -0.354 N 
ATOM     54  C   UNL A   1      41.979  28.219  28.569  1.00  0.00     0.074 A 
ATOM     55  C   UNL A   1      41.075  27.100  28.417  1.00  0.00     0.031 C 
ATOM     56  C   UNL A   1      47.573  25.841  26.470  1.00  0.00     0.029 A 
ATOM     57  C   UNL A   1      47.303  27.198  26.935  1.00  0.00     0.049 A 
ATOM     58  H   UNL A   1      45.527  27.930  27.742  1.00  0.00     0.167 HD
ATOM     59  C   UNL A   1      41.608  29.442  29.017  1.00  0.00     0.034 A 
ATOM     60  C   UNL A   1      48.186  28.216  26.927  1.00  0.00     0.034 A 
ATOM     61  C   UNL A   1      42.521  30.535  29.208  1.00  0.00     0.049 A 
ATOM     62  C   UNL A   1      47.754  29.558  27.454  1.00  0.00     0.074 A 
ATOM     63  C   UNL A   1      42.267  31.784  29.745  1.00  0.00     0.029 A 
ATOM     64  N   UNL A   1      43.862  30.513  28.857  1.00  0.00    -0.354 N 
ATOM     65  N   UNL A   1      46.593  29.917  27.945  1.00  0.00    -0.248 NA
ATOM     66  C   UNL A   1      48.763  30.627  27.458  1.00  0.00     0.031 C 
ATOM     67  C   UNL A   1      43.450  32.529  29.693  1.00  0.00     0.029 A 
ATOM     68  C   UNL A   1      44.448  31.732  29.153  1.00  0.00     0.049 A 
ATOM     69  H   UNL A   1      44.330  29.745  28.458  1.00  0.00     0.167 HD
ATOM     70  C   UNL A   1      46.743  31.237  28.356  1.00  0.00     0.074 A 
ATOM     71  C   UNL A   1      48.113  31.610  28.067  1.00  0.00     0.031 C 
ATOM     72  C   UNL A   1      45.828  32.068  28.913  1.00  0.00     0.034 A 
BRANCH  59  73
ATOM     73  C   UNL A   1      40.159  29.645  29.375  1.00  0.00     0.023 A 
ATOM     74  C   UNL A   1      39.228  29.971  28.367  1.00  0.00     0.012 A 
ATOM     75  C   UNL A   1      39.709  29.473  30.699  1.00  0.00     0.148 A 
ATOM     76  C   UNL A   1      37.883  30.165  28.677  1.00  0.00     0.002 A 
ATOM     77  C   UNL A   1      38.358  29.621  30.992  1.00  0.00     0.091 A 
ATOM     78  F   UNL A   1      40.609  29.185  31.649  1.00  0.00    -0.205 F 
ATOM     79  C   UNL A   1      37.447  29.981  29.985  1.00  0.00     0.022 A 
BRANCH  77  80
ATOM     80  S   UNL A   1      37.686  29.323  32.630  1.00  0.00     0.127 S 
ATOM     81  O   UNL A   1      38.539  30.173  33.459  1.00  0.00    -0.237 OA
ATOM     82  O   UNL A   1      36.307  29.795  32.490  1.00  0.00    -0.237 OA
ATOM     83  O   UNL A   1      37.814  27.891  32.861  1.00  0.00    -0.744 OA
ENDBRANCH  77  80
ENDBRANCH  59  73
BRANCH  60  84
ATOM     84  C   UNL A   1      49.585  27.986  26.471  1.00  0.00     0.023 A 
ATOM     85  C   UNL A   1      49.870  28.017  25.091  1.00  0.00     0.012 A 
ATOM     86  C   UNL A   1      50.635  27.769  27.383  1.00  0.00     0.148 A 
ATOM     87  C   UNL A   1      51.167  27.803  24.626  1.00  0.00     0.002 A 
ATOM     88  C   UNL A   1      51.936  27.609  26.916  1.00  0.00     0.091 A 
ATOM     89  F   UNL A   1      50.344  27.735  28.690  1.00  0.00    -0.205 F 
ATOM     90  C   UNL A   1      52.201  27.608  25.539  1.00  0.00     0.022 A 
BRANCH  88  91
ATOM     91  S   UNL A   1      53.348  27.480  28.021  1.00  0.00     0.127 S 
ATOM     92  O   UNL A   1      53.024  26.277  28.783  1.00  0.00    -0.237 OA
ATOM     93  O   UNL A   1      54.456  27.331  27.077  1.00  0.00    -0.237 OA
ATOM     94  O   UNL A   1      53.372  28.722  28.781  1.00  0.00    -0.744 OA
ENDBRANCH  88  91
ENDBRANCH  60  84
BRANCH  72  95
ATOM     95  C   UNL A   1      46.279  33.453  29.296  1.00  0.00     0.023 A 
ATOM     96  C   UNL A   1      46.860  33.679  30.559  1.00  0.00     0.012 A 
ATOM     97  C   UNL A   1      46.213  34.508  28.364  1.00  0.00     0.148 A 
ATOM     98  C   UNL A   1      47.346  34.942  30.898  1.00  0.00     0.002 A 
ATOM     99  C   UNL A   1      46.745  35.749  28.689  1.00  0.00     0.091 A 
ATOM    100  F   UNL A   1      45.640  34.274  27.174  1.00  0.00    -0.205 F 
ATOM    101  C   UNL A   1      47.301  35.971  29.959  1.00  0.00     0.022 A 
BRANCH  99 102
ATOM    102  S   UNL A   1      46.823  37.104  27.513  1.00  0.00     0.127 S 
ATOM    103  O   UNL A   1      46.989  38.256  28.396  1.00  0.00    -0.237 OA
ATOM    104  O   UNL A   1      48.009  36.762  26.727  1.00  0.00    -0.237 OA
ATOM    105  O   UNL A   1      45.572  37.065  26.769  1.00  0.00    -0.744 OA
ENDBRANCH  99 102
ENDBRANCH  72  95
ENDBRANCH  46  47
ENDBRANCH  38  41
ENDBRANCH  36  37
ENDBRANCH  35  36
ENDBRANCH  34  35
ENDBRANCH  33  34
ENDBRANCH   1  33
TORSDOF 22
ENDMDL
