MODEL 1
REMARK VINA RESULT:     -11.2      0.000      0.000
REMARK SMILES CCOc1cnc(C(=O)c2[nH]c3cc(Cl)ccc3c2CC(=O)NCCCCCCNC(=O)c2ccc(-c3c4nc(c(-c5cccc(S(=O)(=O)[O-])c5F)c5ccc([nH]5)c(-c5cccc(S(=O)(=O)[O-])c5F)c5nc(c(-c6cccc(S(=O)(=O)[O-])c6F)c6ccc3[nH]6)C=C5)C=C4)cc2)cc1CC
REMARK SMILES IDX 25 1 24 2 23 3 21 4 22 5 20 7 19 8 10 9 11 10 12 11 18 13
REMARK SMILES IDX 13 14 17 15 14 16 16 17 15 18 8 19 9 20 7 21 4 22 5 23 97 24
REMARK SMILES IDX 6 25 96 26 3 27 2 28 1 29 98 30 99 31 26 32 27 33 28 34
REMARK SMILES IDX 29 35 30 36 31 37 32 39 33 40 34 41 95 42 35 43 94 44 36 45
REMARK SMILES IDX 37 46 38 47 88 48 39 49 93 50 87 51 89 52 40 53 92 54 86 55
REMARK SMILES IDX 85 56 41 58 73 59 53 60 72 61 54 62 57 63 71 64 90 65 55 66
REMARK SMILES IDX 56 67 70 69 91 70 58 71 42 72 43 73 51 74 44 75 46 76 52 77
REMARK SMILES IDX 45 78 47 79 48 80 49 81 50 82 74 83 75 84 83 85 76 86 78 87
REMARK SMILES IDX 84 88 77 89 79 90 80 91 81 92 82 93 59 94 60 95 68 96 61 97
REMARK SMILES IDX 63 98 69 99 62 100 64 101 65 102 66 103 67 104
REMARK H PARENT 23 6 11 12 30 38 89 57 57 68
REMARK Flexibility Score: inf
ROOT
ATOM      1  C   UNL A   1      33.876  22.949  22.234  1.00  0.00     0.021 C 
ENDROOT
BRANCH   1   2
ATOM      2  C   UNL A   1      32.790  24.014  22.387  1.00  0.00     0.116 C 
BRANCH   2   3
ATOM      3  N   UNL A   1      33.296  25.346  22.122  1.00  0.00    -0.356 N 
ATOM      4  C   UNL A   1      32.783  26.556  22.490  1.00  0.00     0.224 C 
ATOM      5  O   UNL A   1      33.448  27.565  22.244  1.00  0.00    -0.275 OA
ATOM      6  H   UNL A   1      34.130  25.383  21.601  1.00  0.00     0.163 HD
BRANCH   4   7
ATOM      7  C   UNL A   1      31.496  26.647  23.299  1.00  0.00     0.138 C 
BRANCH   7   8
ATOM      8  C   UNL A   1      31.253  27.977  23.953  1.00  0.00    -0.002 A 
ATOM      9  C   UNL A   1      31.770  28.429  25.162  1.00  0.00     0.093 A 
ATOM     10  N   UNL A   1      31.414  29.755  25.284  1.00  0.00    -0.351 N 
ATOM     11  C   UNL A   1      30.473  30.086  24.341  1.00  0.00     0.048 A 
ATOM     12  H   UNL A   1      31.782  30.375  25.952  1.00  0.00     0.167 HD
ATOM     13  C   UNL A   1      30.350  28.994  23.487  1.00  0.00     0.004 A 
ATOM     14  C   UNL A   1      29.736  31.266  24.178  1.00  0.00     0.047 A 
ATOM     15  C   UNL A   1      29.447  29.088  22.405  1.00  0.00     0.012 A 
ATOM     16  C   UNL A   1      28.844  31.325  23.105  1.00  0.00     0.043 A 
ATOM     17  C   UNL A   1      28.699  30.258  22.224  1.00  0.00     0.021 A 
ATOM     18  Cl  UNL A   1      27.898  32.746  22.878  1.00  0.00    -0.084 Cl
BRANCH   9  19
ATOM     19  C   UNL A   1      32.558  27.709  26.152  1.00  0.00     0.227 C 
ATOM     20  O   UNL A   1      33.250  28.294  26.977  1.00  0.00    -0.285 OA
BRANCH  19  21
ATOM     21  C   UNL A   1      32.476  26.196  26.138  1.00  0.00     0.113 A 
ATOM     22  C   UNL A   1      32.412  23.447  26.273  1.00  0.00     0.140 A 
ATOM     23  C   UNL A   1      33.579  24.167  26.037  1.00  0.00     0.158 A 
ATOM     24  C   UNL A   1      31.228  24.148  26.491  1.00  0.00    -0.002 A 
ATOM     25  N   UNL A   1      33.642  25.520  25.983  1.00  0.00    -0.249 NA
ATOM     26  C   UNL A   1      31.261  25.538  26.337  1.00  0.00     0.040 A 
BRANCH  22  27
ATOM     27  O   UNL A   1      32.458  22.089  26.392  1.00  0.00    -0.492 OA
BRANCH  27  28
ATOM     28  C   UNL A   1      32.114  21.428  25.166  1.00  0.00     0.226 C 
ATOM     29  C   UNL A   1      32.653  20.006  25.174  1.00  0.00     0.049 C 
ENDBRANCH  27  28
ENDBRANCH  22  27
BRANCH  24  30
ATOM     30  C   UNL A   1      29.938  23.478  26.897  1.00  0.00     0.036 C 
ATOM     31  C   UNL A   1      28.750  24.435  26.925  1.00  0.00     0.009 C 
ENDBRANCH  24  30
ENDBRANCH  19  21
ENDBRANCH   9  19
ENDBRANCH   7   8
ENDBRANCH   4   7
ENDBRANCH   2   3
ENDBRANCH   1   2
BRANCH   1  32
ATOM     32  C   UNL A   1      35.127  23.204  23.083  1.00  0.00     0.002 C 
BRANCH  32  33
ATOM     33  C   UNL A   1      35.534  22.054  24.010  1.00  0.00     0.002 C 
BRANCH  33  34
ATOM     34  C   UNL A   1      37.035  21.940  24.284  1.00  0.00     0.021 C 
BRANCH  34  35
ATOM     35  C   UNL A   1      37.414  21.981  25.761  1.00  0.00     0.116 C 
BRANCH  35  36
ATOM     36  N   UNL A   1      38.484  21.043  26.077  1.00  0.00    -0.352 N 
ATOM     37  C   UNL A   1      39.756  21.308  26.524  1.00  0.00     0.251 C 
ATOM     38  H   UNL A   1      38.266  20.091  25.954  1.00  0.00     0.163 HD
ATOM     39  O   UNL A   1      40.602  20.420  26.565  1.00  0.00    -0.269 OA
BRANCH  37  40
ATOM     40  C   UNL A   1      40.101  22.684  26.938  1.00  0.00     0.039 A 
ATOM     41  C   UNL A   1      40.974  22.878  28.012  1.00  0.00     0.014 A 
ATOM     42  C   UNL A   1      39.584  23.777  26.238  1.00  0.00     0.014 A 
ATOM     43  C   UNL A   1      41.387  24.173  28.339  1.00  0.00     0.010 A 
ATOM     44  C   UNL A   1      40.048  25.056  26.521  1.00  0.00     0.010 A 
ATOM     45  C   UNL A   1      40.955  25.268  27.573  1.00  0.00    -0.014 A 
BRANCH  45  46
ATOM     46  C   UNL A   1      41.437  26.648  27.829  1.00  0.00     0.031 A 
ATOM     47  C   UNL A   1      42.848  27.023  27.470  1.00  0.00     0.074 A 
ATOM     48  C   UNL A   1      40.652  27.519  28.492  1.00  0.00     0.049 A 
ATOM     49  N   UNL A   1      43.509  28.117  27.747  1.00  0.00    -0.248 NA
ATOM     50  C   UNL A   1      43.632  26.020  26.729  1.00  0.00     0.031 C 
ATOM     51  C   UNL A   1      39.285  27.253  28.945  1.00  0.00     0.029 A 
ATOM     52  N   UNL A   1      40.906  28.793  28.939  1.00  0.00    -0.354 N 
ATOM     53  C   UNL A   1      44.794  27.917  27.256  1.00  0.00     0.074 A 
ATOM     54  C   UNL A   1      44.829  26.586  26.690  1.00  0.00     0.031 C 
ATOM     55  C   UNL A   1      38.825  28.325  29.610  1.00  0.00     0.029 A 
ATOM     56  C   UNL A   1      39.873  29.339  29.665  1.00  0.00     0.049 A 
ATOM     57  H   UNL A   1      41.748  29.269  28.757  1.00  0.00     0.167 HD
ATOM     58  C   UNL A   1      45.842  28.774  27.255  1.00  0.00     0.034 A 
ATOM     59  C   UNL A   1      39.788  30.515  30.318  1.00  0.00     0.034 A 
ATOM     60  C   UNL A   1      45.788  30.112  27.777  1.00  0.00     0.049 A 
ATOM     61  C   UNL A   1      40.962  31.457  30.283  1.00  0.00     0.074 A 
ATOM     62  C   UNL A   1      46.768  31.086  27.750  1.00  0.00     0.029 A 
ATOM     63  N   UNL A   1      44.692  30.662  28.425  1.00  0.00    -0.354 N 
ATOM     64  N   UNL A   1      42.122  31.308  29.693  1.00  0.00    -0.248 NA
ATOM     65  C   UNL A   1      40.804  32.745  30.978  1.00  0.00     0.031 C 
ATOM     66  C   UNL A   1      46.273  32.221  28.399  1.00  0.00     0.029 A 
ATOM     67  C   UNL A   1      44.974  31.960  28.808  1.00  0.00     0.049 A 
ATOM     68  H   UNL A   1      43.839  30.197  28.588  1.00  0.00     0.167 HD
ATOM     69  C   UNL A   1      42.816  32.493  29.906  1.00  0.00     0.074 A 
ATOM     70  C   UNL A   1      41.942  33.357  30.673  1.00  0.00     0.031 C 
ATOM     71  C   UNL A   1      44.068  32.832  29.512  1.00  0.00     0.034 A 
BRANCH  58  72
ATOM     72  C   UNL A   1      47.126  28.305  26.620  1.00  0.00     0.023 A 
ATOM     73  C   UNL A   1      48.207  27.923  27.440  1.00  0.00     0.012 A 
ATOM     74  C   UNL A   1      47.249  28.197  25.221  1.00  0.00     0.148 A 
ATOM     75  C   UNL A   1      49.403  27.478  26.880  1.00  0.00     0.002 A 
ATOM     76  C   UNL A   1      48.429  27.709  24.670  1.00  0.00     0.091 A 
ATOM     77  F   UNL A   1      46.220  28.585  24.455  1.00  0.00    -0.205 F 
ATOM     78  C   UNL A   1      49.510  27.362  25.497  1.00  0.00     0.022 A 
BRANCH  76  79
ATOM     79  S   UNL A   1      48.636  27.448  22.905  1.00  0.00     0.127 S 
ATOM     80  O   UNL A   1      48.481  25.998  22.801  1.00  0.00    -0.237 OA
ATOM     81  O   UNL A   1      47.528  28.221  22.345  1.00  0.00    -0.237 OA
ATOM     82  O   UNL A   1      49.959  27.961  22.577  1.00  0.00    -0.744 OA
ENDBRANCH  76  79
ENDBRANCH  58  72
BRANCH  59  83
ATOM     83  C   UNL A   1      38.521  30.897  31.005  1.00  0.00     0.023 A 
ATOM     84  C   UNL A   1      38.384  30.645  32.383  1.00  0.00     0.012 A 
ATOM     85  C   UNL A   1      37.468  31.532  30.315  1.00  0.00     0.148 A 
ATOM     86  C   UNL A   1      37.212  30.986  33.059  1.00  0.00     0.002 A 
ATOM     87  C   UNL A   1      36.323  31.918  31.005  1.00  0.00     0.091 A 
ATOM     88  F   UNL A   1      37.611  31.755  29.002  1.00  0.00    -0.205 F 
ATOM     89  C   UNL A   1      36.186  31.631  32.373  1.00  0.00     0.022 A 
BRANCH  87  90
ATOM     90  S   UNL A   1      35.006  32.864  30.234  1.00  0.00     0.127 S 
ATOM     91  O   UNL A   1      34.109  33.104  31.360  1.00  0.00    -0.237 OA
ATOM     92  O   UNL A   1      35.723  34.046  29.753  1.00  0.00    -0.237 OA
ATOM     93  O   UNL A   1      34.478  32.014  29.174  1.00  0.00    -0.744 OA
ENDBRANCH  87  90
ENDBRANCH  59  83
BRANCH  71  94
ATOM     94  C   UNL A   1      44.565  34.213  29.848  1.00  0.00     0.023 A 
ATOM     95  C   UNL A   1      45.345  34.417  31.002  1.00  0.00     0.012 A 
ATOM     96  C   UNL A   1      44.349  35.284  28.957  1.00  0.00     0.148 A 
ATOM     97  C   UNL A   1      45.888  35.671  31.275  1.00  0.00     0.002 A 
ATOM     98  C   UNL A   1      44.933  36.518  29.211  1.00  0.00     0.091 A 
ATOM     99  F   UNL A   1      43.589  35.070  27.874  1.00  0.00    -0.205 F 
ATOM    100  C   UNL A   1      45.695  36.717  30.374  1.00  0.00     0.022 A 
BRANCH  98 101
ATOM    101  S   UNL A   1      44.823  37.894  28.060  1.00  0.00     0.127 S 
ATOM    102  O   UNL A   1      45.445  37.329  26.863  1.00  0.00    -0.237 OA
ATOM    103  O   UNL A   1      43.378  38.096  27.959  1.00  0.00    -0.237 OA
ATOM    104  O   UNL A   1      45.548  38.995  28.677  1.00  0.00    -0.744 OA
ENDBRANCH  98 101
ENDBRANCH  71  94
ENDBRANCH  45  46
ENDBRANCH  37  40
ENDBRANCH  35  36
ENDBRANCH  34  35
ENDBRANCH  33  34
ENDBRANCH  32  33
ENDBRANCH   1  32
TORSDOF 22
ENDMDL
MODEL 2
REMARK VINA RESULT:     -10.9      5.540      9.984
REMARK SMILES CCOc1cnc(C(=O)c2[nH]c3cc(Cl)ccc3c2CC(=O)NCCCCCCNC(=O)c2ccc(-c3c4nc(c(-c5cccc(S(=O)(=O)[O-])c5F)c5ccc([nH]5)c(-c5cccc(S(=O)(=O)[O-])c5F)c5nc(c(-c6cccc(S(=O)(=O)[O-])c6F)c6ccc3[nH]6)C=C5)C=C4)cc2)cc1CC
REMARK SMILES IDX 25 1 24 2 23 3 21 4 22 5 20 7 19 8 10 9 11 10 12 11 18 13
REMARK SMILES IDX 13 14 17 15 14 16 16 17 15 18 8 19 9 20 7 21 4 22 5 23 97 24
REMARK SMILES IDX 6 25 96 26 3 27 2 28 1 29 98 30 99 31 26 32 27 33 28 34
REMARK SMILES IDX 29 35 30 36 31 37 32 39 33 40 34 41 95 42 35 43 94 44 36 45
REMARK SMILES IDX 37 46 38 47 88 48 39 49 93 50 87 51 89 52 40 53 92 54 86 55
REMARK SMILES IDX 85 56 41 58 73 59 53 60 72 61 54 62 57 63 71 64 90 65 55 66
REMARK SMILES IDX 56 67 70 69 91 70 58 71 42 72 43 73 51 74 44 75 46 76 52 77
REMARK SMILES IDX 45 78 47 79 48 80 49 81 50 82 74 83 75 84 83 85 76 86 78 87
REMARK SMILES IDX 84 88 77 89 79 90 80 91 81 92 82 93 59 94 60 95 68 96 61 97
REMARK SMILES IDX 63 98 69 99 62 100 64 101 65 102 66 103 67 104
REMARK H PARENT 23 6 11 12 30 38 89 57 57 68
REMARK Flexibility Score: inf
ROOT
ATOM      1  C   UNL A   1      35.266  29.368  27.128  1.00  0.00     0.021 C 
ENDROOT
BRANCH   1   2
ATOM      2  C   UNL A   1      33.982  29.032  26.369  1.00  0.00     0.116 C 
BRANCH   2   3
ATOM      3  N   UNL A   1      34.251  28.615  25.007  1.00  0.00    -0.356 N 
ATOM      4  C   UNL A   1      33.690  27.601  24.286  1.00  0.00     0.224 C 
ATOM      5  O   UNL A   1      34.000  27.497  23.096  1.00  0.00    -0.275 OA
ATOM      6  H   UNL A   1      34.937  29.138  24.534  1.00  0.00     0.163 HD
BRANCH   4   7
ATOM      7  C   UNL A   1      32.616  26.709  24.894  1.00  0.00     0.138 C 
BRANCH   7   8
ATOM      8  C   UNL A   1      31.257  26.838  24.267  1.00  0.00    -0.002 A 
ATOM      9  C   UNL A   1      30.472  25.819  23.740  1.00  0.00     0.093 A 
ATOM     10  N   UNL A   1      29.250  26.372  23.426  1.00  0.00    -0.351 N 
ATOM     11  C   UNL A   1      29.314  27.741  23.482  1.00  0.00     0.048 A 
ATOM     12  H   UNL A   1      28.444  25.856  23.195  1.00  0.00     0.167 HD
ATOM     13  C   UNL A   1      30.560  28.069  24.010  1.00  0.00     0.004 A 
ATOM     14  C   UNL A   1      28.366  28.705  23.117  1.00  0.00     0.047 A 
ATOM     15  C   UNL A   1      30.873  29.434  24.190  1.00  0.00     0.012 A 
ATOM     16  C   UNL A   1      28.709  30.047  23.298  1.00  0.00     0.043 A 
ATOM     17  C   UNL A   1      29.941  30.414  23.831  1.00  0.00     0.021 A 
ATOM     18  Cl  UNL A   1      27.584  31.268  22.841  1.00  0.00    -0.084 Cl
BRANCH   9  19
ATOM     19  C   UNL A   1      30.800  24.415  23.539  1.00  0.00     0.227 C 
ATOM     20  O   UNL A   1      29.981  23.616  23.103  1.00  0.00    -0.285 OA
BRANCH  19  21
ATOM     21  C   UNL A   1      32.212  23.977  23.876  1.00  0.00     0.113 A 
ATOM     22  C   UNL A   1      34.824  23.359  24.488  1.00  0.00     0.140 A 
ATOM     23  C   UNL A   1      34.428  23.825  23.239  1.00  0.00     0.158 A 
ATOM     24  C   UNL A   1      33.862  23.236  25.490  1.00  0.00    -0.002 A 
ATOM     25  N   UNL A   1      33.154  24.153  22.915  1.00  0.00    -0.249 NA
ATOM     26  C   UNL A   1      32.529  23.474  25.139  1.00  0.00     0.040 A 
BRANCH  22  27
ATOM     27  O   UNL A   1      36.144  23.131  24.749  1.00  0.00    -0.492 OA
BRANCH  27  28
ATOM     28  C   UNL A   1      36.706  24.136  25.605  1.00  0.00     0.226 C 
ATOM     29  C   UNL A   1      38.021  23.645  26.188  1.00  0.00     0.049 C 
ENDBRANCH  27  28
ENDBRANCH  22  27
BRANCH  24  30
ATOM     30  C   UNL A   1      34.201  22.880  26.917  1.00  0.00     0.036 C 
ATOM     31  C   UNL A   1      33.746  21.477  27.307  1.00  0.00     0.009 C 
ENDBRANCH  24  30
ENDBRANCH  19  21
ENDBRANCH   9  19
ENDBRANCH   7   8
ENDBRANCH   4   7
ENDBRANCH   2   3
ENDBRANCH   1   2
BRANCH   1  32
ATOM     32  C   UNL A   1      35.056  30.285  28.339  1.00  0.00     0.002 C 
BRANCH  32  33
ATOM     33  C   UNL A   1      35.297  31.776  28.079  1.00  0.00     0.002 C 
BRANCH  33  34
ATOM     34  C   UNL A   1      34.034  32.637  28.012  1.00  0.00     0.021 C 
BRANCH  34  35
ATOM     35  C   UNL A   1      34.293  34.139  27.972  1.00  0.00     0.116 C 
BRANCH  35  36
ATOM     36  N   UNL A   1      33.480  34.861  28.943  1.00  0.00    -0.352 N 
ATOM     37  C   UNL A   1      33.539  34.816  30.316  1.00  0.00     0.251 C 
ATOM     38  H   UNL A   1      32.796  35.459  28.565  1.00  0.00     0.163 HD
ATOM     39  O   UNL A   1      32.661  35.339  30.995  1.00  0.00    -0.269 OA
BRANCH  37  40
ATOM     40  C   UNL A   1      34.665  34.115  30.965  1.00  0.00     0.039 A 
ATOM     41  C   UNL A   1      34.411  32.974  31.732  1.00  0.00     0.014 A 
ATOM     42  C   UNL A   1      35.973  34.571  30.783  1.00  0.00     0.014 A 
ATOM     43  C   UNL A   1      35.482  32.246  32.259  1.00  0.00     0.010 A 
ATOM     44  C   UNL A   1      37.037  33.808  31.251  1.00  0.00     0.010 A 
ATOM     45  C   UNL A   1      36.803  32.638  31.992  1.00  0.00    -0.014 A 
BRANCH  45  46
ATOM     46  C   UNL A   1      37.970  31.847  32.457  1.00  0.00     0.031 A 
ATOM     47  C   UNL A   1      38.634  32.194  33.761  1.00  0.00     0.074 A 
ATOM     48  C   UNL A   1      38.504  30.907  31.653  1.00  0.00     0.049 A 
ATOM     49  N   UNL A   1      39.747  31.734  34.270  1.00  0.00    -0.248 NA
ATOM     50  C   UNL A   1      37.975  33.220  34.587  1.00  0.00     0.031 C 
ATOM     51  C   UNL A   1      37.986  30.521  30.339  1.00  0.00     0.029 A 
ATOM     52  N   UNL A   1      39.629  30.133  31.805  1.00  0.00    -0.354 N 
ATOM     53  C   UNL A   1      39.945  32.443  35.448  1.00  0.00     0.074 A 
ATOM     54  C   UNL A   1      38.853  33.385  35.566  1.00  0.00     0.031 C 
ATOM     55  C   UNL A   1      38.792  29.590  29.804  1.00  0.00     0.029 A 
ATOM     56  C   UNL A   1      39.904  29.340  30.715  1.00  0.00     0.049 A 
ATOM     57  H   UNL A   1      40.185  30.144  32.618  1.00  0.00     0.167 HD
ATOM     58  C   UNL A   1      40.933  32.305  36.364  1.00  0.00     0.034 A 
ATOM     59  C   UNL A   1      40.946  28.520  30.469  1.00  0.00     0.034 A 
ATOM     60  C   UNL A   1      41.990  31.336  36.265  1.00  0.00     0.049 A 
ATOM     61  C   UNL A   1      42.020  28.370  31.513  1.00  0.00     0.074 A 
ATOM     62  C   UNL A   1      42.992  31.060  37.178  1.00  0.00     0.029 A 
ATOM     63  N   UNL A   1      42.184  30.487  35.187  1.00  0.00    -0.354 N 
ATOM     64  N   UNL A   1      42.116  28.946  32.686  1.00  0.00    -0.248 NA
ATOM     65  C   UNL A   1      43.115  27.434  31.214  1.00  0.00     0.031 C 
ATOM     66  C   UNL A   1      43.804  30.056  36.643  1.00  0.00     0.029 A 
ATOM     67  C   UNL A   1      43.293  29.690  35.407  1.00  0.00     0.049 A 
ATOM     68  H   UNL A   1      41.617  30.455  34.383  1.00  0.00     0.167 HD
ATOM     69  C   UNL A   1      43.253  28.413  33.283  1.00  0.00     0.074 A 
ATOM     70  C   UNL A   1      43.808  27.459  32.345  1.00  0.00     0.031 C 
ATOM     71  C   UNL A   1      43.794  28.695  34.493  1.00  0.00     0.034 A 
BRANCH  58  72
ATOM     72  C   UNL A   1      40.886  33.191  37.581  1.00  0.00     0.023 A 
ATOM     73  C   UNL A   1      40.026  32.860  38.649  1.00  0.00     0.012 A 
ATOM     74  C   UNL A   1      41.721  34.320  37.693  1.00  0.00     0.148 A 
ATOM     75  C   UNL A   1      39.969  33.656  39.791  1.00  0.00     0.002 A 
ATOM     76  C   UNL A   1      41.691  35.085  38.854  1.00  0.00     0.091 A 
ATOM     77  F   UNL A   1      42.516  34.635  36.661  1.00  0.00    -0.205 F 
ATOM     78  C   UNL A   1      40.807  34.763  39.897  1.00  0.00     0.022 A 
BRANCH  76  79
ATOM     79  S   UNL A   1      42.788  36.483  39.120  1.00  0.00     0.127 S 
ATOM     80  O   UNL A   1      42.324  36.980  40.414  1.00  0.00    -0.237 OA
ATOM     81  O   UNL A   1      44.103  35.843  39.148  1.00  0.00    -0.237 OA
ATOM     82  O   UNL A   1      42.576  37.378  37.991  1.00  0.00    -0.744 OA
ENDBRANCH  76  79
ENDBRANCH  58  72
BRANCH  59  83
ATOM     83  C   UNL A   1      40.988  27.726  29.208  1.00  0.00     0.023 A 
ATOM     84  C   UNL A   1      40.167  26.589  29.086  1.00  0.00     0.012 A 
ATOM     85  C   UNL A   1      41.808  28.101  28.125  1.00  0.00     0.148 A 
ATOM     86  C   UNL A   1      40.182  25.819  27.922  1.00  0.00     0.002 A 
ATOM     87  C   UNL A   1      41.779  27.360  26.947  1.00  0.00     0.091 A 
ATOM     88  F   UNL A   1      42.590  29.180  28.263  1.00  0.00    -0.205 F 
ATOM     89  C   UNL A   1      40.980  26.210  26.850  1.00  0.00     0.022 A 
BRANCH  87  90
ATOM     90  S   UNL A   1      42.675  27.859  25.473  1.00  0.00     0.127 S 
ATOM     91  O   UNL A   1      42.537  26.679  24.624  1.00  0.00    -0.237 OA
ATOM     92  O   UNL A   1      41.912  29.028  25.034  1.00  0.00    -0.237 OA
ATOM     93  O   UNL A   1      44.029  28.163  25.918  1.00  0.00    -0.744 OA
ENDBRANCH  87  90
ENDBRANCH  59  83
BRANCH  71  94
ATOM     94  C   UNL A   1      45.023  27.933  34.913  1.00  0.00     0.023 A 
ATOM     95  C   UNL A   1      46.295  28.367  34.493  1.00  0.00     0.012 A 
ATOM     96  C   UNL A   1      44.918  26.855  35.813  1.00  0.00     0.148 A 
ATOM     97  C   UNL A   1      47.446  27.726  34.950  1.00  0.00     0.002 A 
ATOM     98  C   UNL A   1      46.071  26.252  36.302  1.00  0.00     0.091 A 
ATOM     99  F   UNL A   1      43.696  26.450  36.186  1.00  0.00    -0.205 F 
ATOM    100  C   UNL A   1      47.335  26.679  35.864  1.00  0.00     0.022 A 
BRANCH  98 101
ATOM    101  S   UNL A   1      46.031  24.966  37.556  1.00  0.00     0.127 S 
ATOM    102  O   UNL A   1      46.990  23.999  37.020  1.00  0.00    -0.237 OA
ATOM    103  O   UNL A   1      46.488  25.682  38.746  1.00  0.00    -0.237 OA
ATOM    104  O   UNL A   1      44.652  24.504  37.618  1.00  0.00    -0.744 OA
ENDBRANCH  98 101
ENDBRANCH  71  94
ENDBRANCH  45  46
ENDBRANCH  37  40
ENDBRANCH  35  36
ENDBRANCH  34  35
ENDBRANCH  33  34
ENDBRANCH  32  33
ENDBRANCH   1  32
TORSDOF 22
ENDMDL
MODEL 3
REMARK VINA RESULT:     -10.8      2.373      7.372
REMARK SMILES CCOc1cnc(C(=O)c2[nH]c3cc(Cl)ccc3c2CC(=O)NCCCCCCNC(=O)c2ccc(-c3c4nc(c(-c5cccc(S(=O)(=O)[O-])c5F)c5ccc([nH]5)c(-c5cccc(S(=O)(=O)[O-])c5F)c5nc(c(-c6cccc(S(=O)(=O)[O-])c6F)c6ccc3[nH]6)C=C5)C=C4)cc2)cc1CC
REMARK SMILES IDX 25 1 24 2 23 3 21 4 22 5 20 7 19 8 10 9 11 10 12 11 18 13
REMARK SMILES IDX 13 14 17 15 14 16 16 17 15 18 8 19 9 20 7 21 4 22 5 23 97 24
REMARK SMILES IDX 6 25 96 26 3 27 2 28 1 29 98 30 99 31 26 32 27 33 28 34
REMARK SMILES IDX 29 35 30 36 31 37 32 39 33 40 34 41 95 42 35 43 94 44 36 45
REMARK SMILES IDX 37 46 38 47 88 48 39 49 93 50 87 51 89 52 40 53 92 54 86 55
REMARK SMILES IDX 85 56 41 58 73 59 53 60 72 61 54 62 57 63 71 64 90 65 55 66
REMARK SMILES IDX 56 67 70 69 91 70 58 71 42 72 43 73 51 74 44 75 46 76 52 77
REMARK SMILES IDX 45 78 47 79 48 80 49 81 50 82 74 83 75 84 83 85 76 86 78 87
REMARK SMILES IDX 84 88 77 89 79 90 80 91 81 92 82 93 59 94 60 95 68 96 61 97
REMARK SMILES IDX 63 98 69 99 62 100 64 101 65 102 66 103 67 104
REMARK H PARENT 23 6 11 12 30 38 89 57 57 68
REMARK Flexibility Score: inf
ROOT
ATOM      1  C   UNL A   1      34.741  23.261  23.156  1.00  0.00     0.021 C 
ENDROOT
BRANCH   1   2
ATOM      2  C   UNL A   1      33.523  24.129  22.840  1.00  0.00     0.116 C 
BRANCH   2   3
ATOM      3  N   UNL A   1      33.903  25.422  22.306  1.00  0.00    -0.356 N 
ATOM      4  C   UNL A   1      33.166  26.566  22.200  1.00  0.00     0.224 C 
ATOM      5  O   UNL A   1      33.736  27.588  21.809  1.00  0.00    -0.275 OA
ATOM      6  H   UNL A   1      34.826  25.485  21.972  1.00  0.00     0.163 HD
BRANCH   4   7
ATOM      7  C   UNL A   1      31.721  26.612  22.678  1.00  0.00     0.138 C 
BRANCH   7   8
ATOM      8  C   UNL A   1      31.363  27.820  23.496  1.00  0.00    -0.002 A 
ATOM      9  C   UNL A   1      31.703  28.072  24.821  1.00  0.00     0.093 A 
ATOM     10  N   UNL A   1      31.306  29.361  25.103  1.00  0.00    -0.351 N 
ATOM     11  C   UNL A   1      30.494  29.841  24.105  1.00  0.00     0.048 A 
ATOM     12  H   UNL A   1      31.567  29.865  25.906  1.00  0.00     0.167 HD
ATOM     13  C   UNL A   1      30.511  28.900  23.079  1.00  0.00     0.004 A 
ATOM     14  C   UNL A   1      29.761  31.032  24.033  1.00  0.00     0.047 A 
ATOM     15  C   UNL A   1      29.760  29.168  21.913  1.00  0.00     0.012 A 
ATOM     16  C   UNL A   1      29.021  31.263  22.871  1.00  0.00     0.043 A 
ATOM     17  C   UNL A   1      29.020  30.352  21.820  1.00  0.00     0.021 A 
ATOM     18  Cl  UNL A   1      28.086  32.704  22.747  1.00  0.00    -0.084 Cl
BRANCH   9  19
ATOM     19  C   UNL A   1      32.365  27.201  25.782  1.00  0.00     0.227 C 
ATOM     20  O   UNL A   1      33.417  27.518  26.324  1.00  0.00    -0.285 OA
BRANCH  19  21
ATOM     21  C   UNL A   1      31.688  25.883  26.106  1.00  0.00     0.113 A 
ATOM     22  C   UNL A   1      30.399  23.487  26.520  1.00  0.00     0.140 A 
ATOM     23  C   UNL A   1      29.724  24.694  26.367  1.00  0.00     0.158 A 
ATOM     24  C   UNL A   1      31.789  23.482  26.419  1.00  0.00    -0.002 A 
ATOM     25  N   UNL A   1      30.332  25.884  26.145  1.00  0.00    -0.249 NA
ATOM     26  C   UNL A   1      32.433  24.718  26.292  1.00  0.00     0.040 A 
BRANCH  22  27
ATOM     27  O   UNL A   1      29.700  22.323  26.658  1.00  0.00    -0.492 OA
BRANCH  27  28
ATOM     28  C   UNL A   1      28.810  22.359  27.783  1.00  0.00     0.226 C 
ATOM     29  C   UNL A   1      27.534  21.598  27.460  1.00  0.00     0.049 C 
ENDBRANCH  27  28
ENDBRANCH  22  27
BRANCH  24  30
ATOM     30  C   UNL A   1      32.610  22.215  26.424  1.00  0.00     0.036 C 
ATOM     31  C   UNL A   1      33.455  22.056  27.685  1.00  0.00     0.009 C 
ENDBRANCH  24  30
ENDBRANCH  19  21
ENDBRANCH   9  19
ENDBRANCH   7   8
ENDBRANCH   4   7
ENDBRANCH   2   3
ENDBRANCH   1   2
BRANCH   1  32
ATOM     32  C   UNL A   1      35.330  23.494  24.552  1.00  0.00     0.002 C 
BRANCH  32  33
ATOM     33  C   UNL A   1      36.788  23.056  24.728  1.00  0.00     0.002 C 
BRANCH  33  34
ATOM     34  C   UNL A   1      37.650  23.994  25.576  1.00  0.00     0.021 C 
BRANCH  34  35
ATOM     35  C   UNL A   1      38.239  23.352  26.828  1.00  0.00     0.116 C 
BRANCH  35  36
ATOM     36  N   UNL A   1      39.325  22.433  26.512  1.00  0.00    -0.352 N 
ATOM     37  C   UNL A   1      40.677  22.681  26.471  1.00  0.00     0.251 C 
ATOM     38  H   UNL A   1      39.055  21.511  26.299  1.00  0.00     0.163 HD
ATOM     39  O   UNL A   1      41.450  21.850  26.004  1.00  0.00    -0.269 OA
BRANCH  37  40
ATOM     40  C   UNL A   1      41.188  23.970  26.980  1.00  0.00     0.039 A 
ATOM     41  C   UNL A   1      41.163  25.094  26.149  1.00  0.00     0.014 A 
ATOM     42  C   UNL A   1      41.658  24.068  28.292  1.00  0.00     0.014 A 
ATOM     43  C   UNL A   1      41.545  26.337  26.660  1.00  0.00     0.010 A 
ATOM     44  C   UNL A   1      41.972  25.316  28.817  1.00  0.00     0.010 A 
ATOM     45  C   UNL A   1      41.918  26.463  28.008  1.00  0.00    -0.014 A 
BRANCH  45  46
ATOM     46  C   UNL A   1      42.245  27.777  28.616  1.00  0.00     0.031 A 
ATOM     47  C   UNL A   1      41.137  28.670  29.103  1.00  0.00     0.074 A 
ATOM     48  C   UNL A   1      43.519  28.217  28.615  1.00  0.00     0.049 A 
ATOM     49  N   UNL A   1      41.196  29.908  29.520  1.00  0.00    -0.248 NA
ATOM     50  C   UNL A   1      39.777  28.106  29.088  1.00  0.00     0.031 C 
ATOM     51  C   UNL A   1      44.673  27.467  28.116  1.00  0.00     0.029 A 
ATOM     52  N   UNL A   1      44.051  29.420  29.009  1.00  0.00    -0.354 N 
ATOM     53  C   UNL A   1      39.882  30.284  29.773  1.00  0.00     0.074 A 
ATOM     54  C   UNL A   1      39.045  29.154  29.436  1.00  0.00     0.031 C 
ATOM     55  C   UNL A   1      45.774  28.228  28.228  1.00  0.00     0.029 A 
ATOM     56  C   UNL A   1      45.401  29.531  28.769  1.00  0.00     0.049 A 
ATOM     57  H   UNL A   1      43.517  30.135  29.425  1.00  0.00     0.167 HD
ATOM     58  C   UNL A   1      39.417  31.456  30.266  1.00  0.00     0.034 A 
ATOM     59  C   UNL A   1      46.239  30.572  28.945  1.00  0.00     0.034 A 
ATOM     60  C   UNL A   1      40.258  32.559  30.643  1.00  0.00     0.049 A 
ATOM     61  C   UNL A   1      45.699  31.857  29.514  1.00  0.00     0.074 A 
ATOM     62  C   UNL A   1      39.893  33.758  31.228  1.00  0.00     0.029 A 
ATOM     63  N   UNL A   1      41.632  32.600  30.469  1.00  0.00    -0.354 N 
ATOM     64  N   UNL A   1      44.475  32.147  29.879  1.00  0.00    -0.248 NA
ATOM     65  C   UNL A   1      46.662  32.950  29.724  1.00  0.00     0.031 C 
ATOM     66  C   UNL A   1      41.045  34.533  31.390  1.00  0.00     0.029 A 
ATOM     67  C   UNL A   1      42.131  33.805  30.929  1.00  0.00     0.049 A 
ATOM     68  H   UNL A   1      42.174  31.877  30.076  1.00  0.00     0.167 HD
ATOM     69  C   UNL A   1      44.525  33.434  30.402  1.00  0.00     0.074 A 
ATOM     70  C   UNL A   1      45.905  33.866  30.314  1.00  0.00     0.031 C 
ATOM     71  C   UNL A   1      43.518  34.194  30.898  1.00  0.00     0.034 A 
BRANCH  58  72
ATOM     72  C   UNL A   1      37.931  31.585  30.475  1.00  0.00     0.023 A 
ATOM     73  C   UNL A   1      37.386  31.343  31.753  1.00  0.00     0.012 A 
ATOM     74  C   UNL A   1      37.080  31.989  29.428  1.00  0.00     0.148 A 
ATOM     75  C   UNL A   1      36.016  31.464  31.978  1.00  0.00     0.002 A 
ATOM     76  C   UNL A   1      35.720  32.151  29.670  1.00  0.00     0.091 A 
ATOM     77  F   UNL A   1      37.610  32.194  28.214  1.00  0.00    -0.205 F 
ATOM     78  C   UNL A   1      35.186  31.876  30.939  1.00  0.00     0.022 A 
BRANCH  76  79
ATOM     79  S   UNL A   1      34.580  32.755  28.419  1.00  0.00     0.127 S 
ATOM     80  O   UNL A   1      34.117  31.507  27.815  1.00  0.00    -0.237 OA
ATOM     81  O   UNL A   1      33.577  33.451  29.225  1.00  0.00    -0.237 OA
ATOM     82  O   UNL A   1      35.364  33.620  27.548  1.00  0.00    -0.744 OA
ENDBRANCH  76  79
ENDBRANCH  58  72
BRANCH  59  83
ATOM     83  C   UNL A   1      47.692  30.420  28.643  1.00  0.00     0.023 A 
ATOM     84  C   UNL A   1      48.174  30.813  27.380  1.00  0.00     0.012 A 
ATOM     85  C   UNL A   1      48.598  29.921  29.599  1.00  0.00     0.148 A 
ATOM     86  C   UNL A   1      49.526  30.684  27.060  1.00  0.00     0.002 A 
ATOM     87  C   UNL A   1      49.953  29.844  29.293  1.00  0.00     0.091 A 
ATOM     88  F   UNL A   1      48.120  29.542  30.792  1.00  0.00    -0.205 F 
ATOM     89  C   UNL A   1      50.417  30.208  28.019  1.00  0.00     0.022 A 
BRANCH  87  90
ATOM     90  S   UNL A   1      51.189  29.363  30.505  1.00  0.00     0.127 S 
ATOM     91  O   UNL A   1      50.973  30.349  31.561  1.00  0.00    -0.237 OA
ATOM     92  O   UNL A   1      50.773  28.000  30.838  1.00  0.00    -0.237 OA
ATOM     93  O   UNL A   1      52.470  29.445  29.816  1.00  0.00    -0.744 OA
ENDBRANCH  87  90
ENDBRANCH  59  83
BRANCH  71  94
ATOM     94  C   UNL A   1      43.862  35.556  31.441  1.00  0.00     0.023 A 
ATOM     95  C   UNL A   1      44.321  35.688  32.766  1.00  0.00     0.012 A 
ATOM     96  C   UNL A   1      43.835  36.685  30.599  1.00  0.00     0.148 A 
ATOM     97  C   UNL A   1      44.730  36.929  33.251  1.00  0.00     0.002 A 
ATOM     98  C   UNL A   1      44.289  37.909  31.074  1.00  0.00     0.091 A 
ATOM     99  F   UNL A   1      43.379  36.538  29.347  1.00  0.00    -0.205 F 
ATOM    100  C   UNL A   1      44.728  38.035  32.403  1.00  0.00     0.022 A 
BRANCH  98 101
ATOM    101  S   UNL A   1      44.418  39.364  30.029  1.00  0.00     0.127 S 
ATOM    102  O   UNL A   1      45.042  40.327  30.936  1.00  0.00    -0.237 OA
ATOM    103  O   UNL A   1      45.286  38.892  28.949  1.00  0.00    -0.237 OA
ATOM    104  O   UNL A   1      43.060  39.688  29.617  1.00  0.00    -0.744 OA
ENDBRANCH  98 101
ENDBRANCH  71  94
ENDBRANCH  45  46
ENDBRANCH  37  40
ENDBRANCH  35  36
ENDBRANCH  34  35
ENDBRANCH  33  34
ENDBRANCH  32  33
ENDBRANCH   1  32
TORSDOF 22
ENDMDL
