MODEL 1
REMARK VINA RESULT:     -10.3      0.000      0.000
REMARK SMILES O=C(CNC(=O)CNC(=O)OCc1ccccc1)NCCCCCCNC(=O)c1ccc(-c2c3nc(c(-c4cccc(S(=O)(=O)[O-])c4F)c4ccc([nH]4)c(-c4cccc(S(=O)(=O)[O-])c4F)c4nc(c(-c5cccc(S(=O)(=O)[O-])c5F)c5ccc2[nH]5)C=C4)C=C3)cc1
REMARK SMILES IDX 21 1 20 2 19 3 1 4 2 5 3 7 4 8 5 9 6 11 7 12 8 13 9 14 10 16
REMARK SMILES IDX 11 17 12 18 13 19 14 20 18 21 15 22 17 23 16 24 22 25 23 26
REMARK SMILES IDX 24 27 25 28 26 29 27 30 28 32 29 33 30 34 91 35 31 36 90 37
REMARK SMILES IDX 32 38 33 39 34 40 84 41 35 42 89 43 83 44 85 45 36 46 88 47
REMARK SMILES IDX 82 48 81 49 37 51 69 52 49 53 68 54 50 55 53 56 67 57 86 58
REMARK SMILES IDX 51 59 52 60 66 62 87 63 54 64 38 65 39 66 47 67 40 68 42 69
REMARK SMILES IDX 48 70 41 71 43 72 44 73 45 74 46 75 70 76 71 77 79 78 72 79
REMARK SMILES IDX 74 80 80 81 73 82 75 83 76 84 77 85 78 86 55 87 56 88 64 89
REMARK SMILES IDX 57 90 59 91 65 92 58 93 60 94 61 95 62 96 63 97
REMARK H PARENT 19 6 4 10 8 15 26 31 85 50 53 61
REMARK Flexibility Score: inf
ROOT
ATOM      1  C   UNL A   1      33.616  27.853  25.902  1.00  0.00     0.021 C 
ENDROOT
BRANCH   1   2
ATOM      2  C   UNL A   1      33.936  27.876  24.406  1.00  0.00     0.116 C 
BRANCH   2   3
ATOM      3  N   UNL A   1      33.350  26.761  23.682  1.00  0.00    -0.355 N 
ATOM      4  O   UNL A   1      34.024  27.436  21.591  1.00  0.00    -0.273 OA
ATOM      5  C   UNL A   1      33.480  26.610  22.320  1.00  0.00     0.239 C 
ATOM      6  H   UNL A   1      32.841  26.087  24.186  1.00  0.00     0.163 HD
BRANCH   5   7
ATOM      7  C   UNL A   1      32.804  25.365  21.728  1.00  0.00     0.216 C 
BRANCH   7   8
ATOM      8  N   UNL A   1      32.970  24.143  22.505  1.00  0.00    -0.346 N 
ATOM      9  C   UNL A   1      32.044  23.448  23.227  1.00  0.00     0.239 C 
ATOM     10  H   UNL A   1      33.879  23.766  22.511  1.00  0.00     0.164 HD
ATOM     11  O   UNL A   1      32.387  22.388  23.752  1.00  0.00    -0.273 OA
BRANCH   9  12
ATOM     12  C   UNL A   1      30.629  24.001  23.403  1.00  0.00     0.219 C 
BRANCH  12  13
ATOM     13  N   UNL A   1      30.575  24.721  24.658  1.00  0.00    -0.312 N 
ATOM     14  C   UNL A   1      30.125  25.987  24.853  1.00  0.00     0.407 C 
ATOM     15  H   UNL A   1      30.898  24.242  25.455  1.00  0.00     0.167 HD
ATOM     16  O   UNL A   1      30.374  26.576  25.899  1.00  0.00    -0.225 OA
BRANCH  14  17
ATOM     17  O   UNL A   1      29.449  26.496  23.798  1.00  0.00    -0.445 OA
BRANCH  17  18
ATOM     18  C   UNL A   1      30.092  27.592  23.127  1.00  0.00     0.270 C 
BRANCH  18  19
ATOM     19  C   UNL A   1      29.317  28.886  23.216  1.00  0.00    -0.011 A 
ATOM     20  C   UNL A   1      28.004  28.982  22.739  1.00  0.00     0.007 A 
ATOM     21  C   UNL A   1      29.908  30.019  23.796  1.00  0.00     0.007 A 
ATOM     22  C   UNL A   1      27.304  30.188  22.837  1.00  0.00     0.000 A 
ATOM     23  C   UNL A   1      29.203  31.215  23.910  1.00  0.00     0.000 A 
ATOM     24  C   UNL A   1      27.901  31.301  23.427  1.00  0.00     0.000 A 
ENDBRANCH  18  19
ENDBRANCH  17  18
ENDBRANCH  14  17
ENDBRANCH  12  13
ENDBRANCH   9  12
ENDBRANCH   7   8
ENDBRANCH   5   7
ENDBRANCH   2   3
ENDBRANCH   1   2
BRANCH   1  25
ATOM     25  C   UNL A   1      34.427  28.838  26.754  1.00  0.00     0.002 C 
BRANCH  25  26
ATOM     26  C   UNL A   1      33.643  29.639  27.795  1.00  0.00     0.002 C 
BRANCH  26  27
ATOM     27  C   UNL A   1      32.469  30.459  27.259  1.00  0.00     0.021 C 
BRANCH  27  28
ATOM     28  C   UNL A   1      32.837  31.586  26.299  1.00  0.00     0.116 C 
BRANCH  28  29
ATOM     29  N   UNL A   1      32.434  32.898  26.788  1.00  0.00    -0.352 N 
ATOM     30  C   UNL A   1      32.930  33.636  27.836  1.00  0.00     0.251 C 
ATOM     31  H   UNL A   1      31.696  33.320  26.291  1.00  0.00     0.163 HD
ATOM     32  O   UNL A   1      32.356  34.665  28.183  1.00  0.00    -0.269 OA
BRANCH  30  33
ATOM     33  C   UNL A   1      34.138  33.186  28.566  1.00  0.00     0.039 A 
ATOM     34  C   UNL A   1      33.992  32.653  29.850  1.00  0.00     0.014 A 
ATOM     35  C   UNL A   1      35.410  33.294  27.997  1.00  0.00     0.014 A 
ATOM     36  C   UNL A   1      35.111  32.165  30.534  1.00  0.00     0.010 A 
ATOM     37  C   UNL A   1      36.513  32.746  28.650  1.00  0.00     0.010 A 
ATOM     38  C   UNL A   1      36.376  32.174  29.924  1.00  0.00    -0.014 A 
BRANCH  38  39
ATOM     39  C   UNL A   1      37.559  31.567  30.589  1.00  0.00     0.031 A 
ATOM     40  C   UNL A   1      38.367  30.505  29.892  1.00  0.00     0.074 A 
ATOM     41  C   UNL A   1      37.850  31.902  31.862  1.00  0.00     0.049 A 
ATOM     42  N   UNL A   1      39.389  29.822  30.338  1.00  0.00    -0.248 NA
ATOM     43  C   UNL A   1      37.958  30.145  28.524  1.00  0.00     0.031 C 
ATOM     44  C   UNL A   1      37.095  32.855  32.678  1.00  0.00     0.029 A 
ATOM     45  N   UNL A   1      38.839  31.456  32.704  1.00  0.00    -0.354 N 
ATOM     46  C   UNL A   1      39.722  28.928  29.326  1.00  0.00     0.074 A 
ATOM     47  C   UNL A   1      38.774  29.137  28.253  1.00  0.00     0.031 C 
ATOM     48  C   UNL A   1      37.647  32.921  33.900  1.00  0.00     0.029 A 
ATOM     49  C   UNL A   1      38.777  32.001  33.965  1.00  0.00     0.049 A 
ATOM     50  H   UNL A   1      39.527  30.808  32.430  1.00  0.00     0.167 HD
ATOM     51  C   UNL A   1      40.741  28.036  29.281  1.00  0.00     0.034 A 
ATOM     52  C   UNL A   1      39.539  31.780  35.055  1.00  0.00     0.034 A 
ATOM     53  C   UNL A   1      41.712  27.865  30.328  1.00  0.00     0.049 A 
ATOM     54  C   UNL A   1      40.695  30.822  34.960  1.00  0.00     0.074 A 
ATOM     55  C   UNL A   1      42.836  27.057  30.334  1.00  0.00     0.029 A 
ATOM     56  N   UNL A   1      41.674  28.506  31.555  1.00  0.00    -0.354 N 
ATOM     57  N   UNL A   1      41.095  30.111  33.934  1.00  0.00    -0.248 NA
ATOM     58  C   UNL A   1      41.528  30.662  36.161  1.00  0.00     0.031 C 
ATOM     59  C   UNL A   1      43.469  27.198  31.573  1.00  0.00     0.029 A 
ATOM     60  C   UNL A   1      42.750  28.109  32.331  1.00  0.00     0.049 A 
ATOM     61  H   UNL A   1      40.985  29.151  31.835  1.00  0.00     0.167 HD
ATOM     62  C   UNL A   1      42.244  29.449  34.352  1.00  0.00     0.074 A 
ATOM     63  C   UNL A   1      42.488  29.860  35.719  1.00  0.00     0.031 C 
ATOM     64  C   UNL A   1      43.016  28.567  33.670  1.00  0.00     0.034 A 
BRANCH  51  65
ATOM     65  C   UNL A   1      40.897  27.217  28.025  1.00  0.00     0.023 A 
ATOM     66  C   UNL A   1      41.392  27.831  26.857  1.00  0.00     0.012 A 
ATOM     67  C   UNL A   1      40.620  25.835  28.017  1.00  0.00     0.148 A 
ATOM     68  C   UNL A   1      41.576  27.092  25.688  1.00  0.00     0.002 A 
ATOM     69  C   UNL A   1      40.847  25.097  26.861  1.00  0.00     0.091 A 
ATOM     70  F   UNL A   1      40.132  25.273  29.130  1.00  0.00    -0.205 F 
ATOM     71  C   UNL A   1      41.314  25.725  25.694  1.00  0.00     0.022 A 
BRANCH  69  72
ATOM     72  S   UNL A   1      40.614  23.317  26.787  1.00  0.00     0.127 S 
ATOM     73  O   UNL A   1      39.262  23.218  26.238  1.00  0.00    -0.237 OA
ATOM     74  O   UNL A   1      41.676  22.903  25.870  1.00  0.00    -0.237 OA
ATOM     75  O   UNL A   1      40.773  22.836  28.152  1.00  0.00    -0.744 OA
ENDBRANCH  69  72
ENDBRANCH  51  65
BRANCH  52  76
ATOM     76  C   UNL A   1      39.278  32.541  36.310  1.00  0.00     0.023 A 
ATOM     77  C   UNL A   1      39.888  33.797  36.492  1.00  0.00     0.012 A 
ATOM     78  C   UNL A   1      38.410  32.048  37.304  1.00  0.00     0.148 A 
ATOM     79  C   UNL A   1      39.662  34.536  37.654  1.00  0.00     0.002 A 
ATOM     80  C   UNL A   1      38.146  32.814  38.433  1.00  0.00     0.091 A 
ATOM     81  F   UNL A   1      37.850  30.845  37.118  1.00  0.00    -0.205 F 
ATOM     82  C   UNL A   1      38.783  34.051  38.619  1.00  0.00     0.022 A 
BRANCH  80  83
ATOM     83  S   UNL A   1      36.929  32.327  39.662  1.00  0.00     0.127 S 
ATOM     84  O   UNL A   1      37.085  33.371  40.670  1.00  0.00    -0.237 OA
ATOM     85  O   UNL A   1      35.683  32.391  38.897  1.00  0.00    -0.237 OA
ATOM     86  O   UNL A   1      37.307  30.982  40.074  1.00  0.00    -0.744 OA
ENDBRANCH  80  83
ENDBRANCH  52  76
BRANCH  64  87
ATOM     87  C   UNL A   1      44.221  28.002  34.376  1.00  0.00     0.023 A 
ATOM     88  C   UNL A   1      45.454  28.679  34.303  1.00  0.00     0.012 A 
ATOM     89  C   UNL A   1      44.115  26.845  35.173  1.00  0.00     0.148 A 
ATOM     90  C   UNL A   1      46.569  28.199  34.987  1.00  0.00     0.002 A 
ATOM     91  C   UNL A   1      45.217  26.397  35.889  1.00  0.00     0.091 A 
ATOM     92  F   UNL A   1      42.937  26.203  35.214  1.00  0.00    -0.205 F 
ATOM     93  C   UNL A   1      46.448  27.066  35.789  1.00  0.00     0.022 A 
BRANCH  91  94
ATOM     94  S   UNL A   1      45.129  25.003  37.019  1.00  0.00     0.127 S 
ATOM     95  O   UNL A   1      44.714  23.922  36.128  1.00  0.00    -0.237 OA
ATOM     96  O   UNL A   1      46.508  24.902  37.500  1.00  0.00    -0.237 OA
ATOM     97  O   UNL A   1      44.161  25.379  38.042  1.00  0.00    -0.744 OA
ENDBRANCH  91  94
ENDBRANCH  64  87
ENDBRANCH  38  39
ENDBRANCH  30  33
ENDBRANCH  28  29
ENDBRANCH  27  28
ENDBRANCH  26  27
ENDBRANCH  25  26
ENDBRANCH   1  25
TORSDOF 22
ENDMDL
MODEL 2
REMARK VINA RESULT:     -10.0      6.641     10.043
REMARK SMILES O=C(CNC(=O)CNC(=O)OCc1ccccc1)NCCCCCCNC(=O)c1ccc(-c2c3nc(c(-c4cccc(S(=O)(=O)[O-])c4F)c4ccc([nH]4)c(-c4cccc(S(=O)(=O)[O-])c4F)c4nc(c(-c5cccc(S(=O)(=O)[O-])c5F)c5ccc2[nH]5)C=C4)C=C3)cc1
REMARK SMILES IDX 21 1 20 2 19 3 1 4 2 5 3 7 4 8 5 9 6 11 7 12 8 13 9 14 10 16
REMARK SMILES IDX 11 17 12 18 13 19 14 20 18 21 15 22 17 23 16 24 22 25 23 26
REMARK SMILES IDX 24 27 25 28 26 29 27 30 28 32 29 33 30 34 91 35 31 36 90 37
REMARK SMILES IDX 32 38 33 39 34 40 84 41 35 42 89 43 83 44 85 45 36 46 88 47
REMARK SMILES IDX 82 48 81 49 37 51 69 52 49 53 68 54 50 55 53 56 67 57 86 58
REMARK SMILES IDX 51 59 52 60 66 62 87 63 54 64 38 65 39 66 47 67 40 68 42 69
REMARK SMILES IDX 48 70 41 71 43 72 44 73 45 74 46 75 70 76 71 77 79 78 72 79
REMARK SMILES IDX 74 80 80 81 73 82 75 83 76 84 77 85 78 86 55 87 56 88 64 89
REMARK SMILES IDX 57 90 59 91 65 92 58 93 60 94 61 95 62 96 63 97
REMARK H PARENT 19 6 4 10 8 15 26 31 85 50 53 61
REMARK Flexibility Score: inf
ROOT
ATOM      1  C   UNL A   1      39.535  23.058  26.670  1.00  0.00     0.021 C 
ENDROOT
BRANCH   1   2
ATOM      2  C   UNL A   1      38.464  22.201  25.994  1.00  0.00     0.116 C 
BRANCH   2   3
ATOM      3  N   UNL A   1      37.187  22.882  25.865  1.00  0.00    -0.355 N 
ATOM      4  O   UNL A   1      35.919  20.989  25.569  1.00  0.00    -0.273 OA
ATOM      5  C   UNL A   1      35.998  22.207  25.702  1.00  0.00     0.239 C 
ATOM      6  H   UNL A   1      37.172  23.865  25.896  1.00  0.00     0.163 HD
BRANCH   5   7
ATOM      7  C   UNL A   1      34.749  23.092  25.595  1.00  0.00     0.216 C 
BRANCH   7   8
ATOM      8  N   UNL A   1      33.588  22.451  24.987  1.00  0.00    -0.346 N 
ATOM      9  C   UNL A   1      33.168  22.481  23.690  1.00  0.00     0.239 C 
ATOM     10  H   UNL A   1      33.028  21.924  25.600  1.00  0.00     0.164 HD
ATOM     11  O   UNL A   1      32.191  21.800  23.375  1.00  0.00    -0.273 OA
BRANCH   9  12
ATOM     12  C   UNL A   1      33.879  23.371  22.669  1.00  0.00     0.219 C 
BRANCH  12  13
ATOM     13  N   UNL A   1      32.877  23.985  21.824  1.00  0.00    -0.312 N 
ATOM     14  C   UNL A   1      32.765  25.303  21.518  1.00  0.00     0.407 C 
ATOM     15  H   UNL A   1      32.205  23.384  21.430  1.00  0.00     0.167 HD
ATOM     16  O   UNL A   1      31.733  25.734  21.017  1.00  0.00    -0.225 OA
BRANCH  14  17
ATOM     17  O   UNL A   1      33.850  26.037  21.853  1.00  0.00    -0.445 OA
BRANCH  17  18
ATOM     18  C   UNL A   1      33.569  27.335  22.400  1.00  0.00     0.270 C 
BRANCH  18  19
ATOM     19  C   UNL A   1      33.106  27.292  23.837  1.00  0.00    -0.011 A 
ATOM     20  C   UNL A   1      33.813  26.571  24.808  1.00  0.00     0.007 A 
ATOM     21  C   UNL A   1      31.953  27.992  24.224  1.00  0.00     0.007 A 
ATOM     22  C   UNL A   1      33.369  26.550  26.133  1.00  0.00     0.000 A 
ATOM     23  C   UNL A   1      31.522  27.986  25.550  1.00  0.00     0.000 A 
ATOM     24  C   UNL A   1      32.228  27.261  26.504  1.00  0.00     0.000 A 
ENDBRANCH  18  19
ENDBRANCH  17  18
ENDBRANCH  14  17
ENDBRANCH  12  13
ENDBRANCH   9  12
ENDBRANCH   7   8
ENDBRANCH   5   7
ENDBRANCH   2   3
ENDBRANCH   1   2
BRANCH   1  25
ATOM     25  C   UNL A   1      40.914  22.397  26.791  1.00  0.00     0.002 C 
BRANCH  25  26
ATOM     26  C   UNL A   1      41.038  21.270  27.818  1.00  0.00     0.002 C 
BRANCH  26  27
ATOM     27  C   UNL A   1      41.669  19.973  27.312  1.00  0.00     0.021 C 
BRANCH  27  28
ATOM     28  C   UNL A   1      41.682  19.796  25.796  1.00  0.00     0.116 C 
BRANCH  28  29
ATOM     29  N   UNL A   1      42.983  19.385  25.286  1.00  0.00    -0.352 N 
ATOM     30  C   UNL A   1      44.114  20.132  25.062  1.00  0.00     0.251 C 
ATOM     31  H   UNL A   1      43.063  18.428  25.070  1.00  0.00     0.163 HD
ATOM     32  O   UNL A   1      45.075  19.627  24.487  1.00  0.00    -0.269 OA
BRANCH  30  33
ATOM     33  C   UNL A   1      44.175  21.550  25.488  1.00  0.00     0.039 A 
ATOM     34  C   UNL A   1      44.597  21.848  26.788  1.00  0.00     0.014 A 
ATOM     35  C   UNL A   1      43.811  22.583  24.620  1.00  0.00     0.014 A 
ATOM     36  C   UNL A   1      44.721  23.181  27.192  1.00  0.00     0.010 A 
ATOM     37  C   UNL A   1      44.000  23.911  25.002  1.00  0.00     0.010 A 
ATOM     38  C   UNL A   1      44.458  24.224  26.290  1.00  0.00    -0.014 A 
BRANCH  38  39
ATOM     39  C   UNL A   1      44.683  25.646  26.665  1.00  0.00     0.031 A 
ATOM     40  C   UNL A   1      46.057  26.252  26.575  1.00  0.00     0.074 A 
ATOM     41  C   UNL A   1      43.666  26.365  27.182  1.00  0.00     0.049 A 
ATOM     42  N   UNL A   1      46.453  27.451  26.915  1.00  0.00    -0.248 NA
ATOM     43  C   UNL A   1      47.134  25.392  26.057  1.00  0.00     0.031 C 
ATOM     44  C   UNL A   1      42.306  25.868  27.401  1.00  0.00     0.029 A 
ATOM     45  N   UNL A   1      43.625  27.657  27.645  1.00  0.00    -0.354 N 
ATOM     46  C   UNL A   1      47.825  27.479  26.691  1.00  0.00     0.074 A 
ATOM     47  C   UNL A   1      48.198  26.167  26.210  1.00  0.00     0.031 C 
ATOM     48  C   UNL A   1      41.566  26.842  27.956  1.00  0.00     0.029 A 
ATOM     49  C   UNL A   1      42.401  28.022  28.156  1.00  0.00     0.049 A 
ATOM     50  H   UNL A   1      44.399  28.264  27.615  1.00  0.00     0.167 HD
ATOM     51  C   UNL A   1      48.690  28.511  26.841  1.00  0.00     0.034 A 
ATOM     52  C   UNL A   1      41.996  29.174  28.726  1.00  0.00     0.034 A 
ATOM     53  C   UNL A   1      48.308  29.830  27.271  1.00  0.00     0.049 A 
ATOM     54  C   UNL A   1      42.965  30.320  28.833  1.00  0.00     0.074 A 
ATOM     55  C   UNL A   1      49.094  30.966  27.362  1.00  0.00     0.029 A 
ATOM     56  N   UNL A   1      47.037  30.190  27.687  1.00  0.00    -0.354 N 
ATOM     57  N   UNL A   1      44.219  30.378  28.455  1.00  0.00    -0.248 NA
ATOM     58  C   UNL A   1      42.454  31.572  29.412  1.00  0.00     0.031 C 
ATOM     59  C   UNL A   1      48.301  32.009  27.848  1.00  0.00     0.029 A 
ATOM     60  C   UNL A   1      47.016  31.527  28.042  1.00  0.00     0.049 A 
ATOM     61  H   UNL A   1      46.262  29.584  27.724  1.00  0.00     0.167 HD
ATOM     62  C   UNL A   1      44.637  31.678  28.716  1.00  0.00     0.074 A 
ATOM     63  C   UNL A   1      43.495  32.381  29.264  1.00  0.00     0.031 C 
ATOM     64  C   UNL A   1      45.860  32.233  28.534  1.00  0.00     0.034 A 
BRANCH  51  65
ATOM     65  C   UNL A   1      50.132  28.273  26.475  1.00  0.00     0.023 A 
ATOM     66  C   UNL A   1      50.534  28.398  25.130  1.00  0.00     0.012 A 
ATOM     67  C   UNL A   1      51.098  27.991  27.462  1.00  0.00     0.148 A 
ATOM     68  C   UNL A   1      51.867  28.213  24.765  1.00  0.00     0.002 A 
ATOM     69  C   UNL A   1      52.432  27.850  27.096  1.00  0.00     0.091 A 
ATOM     70  F   UNL A   1      50.696  27.854  28.732  1.00  0.00    -0.205 F 
ATOM     71  C   UNL A   1      52.816  27.950  25.748  1.00  0.00     0.022 A 
BRANCH  69  72
ATOM     72  S   UNL A   1      53.743  27.586  28.296  1.00  0.00     0.127 S 
ATOM     73  O   UNL A   1      53.354  26.304  28.882  1.00  0.00    -0.237 OA
ATOM     74  O   UNL A   1      54.933  27.532  27.448  1.00  0.00    -0.237 OA
ATOM     75  O   UNL A   1      53.694  28.728  29.199  1.00  0.00    -0.744 OA
ENDBRANCH  69  72
ENDBRANCH  51  65
BRANCH  52  76
ATOM     76  C   UNL A   1      40.581  29.325  29.169  1.00  0.00     0.023 A 
ATOM     77  C   UNL A   1      39.587  29.612  28.214  1.00  0.00     0.012 A 
ATOM     78  C   UNL A   1      40.209  29.156  30.518  1.00  0.00     0.148 A 
ATOM     79  C   UNL A   1      38.253  29.757  28.595  1.00  0.00     0.002 A 
ATOM     80  C   UNL A   1      38.870  29.247  30.882  1.00  0.00     0.091 A 
ATOM     81  F   UNL A   1      41.170  28.897  31.414  1.00  0.00    -0.205 F 
ATOM     82  C   UNL A   1      37.892  29.564  29.926  1.00  0.00     0.022 A 
BRANCH  80  83
ATOM     83  S   UNL A   1      38.301  28.884  32.547  1.00  0.00     0.127 S 
ATOM     84  O   UNL A   1      38.873  29.991  33.308  1.00  0.00    -0.237 OA
ATOM     85  O   UNL A   1      36.847  28.931  32.388  1.00  0.00    -0.237 OA
ATOM     86  O   UNL A   1      38.824  27.560  32.859  1.00  0.00    -0.744 OA
ENDBRANCH  80  83
ENDBRANCH  52  76
BRANCH  64  87
ATOM     87  C   UNL A   1      46.030  33.684  28.900  1.00  0.00     0.023 A 
ATOM     88  C   UNL A   1      46.532  34.030  30.169  1.00  0.00     0.012 A 
ATOM     89  C   UNL A   1      45.768  34.701  27.960  1.00  0.00     0.148 A 
ATOM     90  C   UNL A   1      46.742  35.366  30.510  1.00  0.00     0.002 A 
ATOM     91  C   UNL A   1      46.023  36.027  28.289  1.00  0.00     0.091 A 
ATOM     92  F   UNL A   1      45.273  34.353  26.763  1.00  0.00    -0.205 F 
ATOM     93  C   UNL A   1      46.499  36.362  29.567  1.00  0.00     0.022 A 
BRANCH  91  94
ATOM     94  S   UNL A   1      45.829  37.365  27.107  1.00  0.00     0.127 S 
ATOM     95  O   UNL A   1      46.674  36.914  26.003  1.00  0.00    -0.237 OA
ATOM     96  O   UNL A   1      44.393  37.331  26.827  1.00  0.00    -0.237 OA
ATOM     97  O   UNL A   1      46.281  38.570  27.790  1.00  0.00    -0.744 OA
ENDBRANCH  91  94
ENDBRANCH  64  87
ENDBRANCH  38  39
ENDBRANCH  30  33
ENDBRANCH  28  29
ENDBRANCH  27  28
ENDBRANCH  26  27
ENDBRANCH  25  26
ENDBRANCH   1  25
TORSDOF 22
ENDMDL
MODEL 3
REMARK VINA RESULT:      -9.8      7.326     10.816
REMARK SMILES O=C(CNC(=O)CNC(=O)OCc1ccccc1)NCCCCCCNC(=O)c1ccc(-c2c3nc(c(-c4cccc(S(=O)(=O)[O-])c4F)c4ccc([nH]4)c(-c4cccc(S(=O)(=O)[O-])c4F)c4nc(c(-c5cccc(S(=O)(=O)[O-])c5F)c5ccc2[nH]5)C=C4)C=C3)cc1
REMARK SMILES IDX 21 1 20 2 19 3 1 4 2 5 3 7 4 8 5 9 6 11 7 12 8 13 9 14 10 16
REMARK SMILES IDX 11 17 12 18 13 19 14 20 18 21 15 22 17 23 16 24 22 25 23 26
REMARK SMILES IDX 24 27 25 28 26 29 27 30 28 32 29 33 30 34 91 35 31 36 90 37
REMARK SMILES IDX 32 38 33 39 34 40 84 41 35 42 89 43 83 44 85 45 36 46 88 47
REMARK SMILES IDX 82 48 81 49 37 51 69 52 49 53 68 54 50 55 53 56 67 57 86 58
REMARK SMILES IDX 51 59 52 60 66 62 87 63 54 64 38 65 39 66 47 67 40 68 42 69
REMARK SMILES IDX 48 70 41 71 43 72 44 73 45 74 46 75 70 76 71 77 79 78 72 79
REMARK SMILES IDX 74 80 80 81 73 82 75 83 76 84 77 85 78 86 55 87 56 88 64 89
REMARK SMILES IDX 57 90 59 91 65 92 58 93 60 94 61 95 62 96 63 97
REMARK H PARENT 19 6 4 10 8 15 26 31 85 50 53 61
REMARK Flexibility Score: inf
ROOT
ATOM      1  C   UNL A   1      34.108  31.675  27.685  1.00  0.00     0.021 C 
ENDROOT
BRANCH   1   2
ATOM      2  C   UNL A   1      34.106  30.159  27.483  1.00  0.00     0.116 C 
BRANCH   2   3
ATOM      3  N   UNL A   1      34.075  29.771  26.084  1.00  0.00    -0.355 N 
ATOM      4  O   UNL A   1      31.819  29.349  25.988  1.00  0.00    -0.273 OA
ATOM      5  C   UNL A   1      32.911  29.433  25.432  1.00  0.00     0.239 C 
ATOM      6  H   UNL A   1      34.921  29.750  25.581  1.00  0.00     0.163 HD
BRANCH   5   7
ATOM      7  C   UNL A   1      33.069  29.061  23.951  1.00  0.00     0.216 C 
BRANCH   7   8
ATOM      8  N   UNL A   1      31.955  29.447  23.094  1.00  0.00    -0.346 N 
ATOM      9  C   UNL A   1      31.009  28.662  22.502  1.00  0.00     0.239 C 
ATOM     10  H   UNL A   1      31.873  30.412  22.917  1.00  0.00     0.164 HD
ATOM     11  O   UNL A   1      30.104  29.209  21.872  1.00  0.00    -0.273 OA
BRANCH   9  12
ATOM     12  C   UNL A   1      31.105  27.138  22.595  1.00  0.00     0.219 C 
BRANCH  12  13
ATOM     13  N   UNL A   1      31.716  26.645  21.379  1.00  0.00    -0.312 N 
ATOM     14  C   UNL A   1      32.435  25.502  21.233  1.00  0.00     0.407 C 
ATOM     15  H   UNL A   1      31.599  27.196  20.572  1.00  0.00     0.167 HD
ATOM     16  O   UNL A   1      33.119  25.328  20.230  1.00  0.00    -0.225 OA
BRANCH  14  17
ATOM     17  O   UNL A   1      32.338  24.657  22.284  1.00  0.00    -0.445 OA
BRANCH  17  18
ATOM     18  C   UNL A   1      33.589  24.219  22.837  1.00  0.00     0.270 C 
BRANCH  18  19
ATOM     19  C   UNL A   1      33.535  22.822  23.409  1.00  0.00    -0.011 A 
ATOM     20  C   UNL A   1      32.464  21.964  23.132  1.00  0.00     0.007 A 
ATOM     21  C   UNL A   1      34.576  22.358  24.228  1.00  0.00     0.007 A 
ATOM     22  C   UNL A   1      32.437  20.673  23.667  1.00  0.00     0.000 A 
ATOM     23  C   UNL A   1      34.558  21.064  24.746  1.00  0.00     0.000 A 
ATOM     24  C   UNL A   1      33.486  20.222  24.468  1.00  0.00     0.000 A 
ENDBRANCH  18  19
ENDBRANCH  17  18
ENDBRANCH  14  17
ENDBRANCH  12  13
ENDBRANCH   9  12
ENDBRANCH   7   8
ENDBRANCH   5   7
ENDBRANCH   2   3
ENDBRANCH   1   2
BRANCH   1  25
ATOM     25  C   UNL A   1      35.493  32.298  27.908  1.00  0.00     0.002 C 
BRANCH  25  26
ATOM     26  C   UNL A   1      35.762  32.869  29.301  1.00  0.00     0.002 C 
BRANCH  26  27
ATOM     27  C   UNL A   1      34.947  32.259  30.441  1.00  0.00     0.021 C 
BRANCH  27  28
ATOM     28  C   UNL A   1      35.647  32.209  31.796  1.00  0.00     0.116 C 
BRANCH  28  29
ATOM     29  N   UNL A   1      35.905  30.849  32.250  1.00  0.00    -0.352 N 
ATOM     30  C   UNL A   1      37.029  30.072  32.102  1.00  0.00     0.251 C 
ATOM     31  H   UNL A   1      35.162  30.423  32.736  1.00  0.00     0.163 HD
ATOM     32  O   UNL A   1      37.000  28.889  32.431  1.00  0.00    -0.269 OA
BRANCH  30  33
ATOM     33  C   UNL A   1      38.268  30.646  31.527  1.00  0.00     0.039 A 
ATOM     34  C   UNL A   1      39.228  31.183  32.390  1.00  0.00     0.014 A 
ATOM     35  C   UNL A   1      38.484  30.665  30.146  1.00  0.00     0.014 A 
ATOM     36  C   UNL A   1      40.432  31.673  31.874  1.00  0.00     0.010 A 
ATOM     37  C   UNL A   1      39.711  31.091  29.640  1.00  0.00     0.010 A 
ATOM     38  C   UNL A   1      40.699  31.598  30.497  1.00  0.00    -0.014 A 
BRANCH  38  39
ATOM     39  C   UNL A   1      42.012  32.018  29.940  1.00  0.00     0.031 A 
ATOM     40  C   UNL A   1      42.274  33.461  29.602  1.00  0.00     0.074 A 
ATOM     41  C   UNL A   1      42.938  31.082  29.646  1.00  0.00     0.049 A 
ATOM     42  N   UNL A   1      43.332  34.000  29.054  1.00  0.00    -0.248 NA
ATOM     43  C   UNL A   1      41.197  34.421  29.895  1.00  0.00     0.031 C 
ATOM     44  C   UNL A   1      42.775  29.641  29.846  1.00  0.00     0.029 A 
ATOM     45  N   UNL A   1      44.187  31.200  29.087  1.00  0.00    -0.354 N 
ATOM     46  C   UNL A   1      43.037  35.350  28.901  1.00  0.00     0.074 A 
ATOM     47  C   UNL A   1      41.689  35.543  29.389  1.00  0.00     0.031 C 
ATOM     48  C   UNL A   1      43.880  29.009  29.416  1.00  0.00     0.029 A 
ATOM     49  C   UNL A   1      44.818  29.994  28.889  1.00  0.00     0.049 A 
ATOM     50  H   UNL A   1      44.591  32.066  28.851  1.00  0.00     0.167 HD
ATOM     51  C   UNL A   1      43.826  36.344  28.427  1.00  0.00     0.034 A 
ATOM     52  C   UNL A   1      46.016  29.711  28.338  1.00  0.00     0.034 A 
ATOM     53  C   UNL A   1      45.184  36.159  27.989  1.00  0.00     0.049 A 
ATOM     54  C   UNL A   1      46.892  30.840  27.867  1.00  0.00     0.074 A 
ATOM     55  C   UNL A   1      46.094  37.119  27.582  1.00  0.00     0.029 A 
ATOM     56  N   UNL A   1      45.825  34.935  27.894  1.00  0.00    -0.354 N 
ATOM     57  N   UNL A   1      46.659  32.129  27.889  1.00  0.00    -0.248 NA
ATOM     58  C   UNL A   1      48.211  30.477  27.327  1.00  0.00     0.031 C 
ATOM     59  C   UNL A   1      47.282  36.473  27.227  1.00  0.00     0.029 A 
ATOM     60  C   UNL A   1      47.117  35.112  27.429  1.00  0.00     0.049 A 
ATOM     61  H   UNL A   1      45.422  34.067  28.123  1.00  0.00     0.167 HD
ATOM     62  C   UNL A   1      47.812  32.735  27.402  1.00  0.00     0.074 A 
ATOM     63  C   UNL A   1      48.751  31.670  27.113  1.00  0.00     0.031 C 
ATOM     64  C   UNL A   1      48.064  34.051  27.198  1.00  0.00     0.034 A 
BRANCH  51  65
ATOM     65  C   UNL A   1      43.260  37.741  28.417  1.00  0.00     0.023 A 
ATOM     66  C   UNL A   1      42.481  38.163  27.321  1.00  0.00     0.012 A 
ATOM     67  C   UNL A   1      43.442  38.610  29.511  1.00  0.00     0.148 A 
ATOM     68  C   UNL A   1      41.919  39.439  27.296  1.00  0.00     0.002 A 
ATOM     69  C   UNL A   1      42.843  39.864  29.498  1.00  0.00     0.091 A 
ATOM     70  F   UNL A   1      44.203  38.200  30.535  1.00  0.00    -0.205 F 
ATOM     71  C   UNL A   1      42.091  40.284  28.388  1.00  0.00     0.022 A 
BRANCH  69  72
ATOM     72  S   UNL A   1      42.940  40.998  30.888  1.00  0.00     0.127 S 
ATOM     73  O   UNL A   1      41.844  41.921  30.595  1.00  0.00    -0.237 OA
ATOM     74  O   UNL A   1      42.702  40.112  32.028  1.00  0.00    -0.237 OA
ATOM     75  O   UNL A   1      44.276  41.576  30.840  1.00  0.00    -0.744 OA
ENDBRANCH  69  72
ENDBRANCH  51  65
BRANCH  52  76
ATOM     76  C   UNL A   1      46.488  28.299  28.275  1.00  0.00     0.023 A 
ATOM     77  C   UNL A   1      47.211  27.766  29.360  1.00  0.00     0.012 A 
ATOM     78  C   UNL A   1      46.200  27.473  27.170  1.00  0.00     0.148 A 
ATOM     79  C   UNL A   1      47.665  26.447  29.334  1.00  0.00     0.002 A 
ATOM     80  C   UNL A   1      46.608  26.145  27.175  1.00  0.00     0.091 A 
ATOM     81  F   UNL A   1      45.523  28.003  26.142  1.00  0.00    -0.205 F 
ATOM     82  C   UNL A   1      47.355  25.633  28.247  1.00  0.00     0.022 A 
BRANCH  80  83
ATOM     83  S   UNL A   1      46.138  24.991  25.879  1.00  0.00     0.127 S 
ATOM     84  O   UNL A   1      46.648  25.658  24.684  1.00  0.00    -0.237 OA
ATOM     85  O   UNL A   1      46.867  23.784  26.269  1.00  0.00    -0.237 OA
ATOM     86  O   UNL A   1      44.689  24.869  25.971  1.00  0.00    -0.744 OA
ENDBRANCH  80  83
ENDBRANCH  52  76
BRANCH  64  87
ATOM     87  C   UNL A   1      49.419  34.429  26.661  1.00  0.00     0.023 A 
ATOM     88  C   UNL A   1      49.598  34.604  25.275  1.00  0.00     0.012 A 
ATOM     89  C   UNL A   1      50.495  34.685  27.535  1.00  0.00     0.148 A 
ATOM     90  C   UNL A   1      50.833  35.000  24.763  1.00  0.00     0.002 A 
ATOM     91  C   UNL A   1      51.710  35.124  27.022  1.00  0.00     0.091 A 
ATOM     92  F   UNL A   1      50.311  34.494  28.849  1.00  0.00    -0.205 F 
ATOM     93  C   UNL A   1      51.884  35.271  25.637  1.00  0.00     0.022 A 
BRANCH  91  94
ATOM     94  S   UNL A   1      53.088  35.587  28.078  1.00  0.00     0.127 S 
ATOM     95  O   UNL A   1      54.164  35.764  27.104  1.00  0.00    -0.237 OA
ATOM     96  O   UNL A   1      52.610  36.828  28.690  1.00  0.00    -0.237 OA
ATOM     97  O   UNL A   1      53.263  34.484  29.013  1.00  0.00    -0.744 OA
ENDBRANCH  91  94
ENDBRANCH  64  87
ENDBRANCH  38  39
ENDBRANCH  30  33
ENDBRANCH  28  29
ENDBRANCH  27  28
ENDBRANCH  26  27
ENDBRANCH  25  26
ENDBRANCH   1  25
TORSDOF 22
ENDMDL
