MODEL 1
REMARK VINA RESULT:     -11.8      0.000      0.000
REMARK SMILES CC1(C)CCC[C@@]1(CC(=O)NCCCCCCNC(=O)c1ccc(-c2c3nc(c(-c4cccc(S(=O)(=O)[O-])c4F)c4ccc([nH]4)c(-c4cccc(S(=O)(=O)[O-])c4F)c4nc(c(-c5cccc(S(=O)(=O)[O-])c5F)c5ccc2[nH]5)C=C4)C=C3)cc1)[NH+]1CCCCC1
REMARK SMILES IDX 15 1 14 2 13 3 12 4 11 5 9 6 10 7 8 9 7 10 1 11 2 12 3 13
REMARK SMILES IDX 4 14 5 15 6 16 84 17 85 18 89 19 86 21 88 22 87 23 16 24
REMARK SMILES IDX 17 25 18 26 19 27 20 29 21 30 22 31 83 32 23 33 82 34 24 35
REMARK SMILES IDX 25 36 26 37 76 38 27 39 81 40 75 41 77 42 28 43 80 44 74 45
REMARK SMILES IDX 73 46 29 48 61 49 41 50 60 51 42 52 45 53 59 54 78 55 43 56
REMARK SMILES IDX 44 57 58 59 79 60 46 61 30 62 31 63 39 64 32 65 34 66 40 67
REMARK SMILES IDX 33 68 35 69 36 70 37 71 38 72 62 73 63 74 71 75 64 76 66 77
REMARK SMILES IDX 72 78 65 79 67 80 68 81 69 82 70 83 47 84 48 85 56 86 49 87
REMARK SMILES IDX 51 88 57 89 50 90 52 91 53 92 54 93 55 94
REMARK H PARENT 11 8 84 20 18 28 77 47 45 58
REMARK Flexibility Score: inf
ROOT
ATOM      1  C   UNL A   1      31.705  30.476  26.222  1.00  0.00     0.002 C 
ENDROOT
BRANCH   1   2
ATOM      2  C   UNL A   1      31.720  29.373  27.278  1.00  0.00     0.002 C 
BRANCH   2   3
ATOM      3  C   UNL A   1      32.270  28.042  26.778  1.00  0.00     0.021 C 
BRANCH   3   4
ATOM      4  C   UNL A   1      31.197  27.073  26.259  1.00  0.00     0.116 C 
BRANCH   4   5
ATOM      5  N   UNL A   1      31.316  25.807  26.958  1.00  0.00    -0.356 N 
ATOM      6  C   UNL A   1      31.286  24.522  26.509  1.00  0.00     0.226 C 
ATOM      7  O   UNL A   1      31.333  23.649  27.380  1.00  0.00    -0.275 OA
ATOM      8  H   UNL A   1      31.441  25.893  27.930  1.00  0.00     0.163 HD
BRANCH   6   9
ATOM      9  C   UNL A   1      31.349  24.181  25.013  1.00  0.00     0.169 C 
BRANCH   9  10
ATOM     10  C   UNL A   1      32.710  24.054  24.197  1.00  0.00     0.112 C 
ATOM     11  C   UNL A   1      32.489  21.777  22.827  1.00  0.00     0.018 C 
ATOM     12  C   UNL A   1      33.084  22.470  24.062  1.00  0.00     0.020 C 
ATOM     13  C   UNL A   1      32.661  21.585  25.276  1.00  0.00     0.018 C 
ATOM     14  C   UNL A   1      34.627  22.438  24.050  1.00  0.00     0.013 C 
ATOM     15  C   UNL A   1      35.023  23.499  25.053  1.00  0.00     0.007 C 
ATOM     16  C   UNL A   1      33.929  24.555  25.004  1.00  0.00     0.070 C 
BRANCH  10  17
ATOM     17  N   UNL A   1      32.601  24.747  22.855  1.00  0.00    -0.329 N 
ATOM     18  C   UNL A   1      33.619  25.711  22.412  1.00  0.00     0.262 C 
ATOM     19  C   UNL A   1      31.296  25.314  22.474  1.00  0.00     0.262 C 
ATOM     20  H   UNL A   1      32.785  23.872  22.365  1.00  0.00     0.348 HD
ATOM     21  C   UNL A   1      33.490  27.136  22.958  1.00  0.00     0.062 C 
ATOM     22  C   UNL A   1      30.969  26.630  23.174  1.00  0.00     0.062 C 
ATOM     23  C   UNL A   1      32.059  27.681  22.951  1.00  0.00     0.012 C 
ENDBRANCH  10  17
ENDBRANCH   9  10
ENDBRANCH   6   9
ENDBRANCH   4   5
ENDBRANCH   3   4
ENDBRANCH   2   3
ENDBRANCH   1   2
BRANCH   1  24
ATOM     24  C   UNL A   1      31.510  31.890  26.775  1.00  0.00     0.021 C 
BRANCH  24  25
ATOM     25  C   UNL A   1      32.791  32.555  27.271  1.00  0.00     0.116 C 
BRANCH  25  26
ATOM     26  N   UNL A   1      32.579  33.967  27.560  1.00  0.00    -0.352 N 
ATOM     27  C   UNL A   1      33.118  34.720  28.570  1.00  0.00     0.251 C 
ATOM     28  H   UNL A   1      31.971  34.441  26.949  1.00  0.00     0.163 HD
ATOM     29  O   UNL A   1      32.646  35.823  28.845  1.00  0.00    -0.269 OA
BRANCH  27  30
ATOM     30  C   UNL A   1      34.268  34.188  29.323  1.00  0.00     0.039 A 
ATOM     31  C   UNL A   1      34.047  33.369  30.431  1.00  0.00     0.014 A 
ATOM     32  C   UNL A   1      35.569  34.498  28.915  1.00  0.00     0.014 A 
ATOM     33  C   UNL A   1      35.137  32.822  31.109  1.00  0.00     0.010 A 
ATOM     34  C   UNL A   1      36.648  33.889  29.542  1.00  0.00     0.010 A 
ATOM     35  C   UNL A   1      36.445  33.061  30.656  1.00  0.00    -0.014 A 
BRANCH  35  36
ATOM     36  C   UNL A   1      37.628  32.488  31.346  1.00  0.00     0.031 A 
ATOM     37  C   UNL A   1      38.367  31.339  30.714  1.00  0.00     0.074 A 
ATOM     38  C   UNL A   1      37.973  32.928  32.571  1.00  0.00     0.049 A 
ATOM     39  N   UNL A   1      39.340  30.616  31.202  1.00  0.00    -0.248 NA
ATOM     40  C   UNL A   1      37.932  30.926  29.368  1.00  0.00     0.031 C 
ATOM     41  C   UNL A   1      37.296  33.995  33.312  1.00  0.00     0.029 A 
ATOM     42  N   UNL A   1      38.960  32.506  33.428  1.00  0.00    -0.354 N 
ATOM     43  C   UNL A   1      39.600  29.639  30.249  1.00  0.00     0.074 A 
ATOM     44  C   UNL A   1      38.665  29.842  29.165  1.00  0.00     0.031 C 
ATOM     45  C   UNL A   1      37.882  34.139  34.512  1.00  0.00     0.029 A 
ATOM     46  C   UNL A   1      38.948  33.150  34.643  1.00  0.00     0.049 A 
ATOM     47  H   UNL A   1      39.614  31.808  33.194  1.00  0.00     0.167 HD
ATOM     48  C   UNL A   1      40.550  28.675  30.262  1.00  0.00     0.034 A 
ATOM     49  C   UNL A   1      39.697  32.952  35.747  1.00  0.00     0.034 A 
ATOM     50  C   UNL A   1      41.508  28.509  31.320  1.00  0.00     0.049 A 
ATOM     51  C   UNL A   1      40.766  31.892  35.722  1.00  0.00     0.074 A 
ATOM     52  C   UNL A   1      42.563  27.618  31.390  1.00  0.00     0.029 A 
ATOM     53  N   UNL A   1      41.523  29.245  32.494  1.00  0.00    -0.354 N 
ATOM     54  N   UNL A   1      41.087  31.067  34.755  1.00  0.00    -0.248 NA
ATOM     55  C   UNL A   1      41.601  31.758  36.924  1.00  0.00     0.031 C 
ATOM     56  C   UNL A   1      43.198  27.792  32.623  1.00  0.00     0.029 A 
ATOM     57  C   UNL A   1      42.566  28.824  33.298  1.00  0.00     0.049 A 
ATOM     58  H   UNL A   1      40.887  29.960  32.721  1.00  0.00     0.167 HD
ATOM     59  C   UNL A   1      42.191  30.354  35.211  1.00  0.00     0.074 A 
ATOM     60  C   UNL A   1      42.488  30.849  36.539  1.00  0.00     0.031 C 
ATOM     61  C   UNL A   1      42.891  29.376  34.589  1.00  0.00     0.034 A 
BRANCH  48  62
ATOM     62  C   UNL A   1      40.631  27.746  29.079  1.00  0.00     0.023 A 
ATOM     63  C   UNL A   1      39.735  26.663  28.975  1.00  0.00     0.012 A 
ATOM     64  C   UNL A   1      41.546  27.989  28.036  1.00  0.00     0.148 A 
ATOM     65  C   UNL A   1      39.769  25.816  27.869  1.00  0.00     0.002 A 
ATOM     66  C   UNL A   1      41.540  27.171  26.913  1.00  0.00     0.091 A 
ATOM     67  F   UNL A   1      42.403  29.011  28.163  1.00  0.00    -0.205 F 
ATOM     68  C   UNL A   1      40.662  26.077  26.833  1.00  0.00     0.022 A 
BRANCH  66  69
ATOM     69  S   UNL A   1      42.591  27.472  25.488  1.00  0.00     0.127 S 
ATOM     70  O   UNL A   1      43.908  27.590  26.113  1.00  0.00    -0.237 OA
ATOM     71  O   UNL A   1      42.396  26.255  24.701  1.00  0.00    -0.237 OA
ATOM     72  O   UNL A   1      42.088  28.689  24.865  1.00  0.00    -0.744 OA
ENDBRANCH  66  69
ENDBRANCH  48  62
BRANCH  49  73
ATOM     73  C   UNL A   1      39.497  33.803  36.954  1.00  0.00     0.023 A 
ATOM     74  C   UNL A   1      39.929  35.144  36.938  1.00  0.00     0.012 A 
ATOM     75  C   UNL A   1      38.881  33.295  38.113  1.00  0.00     0.148 A 
ATOM     76  C   UNL A   1      39.793  35.949  38.070  1.00  0.00     0.002 A 
ATOM     77  C   UNL A   1      38.695  34.119  39.217  1.00  0.00     0.091 A 
ATOM     78  F   UNL A   1      38.483  32.014  38.113  1.00  0.00    -0.205 F 
ATOM     79  C   UNL A   1      39.170  35.441  39.205  1.00  0.00     0.022 A 
BRANCH  77  80
ATOM     80  S   UNL A   1      37.789  33.587  40.674  1.00  0.00     0.127 S 
ATOM     81  O   UNL A   1      38.680  32.571  41.226  1.00  0.00    -0.237 OA
ATOM     82  O   UNL A   1      37.710  34.826  41.448  1.00  0.00    -0.237 OA
ATOM     83  O   UNL A   1      36.505  33.106  40.184  1.00  0.00    -0.744 OA
ENDBRANCH  77  80
ENDBRANCH  49  73
BRANCH  61  84
ATOM     84  C   UNL A   1      44.102  28.818  35.286  1.00  0.00     0.023 A 
ATOM     85  C   UNL A   1      45.369  29.396  35.085  1.00  0.00     0.012 A 
ATOM     86  C   UNL A   1      43.954  27.780  36.228  1.00  0.00     0.148 A 
ATOM     87  C   UNL A   1      46.477  28.934  35.795  1.00  0.00     0.002 A 
ATOM     88  C   UNL A   1      45.050  27.361  36.971  1.00  0.00     0.091 A 
ATOM     89  F   UNL A   1      42.741  27.232  36.390  1.00  0.00    -0.205 F 
ATOM     90  C   UNL A   1      46.314  27.929  36.747  1.00  0.00     0.022 A 
BRANCH  88  91
ATOM     91  S   UNL A   1      44.915  26.151  38.291  1.00  0.00     0.127 S 
ATOM     92  O   UNL A   1      46.320  25.855  38.567  1.00  0.00    -0.237 OA
ATOM     93  O   UNL A   1      44.233  26.912  39.338  1.00  0.00    -0.237 OA
ATOM     94  O   UNL A   1      44.141  25.043  37.746  1.00  0.00    -0.744 OA
ENDBRANCH  88  91
ENDBRANCH  61  84
ENDBRANCH  35  36
ENDBRANCH  27  30
ENDBRANCH  25  26
ENDBRANCH  24  25
ENDBRANCH   1  24
TORSDOF 18
ENDMDL
MODEL 2
REMARK VINA RESULT:     -11.6      3.778      9.031
REMARK SMILES CC1(C)CCC[C@@]1(CC(=O)NCCCCCCNC(=O)c1ccc(-c2c3nc(c(-c4cccc(S(=O)(=O)[O-])c4F)c4ccc([nH]4)c(-c4cccc(S(=O)(=O)[O-])c4F)c4nc(c(-c5cccc(S(=O)(=O)[O-])c5F)c5ccc2[nH]5)C=C4)C=C3)cc1)[NH+]1CCCCC1
REMARK SMILES IDX 15 1 14 2 13 3 12 4 11 5 9 6 10 7 8 9 7 10 1 11 2 12 3 13
REMARK SMILES IDX 4 14 5 15 6 16 84 17 85 18 89 19 86 21 88 22 87 23 16 24
REMARK SMILES IDX 17 25 18 26 19 27 20 29 21 30 22 31 83 32 23 33 82 34 24 35
REMARK SMILES IDX 25 36 26 37 76 38 27 39 81 40 75 41 77 42 28 43 80 44 74 45
REMARK SMILES IDX 73 46 29 48 61 49 41 50 60 51 42 52 45 53 59 54 78 55 43 56
REMARK SMILES IDX 44 57 58 59 79 60 46 61 30 62 31 63 39 64 32 65 34 66 40 67
REMARK SMILES IDX 33 68 35 69 36 70 37 71 38 72 62 73 63 74 71 75 64 76 66 77
REMARK SMILES IDX 72 78 65 79 67 80 68 81 69 82 70 83 47 84 48 85 56 86 49 87
REMARK SMILES IDX 51 88 57 89 50 90 52 91 53 92 54 93 55 94
REMARK H PARENT 11 8 84 20 18 28 77 47 45 58
REMARK Flexibility Score: inf
ROOT
ATOM      1  C   UNL A   1      31.517  28.290  26.011  1.00  0.00     0.002 C 
ENDROOT
BRANCH   1   2
ATOM      2  C   UNL A   1      31.356  27.689  24.615  1.00  0.00     0.002 C 
BRANCH   2   3
ATOM      3  C   UNL A   1      30.093  26.853  24.442  1.00  0.00     0.021 C 
BRANCH   3   4
ATOM      4  C   UNL A   1      30.355  25.352  24.243  1.00  0.00     0.116 C 
BRANCH   4   5
ATOM      5  N   UNL A   1      30.144  24.658  25.498  1.00  0.00    -0.356 N 
ATOM      6  C   UNL A   1      31.015  24.049  26.350  1.00  0.00     0.226 C 
ATOM      7  O   UNL A   1      30.505  23.467  27.312  1.00  0.00    -0.275 OA
ATOM      8  H   UNL A   1      29.204  24.622  25.787  1.00  0.00     0.163 HD
BRANCH   6   9
ATOM      9  C   UNL A   1      32.536  24.209  26.211  1.00  0.00     0.169 C 
BRANCH   9  10
ATOM     10  C   UNL A   1      33.449  23.225  25.354  1.00  0.00     0.112 C 
ATOM     11  C   UNL A   1      35.915  24.218  25.549  1.00  0.00     0.018 C 
ATOM     12  C   UNL A   1      34.654  24.096  24.680  1.00  0.00     0.020 C 
ATOM     13  C   UNL A   1      34.276  25.560  24.293  1.00  0.00     0.018 C 
ATOM     14  C   UNL A   1      34.945  23.382  23.343  1.00  0.00     0.013 C 
ATOM     15  C   UNL A   1      33.578  22.972  22.842  1.00  0.00     0.007 C 
ATOM     16  C   UNL A   1      32.733  22.718  24.081  1.00  0.00     0.070 C 
BRANCH  10  17
ATOM     17  N   UNL A   1      33.957  22.082  26.206  1.00  0.00    -0.329 N 
ATOM     18  C   UNL A   1      35.304  21.524  26.006  1.00  0.00     0.262 C 
ATOM     19  C   UNL A   1      33.060  20.935  26.432  1.00  0.00     0.262 C 
ATOM     20  H   UNL A   1      34.003  22.686  27.026  1.00  0.00     0.348 HD
ATOM     21  C   UNL A   1      35.458  20.509  24.869  1.00  0.00     0.062 C 
ATOM     22  C   UNL A   1      32.957  19.991  25.237  1.00  0.00     0.062 C 
ATOM     23  C   UNL A   1      34.329  19.477  24.795  1.00  0.00     0.012 C 
ENDBRANCH  10  17
ENDBRANCH   9  10
ENDBRANCH   6   9
ENDBRANCH   4   5
ENDBRANCH   3   4
ENDBRANCH   2   3
ENDBRANCH   1   2
BRANCH   1  24
ATOM     24  C   UNL A   1      32.836  27.949  26.707  1.00  0.00     0.021 C 
BRANCH  24  25
ATOM     25  C   UNL A   1      34.019  28.811  26.275  1.00  0.00     0.116 C 
BRANCH  25  26
ATOM     26  N   UNL A   1      33.880  30.180  26.751  1.00  0.00    -0.352 N 
ATOM     27  C   UNL A   1      34.618  30.829  27.705  1.00  0.00     0.251 C 
ATOM     28  H   UNL A   1      33.162  30.707  26.333  1.00  0.00     0.163 HD
ATOM     29  O   UNL A   1      34.220  31.889  28.188  1.00  0.00    -0.269 OA
BRANCH  27  30
ATOM     30  C   UNL A   1      35.895  30.239  28.145  1.00  0.00     0.039 A 
ATOM     31  C   UNL A   1      37.038  30.407  27.362  1.00  0.00     0.014 A 
ATOM     32  C   UNL A   1      35.955  29.528  29.348  1.00  0.00     0.014 A 
ATOM     33  C   UNL A   1      38.257  29.896  27.808  1.00  0.00     0.010 A 
ATOM     34  C   UNL A   1      37.182  29.090  29.826  1.00  0.00     0.010 A 
ATOM     35  C   UNL A   1      38.342  29.251  29.054  1.00  0.00    -0.014 A 
BRANCH  35  36
ATOM     36  C   UNL A   1      39.623  28.704  29.565  1.00  0.00     0.031 A 
ATOM     37  C   UNL A   1      40.348  29.426  30.670  1.00  0.00     0.074 A 
ATOM     38  C   UNL A   1      40.179  27.627  28.977  1.00  0.00     0.049 A 
ATOM     39  N   UNL A   1      41.531  29.191  31.172  1.00  0.00    -0.248 NA
ATOM     40  C   UNL A   1      39.665  30.589  31.265  1.00  0.00     0.031 C 
ATOM     41  C   UNL A   1      39.601  26.878  27.859  1.00  0.00     0.029 A 
ATOM     42  N   UNL A   1      41.376  26.997  29.214  1.00  0.00    -0.354 N 
ATOM     43  C   UNL A   1      41.754  30.197  32.104  1.00  0.00     0.074 A 
ATOM     44  C   UNL A   1      40.597  31.064  32.079  1.00  0.00     0.031 C 
ATOM     45  C   UNL A   1      40.446  25.896  27.504  1.00  0.00     0.029 A 
ATOM     46  C   UNL A   1      41.640  25.968  28.340  1.00  0.00     0.049 A 
ATOM     47  H   UNL A   1      41.987  27.255  29.942  1.00  0.00     0.167 HD
ATOM     48  C   UNL A   1      42.815  30.371  32.926  1.00  0.00     0.034 A 
ATOM     49  C   UNL A   1      42.732  25.187  28.211  1.00  0.00     0.034 A 
ATOM     50  C   UNL A   1      43.939  29.478  32.980  1.00  0.00     0.049 A 
ATOM     51  C   UNL A   1      43.885  25.383  29.159  1.00  0.00     0.074 A 
ATOM     52  C   UNL A   1      45.025  29.518  33.835  1.00  0.00     0.029 A 
ATOM     53  N   UNL A   1      44.127  28.391  32.141  1.00  0.00    -0.354 N 
ATOM     54  N   UNL A   1      44.017  26.258  30.127  1.00  0.00    -0.248 NA
ATOM     55  C   UNL A   1      45.024  24.465  29.024  1.00  0.00     0.031 C 
ATOM     56  C   UNL A   1      45.887  28.472  33.492  1.00  0.00     0.029 A 
ATOM     57  C   UNL A   1      45.313  27.755  32.454  1.00  0.00     0.049 A 
ATOM     58  H   UNL A   1      43.507  28.113  31.429  1.00  0.00     0.167 HD
ATOM     59  C   UNL A   1      45.226  25.961  30.747  1.00  0.00     0.074 A 
ATOM     60  C   UNL A   1      45.785  24.823  30.050  1.00  0.00     0.031 C 
ATOM     61  C   UNL A   1      45.821  26.579  31.795  1.00  0.00     0.034 A 
BRANCH  48  62
ATOM     62  C   UNL A   1      42.797  31.547  33.866  1.00  0.00     0.023 A 
ATOM     63  C   UNL A   1      43.186  32.821  33.403  1.00  0.00     0.012 A 
ATOM     64  C   UNL A   1      42.324  31.405  35.186  1.00  0.00     0.148 A 
ATOM     65  C   UNL A   1      43.138  33.928  34.248  1.00  0.00     0.002 A 
ATOM     66  C   UNL A   1      42.231  32.523  36.006  1.00  0.00     0.091 A 
ATOM     67  F   UNL A   1      41.978  30.183  35.613  1.00  0.00    -0.205 F 
ATOM     68  C   UNL A   1      42.649  33.781  35.544  1.00  0.00     0.022 A 
BRANCH  66  69
ATOM     69  S   UNL A   1      41.537  32.456  37.661  1.00  0.00     0.127 S 
ATOM     70  O   UNL A   1      42.294  31.355  38.254  1.00  0.00    -0.237 OA
ATOM     71  O   UNL A   1      41.871  33.779  38.186  1.00  0.00    -0.237 OA
ATOM     72  O   UNL A   1      40.112  32.209  37.491  1.00  0.00    -0.744 OA
ENDBRANCH  66  69
ENDBRANCH  48  62
BRANCH  49  73
ATOM     73  C   UNL A   1      42.772  24.117  27.175  1.00  0.00     0.023 A 
ATOM     74  C   UNL A   1      43.456  24.347  25.965  1.00  0.00     0.012 A 
ATOM     75  C   UNL A   1      42.140  22.875  27.379  1.00  0.00     0.148 A 
ATOM     76  C   UNL A   1      43.473  23.378  24.960  1.00  0.00     0.002 A 
ATOM     77  C   UNL A   1      42.210  21.892  26.399  1.00  0.00     0.091 A 
ATOM     78  F   UNL A   1      41.487  22.677  28.533  1.00  0.00    -0.205 F 
ATOM     79  C   UNL A   1      42.857  22.150  25.180  1.00  0.00     0.022 A 
BRANCH  77  80
ATOM     80  S   UNL A   1      41.557  20.238  26.646  1.00  0.00     0.127 S 
ATOM     81  O   UNL A   1      42.273  19.810  27.844  1.00  0.00    -0.237 OA
ATOM     82  O   UNL A   1      40.131  20.503  26.841  1.00  0.00    -0.237 OA
ATOM     83  O   UNL A   1      41.868  19.506  25.426  1.00  0.00    -0.744 OA
ENDBRANCH  77  80
ENDBRANCH  49  73
BRANCH  61  84
ATOM     84  C   UNL A   1      47.108  26.003  32.321  1.00  0.00     0.023 A 
ATOM     85  C   UNL A   1      47.096  25.110  33.409  1.00  0.00     0.012 A 
ATOM     86  C   UNL A   1      48.321  26.270  31.656  1.00  0.00     0.148 A 
ATOM     87  C   UNL A   1      48.278  24.509  33.842  1.00  0.00     0.002 A 
ATOM     88  C   UNL A   1      49.485  25.628  32.057  1.00  0.00     0.091 A 
ATOM     89  F   UNL A   1      48.312  27.138  30.633  1.00  0.00    -0.205 F 
ATOM     90  C   UNL A   1      49.467  24.756  33.158  1.00  0.00     0.022 A 
BRANCH  88  91
ATOM     91  S   UNL A   1      51.038  25.802  31.173  1.00  0.00     0.127 S 
ATOM     92  O   UNL A   1      51.910  24.899  31.922  1.00  0.00    -0.237 OA
ATOM     93  O   UNL A   1      50.682  25.335  29.832  1.00  0.00    -0.237 OA
ATOM     94  O   UNL A   1      51.391  27.213  31.249  1.00  0.00    -0.744 OA
ENDBRANCH  88  91
ENDBRANCH  61  84
ENDBRANCH  35  36
ENDBRANCH  27  30
ENDBRANCH  25  26
ENDBRANCH  24  25
ENDBRANCH   1  24
TORSDOF 18
ENDMDL
MODEL 3
REMARK VINA RESULT:     -11.5      1.534      2.428
REMARK SMILES CC1(C)CCC[C@@]1(CC(=O)NCCCCCCNC(=O)c1ccc(-c2c3nc(c(-c4cccc(S(=O)(=O)[O-])c4F)c4ccc([nH]4)c(-c4cccc(S(=O)(=O)[O-])c4F)c4nc(c(-c5cccc(S(=O)(=O)[O-])c5F)c5ccc2[nH]5)C=C4)C=C3)cc1)[NH+]1CCCCC1
REMARK SMILES IDX 15 1 14 2 13 3 12 4 11 5 9 6 10 7 8 9 7 10 1 11 2 12 3 13
REMARK SMILES IDX 4 14 5 15 6 16 84 17 85 18 89 19 86 21 88 22 87 23 16 24
REMARK SMILES IDX 17 25 18 26 19 27 20 29 21 30 22 31 83 32 23 33 82 34 24 35
REMARK SMILES IDX 25 36 26 37 76 38 27 39 81 40 75 41 77 42 28 43 80 44 74 45
REMARK SMILES IDX 73 46 29 48 61 49 41 50 60 51 42 52 45 53 59 54 78 55 43 56
REMARK SMILES IDX 44 57 58 59 79 60 46 61 30 62 31 63 39 64 32 65 34 66 40 67
REMARK SMILES IDX 33 68 35 69 36 70 37 71 38 72 62 73 63 74 71 75 64 76 66 77
REMARK SMILES IDX 72 78 65 79 67 80 68 81 69 82 70 83 47 84 48 85 56 86 49 87
REMARK SMILES IDX 51 88 57 89 50 90 52 91 53 92 54 93 55 94
REMARK H PARENT 11 8 84 20 18 28 77 47 45 58
REMARK Flexibility Score: inf
ROOT
ATOM      1  C   UNL A   1      31.474  30.434  25.960  1.00  0.00     0.002 C 
ENDROOT
BRANCH   1   2
ATOM      2  C   UNL A   1      32.230  29.516  26.918  1.00  0.00     0.002 C 
BRANCH   2   3
ATOM      3  C   UNL A   1      31.498  28.219  27.244  1.00  0.00     0.021 C 
BRANCH   3   4
ATOM      4  C   UNL A   1      31.887  27.034  26.347  1.00  0.00     0.116 C 
BRANCH   4   5
ATOM      5  N   UNL A   1      31.449  25.799  26.968  1.00  0.00    -0.356 N 
ATOM      6  C   UNL A   1      31.160  24.577  26.441  1.00  0.00     0.226 C 
ATOM      7  O   UNL A   1      30.727  23.739  27.237  1.00  0.00    -0.275 OA
ATOM      8  H   UNL A   1      31.343  25.853  27.945  1.00  0.00     0.163 HD
BRANCH   6   9
ATOM      9  C   UNL A   1      31.499  24.217  24.987  1.00  0.00     0.169 C 
BRANCH   9  10
ATOM     10  C   UNL A   1      32.732  23.298  24.573  1.00  0.00     0.112 C 
ATOM     11  C   UNL A   1      34.883  24.544  25.537  1.00  0.00     0.018 C 
ATOM     12  C   UNL A   1      34.022  24.260  24.297  1.00  0.00     0.020 C 
ATOM     13  C   UNL A   1      33.686  25.661  23.698  1.00  0.00     0.018 C 
ATOM     14  C   UNL A   1      34.822  23.526  23.200  1.00  0.00     0.013 C 
ATOM     15  C   UNL A   1      33.756  22.960  22.288  1.00  0.00     0.007 C 
ATOM     16  C   UNL A   1      32.553  22.670  23.173  1.00  0.00     0.070 C 
BRANCH  10  17
ATOM     17  N   UNL A   1      33.000  22.247  25.630  1.00  0.00    -0.329 N 
ATOM     18  C   UNL A   1      34.369  21.801  25.930  1.00  0.00     0.262 C 
ATOM     19  C   UNL A   1      32.158  21.038  25.632  1.00  0.00     0.262 C 
ATOM     20  H   UNL A   1      32.727  22.893  26.370  1.00  0.00     0.348 HD
ATOM     21  C   UNL A   1      34.963  20.749  24.988  1.00  0.00     0.062 C 
ATOM     22  C   UNL A   1      32.525  20.031  24.546  1.00  0.00     0.062 C 
ATOM     23  C   UNL A   1      33.997  19.619  24.623  1.00  0.00     0.012 C 
ENDBRANCH  10  17
ENDBRANCH   9  10
ENDBRANCH   6   9
ENDBRANCH   4   5
ENDBRANCH   3   4
ENDBRANCH   2   3
ENDBRANCH   1   2
BRANCH   1  24
ATOM     24  C   UNL A   1      31.360  31.889  26.422  1.00  0.00     0.021 C 
BRANCH  24  25
ATOM     25  C   UNL A   1      32.607  32.429  27.116  1.00  0.00     0.116 C 
BRANCH  25  26
ATOM     26  N   UNL A   1      32.468  33.843  27.433  1.00  0.00    -0.352 N 
ATOM     27  C   UNL A   1      33.078  34.556  28.433  1.00  0.00     0.251 C 
ATOM     28  H   UNL A   1      31.857  34.353  26.855  1.00  0.00     0.163 HD
ATOM     29  O   UNL A   1      32.665  35.673  28.743  1.00  0.00    -0.269 OA
BRANCH  27  30
ATOM     30  C   UNL A   1      34.233  33.964  29.131  1.00  0.00     0.039 A 
ATOM     31  C   UNL A   1      34.026  32.953  30.071  1.00  0.00     0.014 A 
ATOM     32  C   UNL A   1      35.526  34.410  28.838  1.00  0.00     0.014 A 
ATOM     33  C   UNL A   1      35.124  32.356  30.690  1.00  0.00     0.010 A 
ATOM     34  C   UNL A   1      36.618  33.760  29.396  1.00  0.00     0.010 A 
ATOM     35  C   UNL A   1      36.430  32.741  30.342  1.00  0.00    -0.014 A 
BRANCH  35  36
ATOM     36  C   UNL A   1      37.622  32.120  30.971  1.00  0.00     0.031 A 
ATOM     37  C   UNL A   1      38.407  31.086  30.210  1.00  0.00     0.074 A 
ATOM     38  C   UNL A   1      37.937  32.409  32.249  1.00  0.00     0.049 A 
ATOM     39  N   UNL A   1      39.397  30.336  30.617  1.00  0.00    -0.248 NA
ATOM     40  C   UNL A   1      38.002  30.837  28.814  1.00  0.00     0.031 C 
ATOM     41  C   UNL A   1      37.216  33.350  33.109  1.00  0.00     0.029 A 
ATOM     42  N   UNL A   1      38.926  31.911  33.060  1.00  0.00    -0.354 N 
ATOM     43  C   UNL A   1      39.701  29.499  29.551  1.00  0.00     0.074 A 
ATOM     44  C   UNL A   1      38.773  29.811  28.487  1.00  0.00     0.031 C 
ATOM     45  C   UNL A   1      37.781  33.356  34.327  1.00  0.00     0.029 A 
ATOM     46  C   UNL A   1      38.878  32.393  34.348  1.00  0.00     0.049 A 
ATOM     47  H   UNL A   1      39.606  31.270  32.750  1.00  0.00     0.167 HD
ATOM     48  C   UNL A   1      40.682  28.571  29.456  1.00  0.00     0.034 A 
ATOM     49  C   UNL A   1      39.619  32.077  35.429  1.00  0.00     0.034 A 
ATOM     50  C   UNL A   1      41.631  28.301  30.499  1.00  0.00     0.049 A 
ATOM     51  C   UNL A   1      40.723  31.063  35.287  1.00  0.00     0.074 A 
ATOM     52  C   UNL A   1      42.714  27.441  30.473  1.00  0.00     0.029 A 
ATOM     53  N   UNL A   1      41.607  28.879  31.759  1.00  0.00    -0.354 N 
ATOM     54  N   UNL A   1      41.082  30.380  34.227  1.00  0.00    -0.248 NA
ATOM     55  C   UNL A   1      41.546  30.801  36.476  1.00  0.00     0.031 C 
ATOM     56  C   UNL A   1      43.327  27.475  31.728  1.00  0.00     0.029 A 
ATOM     57  C   UNL A   1      42.653  28.390  32.520  1.00  0.00     0.049 A 
ATOM     58  H   UNL A   1      40.945  29.539  32.065  1.00  0.00     0.167 HD
ATOM     59  C   UNL A   1      42.203  29.649  34.606  1.00  0.00     0.074 A 
ATOM     60  C   UNL A   1      42.467  29.977  35.991  1.00  0.00     0.031 C 
ATOM     61  C   UNL A   1      42.944  28.781  33.876  1.00  0.00     0.034 A 
BRANCH  48  62
ATOM     62  C   UNL A   1      40.809  27.806  28.165  1.00  0.00     0.023 A 
ATOM     63  C   UNL A   1      41.439  28.402  27.054  1.00  0.00     0.012 A 
ATOM     64  C   UNL A   1      40.370  26.470  28.076  1.00  0.00     0.148 A 
ATOM     65  C   UNL A   1      41.600  27.695  25.864  1.00  0.00     0.002 A 
ATOM     66  C   UNL A   1      40.579  25.754  26.904  1.00  0.00     0.091 A 
ATOM     67  F   UNL A   1      39.755  25.927  29.136  1.00  0.00    -0.205 F 
ATOM     68  C   UNL A   1      41.182  26.369  25.794  1.00  0.00     0.022 A 
BRANCH  66  69
ATOM     69  S   UNL A   1      40.156  24.017  26.738  1.00  0.00     0.127 S 
ATOM     70  O   UNL A   1      38.879  24.091  26.031  1.00  0.00    -0.237 OA
ATOM     71  O   UNL A   1      41.268  23.506  25.937  1.00  0.00    -0.237 OA
ATOM     72  O   UNL A   1      40.086  23.488  28.093  1.00  0.00    -0.744 OA
ENDBRANCH  66  69
ENDBRANCH  48  62
BRANCH  49  73
ATOM     73  C   UNL A   1      39.375  32.758  36.732  1.00  0.00     0.023 A 
ATOM     74  C   UNL A   1      40.104  33.919  37.056  1.00  0.00     0.012 A 
ATOM     75  C   UNL A   1      38.428  32.266  37.650  1.00  0.00     0.148 A 
ATOM     76  C   UNL A   1      39.927  34.552  38.288  1.00  0.00     0.002 A 
ATOM     77  C   UNL A   1      38.213  32.934  38.850  1.00  0.00     0.091 A 
ATOM     78  F   UNL A   1      37.749  31.156  37.329  1.00  0.00    -0.205 F 
ATOM     79  C   UNL A   1      38.977  34.065  39.180  1.00  0.00     0.022 A 
BRANCH  77  80
ATOM     80  S   UNL A   1      36.922  32.453  40.002  1.00  0.00     0.127 S 
ATOM     81  O   UNL A   1      37.386  31.140  40.440  1.00  0.00    -0.237 OA
ATOM     82  O   UNL A   1      37.011  33.508  41.012  1.00  0.00    -0.237 OA
ATOM     83  O   UNL A   1      35.685  32.464  39.233  1.00  0.00    -0.744 OA
ENDBRANCH  77  80
ENDBRANCH  49  73
BRANCH  61  84
ATOM     84  C   UNL A   1      44.164  28.176  34.516  1.00  0.00     0.023 A 
ATOM     85  C   UNL A   1      45.393  28.861  34.495  1.00  0.00     0.012 A 
ATOM     86  C   UNL A   1      44.053  26.968  35.234  1.00  0.00     0.148 A 
ATOM     87  C   UNL A   1      46.502  28.340  35.161  1.00  0.00     0.002 A 
ATOM     88  C   UNL A   1      45.146  26.483  35.939  1.00  0.00     0.091 A 
ATOM     89  F   UNL A   1      42.877  26.324  35.226  1.00  0.00    -0.205 F 
ATOM     90  C   UNL A   1      46.375  27.162  35.894  1.00  0.00     0.022 A 
BRANCH  88  91
ATOM     91  S   UNL A   1      45.048  25.034  36.995  1.00  0.00     0.127 S 
ATOM     92  O   UNL A   1      46.441  24.869  37.406  1.00  0.00    -0.237 OA
ATOM     93  O   UNL A   1      44.147  25.487  38.056  1.00  0.00    -0.237 OA
ATOM     94  O   UNL A   1      44.514  23.963  36.164  1.00  0.00    -0.744 OA
ENDBRANCH  88  91
ENDBRANCH  61  84
ENDBRANCH  35  36
ENDBRANCH  27  30
ENDBRANCH  25  26
ENDBRANCH  24  25
ENDBRANCH   1  24
TORSDOF 18
ENDMDL
