MODEL 1
REMARK VINA RESULT:     -10.9      0.000      0.000
REMARK SMILES Cc1c(Cl)ccc2c(OCC(=O)NCCCCCCNC(=O)c3ccc(-c4c5nc(c(-c6cccc(S(=O)(=O)[O-])c6F)c6ccc([nH]6)c(-c6cccc(S(=O)(=O)[O-])c6F)c6nc(c(-c7cccc(S(=O)(=O)[O-])c7F)c7ccc4[nH]7)C=C6)C=C5)cc3)ccnc12
REMARK SMILES IDX 17 1 16 2 15 3 14 4 13 5 11 6 12 7 10 9 9 10 8 11 1 12 2 13
REMARK SMILES IDX 3 14 89 15 4 16 5 17 7 18 88 19 6 20 87 21 86 22 18 23 19 24
REMARK SMILES IDX 20 25 21 26 22 28 23 29 24 30 85 31 25 32 84 33 26 34 27 35
REMARK SMILES IDX 28 36 78 37 29 38 83 39 77 40 79 41 30 42 82 43 76 44 75 45
REMARK SMILES IDX 31 47 63 48 43 49 62 50 44 51 47 52 61 53 80 54 45 55 46 56
REMARK SMILES IDX 60 58 81 59 48 60 32 61 33 62 41 63 34 64 36 65 42 66 35 67
REMARK SMILES IDX 37 68 38 69 39 70 40 71 64 72 65 73 73 74 66 75 68 76 74 77
REMARK SMILES IDX 67 78 69 79 70 80 71 81 72 82 49 83 50 84 58 85 51 86 53 87
REMARK SMILES IDX 59 88 52 89 54 90 55 91 56 92 57 93
REMARK H PARENT 13 8 20 27 79 46 47 57
REMARK Flexibility Score: inf
ROOT
ATOM      1  C   UNL A   1      31.072  28.238  25.335  1.00  0.00     0.002 C 
ENDROOT
BRANCH   1   2
ATOM      2  C   UNL A   1      30.760  28.114  23.839  1.00  0.00     0.002 C 
BRANCH   2   3
ATOM      3  C   UNL A   1      29.325  27.691  23.488  1.00  0.00     0.021 C 
BRANCH   3   4
ATOM      4  C   UNL A   1      28.915  26.312  24.007  1.00  0.00     0.116 C 
BRANCH   4   5
ATOM      5  N   UNL A   1      29.666  25.252  23.363  1.00  0.00    -0.353 N 
ATOM      6  C   UNL A   1      30.576  24.396  23.907  1.00  0.00     0.257 C 
ATOM      7  O   UNL A   1      31.135  23.578  23.171  1.00  0.00    -0.271 OA
ATOM      8  H   UNL A   1      29.495  25.134  22.400  1.00  0.00     0.163 HD
BRANCH   6   9
ATOM      9  C   UNL A   1      30.857  24.428  25.414  1.00  0.00     0.329 C 
BRANCH   9  10
ATOM     10  O   UNL A   1      31.457  23.290  26.007  1.00  0.00    -0.483 OA
BRANCH  10  11
ATOM     11  C   UNL A   1      32.815  23.115  25.912  1.00  0.00     0.131 A 
ATOM     12  C   UNL A   1      36.569  20.032  24.996  1.00  0.00     0.048 C 
ATOM     13  C   UNL A   1      35.087  20.323  24.991  1.00  0.00    -0.006 A 
ATOM     14  C   UNL A   1      34.159  19.325  24.644  1.00  0.00     0.046 A 
ATOM     15  C   UNL A   1      34.637  21.586  25.412  1.00  0.00     0.078 A 
ATOM     16  Cl  UNL A   1      34.651  17.739  24.160  1.00  0.00    -0.084 Cl
ATOM     17  C   UNL A   1      32.792  19.580  24.685  1.00  0.00     0.022 A 
ATOM     18  C   UNL A   1      33.246  21.841  25.470  1.00  0.00     0.043 A 
ATOM     19  N   UNL A   1      35.530  22.534  25.756  1.00  0.00    -0.256 NA
ATOM     20  C   UNL A   1      32.340  20.828  25.097  1.00  0.00     0.016 A 
ATOM     21  C   UNL A   1      35.086  23.745  26.146  1.00  0.00     0.115 A 
ATOM     22  C   UNL A   1      33.754  24.085  26.233  1.00  0.00     0.067 A 
ENDBRANCH  10  11
ENDBRANCH   9  10
ENDBRANCH   6   9
ENDBRANCH   4   5
ENDBRANCH   3   4
ENDBRANCH   2   3
ENDBRANCH   1   2
BRANCH   1  23
ATOM     23  C   UNL A   1      32.537  28.032  25.720  1.00  0.00     0.021 C 
BRANCH  23  24
ATOM     24  C   UNL A   1      33.456  29.204  25.391  1.00  0.00     0.116 C 
BRANCH  24  25
ATOM     25  N   UNL A   1      32.880  30.480  25.787  1.00  0.00    -0.352 N 
ATOM     26  C   UNL A   1      33.218  31.275  26.855  1.00  0.00     0.251 C 
ATOM     27  H   UNL A   1      32.154  30.818  25.214  1.00  0.00     0.163 HD
ATOM     28  O   UNL A   1      32.526  32.241  27.159  1.00  0.00    -0.269 OA
BRANCH  26  29
ATOM     29  C   UNL A   1      34.417  30.937  27.650  1.00  0.00     0.039 A 
ATOM     30  C   UNL A   1      34.480  29.699  28.292  1.00  0.00     0.014 A 
ATOM     31  C   UNL A   1      35.486  31.836  27.729  1.00  0.00     0.014 A 
ATOM     32  C   UNL A   1      35.644  29.338  28.974  1.00  0.00     0.010 A 
ATOM     33  C   UNL A   1      36.663  31.454  28.367  1.00  0.00     0.010 A 
ATOM     34  C   UNL A   1      36.749  30.204  28.999  1.00  0.00    -0.014 A 
BRANCH  34  35
ATOM     35  C   UNL A   1      37.999  29.820  29.696  1.00  0.00     0.031 A 
ATOM     36  C   UNL A   1      38.296  30.372  31.062  1.00  0.00     0.074 A 
ATOM     37  C   UNL A   1      38.890  29.018  29.081  1.00  0.00     0.049 A 
ATOM     38  N   UNL A   1      39.326  30.142  31.832  1.00  0.00    -0.248 NA
ATOM     39  C   UNL A   1      37.319  31.318  31.629  1.00  0.00     0.031 C 
ATOM     40  C   UNL A   1      38.747  28.478  27.728  1.00  0.00     0.029 A 
ATOM     41  N   UNL A   1      40.098  28.529  29.510  1.00  0.00    -0.354 N 
ATOM     42  C   UNL A   1      39.134  30.926  32.962  1.00  0.00     0.074 A 
ATOM     43  C   UNL A   1      37.905  31.664  32.767  1.00  0.00     0.031 C 
ATOM     44  C   UNL A   1      39.823  27.726  27.441  1.00  0.00     0.029 A 
ATOM     45  C   UNL A   1      40.732  27.735  28.584  1.00  0.00     0.049 A 
ATOM     46  H   UNL A   1      40.476  28.729  30.397  1.00  0.00     0.167 HD
ATOM     47  C   UNL A   1      39.893  30.995  34.079  1.00  0.00     0.034 A 
ATOM     48  C   UNL A   1      41.907  27.075  28.655  1.00  0.00     0.034 A 
ATOM     49  C   UNL A   1      41.079  30.219  34.298  1.00  0.00     0.049 A 
ATOM     50  C   UNL A   1      42.709  27.134  29.925  1.00  0.00     0.074 A 
ATOM     51  C   UNL A   1      41.860  30.151  35.437  1.00  0.00     0.029 A 
ATOM     52  N   UNL A   1      41.654  29.376  33.363  1.00  0.00    -0.354 N 
ATOM     53  N   UNL A   1      42.431  27.760  31.042  1.00  0.00    -0.248 NA
ATOM     54  C   UNL A   1      43.967  26.372  29.961  1.00  0.00     0.031 C 
ATOM     55  C   UNL A   1      42.910  29.264  35.190  1.00  0.00     0.029 A 
ATOM     56  C   UNL A   1      42.783  28.782  33.897  1.00  0.00     0.049 A 
ATOM     57  H   UNL A   1      41.310  29.221  32.453  1.00  0.00     0.167 HD
ATOM     58  C   UNL A   1      43.462  27.449  31.921  1.00  0.00     0.074 A 
ATOM     59  C   UNL A   1      44.369  26.570  31.211  1.00  0.00     0.031 C 
ATOM     60  C   UNL A   1      43.645  27.867  33.197  1.00  0.00     0.034 A 
BRANCH  47  61
ATOM     61  C   UNL A   1      39.414  31.880  35.195  1.00  0.00     0.023 A 
ATOM     62  C   UNL A   1      38.530  31.346  36.152  1.00  0.00     0.012 A 
ATOM     63  C   UNL A   1      39.893  33.194  35.342  1.00  0.00     0.148 A 
ATOM     64  C   UNL A   1      38.117  32.113  37.239  1.00  0.00     0.002 A 
ATOM     65  C   UNL A   1      39.497  33.945  36.443  1.00  0.00     0.091 A 
ATOM     66  F   UNL A   1      40.721  33.681  34.407  1.00  0.00    -0.205 F 
ATOM     67  C   UNL A   1      38.607  33.408  37.389  1.00  0.00     0.022 A 
BRANCH  65  68
ATOM     68  S   UNL A   1      40.105  35.606  36.758  1.00  0.00     0.127 S 
ATOM     69  O   UNL A   1      39.644  36.319  35.568  1.00  0.00    -0.237 OA
ATOM     70  O   UNL A   1      39.401  35.960  37.991  1.00  0.00    -0.237 OA
ATOM     71  O   UNL A   1      41.550  35.489  36.890  1.00  0.00    -0.744 OA
ENDBRANCH  65  68
ENDBRANCH  47  61
BRANCH  48  72
ATOM     72  C   UNL A   1      42.333  26.222  27.514  1.00  0.00     0.023 A 
ATOM     73  C   UNL A   1      43.179  26.769  26.531  1.00  0.00     0.012 A 
ATOM     74  C   UNL A   1      41.966  24.865  27.433  1.00  0.00     0.148 A 
ATOM     75  C   UNL A   1      43.647  25.982  25.479  1.00  0.00     0.002 A 
ATOM     76  C   UNL A   1      42.464  24.076  26.401  1.00  0.00     0.091 A 
ATOM     77  F   UNL A   1      41.160  24.369  28.381  1.00  0.00    -0.205 F 
ATOM     78  C   UNL A   1      43.297  24.636  25.418  1.00  0.00     0.022 A 
BRANCH  76  79
ATOM     79  S   UNL A   1      42.155  22.310  26.288  1.00  0.00     0.127 S 
ATOM     80  O   UNL A   1      42.955  21.939  25.125  1.00  0.00    -0.237 OA
ATOM     81  O   UNL A   1      42.673  21.835  27.572  1.00  0.00    -0.237 OA
ATOM     82  O   UNL A   1      40.714  22.169  26.129  1.00  0.00    -0.744 OA
ENDBRANCH  76  79
ENDBRANCH  48  72
BRANCH  60  83
ATOM     83  C   UNL A   1      44.860  27.389  33.939  1.00  0.00     0.023 A 
ATOM     84  C   UNL A   1      45.986  28.230  34.019  1.00  0.00     0.012 A 
ATOM     85  C   UNL A   1      44.823  26.198  34.689  1.00  0.00     0.148 A 
ATOM     86  C   UNL A   1      47.061  27.893  34.841  1.00  0.00     0.002 A 
ATOM     87  C   UNL A   1      45.883  25.884  35.530  1.00  0.00     0.091 A 
ATOM     88  F   UNL A   1      43.737  25.416  34.591  1.00  0.00    -0.205 F 
ATOM     89  C   UNL A   1      47.004  26.729  35.605  1.00  0.00     0.022 A 
BRANCH  87  90
ATOM     90  S   UNL A   1      45.872  24.452  36.616  1.00  0.00     0.127 S 
ATOM     91  O   UNL A   1      45.884  23.350  35.656  1.00  0.00    -0.237 OA
ATOM     92  O   UNL A   1      47.117  24.625  37.365  1.00  0.00    -0.237 OA
ATOM     93  O   UNL A   1      44.659  24.560  37.416  1.00  0.00    -0.744 OA
ENDBRANCH  87  90
ENDBRANCH  60  83
ENDBRANCH  34  35
ENDBRANCH  26  29
ENDBRANCH  24  25
ENDBRANCH  23  24
ENDBRANCH   1  23
TORSDOF 18
ENDMDL
MODEL 2
REMARK VINA RESULT:     -10.8      2.364      3.196
REMARK SMILES Cc1c(Cl)ccc2c(OCC(=O)NCCCCCCNC(=O)c3ccc(-c4c5nc(c(-c6cccc(S(=O)(=O)[O-])c6F)c6ccc([nH]6)c(-c6cccc(S(=O)(=O)[O-])c6F)c6nc(c(-c7cccc(S(=O)(=O)[O-])c7F)c7ccc4[nH]7)C=C6)C=C5)cc3)ccnc12
REMARK SMILES IDX 17 1 16 2 15 3 14 4 13 5 11 6 12 7 10 9 9 10 8 11 1 12 2 13
REMARK SMILES IDX 3 14 89 15 4 16 5 17 7 18 88 19 6 20 87 21 86 22 18 23 19 24
REMARK SMILES IDX 20 25 21 26 22 28 23 29 24 30 85 31 25 32 84 33 26 34 27 35
REMARK SMILES IDX 28 36 78 37 29 38 83 39 77 40 79 41 30 42 82 43 76 44 75 45
REMARK SMILES IDX 31 47 63 48 43 49 62 50 44 51 47 52 61 53 80 54 45 55 46 56
REMARK SMILES IDX 60 58 81 59 48 60 32 61 33 62 41 63 34 64 36 65 42 66 35 67
REMARK SMILES IDX 37 68 38 69 39 70 40 71 64 72 65 73 73 74 66 75 68 76 74 77
REMARK SMILES IDX 67 78 69 79 70 80 71 81 72 82 49 83 50 84 58 85 51 86 53 87
REMARK SMILES IDX 59 88 52 89 54 90 55 91 56 92 57 93
REMARK H PARENT 13 8 20 27 79 46 47 57
REMARK Flexibility Score: inf
ROOT
ATOM      1  C   UNL A   1      31.530  28.710  26.075  1.00  0.00     0.002 C 
ENDROOT
BRANCH   1   2
ATOM      2  C   UNL A   1      31.381  29.284  24.661  1.00  0.00     0.002 C 
BRANCH   2   3
ATOM      3  C   UNL A   1      30.296  28.637  23.788  1.00  0.00     0.021 C 
BRANCH   3   4
ATOM      4  C   UNL A   1      30.815  27.650  22.741  1.00  0.00     0.116 C 
BRANCH   4   5
ATOM      5  N   UNL A   1      32.224  27.856  22.463  1.00  0.00    -0.353 N 
ATOM      6  C   UNL A   1      33.083  27.061  21.765  1.00  0.00     0.257 C 
ATOM      7  O   UNL A   1      34.264  27.404  21.672  1.00  0.00    -0.271 OA
ATOM      8  H   UNL A   1      32.612  28.684  22.828  1.00  0.00     0.163 HD
BRANCH   6   9
ATOM      9  C   UNL A   1      32.569  25.791  21.077  1.00  0.00     0.329 C 
BRANCH   9  10
ATOM     10  O   UNL A   1      33.149  24.552  21.441  1.00  0.00    -0.483 OA
BRANCH  10  11
ATOM     11  C   UNL A   1      32.778  23.951  22.618  1.00  0.00     0.131 A 
ATOM     12  C   UNL A   1      34.105  21.162  26.477  1.00  0.00     0.048 C 
ATOM     13  C   UNL A   1      34.482  21.951  25.246  1.00  0.00    -0.006 A 
ATOM     14  C   UNL A   1      35.807  21.965  24.777  1.00  0.00     0.046 A 
ATOM     15  C   UNL A   1      33.474  22.615  24.526  1.00  0.00     0.078 A 
ATOM     16  Cl  UNL A   1      37.082  21.132  25.596  1.00  0.00    -0.084 Cl
ATOM     17  C   UNL A   1      36.144  22.655  23.617  1.00  0.00     0.022 A 
ATOM     18  C   UNL A   1      33.812  23.303  23.335  1.00  0.00     0.043 A 
ATOM     19  N   UNL A   1      32.203  22.587  24.972  1.00  0.00    -0.256 NA
ATOM     20  C   UNL A   1      35.153  23.316  22.901  1.00  0.00     0.016 A 
ATOM     21  C   UNL A   1      31.248  23.238  24.279  1.00  0.00     0.115 A 
ATOM     22  C   UNL A   1      31.482  23.933  23.113  1.00  0.00     0.067 A 
ENDBRANCH  10  11
ENDBRANCH   9  10
ENDBRANCH   6   9
ENDBRANCH   4   5
ENDBRANCH   3   4
ENDBRANCH   2   3
ENDBRANCH   1   2
BRANCH   1  23
ATOM     23  C   UNL A   1      32.836  27.961  26.345  1.00  0.00     0.021 C 
BRANCH  23  24
ATOM     24  C   UNL A   1      34.092  28.824  26.287  1.00  0.00     0.116 C 
BRANCH  24  25
ATOM     25  N   UNL A   1      33.887  30.132  26.890  1.00  0.00    -0.352 N 
ATOM     26  C   UNL A   1      34.660  30.769  27.831  1.00  0.00     0.251 C 
ATOM     27  H   UNL A   1      33.091  30.625  26.584  1.00  0.00     0.163 HD
ATOM     28  O   UNL A   1      34.265  31.798  28.371  1.00  0.00    -0.269 OA
BRANCH  26  29
ATOM     29  C   UNL A   1      35.966  30.187  28.202  1.00  0.00     0.039 A 
ATOM     30  C   UNL A   1      37.058  30.369  27.351  1.00  0.00     0.014 A 
ATOM     31  C   UNL A   1      36.109  29.489  29.406  1.00  0.00     0.014 A 
ATOM     32  C   UNL A   1      38.313  29.896  27.735  1.00  0.00     0.010 A 
ATOM     33  C   UNL A   1      37.372  29.063  29.809  1.00  0.00     0.010 A 
ATOM     34  C   UNL A   1      38.483  29.258  28.975  1.00  0.00    -0.014 A 
BRANCH  34  35
ATOM     35  C   UNL A   1      39.816  28.776  29.404  1.00  0.00     0.031 A 
ATOM     36  C   UNL A   1      40.551  29.484  30.507  1.00  0.00     0.074 A 
ATOM     37  C   UNL A   1      40.389  27.736  28.768  1.00  0.00     0.049 A 
ATOM     38  N   UNL A   1      41.716  29.202  31.027  1.00  0.00    -0.248 NA
ATOM     39  C   UNL A   1      39.903  30.672  31.089  1.00  0.00     0.031 C 
ATOM     40  C   UNL A   1      39.806  27.014  27.636  1.00  0.00     0.029 A 
ATOM     41  N   UNL A   1      41.594  27.114  28.974  1.00  0.00    -0.354 N 
ATOM     42  C   UNL A   1      41.950  30.184  31.981  1.00  0.00     0.074 A 
ATOM     43  C   UNL A   1      40.822  31.089  31.948  1.00  0.00     0.031 C 
ATOM     44  C   UNL A   1      40.652  26.042  27.253  1.00  0.00     0.029 A 
ATOM     45  C   UNL A   1      41.837  26.076  28.107  1.00  0.00     0.049 A 
ATOM     46  H   UNL A   1      42.227  27.387  29.678  1.00  0.00     0.167 HD
ATOM     47  C   UNL A   1      42.992  30.299  32.835  1.00  0.00     0.034 A 
ATOM     48  C   UNL A   1      42.889  25.236  28.018  1.00  0.00     0.034 A 
ATOM     49  C   UNL A   1      44.081  29.369  32.909  1.00  0.00     0.049 A 
ATOM     50  C   UNL A   1      44.014  25.358  29.009  1.00  0.00     0.074 A 
ATOM     51  C   UNL A   1      45.133  29.350  33.806  1.00  0.00     0.029 A 
ATOM     52  N   UNL A   1      44.258  28.292  32.057  1.00  0.00    -0.354 N 
ATOM     53  N   UNL A   1      44.142  26.201  30.004  1.00  0.00    -0.248 NA
ATOM     54  C   UNL A   1      45.122  24.398  28.888  1.00  0.00     0.031 C 
ATOM     55  C   UNL A   1      45.949  28.259  33.496  1.00  0.00     0.029 A 
ATOM     56  C   UNL A   1      45.404  27.601  32.404  1.00  0.00     0.049 A 
ATOM     57  H   UNL A   1      43.657  28.053  31.314  1.00  0.00     0.167 HD
ATOM     58  C   UNL A   1      45.328  25.859  30.643  1.00  0.00     0.074 A 
ATOM     59  C   UNL A   1      45.878  24.725  29.929  1.00  0.00     0.031 C 
ATOM     60  C   UNL A   1      45.911  26.442  31.719  1.00  0.00     0.034 A 
BRANCH  47  61
ATOM     61  C   UNL A   1      42.962  31.428  33.825  1.00  0.00     0.023 A 
ATOM     62  C   UNL A   1      43.581  32.646  33.484  1.00  0.00     0.012 A 
ATOM     63  C   UNL A   1      42.265  31.315  35.042  1.00  0.00     0.148 A 
ATOM     64  C   UNL A   1      43.517  33.738  34.347  1.00  0.00     0.002 A 
ATOM     65  C   UNL A   1      42.183  32.416  35.885  1.00  0.00     0.091 A 
ATOM     66  F   UNL A   1      41.699  30.139  35.347  1.00  0.00    -0.205 F 
ATOM     67  C   UNL A   1      42.811  33.626  35.542  1.00  0.00     0.022 A 
BRANCH  65  68
ATOM     68  S   UNL A   1      41.260  32.397  37.426  1.00  0.00     0.127 S 
ATOM     69  O   UNL A   1      40.034  31.708  37.027  1.00  0.00    -0.237 OA
ATOM     70  O   UNL A   1      42.139  31.620  38.300  1.00  0.00    -0.237 OA
ATOM     71  O   UNL A   1      41.089  33.790  37.813  1.00  0.00    -0.744 OA
ENDBRANCH  65  68
ENDBRANCH  47  61
BRANCH  48  72
ATOM     72  C   UNL A   1      42.865  24.142  27.011  1.00  0.00     0.023 A 
ATOM     73  C   UNL A   1      43.566  24.313  25.802  1.00  0.00     0.012 A 
ATOM     74  C   UNL A   1      42.219  22.918  27.268  1.00  0.00     0.148 A 
ATOM     75  C   UNL A   1      43.617  23.287  24.859  1.00  0.00     0.002 A 
ATOM     76  C   UNL A   1      42.302  21.886  26.339  1.00  0.00     0.091 A 
ATOM     77  F   UNL A   1      41.558  22.782  28.426  1.00  0.00    -0.205 F 
ATOM     78  C   UNL A   1      42.992  22.072  25.130  1.00  0.00     0.022 A 
BRANCH  76  79
ATOM     79  S   UNL A   1      41.618  20.252  26.636  1.00  0.00     0.127 S 
ATOM     80  O   UNL A   1      42.398  19.805  27.786  1.00  0.00    -0.237 OA
ATOM     81  O   UNL A   1      40.217  20.563  26.924  1.00  0.00    -0.237 OA
ATOM     82  O   UNL A   1      41.829  19.503  25.406  1.00  0.00    -0.744 OA
ENDBRANCH  76  79
ENDBRANCH  48  72
BRANCH  60  83
ATOM     83  C   UNL A   1      47.212  25.882  32.217  1.00  0.00     0.023 A 
ATOM     84  C   UNL A   1      48.418  26.411  31.722  1.00  0.00     0.012 A 
ATOM     85  C   UNL A   1      47.238  24.966  33.287  1.00  0.00     0.148 A 
ATOM     86  C   UNL A   1      49.637  26.038  32.287  1.00  0.00     0.002 A 
ATOM     87  C   UNL A   1      48.453  24.623  33.866  1.00  0.00     0.091 A 
ATOM     88  F   UNL A   1      46.072  24.478  33.736  1.00  0.00    -0.205 F 
ATOM     89  C   UNL A   1      49.654  25.156  33.366  1.00  0.00     0.022 A 
BRANCH  87  90
ATOM     90  S   UNL A   1      48.576  23.560  35.310  1.00  0.00     0.127 S 
ATOM     91  O   UNL A   1      48.054  22.296  34.795  1.00  0.00    -0.237 OA
ATOM     92  O   UNL A   1      50.016  23.565  35.573  1.00  0.00    -0.237 OA
ATOM     93  O   UNL A   1      47.765  24.186  36.345  1.00  0.00    -0.744 OA
ENDBRANCH  87  90
ENDBRANCH  60  83
ENDBRANCH  34  35
ENDBRANCH  26  29
ENDBRANCH  24  25
ENDBRANCH  23  24
ENDBRANCH   1  23
TORSDOF 18
ENDMDL
MODEL 3
REMARK VINA RESULT:     -10.3      2.090      2.818
REMARK SMILES Cc1c(Cl)ccc2c(OCC(=O)NCCCCCCNC(=O)c3ccc(-c4c5nc(c(-c6cccc(S(=O)(=O)[O-])c6F)c6ccc([nH]6)c(-c6cccc(S(=O)(=O)[O-])c6F)c6nc(c(-c7cccc(S(=O)(=O)[O-])c7F)c7ccc4[nH]7)C=C6)C=C5)cc3)ccnc12
REMARK SMILES IDX 17 1 16 2 15 3 14 4 13 5 11 6 12 7 10 9 9 10 8 11 1 12 2 13
REMARK SMILES IDX 3 14 89 15 4 16 5 17 7 18 88 19 6 20 87 21 86 22 18 23 19 24
REMARK SMILES IDX 20 25 21 26 22 28 23 29 24 30 85 31 25 32 84 33 26 34 27 35
REMARK SMILES IDX 28 36 78 37 29 38 83 39 77 40 79 41 30 42 82 43 76 44 75 45
REMARK SMILES IDX 31 47 63 48 43 49 62 50 44 51 47 52 61 53 80 54 45 55 46 56
REMARK SMILES IDX 60 58 81 59 48 60 32 61 33 62 41 63 34 64 36 65 42 66 35 67
REMARK SMILES IDX 37 68 38 69 39 70 40 71 64 72 65 73 73 74 66 75 68 76 74 77
REMARK SMILES IDX 67 78 69 79 70 80 71 81 72 82 49 83 50 84 58 85 51 86 53 87
REMARK SMILES IDX 59 88 52 89 54 90 55 91 56 92 57 93
REMARK H PARENT 13 8 20 27 79 46 47 57
REMARK Flexibility Score: inf
ROOT
ATOM      1  C   UNL A   1      31.452  29.022  25.962  1.00  0.00     0.002 C 
ENDROOT
BRANCH   1   2
ATOM      2  C   UNL A   1      31.573  29.337  24.467  1.00  0.00     0.002 C 
BRANCH   2   3
ATOM      3  C   UNL A   1      30.261  29.682  23.747  1.00  0.00     0.021 C 
BRANCH   3   4
ATOM      4  C   UNL A   1      29.704  28.572  22.855  1.00  0.00     0.116 C 
BRANCH   4   5
ATOM      5  N   UNL A   1      30.728  28.016  21.990  1.00  0.00    -0.353 N 
ATOM      6  C   UNL A   1      31.238  26.753  21.971  1.00  0.00     0.257 C 
ATOM      7  O   UNL A   1      32.139  26.489  21.170  1.00  0.00    -0.271 OA
ATOM      8  H   UNL A   1      31.105  28.636  21.325  1.00  0.00     0.163 HD
BRANCH   6   9
ATOM      9  C   UNL A   1      30.666  25.677  22.903  1.00  0.00     0.329 C 
BRANCH   9  10
ATOM     10  O   UNL A   1      31.443  24.518  23.142  1.00  0.00    -0.483 OA
BRANCH  10  11
ATOM     11  C   UNL A   1      31.659  24.103  24.433  1.00  0.00     0.131 A 
ATOM     12  C   UNL A   1      34.507  21.564  27.576  1.00  0.00     0.048 C 
ATOM     13  C   UNL A   1      34.282  22.157  26.205  1.00  0.00    -0.006 A 
ATOM     14  C   UNL A   1      35.196  21.926  25.162  1.00  0.00     0.046 A 
ATOM     15  C   UNL A   1      33.105  22.884  25.960  1.00  0.00     0.078 A 
ATOM     16  Cl  UNL A   1      36.641  21.003  25.391  1.00  0.00    -0.084 Cl
ATOM     17  C   UNL A   1      34.965  22.435  23.888  1.00  0.00     0.022 A 
ATOM     18  C   UNL A   1      32.859  23.387  24.660  1.00  0.00     0.043 A 
ATOM     19  N   UNL A   1      32.226  23.091  26.961  1.00  0.00    -0.256 NA
ATOM     20  C   UNL A   1      33.804  23.158  23.640  1.00  0.00     0.016 A 
ATOM     21  C   UNL A   1      31.106  23.801  26.715  1.00  0.00     0.115 A 
ATOM     22  C   UNL A   1      30.783  24.329  25.485  1.00  0.00     0.067 A 
ENDBRANCH  10  11
ENDBRANCH   9  10
ENDBRANCH   6   9
ENDBRANCH   4   5
ENDBRANCH   3   4
ENDBRANCH   2   3
ENDBRANCH   1   2
BRANCH   1  23
ATOM     23  C   UNL A   1      32.642  28.284  26.576  1.00  0.00     0.021 C 
BRANCH  23  24
ATOM     24  C   UNL A   1      33.984  28.990  26.417  1.00  0.00     0.116 C 
BRANCH  24  25
ATOM     25  N   UNL A   1      33.929  30.377  26.850  1.00  0.00    -0.352 N 
ATOM     26  C   UNL A   1      34.768  31.035  27.717  1.00  0.00     0.251 C 
ATOM     27  H   UNL A   1      33.196  30.915  26.473  1.00  0.00     0.163 HD
ATOM     28  O   UNL A   1      34.493  32.161  28.119  1.00  0.00    -0.269 OA
BRANCH  26  29
ATOM     29  C   UNL A   1      35.999  30.359  28.178  1.00  0.00     0.039 A 
ATOM     30  C   UNL A   1      37.158  30.459  27.407  1.00  0.00     0.014 A 
ATOM     31  C   UNL A   1      36.005  29.655  29.387  1.00  0.00     0.014 A 
ATOM     32  C   UNL A   1      38.346  29.896  27.878  1.00  0.00     0.010 A 
ATOM     33  C   UNL A   1      37.200  29.138  29.878  1.00  0.00     0.010 A 
ATOM     34  C   UNL A   1      38.379  29.250  29.125  1.00  0.00    -0.014 A 
BRANCH  34  35
ATOM     35  C   UNL A   1      39.640  28.672  29.647  1.00  0.00     0.031 A 
ATOM     36  C   UNL A   1      40.287  29.261  30.868  1.00  0.00     0.074 A 
ATOM     37  C   UNL A   1      40.230  27.653  28.993  1.00  0.00     0.049 A 
ATOM     38  N   UNL A   1      41.379  28.885  31.478  1.00  0.00    -0.248 NA
ATOM     39  C   UNL A   1      39.633  30.435  31.472  1.00  0.00     0.031 C 
ATOM     40  C   UNL A   1      39.737  27.044  27.756  1.00  0.00     0.029 A 
ATOM     41  N   UNL A   1      41.381  26.959  29.270  1.00  0.00    -0.354 N 
ATOM     42  C   UNL A   1      41.555  29.783  32.523  1.00  0.00     0.074 A 
ATOM     43  C   UNL A   1      40.476  30.743  32.448  1.00  0.00     0.031 C 
ATOM     44  C   UNL A   1      40.576  26.061  27.386  1.00  0.00     0.029 A 
ATOM     45  C   UNL A   1      41.666  25.974  28.353  1.00  0.00     0.049 A 
ATOM     46  H   UNL A   1      41.949  27.148  30.051  1.00  0.00     0.167 HD
ATOM     47  C   UNL A   1      42.508  29.784  33.483  1.00  0.00     0.034 A 
ATOM     48  C   UNL A   1      42.685  25.091  28.306  1.00  0.00     0.034 A 
ATOM     49  C   UNL A   1      43.543  28.797  33.592  1.00  0.00     0.049 A 
ATOM     50  C   UNL A   1      43.707  25.085  29.410  1.00  0.00     0.074 A 
ATOM     51  C   UNL A   1      44.496  28.662  34.586  1.00  0.00     0.029 A 
ATOM     52  N   UNL A   1      43.761  27.777  32.682  1.00  0.00    -0.354 N 
ATOM     53  N   UNL A   1      43.768  25.847  30.475  1.00  0.00    -0.248 NA
ATOM     54  C   UNL A   1      44.780  24.083  29.327  1.00  0.00     0.031 C 
ATOM     55  C   UNL A   1      45.291  27.557  34.276  1.00  0.00     0.029 A 
ATOM     56  C   UNL A   1      44.835  27.007  33.089  1.00  0.00     0.049 A 
ATOM     57  H   UNL A   1      43.230  27.623  31.867  1.00  0.00     0.167 HD
ATOM     58  C   UNL A   1      44.866  25.401  31.201  1.00  0.00     0.074 A 
ATOM     59  C   UNL A   1      45.438  24.296  30.460  1.00  0.00     0.031 C 
ATOM     60  C   UNL A   1      45.360  25.876  32.370  1.00  0.00     0.034 A 
BRANCH  47  61
ATOM     61  C   UNL A   1      42.425  30.839  34.548  1.00  0.00     0.023 A 
ATOM     62  C   UNL A   1      41.884  30.495  35.803  1.00  0.00     0.012 A 
ATOM     63  C   UNL A   1      42.945  32.130  34.342  1.00  0.00     0.148 A 
ATOM     64  C   UNL A   1      41.852  31.426  36.838  1.00  0.00     0.002 A 
ATOM     65  C   UNL A   1      42.934  33.045  35.387  1.00  0.00     0.091 A 
ATOM     66  F   UNL A   1      43.439  32.433  33.133  1.00  0.00    -0.205 F 
ATOM     67  C   UNL A   1      42.384  32.696  36.634  1.00  0.00     0.022 A 
BRANCH  65  68
ATOM     68  S   UNL A   1      43.635  34.692  35.248  1.00  0.00     0.127 S 
ATOM     69  O   UNL A   1      42.617  35.380  34.455  1.00  0.00    -0.237 OA
ATOM     70  O   UNL A   1      43.706  35.115  36.646  1.00  0.00    -0.237 OA
ATOM     71  O   UNL A   1      44.925  34.528  34.591  1.00  0.00    -0.744 OA
ENDBRANCH  65  68
ENDBRANCH  47  61
BRANCH  48  72
ATOM     72  C   UNL A   1      42.719  24.075  27.221  1.00  0.00     0.023 A 
ATOM     73  C   UNL A   1      43.467  24.343  26.059  1.00  0.00     0.012 A 
ATOM     74  C   UNL A   1      42.080  22.829  27.359  1.00  0.00     0.148 A 
ATOM     75  C   UNL A   1      43.571  23.390  25.045  1.00  0.00     0.002 A 
ATOM     76  C   UNL A   1      42.216  21.869  26.361  1.00  0.00     0.091 A 
ATOM     77  F   UNL A   1      41.374  22.599  28.475  1.00  0.00    -0.205 F 
ATOM     78  C   UNL A   1      42.953  22.152  25.200  1.00  0.00     0.022 A 
BRANCH  76  79
ATOM     79  S   UNL A   1      41.544  20.210  26.508  1.00  0.00     0.127 S 
ATOM     80  O   UNL A   1      40.108  20.459  26.411  1.00  0.00    -0.237 OA
ATOM     81  O   UNL A   1      42.135  19.545  25.346  1.00  0.00    -0.237 OA
ATOM     82  O   UNL A   1      42.006  19.705  27.793  1.00  0.00    -0.744 OA
ENDBRANCH  76  79
ENDBRANCH  48  72
BRANCH  60  83
ATOM     83  C   UNL A   1      46.578  25.217  32.951  1.00  0.00     0.023 A 
ATOM     84  C   UNL A   1      47.845  25.769  32.686  1.00  0.00     0.012 A 
ATOM     85  C   UNL A   1      46.453  24.171  33.886  1.00  0.00     0.148 A 
ATOM     86  C   UNL A   1      48.975  25.289  33.347  1.00  0.00     0.002 A 
ATOM     87  C   UNL A   1      47.578  23.719  34.564  1.00  0.00     0.091 A 
ATOM     88  F   UNL A   1      45.232  23.664  34.116  1.00  0.00    -0.205 F 
ATOM     89  C   UNL A   1      48.840  24.275  34.293  1.00  0.00     0.022 A 
BRANCH  87  90
ATOM     90  S   UNL A   1      47.499  22.476  35.859  1.00  0.00     0.127 S 
ATOM     91  O   UNL A   1      47.140  21.279  35.101  1.00  0.00    -0.237 OA
ATOM     92  O   UNL A   1      48.868  22.485  36.376  1.00  0.00    -0.237 OA
ATOM     93  O   UNL A   1      46.488  22.936  36.801  1.00  0.00    -0.744 OA
ENDBRANCH  87  90
ENDBRANCH  60  83
ENDBRANCH  34  35
ENDBRANCH  26  29
ENDBRANCH  24  25
ENDBRANCH  23  24
ENDBRANCH   1  23
TORSDOF 18
ENDMDL
