MODEL 1
REMARK VINA RESULT:     -11.1      0.000      0.000
REMARK SMILES CC(C)c1ccc(NC(=O)C(=O)N/N=C/c2ccccc2C(=O)NCCCCCCNC(=O)c2ccc(-c3c4nc(c(-c5cccc(S(=O)(=O)[O-])c5F)c5ccc([nH]5)c(-c5cccc(S(=O)(=O)[O-])c5F)c5nc(c(-c6cccc(S(=O)(=O)[O-])c6F)c6ccc3[nH]6)C=C5)C=C4)cc2)cc1
REMARK SMILES IDX 26 1 25 2 24 3 22 4 23 5 21 7 16 8 17 9 18 10 20 11 19 12
REMARK SMILES IDX 15 13 14 14 13 15 11 16 12 17 9 19 8 20 10 22 7 23 4 24 5 25
REMARK SMILES IDX 98 26 6 27 97 28 2 29 1 30 3 31 27 32 28 33 29 34 30 35
REMARK SMILES IDX 31 36 32 37 33 39 34 40 35 41 96 42 36 43 95 44 37 45 38 46
REMARK SMILES IDX 39 47 89 48 40 49 94 50 88 51 90 52 41 53 93 54 87 55 86 56
REMARK SMILES IDX 42 58 74 59 54 60 73 61 55 62 58 63 72 64 91 65 56 66 57 67
REMARK SMILES IDX 71 69 92 70 59 71 43 72 44 73 52 74 45 75 47 76 53 77 46 78
REMARK SMILES IDX 48 79 49 80 50 81 51 82 75 83 76 84 84 85 77 86 79 87 85 88
REMARK SMILES IDX 78 89 80 90 81 91 82 92 83 93 60 94 61 95 69 96 62 97 64 98
REMARK SMILES IDX 70 99 63 100 65 101 66 102 67 103 68 104
REMARK H PARENT 24 6 13 18 8 21 31 38 90 57 58 68
REMARK Flexibility Score: inf
ROOT
ATOM      1  C   UNL A   1      34.383  31.808  27.641  1.00  0.00     0.021 C 
ENDROOT
BRANCH   1   2
ATOM      2  C   UNL A   1      34.770  30.327  27.655  1.00  0.00     0.116 C 
BRANCH   2   3
ATOM      3  N   UNL A   1      33.700  29.384  27.865  1.00  0.00    -0.352 N 
ATOM      4  C   UNL A   1      33.126  28.437  27.053  1.00  0.00     0.251 C 
ATOM      5  O   UNL A   1      32.221  27.785  27.594  1.00  0.00    -0.269 OA
ATOM      6  H   UNL A   1      33.305  29.429  28.765  1.00  0.00     0.163 HD
BRANCH   4   7
ATOM      7  C   UNL A   1      33.419  28.123  25.606  1.00  0.00     0.048 A 
ATOM      8  C   UNL A   1      33.592  26.904  24.937  1.00  0.00     0.007 A 
ATOM      9  C   UNL A   1      33.778  26.851  23.532  1.00  0.00     0.010 A 
ATOM     10  C   UNL A   1      33.798  28.006  22.760  1.00  0.00     0.001 A 
ATOM     11  C   UNL A   1      33.453  29.279  24.778  1.00  0.00     0.014 A 
ATOM     12  C   UNL A   1      33.644  29.229  23.388  1.00  0.00     0.001 A 
BRANCH   8  13
ATOM     13  C   UNL A   1      33.843  25.596  25.530  1.00  0.00     0.142 C 
ATOM     14  N   UNL A   1      34.658  24.703  25.057  1.00  0.00    -0.180 NA
BRANCH  14  15
ATOM     15  N   UNL A   1      34.870  23.604  25.891  1.00  0.00    -0.239 N 
ATOM     16  C   UNL A   1      34.492  22.306  25.549  1.00  0.00     0.329 C 
ATOM     17  O   UNL A   1      34.790  21.774  24.486  1.00  0.00    -0.262 OA
ATOM     18  H   UNL A   1      35.305  23.752  26.761  1.00  0.00     0.194 HD
BRANCH  16  19
ATOM     19  C   UNL A   1      33.388  21.709  26.414  1.00  0.00     0.315 C 
ATOM     20  N   UNL A   1      32.118  22.229  26.513  1.00  0.00    -0.318 N 
ATOM     21  H   UNL A   1      31.576  21.753  27.183  1.00  0.00     0.170 HD
ATOM     22  O   UNL A   1      33.713  20.780  27.157  1.00  0.00    -0.263 OA
BRANCH  20  23
ATOM     23  C   UNL A   1      31.400  23.269  25.896  1.00  0.00     0.041 A 
ATOM     24  C   UNL A   1      30.041  25.302  24.432  1.00  0.00    -0.045 A 
ATOM     25  C   UNL A   1      30.104  25.328  25.823  1.00  0.00     0.006 A 
ATOM     26  C   UNL A   1      30.666  24.234  23.776  1.00  0.00     0.006 A 
ATOM     27  C   UNL A   1      30.791  24.336  26.537  1.00  0.00     0.026 A 
ATOM     28  C   UNL A   1      31.322  23.228  24.498  1.00  0.00     0.026 A 
BRANCH  24  29
ATOM     29  C   UNL A   1      29.445  26.442  23.627  1.00  0.00     0.013 C 
ATOM     30  C   UNL A   1      27.964  26.726  23.888  1.00  0.00     0.012 C 
ATOM     31  C   UNL A   1      30.242  27.708  23.904  1.00  0.00     0.012 C 
ENDBRANCH  24  29
ENDBRANCH  20  23
ENDBRANCH  16  19
ENDBRANCH  14  15
ENDBRANCH   8  13
ENDBRANCH   4   7
ENDBRANCH   2   3
ENDBRANCH   1   2
BRANCH   1  32
ATOM     32  C   UNL A   1      35.371  32.907  28.056  1.00  0.00     0.002 C 
BRANCH  32  33
ATOM     33  C   UNL A   1      34.916  34.247  28.646  1.00  0.00     0.002 C 
BRANCH  33  34
ATOM     34  C   UNL A   1      33.443  34.670  28.594  1.00  0.00     0.021 C 
BRANCH  34  35
ATOM     35  C   UNL A   1      33.031  36.033  29.161  1.00  0.00     0.116 C 
BRANCH  35  36
ATOM     36  N   UNL A   1      32.417  35.993  30.478  1.00  0.00    -0.352 N 
ATOM     37  C   UNL A   1      32.788  35.512  31.719  1.00  0.00     0.251 C 
ATOM     38  H   UNL A   1      31.523  36.405  30.488  1.00  0.00     0.163 HD
ATOM     39  O   UNL A   1      31.975  35.737  32.625  1.00  0.00    -0.269 OA
BRANCH  37  40
ATOM     40  C   UNL A   1      34.054  34.777  32.086  1.00  0.00     0.039 A 
ATOM     41  C   UNL A   1      35.258  35.522  32.075  1.00  0.00     0.014 A 
ATOM     42  C   UNL A   1      34.169  33.426  32.398  1.00  0.00     0.014 A 
ATOM     43  C   UNL A   1      36.513  34.940  32.355  1.00  0.00     0.010 A 
ATOM     44  C   UNL A   1      35.422  32.831  32.659  1.00  0.00     0.010 A 
ATOM     45  C   UNL A   1      36.609  33.577  32.639  1.00  0.00    -0.014 A 
BRANCH  45  46
ATOM     46  C   UNL A   1      37.885  32.928  33.058  1.00  0.00     0.031 A 
ATOM     47  C   UNL A   1      38.524  31.808  32.280  1.00  0.00     0.074 A 
ATOM     48  C   UNL A   1      38.391  33.264  34.259  1.00  0.00     0.049 A 
ATOM     49  N   UNL A   1      39.416  30.927  32.659  1.00  0.00    -0.248 NA
ATOM     50  C   UNL A   1      38.065  31.623  30.905  1.00  0.00     0.031 C 
ATOM     51  C   UNL A   1      37.846  34.303  35.132  1.00  0.00     0.029 A 
ATOM     52  N   UNL A   1      39.434  32.733  34.971  1.00  0.00    -0.354 N 
ATOM     53  C   UNL A   1      39.531  30.013  31.611  1.00  0.00     0.074 A 
ATOM     54  C   UNL A   1      38.605  30.453  30.587  1.00  0.00     0.031 C 
ATOM     55  C   UNL A   1      38.521  34.295  36.290  1.00  0.00     0.029 A 
ATOM     56  C   UNL A   1      39.547  33.257  36.236  1.00  0.00     0.049 A 
ATOM     57  H   UNL A   1      40.042  32.046  34.613  1.00  0.00     0.167 HD
ATOM     58  C   UNL A   1      40.359  28.941  31.499  1.00  0.00     0.034 A 
ATOM     59  C   UNL A   1      40.385  32.940  37.241  1.00  0.00     0.034 A 
ATOM     60  C   UNL A   1      41.428  28.670  32.434  1.00  0.00     0.049 A 
ATOM     61  C   UNL A   1      41.448  31.909  37.001  1.00  0.00     0.074 A 
ATOM     62  C   UNL A   1      42.453  27.745  32.327  1.00  0.00     0.029 A 
ATOM     63  N   UNL A   1      41.646  29.367  33.612  1.00  0.00    -0.354 N 
ATOM     64  N   UNL A   1      41.596  31.108  35.973  1.00  0.00    -0.248 NA
ATOM     65  C   UNL A   1      42.501  31.788  38.017  1.00  0.00     0.031 C 
ATOM     66  C   UNL A   1      43.305  27.902  33.425  1.00  0.00     0.029 A 
ATOM     67  C   UNL A   1      42.810  28.925  34.218  1.00  0.00     0.049 A 
ATOM     68  H   UNL A   1      41.060  30.074  33.967  1.00  0.00     0.167 HD
ATOM     69  C   UNL A   1      42.780  30.418  36.197  1.00  0.00     0.074 A 
ATOM     70  C   UNL A   1      43.316  30.906  37.452  1.00  0.00     0.031 C 
ATOM     71  C   UNL A   1      43.363  29.458  35.436  1.00  0.00     0.034 A 
BRANCH  58  72
ATOM     72  C   UNL A   1      40.253  28.039  30.284  1.00  0.00     0.023 A 
ATOM     73  C   UNL A   1      39.249  27.052  30.227  1.00  0.00     0.012 A 
ATOM     74  C   UNL A   1      41.062  28.250  29.142  1.00  0.00     0.148 A 
ATOM     75  C   UNL A   1      39.082  26.261  29.089  1.00  0.00     0.002 A 
ATOM     76  C   UNL A   1      40.850  27.496  27.989  1.00  0.00     0.091 A 
ATOM     77  F   UNL A   1      42.019  29.188  29.198  1.00  0.00    -0.205 F 
ATOM     78  C   UNL A   1      39.872  26.491  27.967  1.00  0.00     0.022 A 
BRANCH  76  79
ATOM     79  S   UNL A   1      41.734  27.805  26.450  1.00  0.00     0.127 S 
ATOM     80  O   UNL A   1      41.307  29.172  26.137  1.00  0.00    -0.237 OA
ATOM     81  O   UNL A   1      43.136  27.694  26.871  1.00  0.00    -0.237 OA
ATOM     82  O   UNL A   1      41.299  26.782  25.524  1.00  0.00    -0.744 OA
ENDBRANCH  76  79
ENDBRANCH  58  72
BRANCH  59  83
ATOM     83  C   UNL A   1      40.314  33.732  38.496  1.00  0.00     0.023 A 
ATOM     84  C   UNL A   1      41.087  34.903  38.604  1.00  0.00     0.012 A 
ATOM     85  C   UNL A   1      39.386  33.419  39.507  1.00  0.00     0.148 A 
ATOM     86  C   UNL A   1      40.944  35.748  39.704  1.00  0.00     0.002 A 
ATOM     87  C   UNL A   1      39.210  34.292  40.574  1.00  0.00     0.091 A 
ATOM     88  F   UNL A   1      38.664  32.296  39.384  1.00  0.00    -0.205 F 
ATOM     89  C   UNL A   1      39.996  35.452  40.680  1.00  0.00     0.022 A 
BRANCH  87  90
ATOM     90  S   UNL A   1      37.897  34.068  41.781  1.00  0.00     0.127 S 
ATOM     91  O   UNL A   1      37.810  35.397  42.379  1.00  0.00    -0.237 OA
ATOM     92  O   UNL A   1      36.762  33.695  40.936  1.00  0.00    -0.237 OA
ATOM     93  O   UNL A   1      38.360  33.001  42.658  1.00  0.00    -0.744 OA
ENDBRANCH  87  90
ENDBRANCH  59  83
BRANCH  71  94
ATOM     94  C   UNL A   1      44.671  28.892  35.921  1.00  0.00     0.023 A 
ATOM     95  C   UNL A   1      45.879  29.494  35.520  1.00  0.00     0.012 A 
ATOM     96  C   UNL A   1      44.701  27.804  36.816  1.00  0.00     0.148 A 
ATOM     97  C   UNL A   1      47.101  29.000  35.977  1.00  0.00     0.002 A 
ATOM     98  C   UNL A   1      45.920  27.342  37.298  1.00  0.00     0.091 A 
ATOM     99  F   UNL A   1      43.540  27.233  37.169  1.00  0.00    -0.205 F 
ATOM    100  C   UNL A   1      47.121  27.933  36.871  1.00  0.00     0.022 A 
BRANCH  98 101
ATOM    101  S   UNL A   1      46.037  26.024  38.512  1.00  0.00     0.127 S 
ATOM    102  O   UNL A   1      45.315  26.599  39.646  1.00  0.00    -0.237 OA
ATOM    103  O   UNL A   1      45.346  24.921  37.846  1.00  0.00    -0.237 OA
ATOM    104  O   UNL A   1      47.462  25.802  38.723  1.00  0.00    -0.744 OA
ENDBRANCH  98 101
ENDBRANCH  71  94
ENDBRANCH  45  46
ENDBRANCH  37  40
ENDBRANCH  35  36
ENDBRANCH  34  35
ENDBRANCH  33  34
ENDBRANCH  32  33
ENDBRANCH   1  32
TORSDOF 21
ENDMDL
MODEL 2
REMARK VINA RESULT:     -10.8      0.762      7.445
REMARK SMILES CC(C)c1ccc(NC(=O)C(=O)N/N=C/c2ccccc2C(=O)NCCCCCCNC(=O)c2ccc(-c3c4nc(c(-c5cccc(S(=O)(=O)[O-])c5F)c5ccc([nH]5)c(-c5cccc(S(=O)(=O)[O-])c5F)c5nc(c(-c6cccc(S(=O)(=O)[O-])c6F)c6ccc3[nH]6)C=C5)C=C4)cc2)cc1
REMARK SMILES IDX 26 1 25 2 24 3 22 4 23 5 21 7 16 8 17 9 18 10 20 11 19 12
REMARK SMILES IDX 15 13 14 14 13 15 11 16 12 17 9 19 8 20 10 22 7 23 4 24 5 25
REMARK SMILES IDX 98 26 6 27 97 28 2 29 1 30 3 31 27 32 28 33 29 34 30 35
REMARK SMILES IDX 31 36 32 37 33 39 34 40 35 41 96 42 36 43 95 44 37 45 38 46
REMARK SMILES IDX 39 47 89 48 40 49 94 50 88 51 90 52 41 53 93 54 87 55 86 56
REMARK SMILES IDX 42 58 74 59 54 60 73 61 55 62 58 63 72 64 91 65 56 66 57 67
REMARK SMILES IDX 71 69 92 70 59 71 43 72 44 73 52 74 45 75 47 76 53 77 46 78
REMARK SMILES IDX 48 79 49 80 50 81 51 82 75 83 76 84 84 85 77 86 79 87 85 88
REMARK SMILES IDX 78 89 80 90 81 91 82 92 83 93 60 94 61 95 69 96 62 97 64 98
REMARK SMILES IDX 70 99 63 100 65 101 66 102 67 103 68 104
REMARK H PARENT 24 6 13 18 8 21 31 38 90 57 58 68
REMARK Flexibility Score: inf
ROOT
ATOM      1  C   UNL A   1      34.307  31.485  27.702  1.00  0.00     0.021 C 
ENDROOT
BRANCH   1   2
ATOM      2  C   UNL A   1      34.648  29.996  27.804  1.00  0.00     0.116 C 
BRANCH   2   3
ATOM      3  N   UNL A   1      33.536  29.088  27.920  1.00  0.00    -0.352 N 
ATOM      4  C   UNL A   1      32.959  28.210  27.034  1.00  0.00     0.251 C 
ATOM      5  O   UNL A   1      32.008  27.567  27.503  1.00  0.00    -0.269 OA
ATOM      6  H   UNL A   1      33.106  29.099  28.805  1.00  0.00     0.163 HD
BRANCH   4   7
ATOM      7  C   UNL A   1      33.298  27.964  25.584  1.00  0.00     0.048 A 
ATOM      8  C   UNL A   1      33.466  26.777  24.858  1.00  0.00     0.007 A 
ATOM      9  C   UNL A   1      33.703  26.792  23.460  1.00  0.00     0.010 A 
ATOM     10  C   UNL A   1      33.779  27.985  22.752  1.00  0.00     0.001 A 
ATOM     11  C   UNL A   1      33.390  29.161  24.820  1.00  0.00     0.014 A 
ATOM     12  C   UNL A   1      33.632  29.177  23.437  1.00  0.00     0.001 A 
BRANCH   8  13
ATOM     13  C   UNL A   1      33.664  25.434  25.390  1.00  0.00     0.142 C 
ATOM     14  N   UNL A   1      34.412  24.519  24.855  1.00  0.00    -0.180 NA
BRANCH  14  15
ATOM     15  N   UNL A   1      34.589  23.377  25.636  1.00  0.00    -0.239 N 
ATOM     16  C   UNL A   1      34.307  22.091  25.179  1.00  0.00     0.329 C 
ATOM     17  O   UNL A   1      34.733  21.641  24.121  1.00  0.00    -0.262 OA
ATOM     18  H   UNL A   1      34.928  23.484  26.554  1.00  0.00     0.194 HD
BRANCH  16  19
ATOM     19  C   UNL A   1      33.151  21.396  25.888  1.00  0.00     0.315 C 
ATOM     20  N   UNL A   1      31.906  21.955  26.068  1.00  0.00    -0.318 N 
ATOM     21  H   UNL A   1      31.323  21.386  26.620  1.00  0.00     0.170 HD
ATOM     22  O   UNL A   1      33.406  20.319  26.433  1.00  0.00    -0.263 OA
BRANCH  20  23
ATOM     23  C   UNL A   1      31.261  23.136  25.662  1.00  0.00     0.041 A 
ATOM     24  C   UNL A   1      30.037  25.486  24.612  1.00  0.00    -0.045 A 
ATOM     25  C   UNL A   1      30.130  25.268  25.984  1.00  0.00     0.006 A 
ATOM     26  C   UNL A   1      30.560  24.504  23.763  1.00  0.00     0.006 A 
ATOM     27  C   UNL A   1      30.752  24.119  26.495  1.00  0.00     0.026 A 
ATOM     28  C   UNL A   1      31.150  23.343  24.281  1.00  0.00     0.026 A 
BRANCH  24  29
ATOM     29  C   UNL A   1      29.515  26.789  24.034  1.00  0.00     0.013 C 
ATOM     30  C   UNL A   1      30.170  27.235  22.724  1.00  0.00     0.012 C 
ATOM     31  C   UNL A   1      28.015  26.662  23.813  1.00  0.00     0.012 C 
ENDBRANCH  24  29
ENDBRANCH  20  23
ENDBRANCH  16  19
ENDBRANCH  14  15
ENDBRANCH   8  13
ENDBRANCH   4   7
ENDBRANCH   2   3
ENDBRANCH   1   2
BRANCH   1  32
ATOM     32  C   UNL A   1      35.331  32.577  28.046  1.00  0.00     0.002 C 
BRANCH  32  33
ATOM     33  C   UNL A   1      34.955  33.846  28.820  1.00  0.00     0.002 C 
BRANCH  33  34
ATOM     34  C   UNL A   1      33.635  34.575  28.542  1.00  0.00     0.021 C 
BRANCH  34  35
ATOM     35  C   UNL A   1      33.416  35.979  29.118  1.00  0.00     0.116 C 
BRANCH  35  36
ATOM     36  N   UNL A   1      32.656  36.025  30.357  1.00  0.00    -0.352 N 
ATOM     37  C   UNL A   1      32.886  35.638  31.663  1.00  0.00     0.251 C 
ATOM     38  H   UNL A   1      31.767  36.428  30.236  1.00  0.00     0.163 HD
ATOM     39  O   UNL A   1      31.975  35.918  32.453  1.00  0.00    -0.269 OA
BRANCH  37  40
ATOM     40  C   UNL A   1      34.104  34.945  32.222  1.00  0.00     0.039 A 
ATOM     41  C   UNL A   1      33.901  33.698  32.860  1.00  0.00     0.014 A 
ATOM     42  C   UNL A   1      35.411  35.426  32.211  1.00  0.00     0.014 A 
ATOM     43  C   UNL A   1      34.952  32.974  33.462  1.00  0.00     0.010 A 
ATOM     44  C   UNL A   1      36.464  34.718  32.829  1.00  0.00     0.010 A 
ATOM     45  C   UNL A   1      36.250  33.487  33.465  1.00  0.00    -0.014 A 
BRANCH  45  46
ATOM     46  C   UNL A   1      37.421  32.718  33.978  1.00  0.00     0.031 A 
ATOM     47  C   UNL A   1      38.113  33.054  35.272  1.00  0.00     0.074 A 
ATOM     48  C   UNL A   1      37.960  31.788  33.168  1.00  0.00     0.049 A 
ATOM     49  N   UNL A   1      39.308  32.726  35.693  1.00  0.00    -0.248 NA
ATOM     50  C   UNL A   1      37.380  33.915  36.199  1.00  0.00     0.031 C 
ATOM     51  C   UNL A   1      37.413  31.394  31.870  1.00  0.00     0.029 A 
ATOM     52  N   UNL A   1      39.109  31.052  33.291  1.00  0.00    -0.354 N 
ATOM     53  C   UNL A   1      39.516  33.440  36.874  1.00  0.00     0.074 A 
ATOM     54  C   UNL A   1      38.317  34.223  37.089  1.00  0.00     0.031 C 
ATOM     55  C   UNL A   1      38.258  30.532  31.286  1.00  0.00     0.029 A 
ATOM     56  C   UNL A   1      39.398  30.310  32.172  1.00  0.00     0.049 A 
ATOM     57  H   UNL A   1      39.671  31.055  34.100  1.00  0.00     0.167 HD
ATOM     58  C   UNL A   1      40.583  33.407  37.715  1.00  0.00     0.034 A 
ATOM     59  C   UNL A   1      40.461  29.534  31.889  1.00  0.00     0.034 A 
ATOM     60  C   UNL A   1      41.655  32.445  37.593  1.00  0.00     0.049 A 
ATOM     61  C   UNL A   1      41.512  29.332  32.941  1.00  0.00     0.074 A 
ATOM     62  C   UNL A   1      42.679  32.177  38.486  1.00  0.00     0.029 A 
ATOM     63  N   UNL A   1      41.801  31.550  36.544  1.00  0.00    -0.354 N 
ATOM     64  N   UNL A   1      41.654  29.952  34.087  1.00  0.00    -0.248 NA
ATOM     65  C   UNL A   1      42.504  28.276  32.699  1.00  0.00     0.031 C 
ATOM     66  C   UNL A   1      43.426  31.103  37.990  1.00  0.00     0.029 A 
ATOM     67  C   UNL A   1      42.868  30.702  36.787  1.00  0.00     0.049 A 
ATOM     68  H   UNL A   1      41.229  31.521  35.742  1.00  0.00     0.167 HD
ATOM     69  C   UNL A   1      42.722  29.335  34.724  1.00  0.00     0.074 A 
ATOM     70  C   UNL A   1      43.183  28.283  33.839  1.00  0.00     0.031 C 
ATOM     71  C   UNL A   1      43.279  29.622  35.927  1.00  0.00     0.034 A 
BRANCH  58  72
ATOM     72  C   UNL A   1      40.617  34.337  38.914  1.00  0.00     0.023 A 
ATOM     73  C   UNL A   1      41.389  35.515  38.868  1.00  0.00     0.012 A 
ATOM     74  C   UNL A   1      39.786  34.114  40.036  1.00  0.00     0.148 A 
ATOM     75  C   UNL A   1      41.377  36.424  39.928  1.00  0.00     0.002 A 
ATOM     76  C   UNL A   1      39.734  35.055  41.064  1.00  0.00     0.091 A 
ATOM     77  F   UNL A   1      39.053  32.992  40.080  1.00  0.00    -0.205 F 
ATOM     78  C   UNL A   1      40.541  36.202  41.017  1.00  0.00     0.022 A 
BRANCH  76  79
ATOM     79  S   UNL A   1      38.594  34.919  42.451  1.00  0.00     0.127 S 
ATOM     80  O   UNL A   1      38.908  36.135  43.208  1.00  0.00    -0.237 OA
ATOM     81  O   UNL A   1      37.288  34.947  41.782  1.00  0.00    -0.237 OA
ATOM     82  O   UNL A   1      38.909  33.670  43.110  1.00  0.00    -0.744 OA
ENDBRANCH  76  79
ENDBRANCH  58  72
BRANCH  59  83
ATOM     83  C   UNL A   1      40.472  28.791  30.603  1.00  0.00     0.023 A 
ATOM     84  C   UNL A   1      39.409  27.914  30.315  1.00  0.00     0.012 A 
ATOM     85  C   UNL A   1      41.435  29.059  29.611  1.00  0.00     0.148 A 
ATOM     86  C   UNL A   1      39.308  27.308  29.064  1.00  0.00     0.002 A 
ATOM     87  C   UNL A   1      41.299  28.494  28.349  1.00  0.00     0.091 A 
ATOM     88  F   UNL A   1      42.440  29.895  29.909  1.00  0.00    -0.205 F 
ATOM     89  C   UNL A   1      40.243  27.609  28.076  1.00  0.00     0.022 A 
BRANCH  87  90
ATOM     90  S   UNL A   1      42.364  28.961  26.978  1.00  0.00     0.127 S 
ATOM     91  O   UNL A   1      41.445  28.885  25.846  1.00  0.00    -0.237 OA
ATOM     92  O   UNL A   1      42.773  30.315  27.352  1.00  0.00    -0.237 OA
ATOM     93  O   UNL A   1      43.450  27.989  26.986  1.00  0.00    -0.744 OA
ENDBRANCH  87  90
ENDBRANCH  59  83
BRANCH  71  94
ATOM     94  C   UNL A   1      44.430  28.765  36.379  1.00  0.00     0.023 A 
ATOM     95  C   UNL A   1      45.751  29.181  36.119  1.00  0.00     0.012 A 
ATOM     96  C   UNL A   1      44.208  27.580  37.109  1.00  0.00     0.148 A 
ATOM     97  C   UNL A   1      46.833  28.415  36.551  1.00  0.00     0.002 A 
ATOM     98  C   UNL A   1      45.291  26.841  37.570  1.00  0.00     0.091 A 
ATOM     99  F   UNL A   1      42.943  27.191  37.328  1.00  0.00    -0.205 F 
ATOM    100  C   UNL A   1      46.603  27.252  37.283  1.00  0.00     0.022 A 
BRANCH  98 101
ATOM    101  S   UNL A   1      45.091  25.374  38.587  1.00  0.00     0.127 S 
ATOM    102  O   UNL A   1      46.478  24.957  38.784  1.00  0.00    -0.237 OA
ATOM    103  O   UNL A   1      44.440  25.908  39.783  1.00  0.00    -0.237 OA
ATOM    104  O   UNL A   1      44.265  24.460  37.809  1.00  0.00    -0.744 OA
ENDBRANCH  98 101
ENDBRANCH  71  94
ENDBRANCH  45  46
ENDBRANCH  37  40
ENDBRANCH  35  36
ENDBRANCH  34  35
ENDBRANCH  33  34
ENDBRANCH  32  33
ENDBRANCH   1  32
TORSDOF 21
ENDMDL
MODEL 3
REMARK VINA RESULT:     -10.7      2.480      5.014
REMARK SMILES CC(C)c1ccc(NC(=O)C(=O)N/N=C/c2ccccc2C(=O)NCCCCCCNC(=O)c2ccc(-c3c4nc(c(-c5cccc(S(=O)(=O)[O-])c5F)c5ccc([nH]5)c(-c5cccc(S(=O)(=O)[O-])c5F)c5nc(c(-c6cccc(S(=O)(=O)[O-])c6F)c6ccc3[nH]6)C=C5)C=C4)cc2)cc1
REMARK SMILES IDX 26 1 25 2 24 3 22 4 23 5 21 7 16 8 17 9 18 10 20 11 19 12
REMARK SMILES IDX 15 13 14 14 13 15 11 16 12 17 9 19 8 20 10 22 7 23 4 24 5 25
REMARK SMILES IDX 98 26 6 27 97 28 2 29 1 30 3 31 27 32 28 33 29 34 30 35
REMARK SMILES IDX 31 36 32 37 33 39 34 40 35 41 96 42 36 43 95 44 37 45 38 46
REMARK SMILES IDX 39 47 89 48 40 49 94 50 88 51 90 52 41 53 93 54 87 55 86 56
REMARK SMILES IDX 42 58 74 59 54 60 73 61 55 62 58 63 72 64 91 65 56 66 57 67
REMARK SMILES IDX 71 69 92 70 59 71 43 72 44 73 52 74 45 75 47 76 53 77 46 78
REMARK SMILES IDX 48 79 49 80 50 81 51 82 75 83 76 84 84 85 77 86 79 87 85 88
REMARK SMILES IDX 78 89 80 90 81 91 82 92 83 93 60 94 61 95 69 96 62 97 64 98
REMARK SMILES IDX 70 99 63 100 65 101 66 102 67 103 68 104
REMARK H PARENT 24 6 13 18 8 21 31 38 90 57 58 68
REMARK Flexibility Score: inf
ROOT
ATOM      1  C   UNL A   1      32.309  27.948  27.340  1.00  0.00     0.021 C 
ENDROOT
BRANCH   1   2
ATOM      2  C   UNL A   1      32.509  26.642  26.567  1.00  0.00     0.116 C 
BRANCH   2   3
ATOM      3  N   UNL A   1      31.946  25.454  27.154  1.00  0.00    -0.352 N 
ATOM      4  C   UNL A   1      31.714  24.194  26.658  1.00  0.00     0.251 C 
ATOM      5  O   UNL A   1      31.221  23.407  27.479  1.00  0.00    -0.269 OA
ATOM      6  H   UNL A   1      31.675  25.567  28.094  1.00  0.00     0.163 HD
BRANCH   4   7
ATOM      7  C   UNL A   1      31.938  23.668  25.260  1.00  0.00     0.048 A 
ATOM      8  C   UNL A   1      32.888  22.777  24.745  1.00  0.00     0.007 A 
ATOM      9  C   UNL A   1      32.850  22.357  23.391  1.00  0.00     0.010 A 
ATOM     10  C   UNL A   1      31.868  22.812  22.519  1.00  0.00     0.001 A 
ATOM     11  C   UNL A   1      30.955  24.113  24.332  1.00  0.00     0.014 A 
ATOM     12  C   UNL A   1      30.921  23.703  22.990  1.00  0.00     0.001 A 
BRANCH   8  13
ATOM     13  C   UNL A   1      34.132  22.348  25.373  1.00  0.00     0.142 C 
ATOM     14  N   UNL A   1      35.220  23.052  25.439  1.00  0.00    -0.180 NA
BRANCH  14  15
ATOM     15  N   UNL A   1      36.221  22.508  26.244  1.00  0.00    -0.239 N 
ATOM     16  C   UNL A   1      37.578  22.607  25.940  1.00  0.00     0.329 C 
ATOM     17  O   UNL A   1      38.135  23.664  25.668  1.00  0.00    -0.262 OA
ATOM     18  H   UNL A   1      35.958  22.031  27.063  1.00  0.00     0.194 HD
BRANCH  16  19
ATOM     19  C   UNL A   1      38.262  21.284  25.615  1.00  0.00     0.315 C 
ATOM     20  N   UNL A   1      39.581  21.007  25.892  1.00  0.00    -0.318 N 
ATOM     21  H   UNL A   1      39.858  20.134  25.532  1.00  0.00     0.170 HD
ATOM     22  O   UNL A   1      37.609  20.475  24.952  1.00  0.00    -0.263 OA
BRANCH  20  23
ATOM     23  C   UNL A   1      40.632  21.660  26.560  1.00  0.00     0.041 A 
ATOM     24  C   UNL A   1      42.898  22.950  27.712  1.00  0.00    -0.045 A 
ATOM     25  C   UNL A   1      41.799  22.584  28.486  1.00  0.00     0.006 A 
ATOM     26  C   UNL A   1      42.847  22.667  26.342  1.00  0.00     0.006 A 
ATOM     27  C   UNL A   1      40.696  21.931  27.917  1.00  0.00     0.026 A 
ATOM     28  C   UNL A   1      41.726  22.045  25.775  1.00  0.00     0.026 A 
BRANCH  24  29
ATOM     29  C   UNL A   1      44.168  23.510  28.325  1.00  0.00     0.013 C 
ATOM     30  C   UNL A   1      45.019  24.377  27.394  1.00  0.00     0.012 C 
ATOM     31  C   UNL A   1      43.800  24.326  29.555  1.00  0.00     0.012 C 
ENDBRANCH  24  29
ENDBRANCH  20  23
ENDBRANCH  16  19
ENDBRANCH  14  15
ENDBRANCH   8  13
ENDBRANCH   4   7
ENDBRANCH   2   3
ENDBRANCH   1   2
BRANCH   1  32
ATOM     32  C   UNL A   1      31.631  29.171  26.706  1.00  0.00     0.002 C 
BRANCH  32  33
ATOM     33  C   UNL A   1      32.371  30.490  26.460  1.00  0.00     0.002 C 
BRANCH  33  34
ATOM     34  C   UNL A   1      31.875  31.800  27.085  1.00  0.00     0.021 C 
BRANCH  34  35
ATOM     35  C   UNL A   1      32.507  33.127  26.652  1.00  0.00     0.116 C 
BRANCH  35  36
ATOM     36  N   UNL A   1      32.353  34.221  27.597  1.00  0.00    -0.352 N 
ATOM     37  C   UNL A   1      33.024  34.641  28.728  1.00  0.00     0.251 C 
ATOM     38  H   UNL A   1      31.588  34.800  27.379  1.00  0.00     0.163 HD
ATOM     39  O   UNL A   1      32.594  35.690  29.225  1.00  0.00    -0.269 OA
BRANCH  37  40
ATOM     40  C   UNL A   1      34.209  33.987  29.398  1.00  0.00     0.039 A 
ATOM     41  C   UNL A   1      35.496  34.373  28.952  1.00  0.00     0.014 A 
ATOM     42  C   UNL A   1      34.167  33.010  30.388  1.00  0.00     0.014 A 
ATOM     43  C   UNL A   1      36.679  33.802  29.466  1.00  0.00     0.010 A 
ATOM     44  C   UNL A   1      35.345  32.420  30.893  1.00  0.00     0.010 A 
ATOM     45  C   UNL A   1      36.615  32.804  30.439  1.00  0.00    -0.014 A 
BRANCH  45  46
ATOM     46  C   UNL A   1      37.828  32.247  31.106  1.00  0.00     0.031 A 
ATOM     47  C   UNL A   1      38.660  31.150  30.498  1.00  0.00     0.074 A 
ATOM     48  C   UNL A   1      38.086  32.646  32.365  1.00  0.00     0.049 A 
ATOM     49  N   UNL A   1      39.517  30.337  31.064  1.00  0.00    -0.248 NA
ATOM     50  C   UNL A   1      38.471  30.901  29.070  1.00  0.00     0.031 C 
ATOM     51  C   UNL A   1      37.332  33.671  33.086  1.00  0.00     0.029 A 
ATOM     52  N   UNL A   1      39.010  32.200  33.273  1.00  0.00    -0.354 N 
ATOM     53  C   UNL A   1      39.873  29.405  30.089  1.00  0.00     0.074 A 
ATOM     54  C   UNL A   1      39.126  29.759  28.900  1.00  0.00     0.031 C 
ATOM     55  C   UNL A   1      37.783  33.735  34.347  1.00  0.00     0.029 A 
ATOM     56  C   UNL A   1      38.860  32.763  34.517  1.00  0.00     0.049 A 
ATOM     57  H   UNL A   1      39.711  31.544  33.057  1.00  0.00     0.167 HD
ATOM     58  C   UNL A   1      40.768  28.385  30.169  1.00  0.00     0.034 A 
ATOM     59  C   UNL A   1      39.516  32.526  35.668  1.00  0.00     0.034 A 
ATOM     60  C   UNL A   1      41.662  28.206  31.290  1.00  0.00     0.049 A 
ATOM     61  C   UNL A   1      40.662  31.557  35.663  1.00  0.00     0.074 A 
ATOM     62  C   UNL A   1      42.741  27.344  31.405  1.00  0.00     0.029 A 
ATOM     63  N   UNL A   1      41.621  28.945  32.462  1.00  0.00    -0.354 N 
ATOM     64  N   UNL A   1      41.041  30.741  34.709  1.00  0.00    -0.248 NA
ATOM     65  C   UNL A   1      41.517  31.529  36.857  1.00  0.00     0.031 C 
ATOM     66  C   UNL A   1      43.367  27.583  32.633  1.00  0.00     0.029 A 
ATOM     67  C   UNL A   1      42.678  28.593  33.285  1.00  0.00     0.049 A 
ATOM     68  H   UNL A   1      40.940  29.623  32.679  1.00  0.00     0.167 HD
ATOM     69  C   UNL A   1      42.201  30.132  35.168  1.00  0.00     0.074 A 
ATOM     70  C   UNL A   1      42.471  30.686  36.481  1.00  0.00     0.031 C 
ATOM     71  C   UNL A   1      42.968  29.192  34.562  1.00  0.00     0.034 A 
BRANCH  58  72
ATOM     72  C   UNL A   1      40.937  27.447  28.988  1.00  0.00     0.023 A 
ATOM     73  C   UNL A   1      40.092  26.327  28.854  1.00  0.00     0.012 A 
ATOM     74  C   UNL A   1      41.845  27.740  27.944  1.00  0.00     0.148 A 
ATOM     75  C   UNL A   1      40.177  25.492  27.738  1.00  0.00     0.002 A 
ATOM     76  C   UNL A   1      41.883  26.935  26.806  1.00  0.00     0.091 A 
ATOM     77  F   UNL A   1      42.650  28.805  28.073  1.00  0.00    -0.205 F 
ATOM     78  C   UNL A   1      41.061  25.803  26.710  1.00  0.00     0.022 A 
BRANCH  76  79
ATOM     79  S   UNL A   1      42.900  27.326  25.372  1.00  0.00     0.127 S 
ATOM     80  O   UNL A   1      44.225  27.471  25.984  1.00  0.00    -0.237 OA
ATOM     81  O   UNL A   1      42.747  26.122  24.547  1.00  0.00    -0.237 OA
ATOM     82  O   UNL A   1      42.339  28.529  24.796  1.00  0.00    -0.744 OA
ENDBRANCH  76  79
ENDBRANCH  58  72
BRANCH  59  83
ATOM     83  C   UNL A   1      39.173  33.344  36.860  1.00  0.00     0.023 A 
ATOM     84  C   UNL A   1      38.350  32.783  37.854  1.00  0.00     0.012 A 
ATOM     85  C   UNL A   1      39.770  34.599  37.082  1.00  0.00     0.148 A 
ATOM     86  C   UNL A   1      38.119  33.463  39.050  1.00  0.00     0.002 A 
ATOM     87  C   UNL A   1      39.579  35.247  38.297  1.00  0.00     0.091 A 
ATOM     88  F   UNL A   1      40.547  35.115  36.119  1.00  0.00    -0.205 F 
ATOM     89  C   UNL A   1      38.745  34.685  39.278  1.00  0.00     0.022 A 
BRANCH  87  90
ATOM     90  S   UNL A   1      40.482  36.739  38.732  1.00  0.00     0.127 S 
ATOM     91  O   UNL A   1      41.200  37.026  37.494  1.00  0.00    -0.237 OA
ATOM     92  O   UNL A   1      39.400  37.673  39.049  1.00  0.00    -0.237 OA
ATOM     93  O   UNL A   1      41.303  36.372  39.878  1.00  0.00    -0.744 OA
ENDBRANCH  87  90
ENDBRANCH  59  83
BRANCH  71  94
ATOM     94  C   UNL A   1      44.195  28.722  35.295  1.00  0.00     0.023 A 
ATOM     95  C   UNL A   1      45.428  29.364  35.070  1.00  0.00     0.012 A 
ATOM     96  C   UNL A   1      44.116  27.686  36.248  1.00  0.00     0.148 A 
ATOM     97  C   UNL A   1      46.572  28.961  35.758  1.00  0.00     0.002 A 
ATOM     98  C   UNL A   1      45.253  27.315  36.957  1.00  0.00     0.091 A 
ATOM     99  F   UNL A   1      42.937  27.074  36.433  1.00  0.00    -0.205 F 
ATOM    100  C   UNL A   1      46.483  27.945  36.706  1.00  0.00     0.022 A 
BRANCH  98 101
ATOM    101  S   UNL A   1      45.214  26.072  38.252  1.00  0.00     0.127 S 
ATOM    102  O   UNL A   1      46.616  26.028  38.666  1.00  0.00    -0.237 OA
ATOM    103  O   UNL A   1      44.308  26.668  39.234  1.00  0.00    -0.237 OA
ATOM    104  O   UNL A   1      44.707  24.859  37.625  1.00  0.00    -0.744 OA
ENDBRANCH  98 101
ENDBRANCH  71  94
ENDBRANCH  45  46
ENDBRANCH  37  40
ENDBRANCH  35  36
ENDBRANCH  34  35
ENDBRANCH  33  34
ENDBRANCH  32  33
ENDBRANCH   1  32
TORSDOF 21
ENDMDL
