MODEL 1
REMARK VINA RESULT:     -11.1      0.000      0.000
REMARK SMILES C[C@@H](C(=O)NCCCCCCNC(=O)c1ccc(-c2c3nc(c(-c4cccc(S(=O)(=O)[O-])c4F)c4ccc([nH]4)c(-c4cccc(S(=O)(=O)[O-])c4F)c4nc(c(-c5cccc(S(=O)(=O)[O-])c5F)c5ccc2[nH]5)C=C4)C=C3)cc1)c1ccc(C[C@H]2CCC[C@@H]2O)cc1
REMARK SMILES IDX 8 1 7 2 6 3 5 4 3 5 4 6 2 8 1 9 78 10 79 11 90 12 80 13
REMARK SMILES IDX 89 14 81 15 82 16 83 17 84 18 87 19 85 20 86 21 88 22 9 24
REMARK SMILES IDX 10 25 11 26 12 27 13 28 14 30 15 31 16 32 77 33 17 34 76 35
REMARK SMILES IDX 18 36 19 37 20 38 70 39 21 40 75 41 69 42 71 43 22 44 74 45
REMARK SMILES IDX 68 46 67 47 23 49 55 50 35 51 54 52 36 53 39 54 53 55 72 56
REMARK SMILES IDX 37 57 38 58 52 60 73 61 40 62 24 63 25 64 33 65 26 66 28 67
REMARK SMILES IDX 34 68 27 69 29 70 30 71 31 72 32 73 56 74 57 75 65 76 58 77
REMARK SMILES IDX 60 78 66 79 59 80 61 81 62 82 63 83 64 84 41 85 42 86 50 87
REMARK SMILES IDX 43 88 45 89 51 90 44 91 46 92 47 93 48 94 49 95
REMARK H PARENT 5 7 88 23 12 29 71 48 39 59
REMARK Flexibility Score: inf
ROOT
ATOM      1  C   UNL A   1      33.871  25.165  24.267  1.00  0.00     0.002 C 
ENDROOT
BRANCH   1   2
ATOM      2  C   UNL A   1      34.764  24.681  25.418  1.00  0.00     0.021 C 
BRANCH   2   3
ATOM      3  C   UNL A   1      34.023  23.883  26.494  1.00  0.00     0.116 C 
BRANCH   3   4
ATOM      4  N   UNL A   1      33.365  22.736  25.909  1.00  0.00    -0.356 N 
ATOM      5  C   UNL A   1      32.051  22.377  25.886  1.00  0.00     0.227 C 
ATOM      6  O   UNL A   1      31.811  21.282  25.371  1.00  0.00    -0.274 OA
ATOM      7  H   UNL A   1      33.968  22.107  25.449  1.00  0.00     0.163 HD
BRANCH   5   8
ATOM      8  C   UNL A   1      30.971  23.345  26.418  1.00  0.00     0.105 C 
ATOM      9  C   UNL A   1      29.650  22.669  26.784  1.00  0.00     0.023 C 
BRANCH   8  10
ATOM     10  C   UNL A   1      30.641  24.508  25.484  1.00  0.00    -0.036 A 
ATOM     11  C   UNL A   1      30.396  25.804  25.960  1.00  0.00     0.005 A 
ATOM     12  C   UNL A   1      30.668  24.305  24.097  1.00  0.00     0.005 A 
ATOM     13  C   UNL A   1      30.081  26.840  25.083  1.00  0.00     0.004 A 
ATOM     14  C   UNL A   1      30.366  25.348  23.219  1.00  0.00     0.004 A 
ATOM     15  C   UNL A   1      30.019  26.612  23.708  1.00  0.00    -0.048 A 
BRANCH  15  16
ATOM     16  C   UNL A   1      29.532  27.692  22.775  1.00  0.00     0.041 C 
BRANCH  16  17
ATOM     17  C   UNL A   1      28.882  28.908  23.462  1.00  0.00     0.022 C 
ATOM     18  C   UNL A   1      29.800  30.118  23.704  1.00  0.00     0.007 C 
ATOM     19  C   UNL A   1      27.653  29.491  22.756  1.00  0.00     0.117 C 
ATOM     20  C   UNL A   1      28.937  31.363  23.487  1.00  0.00     0.003 C 
ATOM     21  C   UNL A   1      27.506  30.861  23.402  1.00  0.00     0.032 C 
BRANCH  19  22
ATOM     22  O   UNL A   1      26.512  28.683  22.991  1.00  0.00    -0.393 OA
ATOM     23  H   UNL A   1      25.743  29.070  22.543  1.00  0.00     0.210 HD
ENDBRANCH  19  22
ENDBRANCH  16  17
ENDBRANCH  15  16
ENDBRANCH   8  10
ENDBRANCH   5   8
ENDBRANCH   3   4
ENDBRANCH   2   3
ENDBRANCH   1   2
BRANCH   1  24
ATOM     24  C   UNL A   1      33.803  26.685  24.096  1.00  0.00     0.002 C 
BRANCH  24  25
ATOM     25  C   UNL A   1      33.568  27.464  25.390  1.00  0.00     0.021 C 
BRANCH  25  26
ATOM     26  C   UNL A   1      34.666  28.464  25.731  1.00  0.00     0.116 C 
BRANCH  26  27
ATOM     27  N   UNL A   1      34.133  29.663  26.361  1.00  0.00    -0.352 N 
ATOM     28  C   UNL A   1      34.599  30.334  27.462  1.00  0.00     0.251 C 
ATOM     29  H   UNL A   1      33.330  30.045  25.938  1.00  0.00     0.163 HD
ATOM     30  O   UNL A   1      33.914  31.209  27.988  1.00  0.00    -0.269 OA
BRANCH  28  31
ATOM     31  C   UNL A   1      35.921  29.986  28.024  1.00  0.00     0.039 A 
ATOM     32  C   UNL A   1      35.987  29.395  29.287  1.00  0.00     0.014 A 
ATOM     33  C   UNL A   1      37.090  30.231  27.298  1.00  0.00     0.014 A 
ATOM     34  C   UNL A   1      37.226  29.000  29.799  1.00  0.00     0.010 A 
ATOM     35  C   UNL A   1      38.311  29.765  27.774  1.00  0.00     0.010 A 
ATOM     36  C   UNL A   1      38.394  29.151  29.033  1.00  0.00    -0.014 A 
BRANCH  36  37
ATOM     37  C   UNL A   1      39.707  28.664  29.529  1.00  0.00     0.031 A 
ATOM     38  C   UNL A   1      40.417  29.391  30.639  1.00  0.00     0.074 A 
ATOM     39  C   UNL A   1      40.297  27.611  28.926  1.00  0.00     0.049 A 
ATOM     40  N   UNL A   1      41.588  29.144  31.168  1.00  0.00    -0.248 NA
ATOM     41  C   UNL A   1      39.738  30.564  31.215  1.00  0.00     0.031 C 
ATOM     42  C   UNL A   1      39.746  26.869  27.789  1.00  0.00     0.029 A 
ATOM     43  N   UNL A   1      41.502  26.999  29.167  1.00  0.00    -0.354 N 
ATOM     44  C   UNL A   1      41.800  30.145  32.108  1.00  0.00     0.074 A 
ATOM     45  C   UNL A   1      40.652  31.022  32.057  1.00  0.00     0.031 C 
ATOM     46  C   UNL A   1      40.605  25.901  27.436  1.00  0.00     0.029 A 
ATOM     47  C   UNL A   1      41.784  25.974  28.293  1.00  0.00     0.049 A 
ATOM     48  H   UNL A   1      42.107  27.268  29.895  1.00  0.00     0.167 HD
ATOM     49  C   UNL A   1      42.843  30.305  32.957  1.00  0.00     0.034 A 
ATOM     50  C   UNL A   1      42.875  25.189  28.185  1.00  0.00     0.034 A 
ATOM     51  C   UNL A   1      43.965  29.408  33.031  1.00  0.00     0.049 A 
ATOM     52  C   UNL A   1      44.006  25.372  29.162  1.00  0.00     0.074 A 
ATOM     53  C   UNL A   1      45.028  29.435  33.918  1.00  0.00     0.029 A 
ATOM     54  N   UNL A   1      44.178  28.333  32.183  1.00  0.00    -0.354 N 
ATOM     55  N   UNL A   1      44.114  26.228  30.148  1.00  0.00    -0.248 NA
ATOM     56  C   UNL A   1      45.150  24.458  29.033  1.00  0.00     0.031 C 
ATOM     57  C   UNL A   1      45.902  28.397  33.582  1.00  0.00     0.029 A 
ATOM     58  C   UNL A   1      45.363  27.698  32.515  1.00  0.00     0.049 A 
ATOM     59  H   UNL A   1      43.577  28.062  31.453  1.00  0.00     0.167 HD
ATOM     60  C   UNL A   1      45.314  25.929  30.782  1.00  0.00     0.074 A 
ATOM     61  C   UNL A   1      45.887  24.800  30.080  1.00  0.00     0.031 C 
ATOM     62  C   UNL A   1      45.895  26.541  31.842  1.00  0.00     0.034 A 
BRANCH  49  63
ATOM     63  C   UNL A   1      42.806  31.471  33.911  1.00  0.00     0.023 A 
ATOM     64  C   UNL A   1      43.357  32.709  33.522  1.00  0.00     0.012 A 
ATOM     65  C   UNL A   1      42.156  31.364  35.155  1.00  0.00     0.148 A 
ATOM     66  C   UNL A   1      43.288  33.814  34.368  1.00  0.00     0.002 A 
ATOM     67  C   UNL A   1      42.048  32.483  35.973  1.00  0.00     0.091 A 
ATOM     68  F   UNL A   1      41.654  30.174  35.514  1.00  0.00    -0.205 F 
ATOM     69  C   UNL A   1      42.624  33.705  35.587  1.00  0.00     0.022 A 
BRANCH  67  70
ATOM     70  S   UNL A   1      41.142  32.469  37.523  1.00  0.00     0.127 S 
ATOM     71  O   UNL A   1      42.008  31.642  38.364  1.00  0.00    -0.237 OA
ATOM     72  O   UNL A   1      41.121  33.888  37.878  1.00  0.00    -0.237 OA
ATOM     73  O   UNL A   1      39.838  31.895  37.224  1.00  0.00    -0.744 OA
ENDBRANCH  67  70
ENDBRANCH  49  63
BRANCH  50  74
ATOM     74  C   UNL A   1      42.936  24.127  27.141  1.00  0.00     0.023 A 
ATOM     75  C   UNL A   1      43.664  24.355  25.957  1.00  0.00     0.012 A 
ATOM     76  C   UNL A   1      42.280  22.894  27.316  1.00  0.00     0.148 A 
ATOM     77  C   UNL A   1      43.702  23.392  24.948  1.00  0.00     0.002 A 
ATOM     78  C   UNL A   1      42.371  21.915  26.333  1.00  0.00     0.091 A 
ATOM     79  F   UNL A   1      41.585  22.698  28.446  1.00  0.00    -0.205 F 
ATOM     80  C   UNL A   1      43.063  22.170  25.139  1.00  0.00     0.022 A 
BRANCH  78  81
ATOM     81  S   UNL A   1      41.692  20.267  26.552  1.00  0.00     0.127 S 
ATOM     82  O   UNL A   1      40.257  20.536  26.588  1.00  0.00    -0.237 OA
ATOM     83  O   UNL A   1      42.162  19.584  25.347  1.00  0.00    -0.237 OA
ATOM     84  O   UNL A   1      42.274  19.764  27.790  1.00  0.00    -0.744 OA
ENDBRANCH  78  81
ENDBRANCH  50  74
BRANCH  62  85
ATOM     85  C   UNL A   1      47.196  25.977  32.352  1.00  0.00     0.023 A 
ATOM     86  C   UNL A   1      47.201  25.082  33.440  1.00  0.00     0.012 A 
ATOM     87  C   UNL A   1      48.409  26.279  31.700  1.00  0.00     0.148 A 
ATOM     88  C   UNL A   1      48.397  24.526  33.895  1.00  0.00     0.002 A 
ATOM     89  C   UNL A   1      49.588  25.680  32.124  1.00  0.00     0.091 A 
ATOM     90  F   UNL A   1      48.385  27.146  30.677  1.00  0.00    -0.205 F 
ATOM     91  C   UNL A   1      49.586  24.815  33.230  1.00  0.00     0.022 A 
BRANCH  89  92
ATOM     92  S   UNL A   1      51.149  25.912  31.267  1.00  0.00     0.127 S 
ATOM     93  O   UNL A   1      50.770  25.641  29.880  1.00  0.00    -0.237 OA
ATOM     94  O   UNL A   1      51.453  27.314  31.554  1.00  0.00    -0.237 OA
ATOM     95  O   UNL A   1      52.079  24.959  31.856  1.00  0.00    -0.744 OA
ENDBRANCH  89  92
ENDBRANCH  62  85
ENDBRANCH  36  37
ENDBRANCH  28  31
ENDBRANCH  26  27
ENDBRANCH  25  26
ENDBRANCH  24  25
ENDBRANCH   1  24
TORSDOF 20
ENDMDL
MODEL 2
REMARK VINA RESULT:     -11.1      4.302      8.914
REMARK SMILES C[C@@H](C(=O)NCCCCCCNC(=O)c1ccc(-c2c3nc(c(-c4cccc(S(=O)(=O)[O-])c4F)c4ccc([nH]4)c(-c4cccc(S(=O)(=O)[O-])c4F)c4nc(c(-c5cccc(S(=O)(=O)[O-])c5F)c5ccc2[nH]5)C=C4)C=C3)cc1)c1ccc(C[C@H]2CCC[C@@H]2O)cc1
REMARK SMILES IDX 8 1 7 2 6 3 5 4 3 5 4 6 2 8 1 9 78 10 79 11 90 12 80 13
REMARK SMILES IDX 89 14 81 15 82 16 83 17 84 18 87 19 85 20 86 21 88 22 9 24
REMARK SMILES IDX 10 25 11 26 12 27 13 28 14 30 15 31 16 32 77 33 17 34 76 35
REMARK SMILES IDX 18 36 19 37 20 38 70 39 21 40 75 41 69 42 71 43 22 44 74 45
REMARK SMILES IDX 68 46 67 47 23 49 55 50 35 51 54 52 36 53 39 54 53 55 72 56
REMARK SMILES IDX 37 57 38 58 52 60 73 61 40 62 24 63 25 64 33 65 26 66 28 67
REMARK SMILES IDX 34 68 27 69 29 70 30 71 31 72 32 73 56 74 57 75 65 76 58 77
REMARK SMILES IDX 60 78 66 79 59 80 61 81 62 82 63 83 64 84 41 85 42 86 50 87
REMARK SMILES IDX 43 88 45 89 51 90 44 91 46 92 47 93 48 94 49 95
REMARK H PARENT 5 7 88 23 12 29 71 48 39 59
REMARK Flexibility Score: inf
ROOT
ATOM      1  C   UNL A   1      34.703  20.741  24.671  1.00  0.00     0.002 C 
ENDROOT
BRANCH   1   2
ATOM      2  C   UNL A   1      33.530  20.331  25.572  1.00  0.00     0.021 C 
BRANCH   2   3
ATOM      3  C   UNL A   1      32.184  20.934  25.164  1.00  0.00     0.116 C 
BRANCH   3   4
ATOM      4  N   UNL A   1      31.709  21.845  26.182  1.00  0.00    -0.356 N 
ATOM      5  C   UNL A   1      31.945  23.173  26.370  1.00  0.00     0.227 C 
ATOM      6  O   UNL A   1      31.453  23.657  27.392  1.00  0.00    -0.274 OA
ATOM      7  H   UNL A   1      31.113  21.437  26.852  1.00  0.00     0.163 HD
BRANCH   5   8
ATOM      8  C   UNL A   1      32.720  23.983  25.308  1.00  0.00     0.105 C 
ATOM      9  C   UNL A   1      34.012  24.618  25.824  1.00  0.00     0.023 C 
BRANCH   8  10
ATOM     10  C   UNL A   1      31.911  25.089  24.633  1.00  0.00    -0.036 A 
ATOM     11  C   UNL A   1      30.582  24.902  24.225  1.00  0.00     0.005 A 
ATOM     12  C   UNL A   1      32.475  26.364  24.489  1.00  0.00     0.005 A 
ATOM     13  C   UNL A   1      29.875  25.925  23.596  1.00  0.00     0.004 A 
ATOM     14  C   UNL A   1      31.761  27.394  23.872  1.00  0.00     0.004 A 
ATOM     15  C   UNL A   1      30.473  27.166  23.374  1.00  0.00    -0.048 A 
BRANCH  15  16
ATOM     16  C   UNL A   1      29.764  28.221  22.561  1.00  0.00     0.041 C 
BRANCH  16  17
ATOM     17  C   UNL A   1      28.984  29.266  23.379  1.00  0.00     0.022 C 
ATOM     18  C   UNL A   1      29.746  30.555  23.730  1.00  0.00     0.007 C 
ATOM     19  C   UNL A   1      27.670  29.751  22.757  1.00  0.00     0.117 C 
ATOM     20  C   UNL A   1      28.724  31.692  23.656  1.00  0.00     0.003 C 
ATOM     21  C   UNL A   1      27.367  31.019  23.543  1.00  0.00     0.032 C 
BRANCH  19  22
ATOM     22  O   UNL A   1      26.650  28.782  22.926  1.00  0.00    -0.393 OA
ATOM     23  H   UNL A   1      26.252  28.576  22.065  1.00  0.00     0.210 HD
ENDBRANCH  19  22
ENDBRANCH  16  17
ENDBRANCH  15  16
ENDBRANCH   8  10
ENDBRANCH   5   8
ENDBRANCH   3   4
ENDBRANCH   2   3
ENDBRANCH   1   2
BRANCH   1  24
ATOM     24  C   UNL A   1      35.933  21.272  25.412  1.00  0.00     0.002 C 
BRANCH  24  25
ATOM     25  C   UNL A   1      37.265  20.686  24.940  1.00  0.00     0.021 C 
BRANCH  25  26
ATOM     26  C   UNL A   1      38.487  21.246  25.657  1.00  0.00     0.116 C 
BRANCH  26  27
ATOM     27  N   UNL A   1      39.471  20.212  25.944  1.00  0.00    -0.352 N 
ATOM     28  C   UNL A   1      40.784  20.354  26.309  1.00  0.00     0.251 C 
ATOM     29  H   UNL A   1      39.148  19.284  25.866  1.00  0.00     0.163 HD
ATOM     30  O   UNL A   1      41.534  19.378  26.311  1.00  0.00    -0.269 OA
BRANCH  28  31
ATOM     31  C   UNL A   1      41.299  21.688  26.681  1.00  0.00     0.039 A 
ATOM     32  C   UNL A   1      41.743  22.549  25.675  1.00  0.00     0.014 A 
ATOM     33  C   UNL A   1      41.329  22.092  28.019  1.00  0.00     0.014 A 
ATOM     34  C   UNL A   1      42.168  23.837  26.009  1.00  0.00     0.010 A 
ATOM     35  C   UNL A   1      41.676  23.401  28.339  1.00  0.00     0.010 A 
ATOM     36  C   UNL A   1      42.107  24.286  27.340  1.00  0.00    -0.014 A 
BRANCH  36  37
ATOM     37  C   UNL A   1      42.478  25.678  27.699  1.00  0.00     0.031 A 
ATOM     38  C   UNL A   1      43.909  26.134  27.594  1.00  0.00     0.074 A 
ATOM     39  C   UNL A   1      41.540  26.510  28.197  1.00  0.00     0.049 A 
ATOM     40  N   UNL A   1      44.430  27.292  27.909  1.00  0.00    -0.248 NA
ATOM     41  C   UNL A   1      44.890  25.155  27.093  1.00  0.00     0.031 C 
ATOM     42  C   UNL A   1      40.134  26.162  28.420  1.00  0.00     0.029 A 
ATOM     43  N   UNL A   1      41.631  27.809  28.630  1.00  0.00    -0.354 N 
ATOM     44  C   UNL A   1      45.794  27.171  27.680  1.00  0.00     0.074 A 
ATOM     45  C   UNL A   1      46.029  25.818  27.229  1.00  0.00     0.031 C 
ATOM     46  C   UNL A   1      39.496  27.222  28.941  1.00  0.00     0.029 A 
ATOM     47  C   UNL A   1      40.450  28.310  29.125  1.00  0.00     0.049 A 
ATOM     48  H   UNL A   1      42.464  28.333  28.589  1.00  0.00     0.167 HD
ATOM     49  C   UNL A   1      46.763  28.109  27.807  1.00  0.00     0.034 A 
ATOM     50  C   UNL A   1      40.168  29.507  29.679  1.00  0.00     0.034 A 
ATOM     51  C   UNL A   1      46.520  29.466  28.220  1.00  0.00     0.049 A 
ATOM     52  C   UNL A   1      41.259  30.539  29.780  1.00  0.00     0.074 A 
ATOM     53  C   UNL A   1      47.421  30.514  28.294  1.00  0.00     0.029 A 
ATOM     54  N   UNL A   1      45.295  29.959  28.638  1.00  0.00    -0.354 N 
ATOM     55  N   UNL A   1      42.513  30.455  29.408  1.00  0.00    -0.248 NA
ATOM     56  C   UNL A   1      40.888  31.845  30.344  1.00  0.00     0.031 C 
ATOM     57  C   UNL A   1      46.747  31.633  28.793  1.00  0.00     0.029 A 
ATOM     58  C   UNL A   1      45.418  31.294  28.987  1.00  0.00     0.049 A 
ATOM     59  H   UNL A   1      44.461  29.439  28.682  1.00  0.00     0.167 HD
ATOM     60  C   UNL A   1      43.069  31.705  29.654  1.00  0.00     0.074 A 
ATOM     61  C   UNL A   1      42.009  32.536  30.187  1.00  0.00     0.031 C 
ATOM     62  C   UNL A   1      44.344  32.124  29.466  1.00  0.00     0.034 A 
BRANCH  49  63
ATOM     63  C   UNL A   1      48.176  27.719  27.456  1.00  0.00     0.023 A 
ATOM     64  C   UNL A   1      49.035  27.228  28.460  1.00  0.00     0.012 A 
ATOM     65  C   UNL A   1      48.624  27.763  26.122  1.00  0.00     0.148 A 
ATOM     66  C   UNL A   1      50.328  26.815  28.147  1.00  0.00     0.002 A 
ATOM     67  C   UNL A   1      49.898  27.303  25.810  1.00  0.00     0.091 A 
ATOM     68  F   UNL A   1      47.799  28.250  25.185  1.00  0.00    -0.205 F 
ATOM     69  C   UNL A   1      50.756  26.840  26.822  1.00  0.00     0.022 A 
BRANCH  67  70
ATOM     70  S   UNL A   1      50.514  27.216  24.125  1.00  0.00     0.127 S 
ATOM     71  O   UNL A   1      50.728  28.629  23.816  1.00  0.00    -0.237 OA
ATOM     72  O   UNL A   1      51.740  26.435  24.288  1.00  0.00    -0.237 OA
ATOM     73  O   UNL A   1      49.471  26.562  23.347  1.00  0.00    -0.744 OA
ENDBRANCH  67  70
ENDBRANCH  49  63
BRANCH  50  74
ATOM     74  C   UNL A   1      38.785  29.815  30.140  1.00  0.00     0.023 A 
ATOM     75  C   UNL A   1      38.388  29.455  31.443  1.00  0.00     0.012 A 
ATOM     76  C   UNL A   1      37.863  30.463  29.297  1.00  0.00     0.148 A 
ATOM     77  C   UNL A   1      37.086  29.696  31.882  1.00  0.00     0.002 A 
ATOM     78  C   UNL A   1      36.585  30.754  29.761  1.00  0.00     0.091 A 
ATOM     79  F   UNL A   1      38.254  30.790  28.057  1.00  0.00    -0.205 F 
ATOM     80  C   UNL A   1      36.188  30.352  31.046  1.00  0.00     0.022 A 
BRANCH  78  81
ATOM     81  S   UNL A   1      35.408  31.713  28.802  1.00  0.00     0.127 S 
ATOM     82  O   UNL A   1      34.857  30.700  27.905  1.00  0.00    -0.237 OA
ATOM     83  O   UNL A   1      34.489  32.187  29.836  1.00  0.00    -0.237 OA
ATOM     84  O   UNL A   1      36.187  32.767  28.165  1.00  0.00    -0.744 OA
ENDBRANCH  78  81
ENDBRANCH  50  74
BRANCH  62  85
ATOM     85  C   UNL A   1      44.664  33.562  29.786  1.00  0.00     0.023 A 
ATOM     86  C   UNL A   1      45.164  33.909  31.057  1.00  0.00     0.012 A 
ATOM     87  C   UNL A   1      44.536  34.558  28.797  1.00  0.00     0.148 A 
ATOM     88  C   UNL A   1      45.497  35.231  31.350  1.00  0.00     0.002 A 
ATOM     89  C   UNL A   1      44.922  35.862  29.080  1.00  0.00     0.091 A 
ATOM     90  F   UNL A   1      44.042  34.210  27.601  1.00  0.00    -0.205 F 
ATOM     91  C   UNL A   1      45.389  36.203  30.359  1.00  0.00     0.022 A 
BRANCH  89  92
ATOM     92  S   UNL A   1      44.912  37.159  27.837  1.00  0.00     0.127 S 
ATOM     93  O   UNL A   1      43.502  37.186  27.447  1.00  0.00    -0.237 OA
ATOM     94  O   UNL A   1      45.355  38.324  28.603  1.00  0.00    -0.237 OA
ATOM     95  O   UNL A   1      45.838  36.730  26.798  1.00  0.00    -0.744 OA
ENDBRANCH  89  92
ENDBRANCH  62  85
ENDBRANCH  36  37
ENDBRANCH  28  31
ENDBRANCH  26  27
ENDBRANCH  25  26
ENDBRANCH  24  25
ENDBRANCH   1  24
TORSDOF 20
ENDMDL
MODEL 3
REMARK VINA RESULT:     -10.9      4.256      8.653
REMARK SMILES C[C@@H](C(=O)NCCCCCCNC(=O)c1ccc(-c2c3nc(c(-c4cccc(S(=O)(=O)[O-])c4F)c4ccc([nH]4)c(-c4cccc(S(=O)(=O)[O-])c4F)c4nc(c(-c5cccc(S(=O)(=O)[O-])c5F)c5ccc2[nH]5)C=C4)C=C3)cc1)c1ccc(C[C@H]2CCC[C@@H]2O)cc1
REMARK SMILES IDX 8 1 7 2 6 3 5 4 3 5 4 6 2 8 1 9 78 10 79 11 90 12 80 13
REMARK SMILES IDX 89 14 81 15 82 16 83 17 84 18 87 19 85 20 86 21 88 22 9 24
REMARK SMILES IDX 10 25 11 26 12 27 13 28 14 30 15 31 16 32 77 33 17 34 76 35
REMARK SMILES IDX 18 36 19 37 20 38 70 39 21 40 75 41 69 42 71 43 22 44 74 45
REMARK SMILES IDX 68 46 67 47 23 49 55 50 35 51 54 52 36 53 39 54 53 55 72 56
REMARK SMILES IDX 37 57 38 58 52 60 73 61 40 62 24 63 25 64 33 65 26 66 28 67
REMARK SMILES IDX 34 68 27 69 29 70 30 71 31 72 32 73 56 74 57 75 65 76 58 77
REMARK SMILES IDX 60 78 66 79 59 80 61 81 62 82 63 83 64 84 41 85 42 86 50 87
REMARK SMILES IDX 43 88 45 89 51 90 44 91 46 92 47 93 48 94 49 95
REMARK H PARENT 5 7 88 23 12 29 71 48 39 59
REMARK Flexibility Score: inf
ROOT
ATOM      1  C   UNL A   1      33.914  25.333  25.960  1.00  0.00     0.002 C 
ENDROOT
BRANCH   1   2
ATOM      2  C   UNL A   1      33.816  26.845  25.716  1.00  0.00     0.021 C 
BRANCH   2   3
ATOM      3  C   UNL A   1      32.745  27.249  24.700  1.00  0.00     0.116 C 
BRANCH   3   4
ATOM      4  N   UNL A   1      33.263  27.149  23.353  1.00  0.00    -0.356 N 
ATOM      5  C   UNL A   1      32.888  26.357  22.311  1.00  0.00     0.227 C 
ATOM      6  O   UNL A   1      33.588  26.449  21.299  1.00  0.00    -0.274 OA
ATOM      7  H   UNL A   1      34.012  27.757  23.156  1.00  0.00     0.163 HD
BRANCH   5   8
ATOM      8  C   UNL A   1      31.623  25.477  22.418  1.00  0.00     0.105 C 
ATOM      9  C   UNL A   1      30.471  26.127  23.184  1.00  0.00     0.023 C 
BRANCH   8  10
ATOM     10  C   UNL A   1      31.856  24.098  23.032  1.00  0.00    -0.036 A 
ATOM     11  C   UNL A   1      32.762  23.178  22.487  1.00  0.00     0.005 A 
ATOM     12  C   UNL A   1      31.212  23.763  24.231  1.00  0.00     0.005 A 
ATOM     13  C   UNL A   1      32.940  21.921  23.061  1.00  0.00     0.004 A 
ATOM     14  C   UNL A   1      31.401  22.508  24.815  1.00  0.00     0.004 A 
ATOM     15  C   UNL A   1      32.228  21.558  24.205  1.00  0.00    -0.048 A 
BRANCH  15  16
ATOM     16  C   UNL A   1      32.305  20.148  24.737  1.00  0.00     0.041 C 
BRANCH  16  17
ATOM     17  C   UNL A   1      33.251  19.208  23.968  1.00  0.00     0.022 C 
ATOM     18  C   UNL A   1      34.555  18.824  24.687  1.00  0.00     0.007 C 
ATOM     19  C   UNL A   1      32.644  17.871  23.530  1.00  0.00     0.117 C 
ATOM     20  C   UNL A   1      34.839  17.367  24.315  1.00  0.00     0.003 C 
ATOM     21  C   UNL A   1      33.870  17.033  23.194  1.00  0.00     0.032 C 
BRANCH  19  22
ATOM     22  O   UNL A   1      31.814  18.048  22.394  1.00  0.00    -0.393 OA
ATOM     23  H   UNL A   1      32.046  18.879  21.950  1.00  0.00     0.210 HD
ENDBRANCH  19  22
ENDBRANCH  16  17
ENDBRANCH  15  16
ENDBRANCH   8  10
ENDBRANCH   5   8
ENDBRANCH   3   4
ENDBRANCH   2   3
ENDBRANCH   1   2
BRANCH   1  24
ATOM     24  C   UNL A   1      34.883  24.590  25.036  1.00  0.00     0.002 C 
BRANCH  24  25
ATOM     25  C   UNL A   1      35.952  23.769  25.759  1.00  0.00     0.021 C 
BRANCH  25  26
ATOM     26  C   UNL A   1      37.266  23.640  24.998  1.00  0.00     0.116 C 
BRANCH  26  27
ATOM     27  N   UNL A   1      38.136  22.630  25.583  1.00  0.00    -0.352 N 
ATOM     28  C   UNL A   1      39.259  22.804  26.351  1.00  0.00     0.251 C 
ATOM     29  H   UNL A   1      37.883  21.695  25.404  1.00  0.00     0.163 HD
ATOM     30  O   UNL A   1      39.997  21.850  26.591  1.00  0.00    -0.269 OA
BRANCH  28  31
ATOM     31  C   UNL A   1      39.586  24.147  26.871  1.00  0.00     0.039 A 
ATOM     32  C   UNL A   1      39.332  24.435  28.214  1.00  0.00     0.014 A 
ATOM     33  C   UNL A   1      40.156  25.115  26.039  1.00  0.00     0.014 A 
ATOM     34  C   UNL A   1      39.701  25.679  28.734  1.00  0.00     0.010 A 
ATOM     35  C   UNL A   1      40.595  26.320  26.577  1.00  0.00     0.010 A 
ATOM     36  C   UNL A   1      40.365  26.620  27.928  1.00  0.00    -0.014 A 
BRANCH  36  37
ATOM     37  C   UNL A   1      40.836  27.913  28.485  1.00  0.00     0.031 A 
ATOM     38  C   UNL A   1      39.845  28.923  29.002  1.00  0.00     0.074 A 
ATOM     39  C   UNL A   1      42.150  28.213  28.454  1.00  0.00     0.049 A 
ATOM     40  N   UNL A   1      40.064  30.122  29.477  1.00  0.00    -0.248 NA
ATOM     41  C   UNL A   1      38.421  28.549  28.956  1.00  0.00     0.031 C 
ATOM     42  C   UNL A   1      43.202  27.351  27.908  1.00  0.00     0.029 A 
ATOM     43  N   UNL A   1      42.825  29.336  28.866  1.00  0.00    -0.354 N 
ATOM     44  C   UNL A   1      38.811  30.656  29.753  1.00  0.00     0.074 A 
ATOM     45  C   UNL A   1      37.834  29.665  29.363  1.00  0.00     0.031 C 
ATOM     46  C   UNL A   1      44.386  27.973  28.024  1.00  0.00     0.029 A 
ATOM     47  C   UNL A   1      44.177  29.290  28.616  1.00  0.00     0.049 A 
ATOM     48  H   UNL A   1      42.382  30.101  29.299  1.00  0.00     0.167 HD
ATOM     49  C   UNL A   1      38.502  31.853  30.306  1.00  0.00     0.034 A 
ATOM     50  C   UNL A   1      45.139  30.210  28.827  1.00  0.00     0.034 A 
ATOM     51  C   UNL A   1      39.480  32.821  30.728  1.00  0.00     0.049 A 
ATOM     52  C   UNL A   1      44.769  31.520  29.470  1.00  0.00     0.074 A 
ATOM     53  C   UNL A   1      39.269  34.024  31.379  1.00  0.00     0.029 A 
ATOM     54  N   UNL A   1      40.846  32.705  30.531  1.00  0.00    -0.354 N 
ATOM     55  N   UNL A   1      43.594  31.940  29.869  1.00  0.00    -0.248 NA
ATOM     56  C   UNL A   1      45.863  32.467  29.726  1.00  0.00     0.031 C 
ATOM     57  C   UNL A   1      40.507  34.653  31.544  1.00  0.00     0.029 A 
ATOM     58  C   UNL A   1      41.491  33.822  31.035  1.00  0.00     0.049 A 
ATOM     59  H   UNL A   1      41.292  31.943  30.097  1.00  0.00     0.167 HD
ATOM     60  C   UNL A   1      43.813  33.180  30.458  1.00  0.00     0.074 A 
ATOM     61  C   UNL A   1      45.236  33.433  30.383  1.00  0.00     0.031 C 
ATOM     62  C   UNL A   1      42.915  34.037  31.002  1.00  0.00     0.034 A 
BRANCH  49  63
ATOM     63  C   UNL A   1      37.047  32.174  30.530  1.00  0.00     0.023 A 
ATOM     64  C   UNL A   1      36.470  31.953  31.797  1.00  0.00     0.012 A 
ATOM     65  C   UNL A   1      36.275  32.769  29.513  1.00  0.00     0.148 A 
ATOM     66  C   UNL A   1      35.140  32.290  32.040  1.00  0.00     0.002 A 
ATOM     67  C   UNL A   1      34.964  33.147  29.777  1.00  0.00     0.091 A 
ATOM     68  F   UNL A   1      36.836  32.954  28.310  1.00  0.00    -0.205 F 
ATOM     69  C   UNL A   1      34.391  32.897  31.036  1.00  0.00     0.022 A 
BRANCH  67  70
ATOM     70  S   UNL A   1      33.942  34.010  28.579  1.00  0.00     0.127 S 
ATOM     71  O   UNL A   1      33.536  32.918  27.697  1.00  0.00    -0.237 OA
ATOM     72  O   UNL A   1      32.871  34.546  29.421  1.00  0.00    -0.237 OA
ATOM     73  O   UNL A   1      34.799  35.016  27.968  1.00  0.00    -0.744 OA
ENDBRANCH  67  70
ENDBRANCH  49  63
BRANCH  50  74
ATOM     74  C   UNL A   1      46.555  29.911  28.470  1.00  0.00     0.023 A 
ATOM     75  C   UNL A   1      47.068  30.346  27.232  1.00  0.00     0.012 A 
ATOM     76  C   UNL A   1      47.396  29.203  29.350  1.00  0.00     0.148 A 
ATOM     77  C   UNL A   1      48.379  30.043  26.859  1.00  0.00     0.002 A 
ATOM     78  C   UNL A   1      48.718  28.956  28.998  1.00  0.00     0.091 A 
ATOM     79  F   UNL A   1      46.888  28.789  30.520  1.00  0.00    -0.205 F 
ATOM     80  C   UNL A   1      49.205  29.355  27.744  1.00  0.00     0.022 A 
BRANCH  78  81
ATOM     81  S   UNL A   1      49.888  28.196  30.128  1.00  0.00     0.127 S 
ATOM     82  O   UNL A   1      49.191  26.969  30.502  1.00  0.00    -0.237 OA
ATOM     83  O   UNL A   1      51.057  28.005  29.269  1.00  0.00    -0.237 OA
ATOM     84  O   UNL A   1      50.085  29.165  31.199  1.00  0.00    -0.744 OA
ENDBRANCH  78  81
ENDBRANCH  50  74
BRANCH  62  85
ATOM     85  C   UNL A   1      43.441  35.311  31.611  1.00  0.00     0.023 A 
ATOM     86  C   UNL A   1      43.863  35.331  32.955  1.00  0.00     0.012 A 
ATOM     87  C   UNL A   1      43.585  36.472  30.824  1.00  0.00     0.148 A 
ATOM     88  C   UNL A   1      44.386  36.496  33.516  1.00  0.00     0.002 A 
ATOM     89  C   UNL A   1      44.156  37.611  31.375  1.00  0.00     0.091 A 
ATOM     90  F   UNL A   1      43.161  36.437  29.553  1.00  0.00    -0.205 F 
ATOM     91  C   UNL A   1      44.544  37.630  32.724  1.00  0.00     0.022 A 
BRANCH  89  92
ATOM     92  S   UNL A   1      44.491  39.085  30.405  1.00  0.00     0.127 S 
ATOM     93  O   UNL A   1      45.096  39.967  31.403  1.00  0.00    -0.237 OA
ATOM     94  O   UNL A   1      45.420  38.584  29.392  1.00  0.00    -0.237 OA
ATOM     95  O   UNL A   1      43.205  39.526  29.882  1.00  0.00    -0.744 OA
ENDBRANCH  89  92
ENDBRANCH  62  85
ENDBRANCH  36  37
ENDBRANCH  28  31
ENDBRANCH  26  27
ENDBRANCH  25  26
ENDBRANCH  24  25
ENDBRANCH   1  24
TORSDOF 20
ENDMDL
