MODEL 1
REMARK VINA RESULT:     -11.7      0.000      0.000
REMARK SMILES COC(=O)[C@H]1CN(C(=O)[C@@H]2CC=CC[C@@H]2C(=O)NCCCCCCNC(=O)c2ccc(-c3c4nc(c(-c5cccc(S(=O)(=O)[O-])c5F)c5ccc([nH]5)c(-c5cccc(S(=O)(=O)[O-])c5F)c5nc(c(-c6cccc(S(=O)(=O)[O-])c6F)c6ccc3[nH]6)C=C5)C=C4)cc2)C[C@H]1C
REMARK SMILES IDX 21 1 20 2 19 3 18 4 16 5 17 6 15 8 10 9 11 10 12 11 14 12
REMARK SMILES IDX 13 13 8 14 9 15 7 16 5 17 6 18 92 19 91 20 93 21 3 22 4 23
REMARK SMILES IDX 2 24 1 25 22 26 23 27 24 28 25 29 26 30 27 32 28 33 29 34
REMARK SMILES IDX 90 35 30 36 89 37 31 38 32 39 33 40 83 41 34 42 88 43 82 44
REMARK SMILES IDX 84 45 35 46 87 47 81 48 80 49 36 51 68 52 48 53 67 54 49 55
REMARK SMILES IDX 52 56 66 57 85 58 50 59 51 60 65 62 86 63 53 64 37 65 38 66
REMARK SMILES IDX 46 67 39 68 41 69 47 70 40 71 42 72 43 73 44 74 45 75 69 76
REMARK SMILES IDX 70 77 78 78 71 79 73 80 79 81 72 82 74 83 75 84 76 85 77 86
REMARK SMILES IDX 54 87 55 88 63 89 56 90 58 91 64 92 57 93 59 94 60 95 61 96
REMARK SMILES IDX 62 97
REMARK H PARENT 18 7 25 31 84 50 52 61
REMARK Flexibility Score: inf
ROOT
ATOM      1  C   UNL A   1      33.169  29.782  25.924  1.00  0.00     0.002 C 
ENDROOT
BRANCH   1   2
ATOM      2  C   UNL A   1      33.296  28.377  26.519  1.00  0.00     0.021 C 
BRANCH   2   3
ATOM      3  C   UNL A   1      33.714  27.305  25.510  1.00  0.00     0.116 C 
BRANCH   3   4
ATOM      4  N   UNL A   1      33.813  26.008  26.159  1.00  0.00    -0.356 N 
ATOM      5  C   UNL A   1      34.004  24.769  25.640  1.00  0.00     0.224 C 
ATOM      6  O   UNL A   1      33.388  23.862  26.215  1.00  0.00    -0.275 OA
ATOM      7  H   UNL A   1      33.728  26.033  27.139  1.00  0.00     0.163 HD
BRANCH   5   8
ATOM      8  C   UNL A   1      35.003  24.400  24.538  1.00  0.00     0.095 C 
ATOM      9  C   UNL A   1      34.423  23.467  23.458  1.00  0.00     0.095 C 
ATOM     10  C   UNL A   1      34.119  22.065  23.987  1.00  0.00     0.041 C 
ATOM     11  C   UNL A   1      35.311  21.526  24.737  1.00  0.00    -0.030 C 
ATOM     12  C   UNL A   1      36.350  23.809  24.989  1.00  0.00     0.041 C 
ATOM     13  C   UNL A   1      36.333  22.301  25.142  1.00  0.00    -0.030 C 
BRANCH   9  14
ATOM     14  C   UNL A   1      33.459  24.018  22.405  1.00  0.00     0.226 C 
ATOM     15  O   UNL A   1      33.525  23.550  21.259  1.00  0.00    -0.275 OA
BRANCH  14  16
ATOM     16  N   UNL A   1      32.465  24.911  22.706  1.00  0.00    -0.341 N 
ATOM     17  C   UNL A   1      31.177  26.793  22.243  1.00  0.00     0.123 C 
ATOM     18  C   UNL A   1      32.613  26.308  22.348  1.00  0.00     0.135 C 
ATOM     19  C   UNL A   1      30.433  25.996  23.337  1.00  0.00     0.021 C 
ATOM     20  C   UNL A   1      31.321  24.759  23.579  1.00  0.00     0.123 C 
ATOM     21  C   UNL A   1      30.178  26.756  24.640  1.00  0.00     0.010 C 
BRANCH  17  22
ATOM     22  C   UNL A   1      31.089  28.296  22.330  1.00  0.00     0.310 C 
ATOM     23  O   UNL A   1      31.993  29.039  22.678  1.00  0.00    -0.252 OA
BRANCH  22  24
ATOM     24  O   UNL A   1      29.851  28.712  21.934  1.00  0.00    -0.469 OA
ATOM     25  C   UNL A   1      29.687  30.130  21.943  1.00  0.00     0.282 C 
ENDBRANCH  22  24
ENDBRANCH  17  22
ENDBRANCH  14  16
ENDBRANCH   9  14
ENDBRANCH   5   8
ENDBRANCH   3   4
ENDBRANCH   2   3
ENDBRANCH   1   2
BRANCH   1  26
ATOM     26  C   UNL A   1      31.739  30.331  25.867  1.00  0.00     0.002 C 
BRANCH  26  27
ATOM     27  C   UNL A   1      31.508  31.629  26.646  1.00  0.00     0.021 C 
BRANCH  27  28
ATOM     28  C   UNL A   1      32.781  32.290  27.167  1.00  0.00     0.116 C 
BRANCH  28  29
ATOM     29  N   UNL A   1      32.583  33.706  27.433  1.00  0.00    -0.352 N 
ATOM     30  C   UNL A   1      33.155  34.492  28.402  1.00  0.00     0.251 C 
ATOM     31  H   UNL A   1      31.951  34.165  26.834  1.00  0.00     0.163 HD
ATOM     32  O   UNL A   1      32.707  35.612  28.627  1.00  0.00    -0.269 OA
BRANCH  30  33
ATOM     33  C   UNL A   1      34.302  33.977  29.177  1.00  0.00     0.039 A 
ATOM     34  C   UNL A   1      34.065  33.097  30.237  1.00  0.00     0.014 A 
ATOM     35  C   UNL A   1      35.607  34.365  28.860  1.00  0.00     0.014 A 
ATOM     36  C   UNL A   1      35.144  32.568  30.947  1.00  0.00     0.010 A 
ATOM     37  C   UNL A   1      36.682  33.776  29.518  1.00  0.00     0.010 A 
ATOM     38  C   UNL A   1      36.463  32.880  30.575  1.00  0.00    -0.014 A 
BRANCH  38  39
ATOM     39  C   UNL A   1      37.623  32.277  31.278  1.00  0.00     0.031 A 
ATOM     40  C   UNL A   1      38.364  31.120  30.664  1.00  0.00     0.074 A 
ATOM     41  C   UNL A   1      37.960  32.719  32.506  1.00  0.00     0.049 A 
ATOM     42  N   UNL A   1      39.355  30.421  31.154  1.00  0.00    -0.248 NA
ATOM     43  C   UNL A   1      37.917  30.672  29.334  1.00  0.00     0.031 C 
ATOM     44  C   UNL A   1      37.270  33.781  33.241  1.00  0.00     0.029 A 
ATOM     45  N   UNL A   1      38.948  32.309  33.367  1.00  0.00    -0.354 N 
ATOM     46  C   UNL A   1      39.631  29.439  30.211  1.00  0.00     0.074 A 
ATOM     47  C   UNL A   1      38.675  29.603  29.138  1.00  0.00     0.031 C 
ATOM     48  C   UNL A   1      37.852  33.937  34.440  1.00  0.00     0.029 A 
ATOM     49  C   UNL A   1      38.931  32.964  34.576  1.00  0.00     0.049 A 
ATOM     50  H   UNL A   1      39.604  31.612  33.140  1.00  0.00     0.167 HD
ATOM     51  C   UNL A   1      40.611  28.503  30.220  1.00  0.00     0.034 A 
ATOM     52  C   UNL A   1      39.687  32.789  35.677  1.00  0.00     0.034 A 
ATOM     53  C   UNL A   1      41.576  28.361  31.276  1.00  0.00     0.049 A 
ATOM     54  C   UNL A   1      40.782  31.757  35.656  1.00  0.00     0.074 A 
ATOM     55  C   UNL A   1      42.649  27.490  31.349  1.00  0.00     0.029 A 
ATOM     56  N   UNL A   1      41.580  29.100  32.450  1.00  0.00    -0.354 N 
ATOM     57  N   UNL A   1      41.119  30.933  34.693  1.00  0.00    -0.248 NA
ATOM     58  C   UNL A   1      41.624  31.654  36.856  1.00  0.00     0.031 C 
ATOM     59  C   UNL A   1      43.284  27.682  32.580  1.00  0.00     0.029 A 
ATOM     60  C   UNL A   1      42.631  28.700  33.257  1.00  0.00     0.049 A 
ATOM     61  H   UNL A   1      40.931  29.804  32.676  1.00  0.00     0.167 HD
ATOM     62  C   UNL A   1      42.233  30.242  35.155  1.00  0.00     0.074 A 
ATOM     63  C   UNL A   1      42.527  30.759  36.476  1.00  0.00     0.031 C 
ATOM     64  C   UNL A   1      42.942  29.259  34.548  1.00  0.00     0.034 A 
BRANCH  51  65
ATOM     65  C   UNL A   1      40.718  27.591  29.025  1.00  0.00     0.023 A 
ATOM     66  C   UNL A   1      39.851  26.484  28.915  1.00  0.00     0.012 A 
ATOM     67  C   UNL A   1      41.630  27.858  27.985  1.00  0.00     0.148 A 
ATOM     68  C   UNL A   1      39.918  25.635  27.810  1.00  0.00     0.002 A 
ATOM     69  C   UNL A   1      41.658  27.036  26.865  1.00  0.00     0.091 A 
ATOM     70  F   UNL A   1      42.460  28.904  28.115  1.00  0.00    -0.205 F 
ATOM     71  C   UNL A   1      40.811  25.917  26.782  1.00  0.00     0.022 A 
BRANCH  69  72
ATOM     72  S   UNL A   1      42.714  27.357  25.449  1.00  0.00     0.127 S 
ATOM     73  O   UNL A   1      43.989  27.666  26.097  1.00  0.00    -0.237 OA
ATOM     74  O   UNL A   1      42.683  26.074  24.746  1.00  0.00    -0.237 OA
ATOM     75  O   UNL A   1      42.098  28.463  24.728  1.00  0.00    -0.744 OA
ENDBRANCH  69  72
ENDBRANCH  51  65
BRANCH  52  76
ATOM     76  C   UNL A   1      39.459  33.638  36.881  1.00  0.00     0.023 A 
ATOM     77  C   UNL A   1      39.883  34.981  36.881  1.00  0.00     0.012 A 
ATOM     78  C   UNL A   1      38.810  33.123  38.020  1.00  0.00     0.148 A 
ATOM     79  C   UNL A   1      39.701  35.784  38.007  1.00  0.00     0.002 A 
ATOM     80  C   UNL A   1      38.577  33.946  39.116  1.00  0.00     0.091 A 
ATOM     81  F   UNL A   1      38.422  31.840  38.005  1.00  0.00    -0.205 F 
ATOM     82  C   UNL A   1      39.040  35.271  39.120  1.00  0.00     0.022 A 
BRANCH  80  83
ATOM     83  S   UNL A   1      37.616  33.408  40.534  1.00  0.00     0.127 S 
ATOM     84  O   UNL A   1      38.471  32.369  41.099  1.00  0.00    -0.237 OA
ATOM     85  O   UNL A   1      37.532  34.638  41.325  1.00  0.00    -0.237 OA
ATOM     86  O   UNL A   1      36.340  32.956  39.996  1.00  0.00    -0.744 OA
ENDBRANCH  80  83
ENDBRANCH  52  76
BRANCH  64  87
ATOM     87  C   UNL A   1      44.139  28.705  35.277  1.00  0.00     0.023 A 
ATOM     88  C   UNL A   1      45.412  29.275  35.078  1.00  0.00     0.012 A 
ATOM     89  C   UNL A   1      43.984  27.668  36.216  1.00  0.00     0.148 A 
ATOM     90  C   UNL A   1      46.519  28.795  35.778  1.00  0.00     0.002 A 
ATOM     91  C   UNL A   1      45.080  27.232  36.949  1.00  0.00     0.091 A 
ATOM     92  F   UNL A   1      42.767  27.129  36.379  1.00  0.00    -0.205 F 
ATOM     93  C   UNL A   1      46.351  27.784  36.721  1.00  0.00     0.022 A 
BRANCH  91  94
ATOM     94  S   UNL A   1      44.942  26.005  38.255  1.00  0.00     0.127 S 
ATOM     95  O   UNL A   1      44.350  26.790  39.337  1.00  0.00    -0.237 OA
ATOM     96  O   UNL A   1      44.045  25.017  37.656  1.00  0.00    -0.237 OA
ATOM     97  O   UNL A   1      46.295  25.526  38.502  1.00  0.00    -0.744 OA
ENDBRANCH  91  94
ENDBRANCH  64  87
ENDBRANCH  38  39
ENDBRANCH  30  33
ENDBRANCH  28  29
ENDBRANCH  27  28
ENDBRANCH  26  27
ENDBRANCH   1  26
TORSDOF 20
ENDMDL
MODEL 2
REMARK VINA RESULT:     -11.5      1.371      3.383
REMARK SMILES COC(=O)[C@H]1CN(C(=O)[C@@H]2CC=CC[C@@H]2C(=O)NCCCCCCNC(=O)c2ccc(-c3c4nc(c(-c5cccc(S(=O)(=O)[O-])c5F)c5ccc([nH]5)c(-c5cccc(S(=O)(=O)[O-])c5F)c5nc(c(-c6cccc(S(=O)(=O)[O-])c6F)c6ccc3[nH]6)C=C5)C=C4)cc2)C[C@H]1C
REMARK SMILES IDX 21 1 20 2 19 3 18 4 16 5 17 6 15 8 10 9 11 10 12 11 14 12
REMARK SMILES IDX 13 13 8 14 9 15 7 16 5 17 6 18 92 19 91 20 93 21 3 22 4 23
REMARK SMILES IDX 2 24 1 25 22 26 23 27 24 28 25 29 26 30 27 32 28 33 29 34
REMARK SMILES IDX 90 35 30 36 89 37 31 38 32 39 33 40 83 41 34 42 88 43 82 44
REMARK SMILES IDX 84 45 35 46 87 47 81 48 80 49 36 51 68 52 48 53 67 54 49 55
REMARK SMILES IDX 52 56 66 57 85 58 50 59 51 60 65 62 86 63 53 64 37 65 38 66
REMARK SMILES IDX 46 67 39 68 41 69 47 70 40 71 42 72 43 73 44 74 45 75 69 76
REMARK SMILES IDX 70 77 78 78 71 79 73 80 79 81 72 82 74 83 75 84 76 85 77 86
REMARK SMILES IDX 54 87 55 88 63 89 56 90 58 91 64 92 57 93 59 94 60 95 61 96
REMARK SMILES IDX 62 97
REMARK H PARENT 18 7 25 31 84 50 52 61
REMARK Flexibility Score: inf
ROOT
ATOM      1  C   UNL A   1      33.172  29.610  27.149  1.00  0.00     0.002 C 
ENDROOT
BRANCH   1   2
ATOM      2  C   UNL A   1      34.049  28.856  26.146  1.00  0.00     0.021 C 
BRANCH   2   3
ATOM      3  C   UNL A   1      33.443  28.746  24.744  1.00  0.00     0.116 C 
BRANCH   3   4
ATOM      4  N   UNL A   1      33.544  27.381  24.255  1.00  0.00    -0.356 N 
ATOM      5  C   UNL A   1      33.180  26.205  24.825  1.00  0.00     0.224 C 
ATOM      6  O   UNL A   1      33.939  25.255  24.591  1.00  0.00    -0.275 OA
ATOM      7  H   UNL A   1      33.943  27.294  23.359  1.00  0.00     0.163 HD
BRANCH   5   8
ATOM      8  C   UNL A   1      31.874  25.938  25.581  1.00  0.00     0.095 C 
ATOM      9  C   UNL A   1      31.367  24.488  25.460  1.00  0.00     0.095 C 
ATOM     10  C   UNL A   1      30.904  24.138  24.046  1.00  0.00     0.041 C 
ATOM     11  C   UNL A   1      29.961  25.198  23.533  1.00  0.00    -0.030 C 
ATOM     12  C   UNL A   1      30.689  26.872  25.273  1.00  0.00     0.041 C 
ATOM     13  C   UNL A   1      29.831  26.403  24.114  1.00  0.00    -0.030 C 
BRANCH   9  14
ATOM     14  C   UNL A   1      32.055  23.369  26.245  1.00  0.00     0.226 C 
ATOM     15  O   UNL A   1      31.835  23.299  27.464  1.00  0.00    -0.275 OA
BRANCH  14  16
ATOM     16  N   UNL A   1      32.798  22.389  25.643  1.00  0.00    -0.341 N 
ATOM     17  C   UNL A   1      33.008  20.456  24.363  1.00  0.00     0.123 C 
ATOM     18  C   UNL A   1      32.288  21.033  25.570  1.00  0.00     0.135 C 
ATOM     19  C   UNL A   1      34.401  21.122  24.407  1.00  0.00     0.021 C 
ATOM     20  C   UNL A   1      34.189  22.399  25.244  1.00  0.00     0.123 C 
ATOM     21  C   UNL A   1      35.520  20.258  24.993  1.00  0.00     0.010 C 
BRANCH  17  22
ATOM     22  C   UNL A   1      32.984  18.948  24.368  1.00  0.00     0.310 C 
ATOM     23  O   UNL A   1      33.331  18.232  23.442  1.00  0.00    -0.252 OA
BRANCH  22  24
ATOM     24  O   UNL A   1      32.539  18.496  25.576  1.00  0.00    -0.469 OA
ATOM     25  C   UNL A   1      32.365  17.080  25.635  1.00  0.00     0.282 C 
ENDBRANCH  22  24
ENDBRANCH  17  22
ENDBRANCH  14  16
ENDBRANCH   9  14
ENDBRANCH   5   8
ENDBRANCH   3   4
ENDBRANCH   2   3
ENDBRANCH   1   2
BRANCH   1  26
ATOM     26  C   UNL A   1      31.879  30.192  26.565  1.00  0.00     0.002 C 
BRANCH  26  27
ATOM     27  C   UNL A   1      31.664  31.686  26.824  1.00  0.00     0.021 C 
BRANCH  27  28
ATOM     28  C   UNL A   1      32.943  32.474  27.089  1.00  0.00     0.116 C 
BRANCH  28  29
ATOM     29  N   UNL A   1      32.659  33.846  27.480  1.00  0.00    -0.352 N 
ATOM     30  C   UNL A   1      33.168  34.568  28.530  1.00  0.00     0.251 C 
ATOM     31  H   UNL A   1      32.013  34.324  26.912  1.00  0.00     0.163 HD
ATOM     32  O   UNL A   1      32.652  35.636  28.849  1.00  0.00    -0.269 OA
BRANCH  30  33
ATOM     33  C   UNL A   1      34.328  34.048  29.281  1.00  0.00     0.039 A 
ATOM     34  C   UNL A   1      34.113  33.392  30.495  1.00  0.00     0.014 A 
ATOM     35  C   UNL A   1      35.626  34.212  28.788  1.00  0.00     0.014 A 
ATOM     36  C   UNL A   1      35.198  32.855  31.190  1.00  0.00     0.010 A 
ATOM     37  C   UNL A   1      36.695  33.608  29.442  1.00  0.00     0.010 A 
ATOM     38  C   UNL A   1      36.496  32.932  30.655  1.00  0.00    -0.014 A 
BRANCH  38  39
ATOM     39  C   UNL A   1      37.652  32.312  31.349  1.00  0.00     0.031 A 
ATOM     40  C   UNL A   1      38.390  31.164  30.714  1.00  0.00     0.074 A 
ATOM     41  C   UNL A   1      37.988  32.730  32.586  1.00  0.00     0.049 A 
ATOM     42  N   UNL A   1      39.377  30.453  31.193  1.00  0.00    -0.248 NA
ATOM     43  C   UNL A   1      37.943  30.742  29.376  1.00  0.00     0.031 C 
ATOM     44  C   UNL A   1      37.301  33.781  33.339  1.00  0.00     0.029 A 
ATOM     45  N   UNL A   1      38.973  32.300  33.441  1.00  0.00    -0.354 N 
ATOM     46  C   UNL A   1      39.651  29.487  30.233  1.00  0.00     0.074 A 
ATOM     47  C   UNL A   1      38.697  29.675  29.161  1.00  0.00     0.031 C 
ATOM     48  C   UNL A   1      37.881  33.912  34.542  1.00  0.00     0.029 A 
ATOM     49  C   UNL A   1      38.956  32.933  34.661  1.00  0.00     0.049 A 
ATOM     50  H   UNL A   1      39.627  31.605  33.202  1.00  0.00     0.167 HD
ATOM     51  C   UNL A   1      40.627  28.548  30.226  1.00  0.00     0.034 A 
ATOM     52  C   UNL A   1      39.710  32.735  35.761  1.00  0.00     0.034 A 
ATOM     53  C   UNL A   1      41.590  28.382  31.281  1.00  0.00     0.049 A 
ATOM     54  C   UNL A   1      40.801  31.699  35.722  1.00  0.00     0.074 A 
ATOM     55  C   UNL A   1      42.660  27.506  31.339  1.00  0.00     0.029 A 
ATOM     56  N   UNL A   1      41.595  29.099  32.468  1.00  0.00    -0.354 N 
ATOM     57  N   UNL A   1      41.136  30.892  34.745  1.00  0.00    -0.248 NA
ATOM     58  C   UNL A   1      41.640  31.570  36.921  1.00  0.00     0.031 C 
ATOM     59  C   UNL A   1      43.293  27.673  32.576  1.00  0.00     0.029 A 
ATOM     60  C   UNL A   1      42.643  28.680  33.270  1.00  0.00     0.049 A 
ATOM     61  H   UNL A   1      40.948  29.801  32.706  1.00  0.00     0.167 HD
ATOM     62  C   UNL A   1      42.247  30.188  35.196  1.00  0.00     0.074 A 
ATOM     63  C   UNL A   1      42.540  30.679  36.526  1.00  0.00     0.031 C 
ATOM     64  C   UNL A   1      42.954  29.214  34.571  1.00  0.00     0.034 A 
BRANCH  51  65
ATOM     65  C   UNL A   1      40.733  27.657  29.014  1.00  0.00     0.023 A 
ATOM     66  C   UNL A   1      39.867  26.552  28.885  1.00  0.00     0.012 A 
ATOM     67  C   UNL A   1      41.644  27.944  27.978  1.00  0.00     0.148 A 
ATOM     68  C   UNL A   1      39.933  25.723  27.766  1.00  0.00     0.002 A 
ATOM     69  C   UNL A   1      41.670  27.143  26.844  1.00  0.00     0.091 A 
ATOM     70  F   UNL A   1      42.472  28.988  28.126  1.00  0.00    -0.205 F 
ATOM     71  C   UNL A   1      40.824  26.025  26.741  1.00  0.00     0.022 A 
BRANCH  69  72
ATOM     72  S   UNL A   1      42.724  27.490  25.432  1.00  0.00     0.127 S 
ATOM     73  O   UNL A   1      44.015  27.721  26.078  1.00  0.00    -0.237 OA
ATOM     74  O   UNL A   1      42.638  26.243  24.671  1.00  0.00    -0.237 OA
ATOM     75  O   UNL A   1      42.142  28.650  24.770  1.00  0.00    -0.744 OA
ENDBRANCH  69  72
ENDBRANCH  51  65
BRANCH  52  76
ATOM     76  C   UNL A   1      39.483  33.562  36.980  1.00  0.00     0.023 A 
ATOM     77  C   UNL A   1      39.977  34.879  37.033  1.00  0.00     0.012 A 
ATOM     78  C   UNL A   1      38.765  33.053  38.080  1.00  0.00     0.148 A 
ATOM     79  C   UNL A   1      39.796  35.661  38.175  1.00  0.00     0.002 A 
ATOM     80  C   UNL A   1      38.536  33.856  39.189  1.00  0.00     0.091 A 
ATOM     81  F   UNL A   1      38.311  31.793  38.013  1.00  0.00    -0.205 F 
ATOM     82  C   UNL A   1      39.069  35.154  39.248  1.00  0.00     0.022 A 
BRANCH  80  83
ATOM     83  S   UNL A   1      37.496  33.334  40.556  1.00  0.00     0.127 S 
ATOM     84  O   UNL A   1      37.446  34.543  41.374  1.00  0.00    -0.237 OA
ATOM     85  O   UNL A   1      36.245  32.999  39.872  1.00  0.00    -0.237 OA
ATOM     86  O   UNL A   1      38.175  32.193  41.155  1.00  0.00    -0.744 OA
ENDBRANCH  80  83
ENDBRANCH  52  76
BRANCH  64  87
ATOM     87  C   UNL A   1      44.147  28.642  35.292  1.00  0.00     0.023 A 
ATOM     88  C   UNL A   1      45.430  29.181  35.071  1.00  0.00     0.012 A 
ATOM     89  C   UNL A   1      43.981  27.619  36.245  1.00  0.00     0.148 A 
ATOM     90  C   UNL A   1      46.534  28.685  35.763  1.00  0.00     0.002 A 
ATOM     91  C   UNL A   1      45.076  27.167  36.970  1.00  0.00     0.091 A 
ATOM     92  F   UNL A   1      42.754  27.109  36.429  1.00  0.00    -0.205 F 
ATOM     93  C   UNL A   1      46.356  27.688  36.720  1.00  0.00     0.022 A 
BRANCH  91  94
ATOM     94  S   UNL A   1      44.928  25.959  38.291  1.00  0.00     0.127 S 
ATOM     95  O   UNL A   1      44.354  24.815  37.583  1.00  0.00    -0.237 OA
ATOM     96  O   UNL A   1      46.320  25.783  38.705  1.00  0.00    -0.237 OA
ATOM     97  O   UNL A   1      44.067  26.564  39.297  1.00  0.00    -0.744 OA
ENDBRANCH  91  94
ENDBRANCH  64  87
ENDBRANCH  38  39
ENDBRANCH  30  33
ENDBRANCH  28  29
ENDBRANCH  27  28
ENDBRANCH  26  27
ENDBRANCH   1  26
TORSDOF 20
ENDMDL
MODEL 3
REMARK VINA RESULT:     -11.3      1.788      8.212
REMARK SMILES COC(=O)[C@H]1CN(C(=O)[C@@H]2CC=CC[C@@H]2C(=O)NCCCCCCNC(=O)c2ccc(-c3c4nc(c(-c5cccc(S(=O)(=O)[O-])c5F)c5ccc([nH]5)c(-c5cccc(S(=O)(=O)[O-])c5F)c5nc(c(-c6cccc(S(=O)(=O)[O-])c6F)c6ccc3[nH]6)C=C5)C=C4)cc2)C[C@H]1C
REMARK SMILES IDX 21 1 20 2 19 3 18 4 16 5 17 6 15 8 10 9 11 10 12 11 14 12
REMARK SMILES IDX 13 13 8 14 9 15 7 16 5 17 6 18 92 19 91 20 93 21 3 22 4 23
REMARK SMILES IDX 2 24 1 25 22 26 23 27 24 28 25 29 26 30 27 32 28 33 29 34
REMARK SMILES IDX 90 35 30 36 89 37 31 38 32 39 33 40 83 41 34 42 88 43 82 44
REMARK SMILES IDX 84 45 35 46 87 47 81 48 80 49 36 51 68 52 48 53 67 54 49 55
REMARK SMILES IDX 52 56 66 57 85 58 50 59 51 60 65 62 86 63 53 64 37 65 38 66
REMARK SMILES IDX 46 67 39 68 41 69 47 70 40 71 42 72 43 73 44 74 45 75 69 76
REMARK SMILES IDX 70 77 78 78 71 79 73 80 79 81 72 82 74 83 75 84 76 85 77 86
REMARK SMILES IDX 54 87 55 88 63 89 56 90 58 91 64 92 57 93 59 94 60 95 61 96
REMARK SMILES IDX 62 97
REMARK H PARENT 18 7 25 31 84 50 52 61
REMARK Flexibility Score: inf
ROOT
ATOM      1  C   UNL A   1      33.034  29.905  27.277  1.00  0.00     0.002 C 
ENDROOT
BRANCH   1   2
ATOM      2  C   UNL A   1      33.950  29.145  26.314  1.00  0.00     0.021 C 
BRANCH   2   3
ATOM      3  C   UNL A   1      33.387  29.000  24.898  1.00  0.00     0.116 C 
BRANCH   3   4
ATOM      4  N   UNL A   1      33.527  27.629  24.435  1.00  0.00    -0.356 N 
ATOM      5  C   UNL A   1      33.134  26.459  24.998  1.00  0.00     0.224 C 
ATOM      6  O   UNL A   1      33.911  25.510  24.825  1.00  0.00    -0.275 OA
ATOM      7  H   UNL A   1      33.982  27.534  23.567  1.00  0.00     0.163 HD
BRANCH   5   8
ATOM      8  C   UNL A   1      31.784  26.194  25.673  1.00  0.00     0.095 C 
ATOM      9  C   UNL A   1      31.260  24.758  25.478  1.00  0.00     0.095 C 
ATOM     10  C   UNL A   1      30.869  24.461  24.030  1.00  0.00     0.041 C 
ATOM     11  C   UNL A   1      29.974  25.554  23.502  1.00  0.00    -0.030 C 
ATOM     12  C   UNL A   1      30.635  27.159  25.331  1.00  0.00     0.041 C 
ATOM     13  C   UNL A   1      29.832  26.743  24.113  1.00  0.00    -0.030 C 
BRANCH   9  14
ATOM     14  C   UNL A   1      31.884  23.602  26.263  1.00  0.00     0.226 C 
ATOM     15  O   UNL A   1      31.670  23.550  27.483  1.00  0.00    -0.275 OA
BRANCH  14  16
ATOM     16  N   UNL A   1      32.561  22.576  25.659  1.00  0.00    -0.341 N 
ATOM     17  C   UNL A   1      32.644  20.631  24.384  1.00  0.00     0.123 C 
ATOM     18  C   UNL A   1      31.968  21.255  25.593  1.00  0.00     0.135 C 
ATOM     19  C   UNL A   1      34.076  21.209  24.419  1.00  0.00     0.021 C 
ATOM     20  C   UNL A   1      33.948  22.499  25.253  1.00  0.00     0.123 C 
ATOM     21  C   UNL A   1      35.142  20.278  25.000  1.00  0.00     0.010 C 
BRANCH  17  22
ATOM     22  C   UNL A   1      32.526  19.127  24.393  1.00  0.00     0.310 C 
ATOM     23  O   UNL A   1      32.217  18.448  25.360  1.00  0.00    -0.252 OA
BRANCH  22  24
ATOM     24  O   UNL A   1      32.788  18.634  23.149  1.00  0.00    -0.469 OA
ATOM     25  C   UNL A   1      33.187  17.263  23.143  1.00  0.00     0.282 C 
ENDBRANCH  22  24
ENDBRANCH  17  22
ENDBRANCH  14  16
ENDBRANCH   9  14
ENDBRANCH   5   8
ENDBRANCH   3   4
ENDBRANCH   2   3
ENDBRANCH   1   2
BRANCH   1  26
ATOM     26  C   UNL A   1      31.748  30.452  26.647  1.00  0.00     0.002 C 
BRANCH  26  27
ATOM     27  C   UNL A   1      31.574  31.970  26.735  1.00  0.00     0.021 C 
BRANCH  27  28
ATOM     28  C   UNL A   1      32.861  32.740  27.016  1.00  0.00     0.116 C 
BRANCH  28  29
ATOM     29  N   UNL A   1      32.593  34.044  27.603  1.00  0.00    -0.352 N 
ATOM     30  C   UNL A   1      33.107  34.598  28.748  1.00  0.00     0.251 C 
ATOM     31  H   UNL A   1      31.953  34.607  27.111  1.00  0.00     0.163 HD
ATOM     32  O   UNL A   1      32.604  35.613  29.219  1.00  0.00    -0.269 OA
BRANCH  30  33
ATOM     33  C   UNL A   1      34.260  33.960  29.414  1.00  0.00     0.039 A 
ATOM     34  C   UNL A   1      34.028  32.996  30.399  1.00  0.00     0.014 A 
ATOM     35  C   UNL A   1      35.568  34.316  29.070  1.00  0.00     0.014 A 
ATOM     36  C   UNL A   1      35.109  32.352  31.002  1.00  0.00     0.010 A 
ATOM     37  C   UNL A   1      36.641  33.617  29.616  1.00  0.00     0.010 A 
ATOM     38  C   UNL A   1      36.425  32.636  30.595  1.00  0.00    -0.014 A 
BRANCH  38  39
ATOM     39  C   UNL A   1      37.584  31.917  31.181  1.00  0.00     0.031 A 
ATOM     40  C   UNL A   1      38.069  32.260  32.563  1.00  0.00     0.074 A 
ATOM     41  C   UNL A   1      38.249  31.011  30.436  1.00  0.00     0.049 A 
ATOM     42  N   UNL A   1      39.101  31.790  33.215  1.00  0.00    -0.248 NA
ATOM     43  C   UNL A   1      37.310  33.284  33.301  1.00  0.00     0.031 C 
ATOM     44  C   UNL A   1      37.924  30.648  29.056  1.00  0.00     0.029 A 
ATOM     45  N   UNL A   1      39.356  30.252  30.726  1.00  0.00    -0.354 N 
ATOM     46  C   UNL A   1      39.133  32.477  34.422  1.00  0.00     0.074 A 
ATOM     47  C   UNL A   1      38.042  33.427  34.396  1.00  0.00     0.031 C 
ATOM     48  C   UNL A   1      38.811  29.741  28.618  1.00  0.00     0.029 A 
ATOM     49  C   UNL A   1      39.789  29.484  29.670  1.00  0.00     0.049 A 
ATOM     50  H   UNL A   1      39.798  30.258  31.606  1.00  0.00     0.167 HD
ATOM     51  C   UNL A   1      39.972  32.311  35.472  1.00  0.00     0.034 A 
ATOM     52  C   UNL A   1      40.862  28.678  29.556  1.00  0.00     0.034 A 
ATOM     53  C   UNL A   1      41.038  31.347  35.505  1.00  0.00     0.049 A 
ATOM     54  C   UNL A   1      41.769  28.496  30.742  1.00  0.00     0.074 A 
ATOM     55  C   UNL A   1      41.901  31.054  36.546  1.00  0.00     0.029 A 
ATOM     56  N   UNL A   1      41.395  30.525  34.446  1.00  0.00    -0.354 N 
ATOM     57  N   UNL A   1      41.696  29.049  31.929  1.00  0.00    -0.248 NA
ATOM     58  C   UNL A   1      42.885  27.552  30.589  1.00  0.00     0.031 C 
ATOM     59  C   UNL A   1      42.800  30.076  36.105  1.00  0.00     0.029 A 
ATOM     60  C   UNL A   1      42.470  29.731  34.805  1.00  0.00     0.049 A 
ATOM     61  H   UNL A   1      40.949  30.510  33.569  1.00  0.00     0.167 HD
ATOM     62  C   UNL A   1      42.729  28.493  32.674  1.00  0.00     0.074 A 
ATOM     63  C   UNL A   1      43.401  27.544  31.811  1.00  0.00     0.031 C 
ATOM     64  C   UNL A   1      43.098  28.754  33.952  1.00  0.00     0.034 A 
BRANCH  51  65
ATOM     65  C   UNL A   1      39.739  33.161  36.696  1.00  0.00     0.023 A 
ATOM     66  C   UNL A   1      40.285  34.460  36.755  1.00  0.00     0.012 A 
ATOM     67  C   UNL A   1      38.935  32.703  37.757  1.00  0.00     0.148 A 
ATOM     68  C   UNL A   1      40.069  35.273  37.867  1.00  0.00     0.002 A 
ATOM     69  C   UNL A   1      38.683  33.537  38.840  1.00  0.00     0.091 A 
ATOM     70  F   UNL A   1      38.438  31.459  37.693  1.00  0.00    -0.205 F 
ATOM     71  C   UNL A   1      39.260  34.817  38.903  1.00  0.00     0.022 A 
BRANCH  69  72
ATOM     72  S   UNL A   1      37.590  33.076  40.188  1.00  0.00     0.127 S 
ATOM     73  O   UNL A   1      36.341  32.809  39.476  1.00  0.00    -0.237 OA
ATOM     74  O   UNL A   1      38.251  31.886  40.726  1.00  0.00    -0.237 OA
ATOM     75  O   UNL A   1      37.560  34.218  41.092  1.00  0.00    -0.744 OA
ENDBRANCH  69  72
ENDBRANCH  51  65
BRANCH  52  76
ATOM     76  C   UNL A   1      41.117  27.952  28.279  1.00  0.00     0.023 A 
ATOM     77  C   UNL A   1      41.716  28.626  27.198  1.00  0.00     0.012 A 
ATOM     78  C   UNL A   1      40.781  26.591  28.138  1.00  0.00     0.148 A 
ATOM     79  C   UNL A   1      41.940  27.970  25.987  1.00  0.00     0.002 A 
ATOM     80  C   UNL A   1      41.061  25.928  26.950  1.00  0.00     0.091 A 
ATOM     81  F   UNL A   1      40.202  25.969  29.175  1.00  0.00    -0.205 F 
ATOM     82  C   UNL A   1      41.622  26.620  25.865  1.00  0.00     0.022 A 
BRANCH  80  83
ATOM     83  S   UNL A   1      40.812  24.160  26.754  1.00  0.00     0.127 S 
ATOM     84  O   UNL A   1      39.402  24.097  26.381  1.00  0.00    -0.237 OA
ATOM     85  O   UNL A   1      41.751  23.841  25.677  1.00  0.00    -0.237 OA
ATOM     86  O   UNL A   1      41.153  23.569  28.040  1.00  0.00    -0.744 OA
ENDBRANCH  80  83
ENDBRANCH  52  76
BRANCH  64  87
ATOM     87  C   UNL A   1      44.251  27.969  34.523  1.00  0.00     0.023 A 
ATOM     88  C   UNL A   1      45.561  28.481  34.442  1.00  0.00     0.012 A 
ATOM     89  C   UNL A   1      44.021  26.759  35.205  1.00  0.00     0.148 A 
ATOM     90  C   UNL A   1      46.629  27.781  35.001  1.00  0.00     0.002 A 
ATOM     91  C   UNL A   1      45.082  26.095  35.807  1.00  0.00     0.091 A 
ATOM     92  F   UNL A   1      42.769  26.282  35.257  1.00  0.00    -0.205 F 
ATOM     93  C   UNL A   1      46.389  26.596  35.694  1.00  0.00     0.022 A 
BRANCH  91  94
ATOM     94  S   UNL A   1      44.855  24.617  36.803  1.00  0.00     0.127 S 
ATOM     95  O   UNL A   1      44.336  23.671  35.816  1.00  0.00    -0.237 OA
ATOM     96  O   UNL A   1      46.218  24.339  37.256  1.00  0.00    -0.237 OA
ATOM     97  O   UNL A   1      43.925  24.983  37.862  1.00  0.00    -0.744 OA
ENDBRANCH  91  94
ENDBRANCH  64  87
ENDBRANCH  38  39
ENDBRANCH  30  33
ENDBRANCH  28  29
ENDBRANCH  27  28
ENDBRANCH  26  27
ENDBRANCH   1  26
TORSDOF 20
ENDMDL
