MODEL 1
REMARK VINA RESULT:     -10.7      0.000      0.000
REMARK SMILES CSc1ccc(C[C@H]([NH3+])C(=O)NCCCCCCNC(=O)c2ccc(-c3c4nc(c(-c5cccc(S(=O)(=O)[O-])c5F)c5ccc([nH]5)c(-c5cccc(S(=O)(=O)[O-])c5F)c5nc(c(-c6cccc(S(=O)(=O)[O-])c6F)c6ccc3[nH]6)C=C5)C=C4)cc2)cc1
REMARK SMILES IDX 15 1 14 2 13 3 12 4 10 5 11 6 8 8 7 9 6 10 3 11 4 12 86 13
REMARK SMILES IDX 5 14 85 15 2 16 1 17 9 18 16 22 17 23 18 24 19 25 20 26
REMARK SMILES IDX 21 28 22 29 23 30 84 31 24 32 83 33 25 34 26 35 27 36 77 37
REMARK SMILES IDX 28 38 82 39 76 40 78 41 29 42 81 43 75 44 74 45 30 47 62 48
REMARK SMILES IDX 42 49 61 50 43 51 46 52 60 53 79 54 44 55 45 56 59 58 80 59
REMARK SMILES IDX 47 60 31 61 32 62 40 63 33 64 35 65 41 66 34 67 36 68 37 69
REMARK SMILES IDX 38 70 39 71 63 72 64 73 72 74 65 75 67 76 73 77 66 78 68 79
REMARK SMILES IDX 69 80 70 81 71 82 48 83 49 84 57 85 50 86 52 87 58 88 51 89
REMARK SMILES IDX 53 90 54 91 55 92 56 93
REMARK H PARENT 12 7 9 19 9 20 9 21 19 27 78 46 46 57
REMARK Flexibility Score: inf
ROOT
ATOM      1  C   UNL A   1      36.402  22.456  24.563  1.00  0.00     0.002 C 
ENDROOT
BRANCH   1   2
ATOM      2  C   UNL A   1      35.595  23.209  25.627  1.00  0.00     0.021 C 
BRANCH   2   3
ATOM      3  C   UNL A   1      34.355  23.925  25.097  1.00  0.00     0.116 C 
BRANCH   3   4
ATOM      4  N   UNL A   1      34.368  23.995  23.646  1.00  0.00    -0.351 N 
ATOM      5  C   UNL A   1      33.515  23.444  22.738  1.00  0.00     0.278 C 
ATOM      6  O   UNL A   1      33.803  23.557  21.541  1.00  0.00    -0.268 OA
ATOM      7  H   UNL A   1      35.105  24.521  23.260  1.00  0.00     0.163 HD
BRANCH   5   8
ATOM      8  C   UNL A   1      32.228  22.712  23.173  1.00  0.00     0.275 C 
BRANCH   8   9
ATOM      9  C   UNL A   1      31.997  21.382  22.428  1.00  0.00     0.111 C 
BRANCH   9  10
ATOM     10  C   UNL A   1      32.324  20.137  23.229  1.00  0.00    -0.041 A 
ATOM     11  C   UNL A   1      32.882  17.828  24.748  1.00  0.00     0.007 A 
ATOM     12  C   UNL A   1      32.728  17.739  23.366  1.00  0.00     0.015 A 
ATOM     13  C   UNL A   1      32.732  19.066  25.376  1.00  0.00     0.015 A 
ATOM     14  C   UNL A   1      32.441  18.882  22.615  1.00  0.00     0.005 A 
ATOM     15  C   UNL A   1      32.460  20.212  24.621  1.00  0.00     0.005 A 
BRANCH  11  16
ATOM     16  S   UNL A   1      33.252  16.372  25.705  1.00  0.00    -0.130 SA
ATOM     17  C   UNL A   1      34.820  15.932  24.915  1.00  0.00     0.091 C 
ENDBRANCH  11  16
ENDBRANCH   9  10
ENDBRANCH   8   9
BRANCH   8  18
ATOM     18  N   UNL A   1      31.075  23.635  23.037  1.00  0.00    -0.347 N 
ATOM     19  H   UNL A   1      30.712  23.587  22.085  1.00  0.00     0.345 HD
ATOM     20  H   UNL A   1      31.377  24.589  23.238  1.00  0.00     0.345 HD
ATOM     21  H   UNL A   1      30.344  23.364  23.694  1.00  0.00     0.345 HD
ENDBRANCH   8  18
ENDBRANCH   5   8
ENDBRANCH   3   4
ENDBRANCH   2   3
ENDBRANCH   1   2
BRANCH   1  22
ATOM     22  C   UNL A   1      36.233  20.934  24.567  1.00  0.00     0.002 C 
BRANCH  22  23
ATOM     23  C   UNL A   1      37.479  20.138  24.963  1.00  0.00     0.021 C 
BRANCH  23  24
ATOM     24  C   UNL A   1      38.550  20.942  25.693  1.00  0.00     0.116 C 
BRANCH  24  25
ATOM     25  N   UNL A   1      39.628  20.105  26.200  1.00  0.00    -0.352 N 
ATOM     26  C   UNL A   1      40.812  20.494  26.780  1.00  0.00     0.251 C 
ATOM     27  H   UNL A   1      39.491  19.134  26.117  1.00  0.00     0.163 HD
ATOM     28  O   UNL A   1      41.687  19.667  27.022  1.00  0.00    -0.269 OA
BRANCH  26  29
ATOM     29  C   UNL A   1      41.031  21.923  27.084  1.00  0.00     0.039 A 
ATOM     30  C   UNL A   1      41.636  22.277  28.293  1.00  0.00     0.014 A 
ATOM     31  C   UNL A   1      40.666  22.905  26.160  1.00  0.00     0.014 A 
ATOM     32  C   UNL A   1      41.934  23.619  28.549  1.00  0.00     0.010 A 
ATOM     33  C   UNL A   1      41.024  24.230  26.389  1.00  0.00     0.010 A 
ATOM     34  C   UNL A   1      41.659  24.601  27.585  1.00  0.00    -0.014 A 
BRANCH  34  35
ATOM     35  C   UNL A   1      42.020  26.027  27.789  1.00  0.00     0.031 A 
ATOM     36  C   UNL A   1      43.404  26.501  27.437  1.00  0.00     0.074 A 
ATOM     37  C   UNL A   1      41.152  26.859  28.397  1.00  0.00     0.049 A 
ATOM     38  N   UNL A   1      43.968  27.655  27.678  1.00  0.00    -0.248 NA
ATOM     39  C   UNL A   1      44.281  25.537  26.751  1.00  0.00     0.031 C 
ATOM     40  C   UNL A   1      39.803  26.500  28.840  1.00  0.00     0.029 A 
ATOM     41  N   UNL A   1      41.291  28.169  28.786  1.00  0.00    -0.354 N 
ATOM     42  C   UNL A   1      45.274  27.542  27.219  1.00  0.00     0.074 A 
ATOM     43  C   UNL A   1      45.428  26.198  26.705  1.00  0.00     0.031 C 
ATOM     44  C   UNL A   1      39.244  27.559  29.448  1.00  0.00     0.029 A 
ATOM     45  C   UNL A   1      40.204  28.659  29.472  1.00  0.00     0.049 A 
ATOM     46  H   UNL A   1      42.093  28.706  28.593  1.00  0.00     0.167 HD
ATOM     47  C   UNL A   1      46.251  28.479  27.202  1.00  0.00     0.034 A 
ATOM     48  C   UNL A   1      40.009  29.852  30.068  1.00  0.00     0.034 A 
ATOM     49  C   UNL A   1      46.076  29.829  27.665  1.00  0.00     0.049 A 
ATOM     50  C   UNL A   1      41.097  30.890  29.999  1.00  0.00     0.074 A 
ATOM     51  C   UNL A   1      46.979  30.876  27.622  1.00  0.00     0.029 A 
ATOM     52  N   UNL A   1      44.920  30.319  28.252  1.00  0.00    -0.354 N 
ATOM     53  N   UNL A   1      42.280  30.807  29.441  1.00  0.00    -0.248 NA
ATOM     54  C   UNL A   1      40.813  32.197  30.608  1.00  0.00     0.031 C 
ATOM     55  C   UNL A   1      46.373  31.998  28.195  1.00  0.00     0.029 A 
ATOM     56  C   UNL A   1      45.085  31.655  28.574  1.00  0.00     0.049 A 
ATOM     57  H   UNL A   1      44.104  29.795  28.417  1.00  0.00     0.167 HD
ATOM     58  C   UNL A   1      42.861  32.061  29.588  1.00  0.00     0.074 A 
ATOM     59  C   UNL A   1      41.897  32.889  30.282  1.00  0.00     0.031 C 
ATOM     60  C   UNL A   1      44.086  32.486  29.194  1.00  0.00     0.034 A 
BRANCH  47  61
ATOM     61  C   UNL A   1      47.583  28.096  26.613  1.00  0.00     0.023 A 
ATOM     62  C   UNL A   1      48.676  27.852  27.469  1.00  0.00     0.012 A 
ATOM     63  C   UNL A   1      47.738  27.917  25.224  1.00  0.00     0.148 A 
ATOM     64  C   UNL A   1      49.911  27.468  26.952  1.00  0.00     0.002 A 
ATOM     65  C   UNL A   1      48.962  27.491  24.720  1.00  0.00     0.091 A 
ATOM     66  F   UNL A   1      46.694  28.175  24.424  1.00  0.00    -0.205 F 
ATOM     67  C   UNL A   1      50.052  27.277  25.580  1.00  0.00     0.022 A 
BRANCH  65  68
ATOM     68  S   UNL A   1      49.220  27.139  22.977  1.00  0.00     0.127 S 
ATOM     69  O   UNL A   1      48.310  26.015  22.765  1.00  0.00    -0.237 OA
ATOM     70  O   UNL A   1      48.803  28.391  22.343  1.00  0.00    -0.237 OA
ATOM     71  O   UNL A   1      50.637  26.833  22.836  1.00  0.00    -0.744 OA
ENDBRANCH  65  68
ENDBRANCH  47  61
BRANCH  48  72
ATOM     72  C   UNL A   1      38.705  30.154  30.723  1.00  0.00     0.023 A 
ATOM     73  C   UNL A   1      38.468  29.689  32.031  1.00  0.00     0.012 A 
ATOM     74  C   UNL A   1      37.712  30.915  30.076  1.00  0.00     0.148 A 
ATOM     75  C   UNL A   1      37.255  29.946  32.671  1.00  0.00     0.002 A 
ATOM     76  C   UNL A   1      36.527  31.215  30.739  1.00  0.00     0.091 A 
ATOM     77  F   UNL A   1      37.951  31.339  28.826  1.00  0.00    -0.205 F 
ATOM     78  C   UNL A   1      36.290  30.717  32.029  1.00  0.00     0.022 A 
BRANCH  76  79
ATOM     79  S   UNL A   1      35.282  32.306  30.038  1.00  0.00     0.127 S 
ATOM     80  O   UNL A   1      36.070  33.492  29.718  1.00  0.00    -0.237 OA
ATOM     81  O   UNL A   1      34.823  31.538  28.881  1.00  0.00    -0.237 OA
ATOM     82  O   UNL A   1      34.277  32.471  31.081  1.00  0.00    -0.744 OA
ENDBRANCH  76  79
ENDBRANCH  48  72
BRANCH  60  83
ATOM     83  C   UNL A   1      44.447  33.928  29.433  1.00  0.00     0.023 A 
ATOM     84  C   UNL A   1      45.161  34.290  30.591  1.00  0.00     0.012 A 
ATOM     85  C   UNL A   1      44.172  34.900  28.452  1.00  0.00     0.148 A 
ATOM     86  C   UNL A   1      45.581  35.608  30.777  1.00  0.00     0.002 A 
ATOM     87  C   UNL A   1      44.633  36.199  28.623  1.00  0.00     0.091 A 
ATOM     88  F   UNL A   1      43.474  34.535  27.367  1.00  0.00    -0.205 F 
ATOM     89  C   UNL A   1      45.330  36.557  29.788  1.00  0.00     0.022 A 
BRANCH  87  90
ATOM     90  S   UNL A   1      44.445  37.462  27.359  1.00  0.00     0.127 S 
ATOM     91  O   UNL A   1      44.504  38.688  28.153  1.00  0.00    -0.237 OA
ATOM     92  O   UNL A   1      45.614  37.228  26.511  1.00  0.00    -0.237 OA
ATOM     93  O   UNL A   1      43.166  37.199  26.713  1.00  0.00    -0.744 OA
ENDBRANCH  87  90
ENDBRANCH  60  83
ENDBRANCH  34  35
ENDBRANCH  26  29
ENDBRANCH  24  25
ENDBRANCH  23  24
ENDBRANCH  22  23
ENDBRANCH   1  22
TORSDOF 20
ENDMDL
MODEL 2
REMARK VINA RESULT:     -10.4      6.232      9.599
REMARK SMILES CSc1ccc(C[C@H]([NH3+])C(=O)NCCCCCCNC(=O)c2ccc(-c3c4nc(c(-c5cccc(S(=O)(=O)[O-])c5F)c5ccc([nH]5)c(-c5cccc(S(=O)(=O)[O-])c5F)c5nc(c(-c6cccc(S(=O)(=O)[O-])c6F)c6ccc3[nH]6)C=C5)C=C4)cc2)cc1
REMARK SMILES IDX 15 1 14 2 13 3 12 4 10 5 11 6 8 8 7 9 6 10 3 11 4 12 86 13
REMARK SMILES IDX 5 14 85 15 2 16 1 17 9 18 16 22 17 23 18 24 19 25 20 26
REMARK SMILES IDX 21 28 22 29 23 30 84 31 24 32 83 33 25 34 26 35 27 36 77 37
REMARK SMILES IDX 28 38 82 39 76 40 78 41 29 42 81 43 75 44 74 45 30 47 62 48
REMARK SMILES IDX 42 49 61 50 43 51 46 52 60 53 79 54 44 55 45 56 59 58 80 59
REMARK SMILES IDX 47 60 31 61 32 62 40 63 33 64 35 65 41 66 34 67 36 68 37 69
REMARK SMILES IDX 38 70 39 71 63 72 64 73 72 74 65 75 67 76 73 77 66 78 68 79
REMARK SMILES IDX 69 80 70 81 71 82 48 83 49 84 57 85 50 86 52 87 58 88 51 89
REMARK SMILES IDX 53 90 54 91 55 92 56 93
REMARK H PARENT 12 7 9 19 9 20 9 21 19 27 78 46 46 57
REMARK Flexibility Score: inf
ROOT
ATOM      1  C   UNL A   1      32.184  28.770  26.281  1.00  0.00     0.002 C 
ENDROOT
BRANCH   1   2
ATOM      2  C   UNL A   1      32.877  27.528  26.851  1.00  0.00     0.021 C 
BRANCH   2   3
ATOM      3  C   UNL A   1      33.483  26.599  25.801  1.00  0.00     0.116 C 
BRANCH   3   4
ATOM      4  N   UNL A   1      32.954  25.252  25.922  1.00  0.00    -0.351 N 
ATOM      5  C   UNL A   1      32.827  24.276  24.980  1.00  0.00     0.278 C 
ATOM      6  O   UNL A   1      32.239  23.239  25.306  1.00  0.00    -0.268 OA
ATOM      7  H   UNL A   1      32.638  25.006  26.822  1.00  0.00     0.163 HD
BRANCH   5   8
ATOM      8  C   UNL A   1      33.402  24.441  23.558  1.00  0.00     0.275 C 
BRANCH   8   9
ATOM      9  C   UNL A   1      32.340  24.823  22.507  1.00  0.00     0.111 C 
BRANCH   9  10
ATOM     10  C   UNL A   1      31.639  26.144  22.760  1.00  0.00    -0.041 A 
ATOM     11  C   UNL A   1      30.338  28.611  23.172  1.00  0.00     0.007 A 
ATOM     12  C   UNL A   1      29.695  27.417  23.491  1.00  0.00     0.015 A 
ATOM     13  C   UNL A   1      31.621  28.574  22.623  1.00  0.00     0.015 A 
ATOM     14  C   UNL A   1      30.336  26.194  23.276  1.00  0.00     0.005 A 
ATOM     15  C   UNL A   1      32.268  27.350  22.423  1.00  0.00     0.005 A 
BRANCH  11  16
ATOM     16  S   UNL A   1      29.523  30.170  23.450  1.00  0.00    -0.130 SA
ATOM     17  C   UNL A   1      28.912  30.449  21.769  1.00  0.00     0.091 C 
ENDBRANCH  11  16
ENDBRANCH   9  10
ENDBRANCH   8   9
BRANCH   8  18
ATOM     18  N   UNL A   1      34.137  23.209  23.184  1.00  0.00    -0.347 N 
ATOM     19  H   UNL A   1      34.929  23.452  22.590  1.00  0.00     0.345 HD
ATOM     20  H   UNL A   1      33.513  22.581  22.677  1.00  0.00     0.345 HD
ATOM     21  H   UNL A   1      34.475  22.745  24.027  1.00  0.00     0.345 HD
ENDBRANCH   8  18
ENDBRANCH   5   8
ENDBRANCH   3   4
ENDBRANCH   2   3
ENDBRANCH   1   2
BRANCH   1  22
ATOM     22  C   UNL A   1      31.931  29.900  27.284  1.00  0.00     0.002 C 
BRANCH  22  23
ATOM     23  C   UNL A   1      31.906  31.309  26.688  1.00  0.00     0.021 C 
BRANCH  23  24
ATOM     24  C   UNL A   1      33.069  32.204  27.104  1.00  0.00     0.116 C 
BRANCH  24  25
ATOM     25  N   UNL A   1      32.643  33.555  27.441  1.00  0.00    -0.352 N 
ATOM     26  C   UNL A   1      33.091  34.364  28.457  1.00  0.00     0.251 C 
ATOM     27  H   UNL A   1      31.941  33.937  26.867  1.00  0.00     0.163 HD
ATOM     28  O   UNL A   1      32.525  35.427  28.702  1.00  0.00    -0.269 OA
BRANCH  26  29
ATOM     29  C   UNL A   1      34.247  33.931  29.268  1.00  0.00     0.039 A 
ATOM     30  C   UNL A   1      34.038  33.068  30.347  1.00  0.00     0.014 A 
ATOM     31  C   UNL A   1      35.538  34.356  28.941  1.00  0.00     0.014 A 
ATOM     32  C   UNL A   1      35.135  32.577  31.062  1.00  0.00     0.010 A 
ATOM     33  C   UNL A   1      36.630  33.815  29.611  1.00  0.00     0.010 A 
ATOM     34  C   UNL A   1      36.440  32.922  30.679  1.00  0.00    -0.014 A 
BRANCH  34  35
ATOM     35  C   UNL A   1      37.634  32.371  31.368  1.00  0.00     0.031 A 
ATOM     36  C   UNL A   1      38.392  31.231  30.745  1.00  0.00     0.074 A 
ATOM     37  C   UNL A   1      37.961  32.809  32.600  1.00  0.00     0.049 A 
ATOM     38  N   UNL A   1      39.358  30.508  31.248  1.00  0.00    -0.248 NA
ATOM     39  C   UNL A   1      37.988  30.830  29.386  1.00  0.00     0.031 C 
ATOM     40  C   UNL A   1      37.265  33.868  33.334  1.00  0.00     0.029 A 
ATOM     41  N   UNL A   1      38.938  32.391  33.469  1.00  0.00    -0.354 N 
ATOM     42  C   UNL A   1      39.645  29.540  30.292  1.00  0.00     0.074 A 
ATOM     43  C   UNL A   1      38.735  29.753  29.188  1.00  0.00     0.031 C 
ATOM     44  C   UNL A   1      37.828  34.007  34.545  1.00  0.00     0.029 A 
ATOM     45  C   UNL A   1      38.901  33.027  34.689  1.00  0.00     0.049 A 
ATOM     46  H   UNL A   1      39.601  31.699  33.242  1.00  0.00     0.167 HD
ATOM     47  C   UNL A   1      40.596  28.578  30.320  1.00  0.00     0.034 A 
ATOM     48  C   UNL A   1      39.635  32.830  35.802  1.00  0.00     0.034 A 
ATOM     49  C   UNL A   1      41.532  28.405  31.397  1.00  0.00     0.049 A 
ATOM     50  C   UNL A   1      40.713  31.780  35.790  1.00  0.00     0.074 A 
ATOM     51  C   UNL A   1      42.582  27.509  31.488  1.00  0.00     0.029 A 
ATOM     52  N   UNL A   1      41.533  29.145  32.569  1.00  0.00    -0.354 N 
ATOM     53  N   UNL A   1      41.057  30.963  34.825  1.00  0.00    -0.248 NA
ATOM     54  C   UNL A   1      41.529  31.647  37.006  1.00  0.00     0.031 C 
ATOM     55  C   UNL A   1      43.212  27.699  32.722  1.00  0.00     0.029 A 
ATOM     56  C   UNL A   1      42.568  28.729  33.389  1.00  0.00     0.049 A 
ATOM     57  H   UNL A   1      40.893  29.860  32.787  1.00  0.00     0.167 HD
ATOM     58  C   UNL A   1      42.156  30.255  35.297  1.00  0.00     0.074 A 
ATOM     59  C   UNL A   1      42.426  30.744  36.633  1.00  0.00     0.031 C 
ATOM     60  C   UNL A   1      42.871  29.281  34.684  1.00  0.00     0.034 A 
BRANCH  47  61
ATOM     61  C   UNL A   1      40.712  27.670  29.124  1.00  0.00     0.023 A 
ATOM     62  C   UNL A   1      39.883  26.534  29.033  1.00  0.00     0.012 A 
ATOM     63  C   UNL A   1      41.592  27.971  28.066  1.00  0.00     0.148 A 
ATOM     64  C   UNL A   1      39.949  25.693  27.924  1.00  0.00     0.002 A 
ATOM     65  C   UNL A   1      41.621  27.152  26.943  1.00  0.00     0.091 A 
ATOM     66  F   UNL A   1      42.389  29.043  28.181  1.00  0.00    -0.205 F 
ATOM     67  C   UNL A   1      40.809  26.007  26.875  1.00  0.00     0.022 A 
BRANCH  65  68
ATOM     68  S   UNL A   1      42.636  27.516  25.506  1.00  0.00     0.127 S 
ATOM     69  O   UNL A   1      43.978  27.516  26.085  1.00  0.00    -0.237 OA
ATOM     70  O   UNL A   1      42.350  26.378  24.630  1.00  0.00    -0.237 OA
ATOM     71  O   UNL A   1      42.170  28.799  25.001  1.00  0.00    -0.744 OA
ENDBRANCH  65  68
ENDBRANCH  47  61
BRANCH  48  72
ATOM     72  C   UNL A   1      39.421  33.693  36.998  1.00  0.00     0.023 A 
ATOM     73  C   UNL A   1      39.872  35.027  36.974  1.00  0.00     0.012 A 
ATOM     74  C   UNL A   1      38.758  33.215  38.145  1.00  0.00     0.148 A 
ATOM     75  C   UNL A   1      39.697  35.860  38.079  1.00  0.00     0.002 A 
ATOM     76  C   UNL A   1      38.538  34.065  39.223  1.00  0.00     0.091 A 
ATOM     77  F   UNL A   1      38.347  31.938  38.155  1.00  0.00    -0.205 F 
ATOM     78  C   UNL A   1      39.021  35.383  39.199  1.00  0.00     0.022 A 
BRANCH  76  79
ATOM     79  S   UNL A   1      37.567  33.573  40.653  1.00  0.00     0.127 S 
ATOM     80  O   UNL A   1      38.432  32.575  41.274  1.00  0.00    -0.237 OA
ATOM     81  O   UNL A   1      37.451  34.833  41.389  1.00  0.00    -0.237 OA
ATOM     82  O   UNL A   1      36.306  33.078  40.117  1.00  0.00    -0.744 OA
ENDBRANCH  76  79
ENDBRANCH  48  72
BRANCH  60  83
ATOM     83  C   UNL A   1      44.062  28.713  35.408  1.00  0.00     0.023 A 
ATOM     84  C   UNL A   1      45.334  29.288  35.227  1.00  0.00     0.012 A 
ATOM     85  C   UNL A   1      43.893  27.680  36.350  1.00  0.00     0.148 A 
ATOM     86  C   UNL A   1      46.427  28.828  35.963  1.00  0.00     0.002 A 
ATOM     87  C   UNL A   1      44.976  27.259  37.112  1.00  0.00     0.091 A 
ATOM     88  F   UNL A   1      42.676  27.136  36.491  1.00  0.00    -0.205 F 
ATOM     89  C   UNL A   1      46.245  27.826  36.914  1.00  0.00     0.022 A 
BRANCH  87  90
ATOM     90  S   UNL A   1      44.815  26.047  38.428  1.00  0.00     0.127 S 
ATOM     91  O   UNL A   1      43.798  26.664  39.278  1.00  0.00    -0.237 OA
ATOM     92  O   UNL A   1      44.362  24.860  37.701  1.00  0.00    -0.237 OA
ATOM     93  O   UNL A   1      46.136  25.922  39.026  1.00  0.00    -0.744 OA
ENDBRANCH  87  90
ENDBRANCH  60  83
ENDBRANCH  34  35
ENDBRANCH  26  29
ENDBRANCH  24  25
ENDBRANCH  23  24
ENDBRANCH  22  23
ENDBRANCH   1  22
TORSDOF 20
ENDMDL
MODEL 3
REMARK VINA RESULT:     -10.3      1.488      7.895
REMARK SMILES CSc1ccc(C[C@H]([NH3+])C(=O)NCCCCCCNC(=O)c2ccc(-c3c4nc(c(-c5cccc(S(=O)(=O)[O-])c5F)c5ccc([nH]5)c(-c5cccc(S(=O)(=O)[O-])c5F)c5nc(c(-c6cccc(S(=O)(=O)[O-])c6F)c6ccc3[nH]6)C=C5)C=C4)cc2)cc1
REMARK SMILES IDX 15 1 14 2 13 3 12 4 10 5 11 6 8 8 7 9 6 10 3 11 4 12 86 13
REMARK SMILES IDX 5 14 85 15 2 16 1 17 9 18 16 22 17 23 18 24 19 25 20 26
REMARK SMILES IDX 21 28 22 29 23 30 84 31 24 32 83 33 25 34 26 35 27 36 77 37
REMARK SMILES IDX 28 38 82 39 76 40 78 41 29 42 81 43 75 44 74 45 30 47 62 48
REMARK SMILES IDX 42 49 61 50 43 51 46 52 60 53 79 54 44 55 45 56 59 58 80 59
REMARK SMILES IDX 47 60 31 61 32 62 40 63 33 64 35 65 41 66 34 67 36 68 37 69
REMARK SMILES IDX 38 70 39 71 63 72 64 73 72 74 65 75 67 76 73 77 66 78 68 79
REMARK SMILES IDX 69 80 70 81 71 82 48 83 49 84 57 85 50 86 52 87 58 88 51 89
REMARK SMILES IDX 53 90 54 91 55 92 56 93
REMARK H PARENT 12 7 9 19 9 20 9 21 19 27 78 46 46 57
REMARK Flexibility Score: inf
ROOT
ATOM      1  C   UNL A   1      34.750  23.581  26.693  1.00  0.00     0.002 C 
ENDROOT
BRANCH   1   2
ATOM      2  C   UNL A   1      33.661  22.624  27.190  1.00  0.00     0.021 C 
BRANCH   2   3
ATOM      3  C   UNL A   1      32.232  23.110  26.958  1.00  0.00     0.116 C 
BRANCH   3   4
ATOM      4  N   UNL A   1      32.209  24.300  26.125  1.00  0.00    -0.351 N 
ATOM      5  C   UNL A   1      31.921  24.432  24.800  1.00  0.00     0.278 C 
ATOM      6  O   UNL A   1      32.079  25.546  24.289  1.00  0.00    -0.268 OA
ATOM      7  H   UNL A   1      32.438  25.138  26.588  1.00  0.00     0.163 HD
BRANCH   5   8
ATOM      8  C   UNL A   1      31.405  23.246  23.960  1.00  0.00     0.275 C 
BRANCH   8   9
ATOM      9  C   UNL A   1      32.506  22.564  23.121  1.00  0.00     0.111 C 
BRANCH   9  10
ATOM     10  C   UNL A   1      32.672  21.079  23.374  1.00  0.00    -0.041 A 
ATOM     11  C   UNL A   1      33.012  18.312  23.795  1.00  0.00     0.007 A 
ATOM     12  C   UNL A   1      33.549  19.229  24.696  1.00  0.00     0.015 A 
ATOM     13  C   UNL A   1      32.327  18.774  22.670  1.00  0.00     0.015 A 
ATOM     14  C   UNL A   1      33.390  20.601  24.480  1.00  0.00     0.005 A 
ATOM     15  C   UNL A   1      32.155  20.147  22.464  1.00  0.00     0.005 A 
BRANCH  11  16
ATOM     16  S   UNL A   1      33.212  16.563  24.071  1.00  0.00    -0.130 SA
ATOM     17  C   UNL A   1      32.542  16.486  25.751  1.00  0.00     0.091 C 
ENDBRANCH  11  16
ENDBRANCH   9  10
ENDBRANCH   8   9
BRANCH   8  18
ATOM     18  N   UNL A   1      30.269  23.700  23.123  1.00  0.00    -0.347 N 
ATOM     19  H   UNL A   1      30.615  24.303  22.377  1.00  0.00     0.345 HD
ATOM     20  H   UNL A   1      29.608  24.221  23.701  1.00  0.00     0.345 HD
ATOM     21  H   UNL A   1      29.801  22.891  22.716  1.00  0.00     0.345 HD
ENDBRANCH   8  18
ENDBRANCH   5   8
ENDBRANCH   3   4
ENDBRANCH   2   3
ENDBRANCH   1   2
BRANCH   1  22
ATOM     22  C   UNL A   1      35.590  23.069  25.519  1.00  0.00     0.002 C 
BRANCH  22  23
ATOM     23  C   UNL A   1      36.279  21.722  25.746  1.00  0.00     0.021 C 
BRANCH  23  24
ATOM     24  C   UNL A   1      37.543  21.500  24.922  1.00  0.00     0.116 C 
BRANCH  24  25
ATOM     25  N   UNL A   1      38.349  20.395  25.422  1.00  0.00    -0.352 N 
ATOM     26  C   UNL A   1      39.530  20.448  26.122  1.00  0.00     0.251 C 
ATOM     27  H   UNL A   1      38.002  19.493  25.234  1.00  0.00     0.163 HD
ATOM     28  O   UNL A   1      40.166  19.421  26.347  1.00  0.00    -0.269 OA
BRANCH  26  29
ATOM     29  C   UNL A   1      40.040  21.756  26.581  1.00  0.00     0.039 A 
ATOM     30  C   UNL A   1      40.921  21.803  27.664  1.00  0.00     0.014 A 
ATOM     31  C   UNL A   1      39.670  22.929  25.918  1.00  0.00     0.014 A 
ATOM     32  C   UNL A   1      41.484  23.024  28.045  1.00  0.00     0.010 A 
ATOM     33  C   UNL A   1      40.281  24.132  26.257  1.00  0.00     0.010 A 
ATOM     34  C   UNL A   1      41.192  24.192  27.324  1.00  0.00    -0.014 A 
BRANCH  34  35
ATOM     35  C   UNL A   1      41.819  25.498  27.653  1.00  0.00     0.031 A 
ATOM     36  C   UNL A   1      41.020  26.543  28.383  1.00  0.00     0.074 A 
ATOM     37  C   UNL A   1      43.052  25.786  27.192  1.00  0.00     0.049 A 
ATOM     38  N   UNL A   1      41.321  27.791  28.628  1.00  0.00    -0.248 NA
ATOM     39  C   UNL A   1      39.692  26.139  28.876  1.00  0.00     0.031 C 
ATOM     40  C   UNL A   1      43.902  24.877  26.420  1.00  0.00     0.029 A 
ATOM     41  N   UNL A   1      43.790  26.941  27.272  1.00  0.00    -0.354 N 
ATOM     42  C   UNL A   1      40.207  28.334  29.258  1.00  0.00     0.074 A 
ATOM     43  C   UNL A   1      39.213  27.285  29.337  1.00  0.00     0.031 C 
ATOM     44  C   UNL A   1      45.037  25.511  26.088  1.00  0.00     0.029 A 
ATOM     45  C   UNL A   1      44.983  26.881  26.590  1.00  0.00     0.049 A 
ATOM     46  H   UNL A   1      43.492  27.738  27.768  1.00  0.00     0.167 HD
ATOM     47  C   UNL A   1      40.036  29.583  29.748  1.00  0.00     0.034 A 
ATOM     48  C   UNL A   1      45.920  27.828  26.378  1.00  0.00     0.034 A 
ATOM     49  C   UNL A   1      41.047  30.605  29.714  1.00  0.00     0.049 A 
ATOM     50  C   UNL A   1      45.722  29.197  26.970  1.00  0.00     0.074 A 
ATOM     51  C   UNL A   1      41.000  31.879  30.250  1.00  0.00     0.029 A 
ATOM     52  N   UNL A   1      42.288  30.468  29.112  1.00  0.00    -0.354 N 
ATOM     53  N   UNL A   1      44.717  29.651  27.679  1.00  0.00    -0.248 NA
ATOM     54  C   UNL A   1      46.800  30.176  26.766  1.00  0.00     0.031 C 
ATOM     55  C   UNL A   1      42.209  32.518  29.962  1.00  0.00     0.029 A 
ATOM     56  C   UNL A   1      43.018  31.633  29.266  1.00  0.00     0.049 A 
ATOM     57  H   UNL A   1      42.603  29.662  28.644  1.00  0.00     0.167 HD
ATOM     58  C   UNL A   1      45.061  30.947  28.045  1.00  0.00     0.074 A 
ATOM     59  C   UNL A   1      46.373  31.204  27.486  1.00  0.00     0.031 C 
ATOM     60  C   UNL A   1      44.353  31.846  28.770  1.00  0.00     0.034 A 
BRANCH  47  61
ATOM     61  C   UNL A   1      38.725  29.902  30.418  1.00  0.00     0.023 A 
ATOM     62  C   UNL A   1      38.472  29.411  31.715  1.00  0.00     0.012 A 
ATOM     63  C   UNL A   1      37.774  30.733  29.795  1.00  0.00     0.148 A 
ATOM     64  C   UNL A   1      37.281  29.714  32.370  1.00  0.00     0.002 A 
ATOM     65  C   UNL A   1      36.606  31.068  30.473  1.00  0.00     0.091 A 
ATOM     66  F   UNL A   1      38.022  31.172  28.553  1.00  0.00    -0.205 F 
ATOM     67  C   UNL A   1      36.353  30.551  31.755  1.00  0.00     0.022 A 
BRANCH  65  68
ATOM     68  S   UNL A   1      35.387  32.202  29.798  1.00  0.00     0.127 S 
ATOM     69  O   UNL A   1      34.456  32.333  30.917  1.00  0.00    -0.237 OA
ATOM     70  O   UNL A   1      36.190  33.395  29.529  1.00  0.00    -0.237 OA
ATOM     71  O   UNL A   1      34.851  31.553  28.610  1.00  0.00    -0.744 OA
ENDBRANCH  65  68
ENDBRANCH  47  61
BRANCH  48  72
ATOM     72  C   UNL A   1      47.162  27.492  25.626  1.00  0.00     0.023 A 
ATOM     73  C   UNL A   1      47.223  27.757  24.244  1.00  0.00     0.012 A 
ATOM     74  C   UNL A   1      48.287  26.939  26.268  1.00  0.00     0.148 A 
ATOM     75  C   UNL A   1      48.367  27.447  23.508  1.00  0.00     0.002 A 
ATOM     76  C   UNL A   1      49.444  26.683  25.540  1.00  0.00     0.091 A 
ATOM     77  F   UNL A   1      48.207  26.683  27.582  1.00  0.00    -0.205 F 
ATOM     78  C   UNL A   1      49.480  26.921  24.157  1.00  0.00     0.022 A 
BRANCH  76  79
ATOM     79  S   UNL A   1      50.965  26.124  26.316  1.00  0.00     0.127 S 
ATOM     80  O   UNL A   1      50.568  24.826  26.853  1.00  0.00    -0.237 OA
ATOM     81  O   UNL A   1      51.883  26.067  25.179  1.00  0.00    -0.237 OA
ATOM     82  O   UNL A   1      51.298  27.145  27.301  1.00  0.00    -0.744 OA
ENDBRANCH  76  79
ENDBRANCH  48  72
BRANCH  60  83
ATOM     83  C   UNL A   1      44.991  33.175  29.071  1.00  0.00     0.023 A 
ATOM     84  C   UNL A   1      45.847  33.309  30.181  1.00  0.00     0.012 A 
ATOM     85  C   UNL A   1      44.826  34.258  28.185  1.00  0.00     0.148 A 
ATOM     86  C   UNL A   1      46.516  34.511  30.415  1.00  0.00     0.002 A 
ATOM     87  C   UNL A   1      45.531  35.436  28.399  1.00  0.00     0.091 A 
ATOM     88  F   UNL A   1      43.992  34.112  27.146  1.00  0.00    -0.205 F 
ATOM     89  C   UNL A   1      46.369  35.568  29.518  1.00  0.00     0.022 A 
BRANCH  87  90
ATOM     90  S   UNL A   1      45.482  36.811  27.244  1.00  0.00     0.127 S 
ATOM     91  O   UNL A   1      46.102  37.879  28.026  1.00  0.00    -0.237 OA
ATOM     92  O   UNL A   1      46.300  36.314  26.136  1.00  0.00    -0.237 OA
ATOM     93  O   UNL A   1      44.078  37.012  26.916  1.00  0.00    -0.744 OA
ENDBRANCH  87  90
ENDBRANCH  60  83
ENDBRANCH  34  35
ENDBRANCH  26  29
ENDBRANCH  24  25
ENDBRANCH  23  24
ENDBRANCH  22  23
ENDBRANCH   1  22
TORSDOF 20
ENDMDL
