MODEL 1
REMARK VINA RESULT:     -11.9      0.000      0.000
REMARK SMILES Cc1ccc(-c2ncccc2C(=O)NCCCCCCNC(=O)c2ccc(-c3c4nc(c(-c5cccc(S(=O)(=O)[O-])c5F)c5ccc([nH]5)c(-c5cccc(S(=O)(=O)[O-])c5F)c5nc(c(-c6cccc(S(=O)(=O)[O-])c6F)c6ccc3[nH]6)C=C5)C=C4)cc2)c(Cl)c1
REMARK SMILES IDX 18 1 17 2 16 3 15 4 14 5 12 6 13 7 11 9 6 10 7 11 8 12 10 13
REMARK SMILES IDX 9 14 5 15 1 16 2 17 3 18 89 19 4 20 87 21 88 22 19 23 20 24
REMARK SMILES IDX 21 25 22 26 23 28 24 29 25 30 86 31 26 32 85 33 27 34 28 35
REMARK SMILES IDX 29 36 79 37 30 38 84 39 78 40 80 41 31 42 83 43 77 44 76 45
REMARK SMILES IDX 32 47 64 48 44 49 63 50 45 51 48 52 62 53 81 54 46 55 47 56
REMARK SMILES IDX 61 58 82 59 49 60 33 61 34 62 42 63 35 64 37 65 43 66 36 67
REMARK SMILES IDX 38 68 39 69 40 70 41 71 65 72 66 73 74 74 67 75 69 76 75 77
REMARK SMILES IDX 68 78 70 79 71 80 72 81 73 82 50 83 51 84 59 85 52 86 54 87
REMARK SMILES IDX 60 88 53 89 55 90 56 91 57 92 58 93
REMARK H PARENT 14 8 21 27 80 46 48 57
REMARK Flexibility Score: inf
ROOT
ATOM      1  C   UNL A   1      31.792  30.583  25.934  1.00  0.00     0.002 C 
ENDROOT
BRANCH   1   2
ATOM      2  C   UNL A   1      33.103  29.887  26.322  1.00  0.00     0.002 C 
BRANCH   2   3
ATOM      3  C   UNL A   1      32.946  28.457  26.865  1.00  0.00     0.021 C 
BRANCH   3   4
ATOM      4  C   UNL A   1      31.567  28.182  27.462  1.00  0.00     0.116 C 
BRANCH   4   5
ATOM      5  N   UNL A   1      31.162  26.816  27.201  1.00  0.00    -0.352 N 
ATOM      6  C   UNL A   1      30.833  26.051  26.117  1.00  0.00     0.253 C 
ATOM      7  O   UNL A   1      30.543  24.893  26.422  1.00  0.00    -0.269 OA
ATOM      8  H   UNL A   1      31.110  26.295  28.034  1.00  0.00     0.163 HD
BRANCH   6   9
ATOM      9  C   UNL A   1      30.832  26.485  24.677  1.00  0.00     0.066 A 
ATOM     10  C   UNL A   1      31.561  25.756  23.710  1.00  0.00     0.084 A 
ATOM     11  N   UNL A   1      31.686  26.156  22.406  1.00  0.00    -0.255 NA
ATOM     12  C   UNL A   1      31.097  27.305  22.032  1.00  0.00     0.112 A 
ATOM     13  C   UNL A   1      30.164  27.619  24.200  1.00  0.00     0.018 A 
ATOM     14  C   UNL A   1      30.316  28.053  22.882  1.00  0.00     0.021 A 
BRANCH  10  15
ATOM     15  C   UNL A   1      32.214  24.455  23.940  1.00  0.00     0.020 A 
ATOM     16  C   UNL A   1      33.945  20.559  24.726  1.00  0.00     0.044 C 
ATOM     17  C   UNL A   1      33.351  21.901  24.421  1.00  0.00    -0.050 A 
ATOM     18  C   UNL A   1      32.118  22.013  23.777  1.00  0.00     0.004 A 
ATOM     19  C   UNL A   1      34.032  23.069  24.790  1.00  0.00     0.024 A 
ATOM     20  C   UNL A   1      31.565  23.273  23.527  1.00  0.00     0.012 A 
ATOM     21  C   UNL A   1      33.468  24.331  24.559  1.00  0.00     0.050 A 
ATOM     22  Cl  UNL A   1      34.368  25.708  25.103  1.00  0.00    -0.084 Cl
ENDBRANCH  10  15
ENDBRANCH   6   9
ENDBRANCH   4   5
ENDBRANCH   3   4
ENDBRANCH   2   3
ENDBRANCH   1   2
BRANCH   1  23
ATOM     23  C   UNL A   1      31.529  31.911  26.649  1.00  0.00     0.021 C 
BRANCH  23  24
ATOM     24  C   UNL A   1      32.764  32.523  27.300  1.00  0.00     0.116 C 
BRANCH  24  25
ATOM     25  N   UNL A   1      32.569  33.934  27.596  1.00  0.00    -0.352 N 
ATOM     26  C   UNL A   1      33.144  34.697  28.581  1.00  0.00     0.251 C 
ATOM     27  H   UNL A   1      31.937  34.406  27.007  1.00  0.00     0.163 HD
ATOM     28  O   UNL A   1      32.690  35.807  28.839  1.00  0.00    -0.269 OA
BRANCH  26  29
ATOM     29  C   UNL A   1      34.303  34.171  29.331  1.00  0.00     0.039 A 
ATOM     30  C   UNL A   1      34.078  33.419  30.486  1.00  0.00     0.014 A 
ATOM     31  C   UNL A   1      35.608  34.426  28.898  1.00  0.00     0.014 A 
ATOM     32  C   UNL A   1      35.163  32.884  31.183  1.00  0.00     0.010 A 
ATOM     33  C   UNL A   1      36.681  33.828  29.549  1.00  0.00     0.010 A 
ATOM     34  C   UNL A   1      36.472  33.062  30.705  1.00  0.00    -0.014 A 
BRANCH  34  35
ATOM     35  C   UNL A   1      37.632  32.444  31.397  1.00  0.00     0.031 A 
ATOM     36  C   UNL A   1      38.370  31.296  30.765  1.00  0.00     0.074 A 
ATOM     37  C   UNL A   1      37.964  32.861  32.635  1.00  0.00     0.049 A 
ATOM     38  N   UNL A   1      39.374  30.602  31.237  1.00  0.00    -0.248 NA
ATOM     39  C   UNL A   1      37.905  30.848  29.441  1.00  0.00     0.031 C 
ATOM     40  C   UNL A   1      37.269  33.906  33.389  1.00  0.00     0.029 A 
ATOM     41  N   UNL A   1      38.951  32.437  33.488  1.00  0.00    -0.354 N 
ATOM     42  C   UNL A   1      39.633  29.616  30.293  1.00  0.00     0.074 A 
ATOM     43  C   UNL A   1      38.662  29.781  29.234  1.00  0.00     0.031 C 
ATOM     44  C   UNL A   1      37.851  34.042  34.591  1.00  0.00     0.029 A 
ATOM     45  C   UNL A   1      38.938  33.075  34.706  1.00  0.00     0.049 A 
ATOM     46  H   UNL A   1      39.607  31.741  33.251  1.00  0.00     0.167 HD
ATOM     47  C   UNL A   1      40.607  28.676  30.294  1.00  0.00     0.034 A 
ATOM     48  C   UNL A   1      39.707  32.896  35.798  1.00  0.00     0.034 A 
ATOM     49  C   UNL A   1      41.596  28.543  31.330  1.00  0.00     0.049 A 
ATOM     50  C   UNL A   1      40.813  31.877  35.754  1.00  0.00     0.074 A 
ATOM     51  C   UNL A   1      42.686  27.692  31.374  1.00  0.00     0.029 A 
ATOM     52  N   UNL A   1      41.608  29.269  32.510  1.00  0.00    -0.354 N 
ATOM     53  N   UNL A   1      41.151  31.069  34.778  1.00  0.00    -0.248 NA
ATOM     54  C   UNL A   1      41.669  31.772  36.945  1.00  0.00     0.031 C 
ATOM     55  C   UNL A   1      43.337  27.879  32.597  1.00  0.00     0.029 A 
ATOM     56  C   UNL A   1      42.676  28.875  33.299  1.00  0.00     0.049 A 
ATOM     57  H   UNL A   1      40.954  29.964  32.752  1.00  0.00     0.167 HD
ATOM     58  C   UNL A   1      42.276  30.384  35.223  1.00  0.00     0.074 A 
ATOM     59  C   UNL A   1      42.574  30.888  36.548  1.00  0.00     0.031 C 
ATOM     60  C   UNL A   1      42.989  29.416  34.597  1.00  0.00     0.034 A 
BRANCH  47  61
ATOM     61  C   UNL A   1      40.679  27.738  29.116  1.00  0.00     0.023 A 
ATOM     62  C   UNL A   1      39.808  26.631  29.048  1.00  0.00     0.012 A 
ATOM     63  C   UNL A   1      41.568  27.983  28.051  1.00  0.00     0.148 A 
ATOM     64  C   UNL A   1      39.846  25.763  27.958  1.00  0.00     0.002 A 
ATOM     65  C   UNL A   1      41.565  27.141  26.945  1.00  0.00     0.091 A 
ATOM     66  F   UNL A   1      42.403  29.027  28.142  1.00  0.00    -0.205 F 
ATOM     67  C   UNL A   1      40.716  26.023  26.903  1.00  0.00     0.022 A 
BRANCH  65  68
ATOM     68  S   UNL A   1      42.590  27.437  25.500  1.00  0.00     0.127 S 
ATOM     69  O   UNL A   1      43.929  27.460  26.087  1.00  0.00    -0.237 OA
ATOM     70  O   UNL A   1      42.307  26.261  24.677  1.00  0.00    -0.237 OA
ATOM     71  O   UNL A   1      42.133  28.699  24.935  1.00  0.00    -0.744 OA
ENDBRANCH  65  68
ENDBRANCH  47  61
BRANCH  48  72
ATOM     72  C   UNL A   1      39.485  33.739  37.005  1.00  0.00     0.023 A 
ATOM     73  C   UNL A   1      39.891  35.088  36.997  1.00  0.00     0.012 A 
ATOM     74  C   UNL A   1      38.842  33.222  38.147  1.00  0.00     0.148 A 
ATOM     75  C   UNL A   1      39.687  35.898  38.114  1.00  0.00     0.002 A 
ATOM     76  C   UNL A   1      38.590  34.049  39.234  1.00  0.00     0.091 A 
ATOM     77  F   UNL A   1      38.472  31.933  38.137  1.00  0.00    -0.205 F 
ATOM     78  C   UNL A   1      39.029  35.383  39.228  1.00  0.00     0.022 A 
BRANCH  76  79
ATOM     79  S   UNL A   1      37.628  33.511  40.651  1.00  0.00     0.127 S 
ATOM     80  O   UNL A   1      38.493  32.484  41.227  1.00  0.00    -0.237 OA
ATOM     81  O   UNL A   1      37.528  34.743  41.433  1.00  0.00    -0.237 OA
ATOM     82  O   UNL A   1      36.360  33.040  40.110  1.00  0.00    -0.744 OA
ENDBRANCH  76  79
ENDBRANCH  48  72
BRANCH  60  83
ATOM     83  C   UNL A   1      44.189  28.855  35.314  1.00  0.00     0.023 A 
ATOM     84  C   UNL A   1      45.460  29.431  35.119  1.00  0.00     0.012 A 
ATOM     85  C   UNL A   1      44.041  27.802  36.239  1.00  0.00     0.148 A 
ATOM     86  C   UNL A   1      46.571  28.944  35.807  1.00  0.00     0.002 A 
ATOM     87  C   UNL A   1      45.143  27.358  36.959  1.00  0.00     0.091 A 
ATOM     88  F   UNL A   1      42.828  27.255  36.397  1.00  0.00    -0.205 F 
ATOM     89  C   UNL A   1      46.411  27.919  36.736  1.00  0.00     0.022 A 
BRANCH  87  90
ATOM     90  S   UNL A   1      45.014  26.111  38.247  1.00  0.00     0.127 S 
ATOM     91  O   UNL A   1      44.355  25.017  37.535  1.00  0.00    -0.237 OA
ATOM     92  O   UNL A   1      46.416  25.865  38.581  1.00  0.00    -0.237 OA
ATOM     93  O   UNL A   1      44.235  26.718  39.317  1.00  0.00    -0.744 OA
ENDBRANCH  87  90
ENDBRANCH  60  83
ENDBRANCH  34  35
ENDBRANCH  26  29
ENDBRANCH  24  25
ENDBRANCH  23  24
ENDBRANCH   1  23
TORSDOF 17
ENDMDL
MODEL 2
REMARK VINA RESULT:     -11.9      1.665      2.873
REMARK SMILES Cc1ccc(-c2ncccc2C(=O)NCCCCCCNC(=O)c2ccc(-c3c4nc(c(-c5cccc(S(=O)(=O)[O-])c5F)c5ccc([nH]5)c(-c5cccc(S(=O)(=O)[O-])c5F)c5nc(c(-c6cccc(S(=O)(=O)[O-])c6F)c6ccc3[nH]6)C=C5)C=C4)cc2)c(Cl)c1
REMARK SMILES IDX 18 1 17 2 16 3 15 4 14 5 12 6 13 7 11 9 6 10 7 11 8 12 10 13
REMARK SMILES IDX 9 14 5 15 1 16 2 17 3 18 89 19 4 20 87 21 88 22 19 23 20 24
REMARK SMILES IDX 21 25 22 26 23 28 24 29 25 30 86 31 26 32 85 33 27 34 28 35
REMARK SMILES IDX 29 36 79 37 30 38 84 39 78 40 80 41 31 42 83 43 77 44 76 45
REMARK SMILES IDX 32 47 64 48 44 49 63 50 45 51 48 52 62 53 81 54 46 55 47 56
REMARK SMILES IDX 61 58 82 59 49 60 33 61 34 62 42 63 35 64 37 65 43 66 36 67
REMARK SMILES IDX 38 68 39 69 40 70 41 71 65 72 66 73 74 74 67 75 69 76 75 77
REMARK SMILES IDX 68 78 70 79 71 80 72 81 73 82 50 83 51 84 59 85 52 86 54 87
REMARK SMILES IDX 60 88 53 89 55 90 56 91 57 92 58 93
REMARK H PARENT 14 8 21 27 80 46 48 57
REMARK Flexibility Score: inf
ROOT
ATOM      1  C   UNL A   1      31.137  30.839  25.634  1.00  0.00     0.002 C 
ENDROOT
BRANCH   1   2
ATOM      2  C   UNL A   1      31.825  29.638  26.296  1.00  0.00     0.002 C 
BRANCH   2   3
ATOM      3  C   UNL A   1      33.342  29.546  26.062  1.00  0.00     0.021 C 
BRANCH   3   4
ATOM      4  C   UNL A   1      33.867  28.112  26.047  1.00  0.00     0.116 C 
BRANCH   4   5
ATOM      5  N   UNL A   1      32.850  27.193  26.514  1.00  0.00    -0.352 N 
ATOM      6  C   UNL A   1      32.258  26.038  26.083  1.00  0.00     0.253 C 
ATOM      7  O   UNL A   1      31.404  25.620  26.867  1.00  0.00    -0.269 OA
ATOM      8  H   UNL A   1      32.483  27.479  27.382  1.00  0.00     0.163 HD
BRANCH   6   9
ATOM      9  C   UNL A   1      32.578  25.280  24.825  1.00  0.00     0.066 A 
ATOM     10  C   UNL A   1      31.866  25.541  23.632  1.00  0.00     0.084 A 
ATOM     11  N   UNL A   1      32.037  24.815  22.482  1.00  0.00    -0.255 NA
ATOM     12  C   UNL A   1      32.915  23.798  22.495  1.00  0.00     0.112 A 
ATOM     13  C   UNL A   1      33.545  24.272  24.742  1.00  0.00     0.018 A 
ATOM     14  C   UNL A   1      33.699  23.504  23.586  1.00  0.00     0.021 A 
BRANCH  10  15
ATOM     15  C   UNL A   1      30.915  26.649  23.434  1.00  0.00     0.020 A 
ATOM     16  C   UNL A   1      27.995  29.771  22.718  1.00  0.00     0.044 C 
ATOM     17  C   UNL A   1      28.999  28.695  23.000  1.00  0.00    -0.050 A 
ATOM     18  C   UNL A   1      28.603  27.455  23.501  1.00  0.00     0.004 A 
ATOM     19  C   UNL A   1      30.359  28.924  22.751  1.00  0.00     0.024 A 
ATOM     20  C   UNL A   1      29.550  26.452  23.729  1.00  0.00     0.012 A 
ATOM     21  C   UNL A   1      31.306  27.912  22.959  1.00  0.00     0.050 A 
ATOM     22  Cl  UNL A   1      32.954  28.281  22.571  1.00  0.00    -0.084 Cl
ENDBRANCH  10  15
ENDBRANCH   6   9
ENDBRANCH   4   5
ENDBRANCH   3   4
ENDBRANCH   2   3
ENDBRANCH   1   2
BRANCH   1  23
ATOM     23  C   UNL A   1      31.108  32.115  26.481  1.00  0.00     0.021 C 
BRANCH  23  24
ATOM     24  C   UNL A   1      32.451  32.480  27.103  1.00  0.00     0.116 C 
BRANCH  24  25
ATOM     25  N   UNL A   1      32.497  33.881  27.492  1.00  0.00    -0.352 N 
ATOM     26  C   UNL A   1      33.286  34.491  28.435  1.00  0.00     0.251 C 
ATOM     27  H   UNL A   1      31.875  34.474  27.010  1.00  0.00     0.163 HD
ATOM     28  O   UNL A   1      33.030  35.632  28.803  1.00  0.00    -0.269 OA
BRANCH  26  29
ATOM     29  C   UNL A   1      34.436  33.761  29.007  1.00  0.00     0.039 A 
ATOM     30  C   UNL A   1      35.729  34.204  28.721  1.00  0.00     0.014 A 
ATOM     31  C   UNL A   1      34.238  32.638  29.816  1.00  0.00     0.014 A 
ATOM     32  C   UNL A   1      36.824  33.546  29.284  1.00  0.00     0.010 A 
ATOM     33  C   UNL A   1      35.325  32.034  30.437  1.00  0.00     0.010 A 
ATOM     34  C   UNL A   1      36.630  32.472  30.169  1.00  0.00    -0.014 A 
BRANCH  34  35
ATOM     35  C   UNL A   1      37.780  31.804  30.830  1.00  0.00     0.031 A 
ATOM     36  C   UNL A   1      38.564  30.746  30.103  1.00  0.00     0.074 A 
ATOM     37  C   UNL A   1      38.063  32.089  32.116  1.00  0.00     0.049 A 
ATOM     38  N   UNL A   1      39.567  30.023  30.531  1.00  0.00    -0.248 NA
ATOM     39  C   UNL A   1      38.152  30.437  28.722  1.00  0.00     0.031 C 
ATOM     40  C   UNL A   1      37.320  33.032  32.955  1.00  0.00     0.029 A 
ATOM     41  N   UNL A   1      39.031  31.593  32.952  1.00  0.00    -0.354 N 
ATOM     42  C   UNL A   1      39.878  29.152  29.495  1.00  0.00     0.074 A 
ATOM     43  C   UNL A   1      38.939  29.413  28.427  1.00  0.00     0.031 C 
ATOM     44  C   UNL A   1      37.859  33.047  34.184  1.00  0.00     0.029 A 
ATOM     45  C   UNL A   1      38.964  32.094  34.231  1.00  0.00     0.049 A 
ATOM     46  H   UNL A   1      39.709  30.940  32.663  1.00  0.00     0.167 HD
ATOM     47  C   UNL A   1      40.873  28.236  29.427  1.00  0.00     0.034 A 
ATOM     48  C   UNL A   1      39.701  31.811  35.323  1.00  0.00     0.034 A 
ATOM     49  C   UNL A   1      41.831  28.010  30.476  1.00  0.00     0.049 A 
ATOM     50  C   UNL A   1      40.831  30.824  35.206  1.00  0.00     0.074 A 
ATOM     51  C   UNL A   1      42.938  27.179  30.465  1.00  0.00     0.029 A 
ATOM     52  N   UNL A   1      41.789  28.602  31.728  1.00  0.00    -0.354 N 
ATOM     53  N   UNL A   1      41.218  30.134  34.161  1.00  0.00    -0.248 NA
ATOM     54  C   UNL A   1      41.650  30.605  36.408  1.00  0.00     0.031 C 
ATOM     55  C   UNL A   1      43.545  27.244  31.723  1.00  0.00     0.029 A 
ATOM     56  C   UNL A   1      42.839  28.144  32.505  1.00  0.00     0.049 A 
ATOM     57  H   UNL A   1      41.112  29.254  32.021  1.00  0.00     0.167 HD
ATOM     58  C   UNL A   1      42.343  29.426  34.568  1.00  0.00     0.074 A 
ATOM     59  C   UNL A   1      42.587  29.788  35.949  1.00  0.00     0.031 C 
ATOM     60  C   UNL A   1      43.098  28.546  33.864  1.00  0.00     0.034 A 
BRANCH  47  61
ATOM     61  C   UNL A   1      41.005  27.434  28.157  1.00  0.00     0.023 A 
ATOM     62  C   UNL A   1      41.621  28.009  27.026  1.00  0.00     0.012 A 
ATOM     63  C   UNL A   1      40.570  26.095  28.101  1.00  0.00     0.148 A 
ATOM     64  C   UNL A   1      41.769  27.277  25.849  1.00  0.00     0.002 A 
ATOM     65  C   UNL A   1      40.766  25.357  26.939  1.00  0.00     0.091 A 
ATOM     66  F   UNL A   1      39.968  25.572  29.178  1.00  0.00    -0.205 F 
ATOM     67  C   UNL A   1      41.352  25.949  25.809  1.00  0.00     0.022 A 
BRANCH  65  68
ATOM     68  S   UNL A   1      40.337  23.617  26.815  1.00  0.00     0.127 S 
ATOM     69  O   UNL A   1      40.648  23.139  28.161  1.00  0.00    -0.237 OA
ATOM     70  O   UNL A   1      38.908  23.675  26.504  1.00  0.00    -0.237 OA
ATOM     71  O   UNL A   1      41.169  23.073  25.751  1.00  0.00    -0.744 OA
ENDBRANCH  65  68
ENDBRANCH  47  61
BRANCH  48  72
ATOM     72  C   UNL A   1      39.422  32.512  36.606  1.00  0.00     0.023 A 
ATOM     73  C   UNL A   1      40.121  33.695  36.920  1.00  0.00     0.012 A 
ATOM     74  C   UNL A   1      38.442  32.036  37.499  1.00  0.00     0.148 A 
ATOM     75  C   UNL A   1      39.871  34.372  38.114  1.00  0.00     0.002 A 
ATOM     76  C   UNL A   1      38.157  32.746  38.658  1.00  0.00     0.091 A 
ATOM     77  F   UNL A   1      37.795  30.904  37.185  1.00  0.00    -0.205 F 
ATOM     78  C   UNL A   1      38.883  33.905  38.977  1.00  0.00     0.022 A 
BRANCH  76  79
ATOM     79  S   UNL A   1      36.809  32.296  39.756  1.00  0.00     0.127 S 
ATOM     80  O   UNL A   1      36.918  33.317  40.796  1.00  0.00    -0.237 OA
ATOM     81  O   UNL A   1      35.647  32.430  38.878  1.00  0.00    -0.237 OA
ATOM     82  O   UNL A   1      37.085  30.930  40.180  1.00  0.00    -0.744 OA
ENDBRANCH  76  79
ENDBRANCH  48  72
BRANCH  60  83
ATOM     83  C   UNL A   1      44.287  27.932  34.558  1.00  0.00     0.023 A 
ATOM     84  C   UNL A   1      45.535  28.586  34.528  1.00  0.00     0.012 A 
ATOM     85  C   UNL A   1      44.146  26.743  35.301  1.00  0.00     0.148 A 
ATOM     86  C   UNL A   1      46.632  28.047  35.199  1.00  0.00     0.002 A 
ATOM     87  C   UNL A   1      45.230  26.241  36.009  1.00  0.00     0.091 A 
ATOM     88  F   UNL A   1      42.956  26.127  35.301  1.00  0.00    -0.205 F 
ATOM     89  C   UNL A   1      46.477  26.884  35.949  1.00  0.00     0.022 A 
BRANCH  87  90
ATOM     90  S   UNL A   1      45.099  24.805  37.081  1.00  0.00     0.127 S 
ATOM     91  O   UNL A   1      44.152  25.274  38.092  1.00  0.00    -0.237 OA
ATOM     92  O   UNL A   1      44.569  23.788  36.173  1.00  0.00    -0.237 OA
ATOM     93  O   UNL A   1      46.447  24.539  37.564  1.00  0.00    -0.744 OA
ENDBRANCH  87  90
ENDBRANCH  60  83
ENDBRANCH  34  35
ENDBRANCH  26  29
ENDBRANCH  24  25
ENDBRANCH  23  24
ENDBRANCH   1  23
TORSDOF 17
ENDMDL
MODEL 3
REMARK VINA RESULT:     -11.7      3.754      8.774
REMARK SMILES Cc1ccc(-c2ncccc2C(=O)NCCCCCCNC(=O)c2ccc(-c3c4nc(c(-c5cccc(S(=O)(=O)[O-])c5F)c5ccc([nH]5)c(-c5cccc(S(=O)(=O)[O-])c5F)c5nc(c(-c6cccc(S(=O)(=O)[O-])c6F)c6ccc3[nH]6)C=C5)C=C4)cc2)c(Cl)c1
REMARK SMILES IDX 18 1 17 2 16 3 15 4 14 5 12 6 13 7 11 9 6 10 7 11 8 12 10 13
REMARK SMILES IDX 9 14 5 15 1 16 2 17 3 18 89 19 4 20 87 21 88 22 19 23 20 24
REMARK SMILES IDX 21 25 22 26 23 28 24 29 25 30 86 31 26 32 85 33 27 34 28 35
REMARK SMILES IDX 29 36 79 37 30 38 84 39 78 40 80 41 31 42 83 43 77 44 76 45
REMARK SMILES IDX 32 47 64 48 44 49 63 50 45 51 48 52 62 53 81 54 46 55 47 56
REMARK SMILES IDX 61 58 82 59 49 60 33 61 34 62 42 63 35 64 37 65 43 66 36 67
REMARK SMILES IDX 38 68 39 69 40 70 41 71 65 72 66 73 74 74 67 75 69 76 75 77
REMARK SMILES IDX 68 78 70 79 71 80 72 81 73 82 50 83 51 84 59 85 52 86 54 87
REMARK SMILES IDX 60 88 53 89 55 90 56 91 57 92 58 93
REMARK H PARENT 14 8 21 27 80 46 48 57
REMARK Flexibility Score: inf
ROOT
ATOM      1  C   UNL A   1      31.859  27.026  26.547  1.00  0.00     0.002 C 
ENDROOT
BRANCH   1   2
ATOM      2  C   UNL A   1      32.061  25.507  26.464  1.00  0.00     0.002 C 
BRANCH   2   3
ATOM      3  C   UNL A   1      30.771  24.685  26.306  1.00  0.00     0.021 C 
BRANCH   3   4
ATOM      4  C   UNL A   1      30.905  23.245  26.796  1.00  0.00     0.116 C 
BRANCH   4   5
ATOM      5  N   UNL A   1      32.300  22.897  26.976  1.00  0.00    -0.352 N 
ATOM      6  C   UNL A   1      33.195  22.010  26.446  1.00  0.00     0.253 C 
ATOM      7  O   UNL A   1      34.313  22.101  26.956  1.00  0.00    -0.269 OA
ATOM      8  H   UNL A   1      32.718  23.451  27.673  1.00  0.00     0.163 HD
BRANCH   6   9
ATOM      9  C   UNL A   1      32.938  21.027  25.338  1.00  0.00     0.066 A 
ATOM     10  C   UNL A   1      32.686  21.481  24.023  1.00  0.00     0.084 A 
ATOM     11  N   UNL A   1      32.343  20.644  22.994  1.00  0.00    -0.255 NA
ATOM     12  C   UNL A   1      32.228  19.330  23.251  1.00  0.00     0.112 A 
ATOM     13  C   UNL A   1      32.895  19.639  25.516  1.00  0.00     0.018 A 
ATOM     14  C   UNL A   1      32.511  18.784  24.481  1.00  0.00     0.021 A 
BRANCH  10  15
ATOM     15  C   UNL A   1      32.826  22.874  23.562  1.00  0.00     0.020 A 
ATOM     16  C   UNL A   1      33.117  26.915  22.022  1.00  0.00     0.044 C 
ATOM     17  C   UNL A   1      33.002  25.530  22.584  1.00  0.00    -0.050 A 
ATOM     18  C   UNL A   1      31.758  24.919  22.744  1.00  0.00     0.004 A 
ATOM     19  C   UNL A   1      34.156  24.824  22.949  1.00  0.00     0.024 A 
ATOM     20  C   UNL A   1      31.671  23.615  23.241  1.00  0.00     0.012 A 
ATOM     21  C   UNL A   1      34.071  23.509  23.427  1.00  0.00     0.050 A 
ATOM     22  Cl  UNL A   1      35.561  22.707  23.799  1.00  0.00    -0.084 Cl
ENDBRANCH  10  15
ENDBRANCH   6   9
ENDBRANCH   4   5
ENDBRANCH   3   4
ENDBRANCH   2   3
ENDBRANCH   1   2
BRANCH   1  23
ATOM     23  C   UNL A   1      32.770  27.849  25.631  1.00  0.00     0.021 C 
BRANCH  23  24
ATOM     24  C   UNL A   1      33.983  28.448  26.334  1.00  0.00     0.116 C 
BRANCH  24  25
ATOM     25  N   UNL A   1      33.807  29.869  26.588  1.00  0.00    -0.352 N 
ATOM     26  C   UNL A   1      34.503  30.687  27.441  1.00  0.00     0.251 C 
ATOM     27  H   UNL A   1      33.087  30.303  26.075  1.00  0.00     0.163 HD
ATOM     28  O   UNL A   1      34.072  31.803  27.710  1.00  0.00    -0.269 OA
BRANCH  26  29
ATOM     29  C   UNL A   1      35.769  30.212  28.038  1.00  0.00     0.039 A 
ATOM     30  C   UNL A   1      35.743  29.636  29.311  1.00  0.00     0.014 A 
ATOM     31  C   UNL A   1      36.977  30.342  27.347  1.00  0.00     0.014 A 
ATOM     32  C   UNL A   1      36.925  29.149  29.871  1.00  0.00     0.010 A 
ATOM     33  C   UNL A   1      38.138  29.788  27.875  1.00  0.00     0.010 A 
ATOM     34  C   UNL A   1      38.128  29.197  29.146  1.00  0.00    -0.014 A 
BRANCH  34  35
ATOM     35  C   UNL A   1      39.382  28.623  29.700  1.00  0.00     0.031 A 
ATOM     36  C   UNL A   1      40.035  29.247  30.902  1.00  0.00     0.074 A 
ATOM     37  C   UNL A   1      39.976  27.594  29.065  1.00  0.00     0.049 A 
ATOM     38  N   UNL A   1      41.152  28.915  31.498  1.00  0.00    -0.248 NA
ATOM     39  C   UNL A   1      39.364  30.414  31.500  1.00  0.00     0.031 C 
ATOM     40  C   UNL A   1      39.486  26.960  27.840  1.00  0.00     0.029 A 
ATOM     41  N   UNL A   1      41.137  26.919  29.346  1.00  0.00    -0.354 N 
ATOM     42  C   UNL A   1      41.337  29.850  32.508  1.00  0.00     0.074 A 
ATOM     43  C   UNL A   1      40.235  30.782  32.428  1.00  0.00     0.031 C 
ATOM     44  C   UNL A   1      40.338  25.990  27.475  1.00  0.00     0.029 A 
ATOM     45  C   UNL A   1      41.450  25.952  28.420  1.00  0.00     0.049 A 
ATOM     46  H   UNL A   1      41.694  27.109  30.136  1.00  0.00     0.167 HD
ATOM     47  C   UNL A   1      42.321  29.911  33.437  1.00  0.00     0.034 A 
ATOM     48  C   UNL A   1      42.517  25.134  28.333  1.00  0.00     0.034 A 
ATOM     49  C   UNL A   1      43.392  28.957  33.538  1.00  0.00     0.049 A 
ATOM     50  C   UNL A   1      43.571  25.191  29.405  1.00  0.00     0.074 A 
ATOM     51  C   UNL A   1      44.379  28.872  34.504  1.00  0.00     0.029 A 
ATOM     52  N   UNL A   1      43.628  27.933  32.635  1.00  0.00    -0.354 N 
ATOM     53  N   UNL A   1      43.637  25.973  30.455  1.00  0.00    -0.248 NA
ATOM     54  C   UNL A   1      44.677  24.227  29.303  1.00  0.00     0.031 C 
ATOM     55  C   UNL A   1      45.232  27.816  34.166  1.00  0.00     0.029 A 
ATOM     56  C   UNL A   1      44.754  27.220  33.010  1.00  0.00     0.049 A 
ATOM     57  H   UNL A   1      43.076  27.740  31.843  1.00  0.00     0.167 HD
ATOM     58  C   UNL A   1      44.771  25.576  31.155  1.00  0.00     0.074 A 
ATOM     59  C   UNL A   1      45.347  24.469  30.421  1.00  0.00     0.031 C 
ATOM     60  C   UNL A   1      45.293  26.090  32.296  1.00  0.00     0.034 A 
BRANCH  47  61
ATOM     61  C   UNL A   1      42.264  31.028  34.448  1.00  0.00     0.023 A 
ATOM     62  C   UNL A   1      41.616  30.822  35.684  1.00  0.00     0.012 A 
ATOM     63  C   UNL A   1      42.899  32.260  34.199  1.00  0.00     0.148 A 
ATOM     64  C   UNL A   1      41.569  31.835  36.639  1.00  0.00     0.002 A 
ATOM     65  C   UNL A   1      42.890  33.249  35.176  1.00  0.00     0.091 A 
ATOM     66  F   UNL A   1      43.491  32.446  33.011  1.00  0.00    -0.205 F 
ATOM     67  C   UNL A   1      42.215  33.044  36.390  1.00  0.00     0.022 A 
BRANCH  65  68
ATOM     68  S   UNL A   1      43.761  34.808  34.984  1.00  0.00     0.127 S 
ATOM     69  O   UNL A   1      43.037  35.415  33.869  1.00  0.00    -0.237 OA
ATOM     70  O   UNL A   1      43.531  35.449  36.280  1.00  0.00    -0.237 OA
ATOM     71  O   UNL A   1      45.149  34.463  34.715  1.00  0.00    -0.744 OA
ENDBRANCH  65  68
ENDBRANCH  47  61
BRANCH  48  72
ATOM     72  C   UNL A   1      42.610  24.155  27.214  1.00  0.00     0.023 A 
ATOM     73  C   UNL A   1      43.320  24.498  26.047  1.00  0.00     0.012 A 
ATOM     74  C   UNL A   1      42.031  22.875  27.316  1.00  0.00     0.148 A 
ATOM     75  C   UNL A   1      43.426  23.594  24.989  1.00  0.00     0.002 A 
ATOM     76  C   UNL A   1      42.189  21.960  26.283  1.00  0.00     0.091 A 
ATOM     77  F   UNL A   1      41.352  22.573  28.432  1.00  0.00    -0.205 F 
ATOM     78  C   UNL A   1      42.870  22.323  25.110  1.00  0.00     0.022 A 
BRANCH  76  79
ATOM     79  S   UNL A   1      41.627  20.259  26.410  1.00  0.00     0.127 S 
ATOM     80  O   UNL A   1      42.075  19.896  27.752  1.00  0.00    -0.237 OA
ATOM     81  O   UNL A   1      40.180  20.407  26.260  1.00  0.00    -0.237 OA
ATOM     82  O   UNL A   1      42.273  19.548  25.314  1.00  0.00    -0.744 OA
ENDBRANCH  76  79
ENDBRANCH  48  72
BRANCH  60  83
ATOM     83  C   UNL A   1      46.536  25.444  32.851  1.00  0.00     0.023 A 
ATOM     84  C   UNL A   1      47.807  25.901  32.449  1.00  0.00     0.012 A 
ATOM     85  C   UNL A   1      46.441  24.431  33.826  1.00  0.00     0.148 A 
ATOM     86  C   UNL A   1      48.963  25.336  32.986  1.00  0.00     0.002 A 
ATOM     87  C   UNL A   1      47.597  23.910  34.393  1.00  0.00     0.091 A 
ATOM     88  F   UNL A   1      45.223  23.997  34.180  1.00  0.00    -0.205 F 
ATOM     89  C   UNL A   1      48.859  24.351  33.966  1.00  0.00     0.022 A 
BRANCH  87  90
ATOM     90  S   UNL A   1      47.557  22.711  35.731  1.00  0.00     0.127 S 
ATOM     91  O   UNL A   1      48.982  22.508  35.990  1.00  0.00    -0.237 OA
ATOM     92  O   UNL A   1      46.844  23.441  36.780  1.00  0.00    -0.237 OA
ATOM     93  O   UNL A   1      46.846  21.552  35.211  1.00  0.00    -0.744 OA
ENDBRANCH  87  90
ENDBRANCH  60  83
ENDBRANCH  34  35
ENDBRANCH  26  29
ENDBRANCH  24  25
ENDBRANCH  23  24
ENDBRANCH   1  23
TORSDOF 17
ENDMDL
