MODEL 1
REMARK VINA RESULT:     -12.4      0.000      0.000
REMARK SMILES Cc1cc(C)cc(-c2ccc([C@@H](C)C(=O)NCCCCCCNC(=O)c3ccc(-c4c5nc(c(-c6cccc(S(=O)(=O)[O-])c6F)c6ccc([nH]6)c(-c6cccc(S(=O)(=O)[O-])c6F)c6nc(c(-c7cccc(S(=O)(=O)[O-])c7F)c7ccc4[nH]7)C=C6)C=C5)cc3)cc2F)c1
REMARK SMILES IDX 20 1 19 2 18 3 17 4 16 5 14 6 15 7 12 9 13 10 11 11 8 12
REMARK SMILES IDX 9 13 90 14 10 15 89 16 91 17 7 18 1 19 2 20 3 21 92 22 4 23
REMARK SMILES IDX 5 24 6 25 21 26 22 27 23 28 24 29 25 31 26 32 27 33 88 34
REMARK SMILES IDX 28 35 87 36 29 37 30 38 31 39 81 40 32 41 86 42 80 43 82 44
REMARK SMILES IDX 33 45 85 46 79 47 78 48 34 50 66 51 46 52 65 53 47 54 50 55
REMARK SMILES IDX 64 56 83 57 48 58 49 59 63 61 84 62 51 63 35 64 36 65 44 66
REMARK SMILES IDX 37 67 39 68 45 69 38 70 40 71 41 72 42 73 43 74 67 75 68 76
REMARK SMILES IDX 76 77 69 78 71 79 77 80 70 81 72 82 73 83 74 84 75 85 52 86
REMARK SMILES IDX 53 87 61 88 54 89 56 90 62 91 55 92 57 93 58 94 59 95 60 96
REMARK H PARENT 16 8 23 30 82 49 50 60
REMARK Flexibility Score: inf
ROOT
ATOM      1  C   UNL A   1      31.740  30.504  25.839  1.00  0.00     0.002 C 
ENDROOT
BRANCH   1   2
ATOM      2  C   UNL A   1      32.452  29.446  26.692  1.00  0.00     0.002 C 
BRANCH   2   3
ATOM      3  C   UNL A   1      31.602  28.219  27.041  1.00  0.00     0.021 C 
BRANCH   3   4
ATOM      4  C   UNL A   1      32.170  26.905  26.500  1.00  0.00     0.116 C 
BRANCH   4   5
ATOM      5  N   UNL A   1      31.340  25.776  26.864  1.00  0.00    -0.356 N 
ATOM      6  C   UNL A   1      30.588  24.929  26.112  1.00  0.00     0.227 C 
ATOM      7  O   UNL A   1      29.895  24.110  26.731  1.00  0.00    -0.274 OA
ATOM      8  H   UNL A   1      31.315  25.587  27.831  1.00  0.00     0.163 HD
BRANCH   6   9
ATOM      9  C   UNL A   1      30.575  24.932  24.576  1.00  0.00     0.105 C 
ATOM     10  C   UNL A   1      31.801  24.268  23.946  1.00  0.00     0.023 C 
BRANCH   9  11
ATOM     11  C   UNL A   1      30.153  26.260  23.968  1.00  0.00    -0.033 A 
ATOM     12  C   UNL A   1      29.299  28.802  22.964  1.00  0.00     0.017 A 
ATOM     13  C   UNL A   1      30.647  28.409  22.937  1.00  0.00     0.012 A 
ATOM     14  C   UNL A   1      28.388  27.874  23.483  1.00  0.00     0.131 A 
ATOM     15  C   UNL A   1      31.059  27.153  23.394  1.00  0.00     0.005 A 
ATOM     16  C   UNL A   1      28.802  26.637  23.991  1.00  0.00     0.044 A 
ATOM     17  F   UNL A   1      27.073  28.146  23.504  1.00  0.00    -0.206 F 
BRANCH  12  18
ATOM     18  C   UNL A   1      28.910  30.143  22.475  1.00  0.00    -0.015 A 
ATOM     19  C   UNL A   1      29.139  33.819  23.517  1.00  0.00     0.044 C 
ATOM     20  C   UNL A   1      28.862  32.582  22.713  1.00  0.00    -0.050 A 
ATOM     21  C   UNL A   1      28.299  32.698  21.438  1.00  0.00     0.006 A 
ATOM     22  C   UNL A   1      29.163  31.308  23.220  1.00  0.00     0.012 A 
ATOM     23  C   UNL A   1      28.030  31.560  20.673  1.00  0.00    -0.050 A 
ATOM     24  C   UNL A   1      27.448  31.693  19.296  1.00  0.00     0.044 C 
ATOM     25  C   UNL A   1      28.320  30.299  21.206  1.00  0.00     0.012 A 
ENDBRANCH  12  18
ENDBRANCH   9  11
ENDBRANCH   6   9
ENDBRANCH   4   5
ENDBRANCH   3   4
ENDBRANCH   2   3
ENDBRANCH   1   2
BRANCH   1  26
ATOM     26  C   UNL A   1      31.510  31.855  26.527  1.00  0.00     0.021 C 
BRANCH  26  27
ATOM     27  C   UNL A   1      32.738  32.431  27.225  1.00  0.00     0.116 C 
BRANCH  27  28
ATOM     28  N   UNL A   1      32.555  33.836  27.561  1.00  0.00    -0.352 N 
ATOM     29  C   UNL A   1      33.113  34.569  28.577  1.00  0.00     0.251 C 
ATOM     30  H   UNL A   1      31.941  34.332  26.972  1.00  0.00     0.163 HD
ATOM     31  O   UNL A   1      32.656  35.672  28.859  1.00  0.00    -0.269 OA
BRANCH  29  32
ATOM     32  C   UNL A   1      34.263  34.028  29.333  1.00  0.00     0.039 A 
ATOM     33  C   UNL A   1      34.026  33.201  30.434  1.00  0.00     0.014 A 
ATOM     34  C   UNL A   1      35.573  34.355  28.967  1.00  0.00     0.014 A 
ATOM     35  C   UNL A   1      35.105  32.662  31.138  1.00  0.00     0.010 A 
ATOM     36  C   UNL A   1      36.645  33.761  29.626  1.00  0.00     0.010 A 
ATOM     37  C   UNL A   1      36.423  32.916  30.724  1.00  0.00    -0.014 A 
BRANCH  37  38
ATOM     38  C   UNL A   1      37.582  32.299  31.416  1.00  0.00     0.031 A 
ATOM     39  C   UNL A   1      38.326  31.157  30.778  1.00  0.00     0.074 A 
ATOM     40  C   UNL A   1      37.915  32.714  32.654  1.00  0.00     0.049 A 
ATOM     41  N   UNL A   1      39.322  30.456  31.255  1.00  0.00    -0.248 NA
ATOM     42  C   UNL A   1      37.881  30.730  29.441  1.00  0.00     0.031 C 
ATOM     43  C   UNL A   1      37.226  33.766  33.403  1.00  0.00     0.029 A 
ATOM     44  N   UNL A   1      38.902  32.290  33.509  1.00  0.00    -0.354 N 
ATOM     45  C   UNL A   1      39.604  29.493  30.294  1.00  0.00     0.074 A 
ATOM     46  C   UNL A   1      38.650  29.673  29.222  1.00  0.00     0.031 C 
ATOM     47  C   UNL A   1      37.819  33.916  34.598  1.00  0.00     0.029 A 
ATOM     48  C   UNL A   1      38.907  32.949  34.716  1.00  0.00     0.049 A 
ATOM     49  H   UNL A   1      39.545  31.580  33.280  1.00  0.00     0.167 HD
ATOM     50  C   UNL A   1      40.589  28.564  30.288  1.00  0.00     0.034 A 
ATOM     51  C   UNL A   1      39.697  32.794  35.797  1.00  0.00     0.034 A 
ATOM     52  C   UNL A   1      41.563  28.420  31.337  1.00  0.00     0.049 A 
ATOM     53  C   UNL A   1      40.800  31.772  35.756  1.00  0.00     0.074 A 
ATOM     54  C   UNL A   1      42.643  27.557  31.389  1.00  0.00     0.029 A 
ATOM     55  N   UNL A   1      41.576  29.151  32.514  1.00  0.00    -0.354 N 
ATOM     56  N   UNL A   1      41.132  30.960  34.783  1.00  0.00    -0.248 NA
ATOM     57  C   UNL A   1      41.658  31.667  36.946  1.00  0.00     0.031 C 
ATOM     58  C   UNL A   1      43.297  27.751  32.608  1.00  0.00     0.029 A 
ATOM     59  C   UNL A   1      42.642  28.755  33.303  1.00  0.00     0.049 A 
ATOM     60  H   UNL A   1      40.925  29.848  32.753  1.00  0.00     0.167 HD
ATOM     61  C   UNL A   1      42.255  30.270  35.227  1.00  0.00     0.074 A 
ATOM     62  C   UNL A   1      42.557  30.773  36.552  1.00  0.00     0.031 C 
ATOM     63  C   UNL A   1      42.962  29.300  34.598  1.00  0.00     0.034 A 
BRANCH  50  64
ATOM     64  C   UNL A   1      40.712  27.672  29.080  1.00  0.00     0.023 A 
ATOM     65  C   UNL A   1      39.849  26.566  28.948  1.00  0.00     0.012 A 
ATOM     66  C   UNL A   1      41.611  27.976  28.039  1.00  0.00     0.148 A 
ATOM     67  C   UNL A   1      39.896  25.760  27.811  1.00  0.00     0.002 A 
ATOM     68  C   UNL A   1      41.619  27.195  26.889  1.00  0.00     0.091 A 
ATOM     69  F   UNL A   1      42.437  29.021  28.192  1.00  0.00    -0.205 F 
ATOM     70  C   UNL A   1      40.770  26.082  26.777  1.00  0.00     0.022 A 
BRANCH  68  71
ATOM     71  S   UNL A   1      42.647  27.574  25.463  1.00  0.00     0.127 S 
ATOM     72  O   UNL A   1      42.406  26.412  24.609  1.00  0.00    -0.237 OA
ATOM     73  O   UNL A   1      42.053  28.821  24.980  1.00  0.00    -0.237 OA
ATOM     74  O   UNL A   1      44.006  27.703  25.970  1.00  0.00    -0.744 OA
ENDBRANCH  68  71
ENDBRANCH  50  64
BRANCH  51  75
ATOM     75  C   UNL A   1      39.517  33.693  36.973  1.00  0.00     0.023 A 
ATOM     76  C   UNL A   1      39.910  35.041  36.874  1.00  0.00     0.012 A 
ATOM     77  C   UNL A   1      38.898  33.243  38.156  1.00  0.00     0.148 A 
ATOM     78  C   UNL A   1      39.706  35.922  37.936  1.00  0.00     0.002 A 
ATOM     79  C   UNL A   1      38.645  34.139  39.189  1.00  0.00     0.091 A 
ATOM     80  F   UNL A   1      38.539  31.954  38.233  1.00  0.00    -0.205 F 
ATOM     81  C   UNL A   1      39.062  35.474  39.087  1.00  0.00     0.022 A 
BRANCH  79  82
ATOM     82  S   UNL A   1      37.697  33.690  40.647  1.00  0.00     0.127 S 
ATOM     83  O   UNL A   1      37.539  34.981  41.311  1.00  0.00    -0.237 OA
ATOM     84  O   UNL A   1      36.475  33.145  40.055  1.00  0.00    -0.237 OA
ATOM     85  O   UNL A   1      38.507  32.711  41.361  1.00  0.00    -0.744 OA
ENDBRANCH  79  82
ENDBRANCH  51  75
BRANCH  63  86
ATOM     86  C   UNL A   1      44.157  28.718  35.308  1.00  0.00     0.023 A 
ATOM     87  C   UNL A   1      45.423  29.314  35.146  1.00  0.00     0.012 A 
ATOM     88  C   UNL A   1      44.001  27.662  36.228  1.00  0.00     0.148 A 
ATOM     89  C   UNL A   1      46.519  28.857  35.877  1.00  0.00     0.002 A 
ATOM     90  C   UNL A   1      45.086  27.246  36.990  1.00  0.00     0.091 A 
ATOM     91  F   UNL A   1      42.791  27.099  36.355  1.00  0.00    -0.205 F 
ATOM     92  C   UNL A   1      46.347  27.835  36.809  1.00  0.00     0.022 A 
BRANCH  90  93
ATOM     93  S   UNL A   1      44.939  26.013  38.288  1.00  0.00     0.127 S 
ATOM     94  O   UNL A   1      46.327  25.879  38.729  1.00  0.00    -0.237 OA
ATOM     95  O   UNL A   1      44.057  26.678  39.248  1.00  0.00    -0.237 OA
ATOM     96  O   UNL A   1      44.370  24.830  37.659  1.00  0.00    -0.744 OA
ENDBRANCH  90  93
ENDBRANCH  63  86
ENDBRANCH  37  38
ENDBRANCH  29  32
ENDBRANCH  27  28
ENDBRANCH  26  27
ENDBRANCH   1  26
TORSDOF 18
ENDMDL
MODEL 2
REMARK VINA RESULT:     -12.0      0.512      7.652
REMARK SMILES Cc1cc(C)cc(-c2ccc([C@@H](C)C(=O)NCCCCCCNC(=O)c3ccc(-c4c5nc(c(-c6cccc(S(=O)(=O)[O-])c6F)c6ccc([nH]6)c(-c6cccc(S(=O)(=O)[O-])c6F)c6nc(c(-c7cccc(S(=O)(=O)[O-])c7F)c7ccc4[nH]7)C=C6)C=C5)cc3)cc2F)c1
REMARK SMILES IDX 20 1 19 2 18 3 17 4 16 5 14 6 15 7 12 9 13 10 11 11 8 12
REMARK SMILES IDX 9 13 90 14 10 15 89 16 91 17 7 18 1 19 2 20 3 21 92 22 4 23
REMARK SMILES IDX 5 24 6 25 21 26 22 27 23 28 24 29 25 31 26 32 27 33 88 34
REMARK SMILES IDX 28 35 87 36 29 37 30 38 31 39 81 40 32 41 86 42 80 43 82 44
REMARK SMILES IDX 33 45 85 46 79 47 78 48 34 50 66 51 46 52 65 53 47 54 50 55
REMARK SMILES IDX 64 56 83 57 48 58 49 59 63 61 84 62 51 63 35 64 36 65 44 66
REMARK SMILES IDX 37 67 39 68 45 69 38 70 40 71 41 72 42 73 43 74 67 75 68 76
REMARK SMILES IDX 76 77 69 78 71 79 77 80 70 81 72 82 73 83 74 84 75 85 52 86
REMARK SMILES IDX 53 87 61 88 54 89 56 90 62 91 55 92 57 93 58 94 59 95 60 96
REMARK H PARENT 16 8 23 30 82 49 50 60
REMARK Flexibility Score: inf
ROOT
ATOM      1  C   UNL A   1      31.615  30.555  25.997  1.00  0.00     0.002 C 
ENDROOT
BRANCH   1   2
ATOM      2  C   UNL A   1      32.221  29.537  26.972  1.00  0.00     0.002 C 
BRANCH   2   3
ATOM      3  C   UNL A   1      31.397  28.260  27.168  1.00  0.00     0.021 C 
BRANCH   3   4
ATOM      4  C   UNL A   1      32.083  26.999  26.638  1.00  0.00     0.116 C 
BRANCH   4   5
ATOM      5  N   UNL A   1      31.316  25.808  26.941  1.00  0.00    -0.356 N 
ATOM      6  C   UNL A   1      30.667  24.924  26.138  1.00  0.00     0.227 C 
ATOM      7  O   UNL A   1      30.001  24.048  26.707  1.00  0.00    -0.274 OA
ATOM      8  H   UNL A   1      31.252  25.602  27.903  1.00  0.00     0.163 HD
BRANCH   6   9
ATOM      9  C   UNL A   1      30.737  24.951  24.604  1.00  0.00     0.105 C 
ATOM     10  C   UNL A   1      32.025  24.356  24.032  1.00  0.00     0.023 C 
BRANCH   9  11
ATOM     11  C   UNL A   1      30.287  26.269  23.992  1.00  0.00    -0.033 A 
ATOM     12  C   UNL A   1      29.377  28.789  22.981  1.00  0.00     0.017 A 
ATOM     13  C   UNL A   1      30.734  28.428  22.962  1.00  0.00     0.012 A 
ATOM     14  C   UNL A   1      28.485  27.840  23.497  1.00  0.00     0.131 A 
ATOM     15  C   UNL A   1      31.174  27.182  23.422  1.00  0.00     0.005 A 
ATOM     16  C   UNL A   1      28.926  26.613  24.008  1.00  0.00     0.044 A 
ATOM     17  F   UNL A   1      27.165  28.080  23.512  1.00  0.00    -0.206 F 
BRANCH  12  18
ATOM     18  C   UNL A   1      28.958  30.120  22.490  1.00  0.00    -0.015 A 
ATOM     19  C   UNL A   1      29.095  33.801  23.529  1.00  0.00     0.044 C 
ATOM     20  C   UNL A   1      28.851  32.557  22.725  1.00  0.00    -0.050 A 
ATOM     21  C   UNL A   1      28.291  32.658  21.447  1.00  0.00     0.006 A 
ATOM     22  C   UNL A   1      29.180  31.291  23.234  1.00  0.00     0.012 A 
ATOM     23  C   UNL A   1      28.053  31.514  20.682  1.00  0.00    -0.050 A 
ATOM     24  C   UNL A   1      27.475  31.632  19.302  1.00  0.00     0.044 C 
ATOM     25  C   UNL A   1      28.371  30.260  21.218  1.00  0.00     0.012 A 
ENDBRANCH  12  18
ENDBRANCH   9  11
ENDBRANCH   6   9
ENDBRANCH   4   5
ENDBRANCH   3   4
ENDBRANCH   2   3
ENDBRANCH   1   2
BRANCH   1  26
ATOM     26  C   UNL A   1      31.489  31.985  26.536  1.00  0.00     0.021 C 
BRANCH  26  27
ATOM     27  C   UNL A   1      32.735  32.510  27.244  1.00  0.00     0.116 C 
BRANCH  27  28
ATOM     28  N   UNL A   1      32.582  33.904  27.635  1.00  0.00    -0.352 N 
ATOM     29  C   UNL A   1      33.179  34.593  28.660  1.00  0.00     0.251 C 
ATOM     30  H   UNL A   1      31.958  34.430  27.083  1.00  0.00     0.163 HD
ATOM     31  O   UNL A   1      32.747  35.691  28.994  1.00  0.00    -0.269 OA
BRANCH  29  32
ATOM     32  C   UNL A   1      34.344  34.010  29.360  1.00  0.00     0.039 A 
ATOM     33  C   UNL A   1      34.129  33.182  30.465  1.00  0.00     0.014 A 
ATOM     34  C   UNL A   1      35.646  34.298  28.940  1.00  0.00     0.014 A 
ATOM     35  C   UNL A   1      35.219  32.604  31.119  1.00  0.00     0.010 A 
ATOM     36  C   UNL A   1      36.726  33.666  29.548  1.00  0.00     0.010 A 
ATOM     37  C   UNL A   1      36.526  32.820  30.648  1.00  0.00    -0.014 A 
BRANCH  37  38
ATOM     38  C   UNL A   1      37.693  32.160  31.285  1.00  0.00     0.031 A 
ATOM     39  C   UNL A   1      38.252  32.689  32.577  1.00  0.00     0.074 A 
ATOM     40  C   UNL A   1      38.298  31.132  30.658  1.00  0.00     0.049 A 
ATOM     41  N   UNL A   1      39.299  32.282  33.249  1.00  0.00    -0.248 NA
ATOM     42  C   UNL A   1      37.563  33.840  33.185  1.00  0.00     0.031 C 
ATOM     43  C   UNL A   1      37.889  30.574  29.368  1.00  0.00     0.029 A 
ATOM     44  N   UNL A   1      39.397  30.387  31.008  1.00  0.00    -0.354 N 
ATOM     45  C   UNL A   1      39.409  33.138  34.338  1.00  0.00     0.074 A 
ATOM     46  C   UNL A   1      38.347  34.113  34.218  1.00  0.00     0.031 C 
ATOM     47  C   UNL A   1      38.716  29.567  29.043  1.00  0.00     0.029 A 
ATOM     48  C   UNL A   1      39.732  29.428  30.082  1.00  0.00     0.049 A 
ATOM     49  H   UNL A   1      39.898  30.526  31.845  1.00  0.00     0.167 HD
ATOM     50  C   UNL A   1      40.293  33.097  35.362  1.00  0.00     0.034 A 
ATOM     51  C   UNL A   1      40.745  28.539  30.066  1.00  0.00     0.034 A 
ATOM     52  C   UNL A   1      41.319  32.098  35.499  1.00  0.00     0.049 A 
ATOM     53  C   UNL A   1      41.699  28.496  31.228  1.00  0.00     0.074 A 
ATOM     54  C   UNL A   1      42.216  31.929  36.537  1.00  0.00     0.029 A 
ATOM     55  N   UNL A   1      41.585  31.102  34.571  1.00  0.00    -0.354 N 
ATOM     56  N   UNL A   1      41.706  29.231  32.313  1.00  0.00    -0.248 NA
ATOM     57  C   UNL A   1      42.764  27.483  31.182  1.00  0.00     0.031 C 
ATOM     58  C   UNL A   1      43.041  30.844  36.228  1.00  0.00     0.029 A 
ATOM     59  C   UNL A   1      42.638  30.319  35.011  1.00  0.00     0.049 A 
ATOM     60  H   UNL A   1      41.098  30.972  33.727  1.00  0.00     0.167 HD
ATOM     61  C   UNL A   1      42.751  28.751  33.094  1.00  0.00     0.074 A 
ATOM     62  C   UNL A   1      43.345  27.649  32.364  1.00  0.00     0.031 C 
ATOM     63  C   UNL A   1      43.186  29.192  34.299  1.00  0.00     0.034 A 
BRANCH  50  64
ATOM     64  C   UNL A   1      40.152  34.121  36.459  1.00  0.00     0.023 A 
ATOM     65  C   UNL A   1      40.462  35.469  36.189  1.00  0.00     0.012 A 
ATOM     66  C   UNL A   1      39.629  33.770  37.719  1.00  0.00     0.148 A 
ATOM     67  C   UNL A   1      40.281  36.449  37.164  1.00  0.00     0.002 A 
ATOM     68  C   UNL A   1      39.407  34.760  38.670  1.00  0.00     0.091 A 
ATOM     69  F   UNL A   1      39.358  32.480  37.963  1.00  0.00    -0.205 F 
ATOM     70  C   UNL A   1      39.741  36.096  38.398  1.00  0.00     0.022 A 
BRANCH  68  71
ATOM     71  S   UNL A   1      38.638  34.426  40.260  1.00  0.00     0.127 S 
ATOM     72  O   UNL A   1      39.743  33.819  41.000  1.00  0.00    -0.237 OA
ATOM     73  O   UNL A   1      38.267  35.768  40.709  1.00  0.00    -0.237 OA
ATOM     74  O   UNL A   1      37.513  33.542  39.985  1.00  0.00    -0.744 OA
ENDBRANCH  68  71
ENDBRANCH  50  64
BRANCH  51  75
ATOM     75  C   UNL A   1      40.846  27.561  28.945  1.00  0.00     0.023 A 
ATOM     76  C   UNL A   1      39.937  26.489  28.884  1.00  0.00     0.012 A 
ATOM     77  C   UNL A   1      41.785  27.726  27.907  1.00  0.00     0.148 A 
ATOM     78  C   UNL A   1      39.969  25.587  27.819  1.00  0.00     0.002 A 
ATOM     79  C   UNL A   1      41.775  26.859  26.821  1.00  0.00     0.091 A 
ATOM     80  F   UNL A   1      42.648  28.749  27.989  1.00  0.00    -0.205 F 
ATOM     81  C   UNL A   1      40.879  25.780  26.782  1.00  0.00     0.022 A 
BRANCH  79  82
ATOM     82  S   UNL A   1      42.810  27.110  25.373  1.00  0.00     0.127 S 
ATOM     83  O   UNL A   1      42.573  25.883  24.619  1.00  0.00    -0.237 OA
ATOM     84  O   UNL A   1      42.223  28.317  24.791  1.00  0.00    -0.237 OA
ATOM     85  O   UNL A   1      44.165  27.285  25.881  1.00  0.00    -0.744 OA
ENDBRANCH  79  82
ENDBRANCH  51  75
BRANCH  63  86
ATOM     86  C   UNL A   1      44.349  28.479  34.940  1.00  0.00     0.023 A 
ATOM     87  C   UNL A   1      45.665  28.819  34.571  1.00  0.00     0.012 A 
ATOM     88  C   UNL A   1      44.138  27.567  35.993  1.00  0.00     0.148 A 
ATOM     89  C   UNL A   1      46.754  28.249  35.228  1.00  0.00     0.002 A 
ATOM     90  C   UNL A   1      45.228  27.042  36.678  1.00  0.00     0.091 A 
ATOM     91  F   UNL A   1      42.877  27.245  36.318  1.00  0.00    -0.205 F 
ATOM     92  C   UNL A   1      46.536  27.374  36.291  1.00  0.00     0.022 A 
BRANCH  90  93
ATOM     93  S   UNL A   1      45.046  25.992  38.125  1.00  0.00     0.127 S 
ATOM     94  O   UNL A   1      43.726  26.388  38.614  1.00  0.00    -0.237 OA
ATOM     95  O   UNL A   1      45.104  24.651  37.543  1.00  0.00    -0.237 OA
ATOM     96  O   UNL A   1      46.159  26.321  39.004  1.00  0.00    -0.744 OA
ENDBRANCH  90  93
ENDBRANCH  63  86
ENDBRANCH  37  38
ENDBRANCH  29  32
ENDBRANCH  27  28
ENDBRANCH  26  27
ENDBRANCH   1  26
TORSDOF 18
ENDMDL
MODEL 3
REMARK VINA RESULT:     -11.7      3.200      9.331
REMARK SMILES Cc1cc(C)cc(-c2ccc([C@@H](C)C(=O)NCCCCCCNC(=O)c3ccc(-c4c5nc(c(-c6cccc(S(=O)(=O)[O-])c6F)c6ccc([nH]6)c(-c6cccc(S(=O)(=O)[O-])c6F)c6nc(c(-c7cccc(S(=O)(=O)[O-])c7F)c7ccc4[nH]7)C=C6)C=C5)cc3)cc2F)c1
REMARK SMILES IDX 20 1 19 2 18 3 17 4 16 5 14 6 15 7 12 9 13 10 11 11 8 12
REMARK SMILES IDX 9 13 90 14 10 15 89 16 91 17 7 18 1 19 2 20 3 21 92 22 4 23
REMARK SMILES IDX 5 24 6 25 21 26 22 27 23 28 24 29 25 31 26 32 27 33 88 34
REMARK SMILES IDX 28 35 87 36 29 37 30 38 31 39 81 40 32 41 86 42 80 43 82 44
REMARK SMILES IDX 33 45 85 46 79 47 78 48 34 50 66 51 46 52 65 53 47 54 50 55
REMARK SMILES IDX 64 56 83 57 48 58 49 59 63 61 84 62 51 63 35 64 36 65 44 66
REMARK SMILES IDX 37 67 39 68 45 69 38 70 40 71 41 72 42 73 43 74 67 75 68 76
REMARK SMILES IDX 76 77 69 78 71 79 77 80 70 81 72 82 73 83 74 84 75 85 52 86
REMARK SMILES IDX 53 87 61 88 54 89 56 90 62 91 55 92 57 93 58 94 59 95 60 96
REMARK H PARENT 16 8 23 30 82 49 50 60
REMARK Flexibility Score: inf
ROOT
ATOM      1  C   UNL A   1      33.913  27.964  23.837  1.00  0.00     0.002 C 
ENDROOT
BRANCH   1   2
ATOM      2  C   UNL A   1      33.434  26.537  23.538  1.00  0.00     0.002 C 
BRANCH   2   3
ATOM      3  C   UNL A   1      33.391  26.167  22.051  1.00  0.00     0.021 C 
BRANCH   3   4
ATOM      4  C   UNL A   1      32.087  25.491  21.624  1.00  0.00     0.116 C 
BRANCH   4   5
ATOM      5  N   UNL A   1      31.427  24.852  22.743  1.00  0.00    -0.356 N 
ATOM      6  C   UNL A   1      31.515  23.591  23.243  1.00  0.00     0.227 C 
ATOM      7  O   UNL A   1      30.735  23.306  24.162  1.00  0.00    -0.274 OA
ATOM      8  H   UNL A   1      30.800  25.436  23.229  1.00  0.00     0.163 HD
BRANCH   6   9
ATOM      9  C   UNL A   1      32.523  22.543  22.747  1.00  0.00     0.105 C 
ATOM     10  C   UNL A   1      31.910  21.162  22.502  1.00  0.00     0.023 C 
BRANCH   9  11
ATOM     11  C   UNL A   1      33.844  22.558  23.498  1.00  0.00    -0.033 A 
ATOM     12  C   UNL A   1      36.343  22.743  24.885  1.00  0.00     0.017 A 
ATOM     13  C   UNL A   1      35.176  22.286  25.518  1.00  0.00     0.012 A 
ATOM     14  C   UNL A   1      36.229  23.079  23.530  1.00  0.00     0.131 A 
ATOM     15  C   UNL A   1      33.964  22.161  24.831  1.00  0.00     0.005 A 
ATOM     16  C   UNL A   1      35.006  23.007  22.852  1.00  0.00     0.044 A 
ATOM     17  F   UNL A   1      37.303  23.481  22.833  1.00  0.00    -0.206 F 
BRANCH  12  18
ATOM     18  C   UNL A   1      37.602  22.864  25.653  1.00  0.00    -0.015 A 
ATOM     19  C   UNL A   1      39.366  25.306  28.014  1.00  0.00     0.044 C 
ATOM     20  C   UNL A   1      39.060  24.081  27.203  1.00  0.00    -0.050 A 
ATOM     21  C   UNL A   1      39.939  22.993  27.234  1.00  0.00     0.006 A 
ATOM     22  C   UNL A   1      37.900  24.007  26.415  1.00  0.00     0.012 A 
ATOM     23  C   UNL A   1      39.675  21.844  26.485  1.00  0.00    -0.050 A 
ATOM     24  C   UNL A   1      40.609  20.671  26.542  1.00  0.00     0.044 C 
ATOM     25  C   UNL A   1      38.523  21.800  25.691  1.00  0.00     0.012 A 
ENDBRANCH  12  18
ENDBRANCH   9  11
ENDBRANCH   6   9
ENDBRANCH   4   5
ENDBRANCH   3   4
ENDBRANCH   2   3
ENDBRANCH   1   2
BRANCH   1  26
ATOM     26  C   UNL A   1      32.932  28.832  24.634  1.00  0.00     0.021 C 
BRANCH  26  27
ATOM     27  C   UNL A   1      33.409  29.208  26.033  1.00  0.00     0.116 C 
BRANCH  27  28
ATOM     28  N   UNL A   1      33.027  30.570  26.382  1.00  0.00    -0.352 N 
ATOM     29  C   UNL A   1      33.573  31.418  27.312  1.00  0.00     0.251 C 
ATOM     30  H   UNL A   1      32.265  30.935  25.875  1.00  0.00     0.163 HD
ATOM     31  O   UNL A   1      32.970  32.433  27.644  1.00  0.00    -0.269 OA
BRANCH  29  32
ATOM     32  C   UNL A   1      34.887  31.105  27.914  1.00  0.00     0.039 A 
ATOM     33  C   UNL A   1      35.862  32.105  27.976  1.00  0.00     0.014 A 
ATOM     34  C   UNL A   1      35.164  29.822  28.394  1.00  0.00     0.014 A 
ATOM     35  C   UNL A   1      37.097  31.830  28.566  1.00  0.00     0.010 A 
ATOM     36  C   UNL A   1      36.368  29.570  29.044  1.00  0.00     0.010 A 
ATOM     37  C   UNL A   1      37.351  30.567  29.128  1.00  0.00    -0.014 A 
BRANCH  37  38
ATOM     38  C   UNL A   1      38.631  30.275  29.821  1.00  0.00     0.031 A 
ATOM     39  C   UNL A   1      38.890  30.819  31.199  1.00  0.00     0.074 A 
ATOM     40  C   UNL A   1      39.592  29.583  29.176  1.00  0.00     0.049 A 
ATOM     41  N   UNL A   1      39.967  30.719  31.935  1.00  0.00    -0.248 NA
ATOM     42  C   UNL A   1      37.809  31.600  31.826  1.00  0.00     0.031 C 
ATOM     43  C   UNL A   1      39.483  29.062  27.814  1.00  0.00     0.029 A 
ATOM     44  N   UNL A   1      40.855  29.219  29.572  1.00  0.00    -0.354 N 
ATOM     45  C   UNL A   1      39.705  31.440  33.093  1.00  0.00     0.074 A 
ATOM     46  C   UNL A   1      38.383  32.008  32.948  1.00  0.00     0.031 C 
ATOM     47  C   UNL A   1      40.625  28.432  27.491  1.00  0.00     0.029 A 
ATOM     48  C   UNL A   1      41.558  28.534  28.610  1.00  0.00     0.049 A 
ATOM     49  H   UNL A   1      41.222  29.428  30.462  1.00  0.00     0.167 HD
ATOM     50  C   UNL A   1      40.482  31.589  34.192  1.00  0.00     0.034 A 
ATOM     51  C   UNL A   1      42.813  28.043  28.623  1.00  0.00     0.034 A 
ATOM     52  C   UNL A   1      41.778  30.985  34.348  1.00  0.00     0.049 A 
ATOM     53  C   UNL A   1      43.647  28.200  29.865  1.00  0.00     0.074 A 
ATOM     54  C   UNL A   1      42.610  31.018  35.452  1.00  0.00     0.029 A 
ATOM     55  N   UNL A   1      42.430  30.242  33.376  1.00  0.00    -0.354 N 
ATOM     56  N   UNL A   1      43.332  28.774  30.999  1.00  0.00    -0.248 NA
ATOM     57  C   UNL A   1      44.997  27.615  29.842  1.00  0.00     0.031 C 
ATOM     58  C   UNL A   1      43.776  30.313  35.140  1.00  0.00     0.029 A 
ATOM     59  C   UNL A   1      43.657  29.817  33.852  1.00  0.00     0.049 A 
ATOM     60  H   UNL A   1      42.072  30.047  32.480  1.00  0.00     0.167 HD
ATOM     61  C   UNL A   1      44.426  28.593  31.838  1.00  0.00     0.074 A 
ATOM     62  C   UNL A   1      45.408  27.840  31.084  1.00  0.00     0.031 C 
ATOM     63  C   UNL A   1      44.604  29.023  33.110  1.00  0.00     0.034 A 
BRANCH  50  64
ATOM     64  C   UNL A   1      39.928  32.383  35.347  1.00  0.00     0.023 A 
ATOM     65  C   UNL A   1      40.144  33.775  35.396  1.00  0.00     0.012 A 
ATOM     66  C   UNL A   1      39.121  31.773  36.328  1.00  0.00     0.148 A 
ATOM     67  C   UNL A   1      39.589  34.545  36.418  1.00  0.00     0.002 A 
ATOM     68  C   UNL A   1      38.533  32.555  37.316  1.00  0.00     0.091 A 
ATOM     69  F   UNL A   1      38.943  30.445  36.275  1.00  0.00    -0.205 F 
ATOM     70  C   UNL A   1      38.774  33.937  37.369  1.00  0.00     0.022 A 
BRANCH  68  71
ATOM     71  S   UNL A   1      37.399  31.885  38.539  1.00  0.00     0.127 S 
ATOM     72  O   UNL A   1      38.174  32.028  39.770  1.00  0.00    -0.237 OA
ATOM     73  O   UNL A   1      36.256  32.792  38.427  1.00  0.00    -0.237 OA
ATOM     74  O   UNL A   1      37.130  30.513  38.130  1.00  0.00    -0.744 OA
ENDBRANCH  68  71
ENDBRANCH  50  64
BRANCH  51  75
ATOM     75  C   UNL A   1      43.317  27.283  27.443  1.00  0.00     0.023 A 
ATOM     76  C   UNL A   1      43.980  27.974  26.412  1.00  0.00     0.012 A 
ATOM     77  C   UNL A   1      43.208  25.880  27.369  1.00  0.00     0.148 A 
ATOM     78  C   UNL A   1      44.512  27.287  25.320  1.00  0.00     0.002 A 
ATOM     79  C   UNL A   1      43.788  25.195  26.308  1.00  0.00     0.091 A 
ATOM     80  F   UNL A   1      42.564  25.242  28.357  1.00  0.00    -0.205 F 
ATOM     81  C   UNL A   1      44.427  25.897  25.275  1.00  0.00     0.022 A 
BRANCH  79  82
ATOM     82  S   UNL A   1      43.856  23.401  26.236  1.00  0.00     0.127 S 
ATOM     83  O   UNL A   1      43.313  23.028  27.539  1.00  0.00    -0.237 OA
ATOM     84  O   UNL A   1      42.983  23.113  25.098  1.00  0.00    -0.237 OA
ATOM     85  O   UNL A   1      45.257  23.066  26.018  1.00  0.00    -0.744 OA
ENDBRANCH  79  82
ENDBRANCH  51  75
BRANCH  63  86
ATOM     86  C   UNL A   1      45.898  28.678  33.803  1.00  0.00     0.023 A 
ATOM     87  C   UNL A   1      46.977  29.582  33.754  1.00  0.00     0.012 A 
ATOM     88  C   UNL A   1      45.997  27.522  34.602  1.00  0.00     0.148 A 
ATOM     89  C   UNL A   1      48.143  29.331  34.477  1.00  0.00     0.002 A 
ATOM     90  C   UNL A   1      47.142  27.305  35.360  1.00  0.00     0.091 A 
ATOM     91  F   UNL A   1      44.964  26.668  34.621  1.00  0.00    -0.205 F 
ATOM     92  C   UNL A   1      48.219  28.202  35.291  1.00  0.00     0.022 A 
BRANCH  90  93
ATOM     93  S   UNL A   1      47.290  25.939  36.517  1.00  0.00     0.127 S 
ATOM     94  O   UNL A   1      48.560  26.243  37.174  1.00  0.00    -0.237 OA
ATOM     95  O   UNL A   1      46.108  26.119  37.361  1.00  0.00    -0.237 OA
ATOM     96  O   UNL A   1      47.281  24.725  35.712  1.00  0.00    -0.744 OA
ENDBRANCH  90  93
ENDBRANCH  63  86
ENDBRANCH  37  38
ENDBRANCH  29  32
ENDBRANCH  27  28
ENDBRANCH  26  27
ENDBRANCH   1  26
TORSDOF 18
ENDMDL
