MODEL 1
REMARK VINA RESULT:     -10.8      0.000      0.000
REMARK SMILES CC(=O)Nc1nc(C[N@@H+]2CCO[C@@H](CC(=O)NCCCCCCNC(=O)c3ccc(-c4c5nc(c(-c6cccc(S(=O)(=O)[O-])c6F)c6ccc([nH]6)c(-c6cccc(S(=O)(=O)[O-])c6F)c6nc(c(-c7cccc(S(=O)(=O)[O-])c7F)c7ccc4[nH]7)C=C6)C=C5)cc3)C2)cs1
REMARK SMILES IDX 20 1 19 2 18 3 17 4 15 5 16 6 14 8 13 9 9 10 10 11 90 12
REMARK SMILES IDX 11 14 12 15 8 16 7 17 5 18 6 19 92 20 91 21 4 22 1 23 2 24
REMARK SMILES IDX 3 25 21 27 22 28 23 29 24 30 25 31 26 33 27 34 28 35 89 36
REMARK SMILES IDX 29 37 88 38 30 39 31 40 32 41 82 42 33 43 87 44 81 45 83 46
REMARK SMILES IDX 34 47 86 48 80 49 79 50 35 52 67 53 47 54 66 55 48 56 51 57
REMARK SMILES IDX 65 58 84 59 49 60 50 61 64 63 85 64 52 65 36 66 37 67 45 68
REMARK SMILES IDX 38 69 40 70 46 71 39 72 41 73 42 74 43 75 44 76 68 77 69 78
REMARK SMILES IDX 77 79 70 80 72 81 78 82 71 83 73 84 74 85 75 86 76 87 53 88
REMARK SMILES IDX 54 89 62 90 55 91 57 92 63 93 56 94 58 95 59 96 60 97 61 98
REMARK H PARENT 17 7 9 13 4 26 24 32 83 51 51 62
REMARK Flexibility Score: inf
ROOT
ATOM      1  C   UNL A   1      41.029  22.778  26.974  1.00  0.00     0.002 C 
ENDROOT
BRANCH   1   2
ATOM      2  C   UNL A   1      39.798  23.591  27.368  1.00  0.00     0.021 C 
BRANCH   2   3
ATOM      3  C   UNL A   1      38.593  23.408  26.441  1.00  0.00     0.116 C 
BRANCH   3   4
ATOM      4  N   UNL A   1      38.486  22.027  25.993  1.00  0.00    -0.356 N 
ATOM      5  C   UNL A   1      37.705  21.477  25.018  1.00  0.00     0.222 C 
ATOM      6  O   UNL A   1      37.713  20.252  24.876  1.00  0.00    -0.275 OA
ATOM      7  H   UNL A   1      39.067  21.390  26.468  1.00  0.00     0.163 HD
BRANCH   5   8
ATOM      8  C   UNL A   1      36.848  22.356  24.137  1.00  0.00     0.138 C 
BRANCH   8   9
ATOM      9  C   UNL A   1      35.423  22.544  24.662  1.00  0.00     0.182 C 
ATOM     10  N   UNL A   1      33.571  21.353  25.971  1.00  0.00    -0.326 N 
ATOM     11  C   UNL A   1      33.580  22.510  26.864  1.00  0.00     0.291 C 
ATOM     12  C   UNL A   1      34.819  21.236  25.213  1.00  0.00     0.295 C 
ATOM     13  H   UNL A   1      33.548  20.558  26.608  1.00  0.00     0.348 HD
ATOM     14  C   UNL A   1      34.218  23.783  26.285  1.00  0.00     0.222 C 
ATOM     15  O   UNL A   1      35.503  23.532  25.710  1.00  0.00    -0.366 OA
BRANCH  10  16
ATOM     16  C   UNL A   1      32.341  21.054  25.239  1.00  0.00     0.320 C 
BRANCH  16  17
ATOM     17  C   UNL A   1      32.335  19.701  24.596  1.00  0.00     0.108 A 
ATOM     18  C   UNL A   1      32.417  17.500  24.657  1.00  0.00     0.189 A 
ATOM     19  N   UNL A   1      32.253  18.565  25.397  1.00  0.00    -0.219 NA
ATOM     20  S   UNL A   1      32.640  17.758  22.987  1.00  0.00    -0.105 S 
ATOM     21  C   UNL A   1      32.389  19.434  23.239  1.00  0.00     0.098 A 
BRANCH  18  22
ATOM     22  N   UNL A   1      32.438  16.190  25.027  1.00  0.00    -0.302 N 
ATOM     23  C   UNL A   1      34.902  16.108  25.309  1.00  0.00     0.114 C 
ATOM     24  C   UNL A   1      33.555  15.438  25.226  1.00  0.00     0.223 C 
ATOM     25  O   UNL A   1      33.437  14.227  25.426  1.00  0.00    -0.275 OA
ATOM     26  H   UNL A   1      31.570  15.748  25.164  1.00  0.00     0.172 HD
ENDBRANCH  18  22
ENDBRANCH  16  17
ENDBRANCH  10  16
ENDBRANCH   8   9
ENDBRANCH   5   8
ENDBRANCH   3   4
ENDBRANCH   2   3
ENDBRANCH   1   2
BRANCH   1  27
ATOM     27  C   UNL A   1      41.490  21.763  28.023  1.00  0.00     0.002 C 
BRANCH  27  28
ATOM     28  C   UNL A   1      41.729  20.339  27.509  1.00  0.00     0.021 C 
BRANCH  28  29
ATOM     29  C   UNL A   1      41.483  20.132  26.014  1.00  0.00     0.116 C 
BRANCH  29  30
ATOM     30  N   UNL A   1      42.637  19.549  25.350  1.00  0.00    -0.352 N 
ATOM     31  C   UNL A   1      43.793  20.143  24.911  1.00  0.00     0.251 C 
ATOM     32  H   UNL A   1      42.580  18.580  25.190  1.00  0.00     0.163 HD
ATOM     33  O   UNL A   1      44.548  19.522  24.167  1.00  0.00    -0.269 OA
BRANCH  31  34
ATOM     34  C   UNL A   1      44.133  21.523  25.321  1.00  0.00     0.039 A 
ATOM     35  C   UNL A   1      43.787  22.580  24.476  1.00  0.00     0.014 A 
ATOM     36  C   UNL A   1      44.832  21.777  26.506  1.00  0.00     0.014 A 
ATOM     37  C   UNL A   1      44.096  23.893  24.841  1.00  0.00     0.010 A 
ATOM     38  C   UNL A   1      45.085  23.091  26.898  1.00  0.00     0.010 A 
ATOM     39  C   UNL A   1      44.727  24.162  26.067  1.00  0.00    -0.014 A 
BRANCH  39  40
ATOM     40  C   UNL A   1      44.984  25.562  26.498  1.00  0.00     0.031 A 
ATOM     41  C   UNL A   1      46.368  26.151  26.426  1.00  0.00     0.074 A 
ATOM     42  C   UNL A   1      43.976  26.283  27.030  1.00  0.00     0.049 A 
ATOM     43  N   UNL A   1      46.769  27.349  26.762  1.00  0.00    -0.248 NA
ATOM     44  C   UNL A   1      47.447  25.275  25.939  1.00  0.00     0.031 C 
ATOM     45  C   UNL A   1      42.612  25.794  27.248  1.00  0.00     0.029 A 
ATOM     46  N   UNL A   1      43.946  27.569  27.508  1.00  0.00    -0.354 N 
ATOM     47  C   UNL A   1      48.146  27.363  26.565  1.00  0.00     0.074 A 
ATOM     48  C   UNL A   1      48.517  26.045  26.098  1.00  0.00     0.031 C 
ATOM     49  C   UNL A   1      41.883  26.765  27.821  1.00  0.00     0.029 A 
ATOM     50  C   UNL A   1      42.726  27.937  28.029  1.00  0.00     0.049 A 
ATOM     51  H   UNL A   1      44.724  28.172  27.483  1.00  0.00     0.167 HD
ATOM     52  C   UNL A   1      49.016  28.386  26.733  1.00  0.00     0.034 A 
ATOM     53  C   UNL A   1      42.331  29.087  28.609  1.00  0.00     0.034 A 
ATOM     54  C   UNL A   1      48.635  29.713  27.139  1.00  0.00     0.049 A 
ATOM     55  C   UNL A   1      43.304  30.231  28.704  1.00  0.00     0.074 A 
ATOM     56  C   UNL A   1      49.425  30.848  27.211  1.00  0.00     0.029 A 
ATOM     57  N   UNL A   1      47.366  30.083  27.550  1.00  0.00    -0.354 N 
ATOM     58  N   UNL A   1      44.554  30.285  28.314  1.00  0.00    -0.248 NA
ATOM     59  C   UNL A   1      42.801  31.488  29.279  1.00  0.00     0.031 C 
ATOM     60  C   UNL A   1      48.637  31.900  27.690  1.00  0.00     0.029 A 
ATOM     61  C   UNL A   1      47.353  31.424  27.895  1.00  0.00     0.049 A 
ATOM     62  H   UNL A   1      46.588  29.481  27.592  1.00  0.00     0.167 HD
ATOM     63  C   UNL A   1      44.977  31.584  28.568  1.00  0.00     0.074 A 
ATOM     64  C   UNL A   1      43.840  32.294  29.116  1.00  0.00     0.031 C 
ATOM     65  C   UNL A   1      46.202  32.134  28.388  1.00  0.00     0.034 A 
BRANCH  52  66
ATOM     66  C   UNL A   1      50.470  28.145  26.420  1.00  0.00     0.023 A 
ATOM     67  C   UNL A   1      51.383  27.950  27.475  1.00  0.00     0.012 A 
ATOM     68  C   UNL A   1      50.907  28.001  25.088  1.00  0.00     0.148 A 
ATOM     69  C   UNL A   1      52.714  27.631  27.209  1.00  0.00     0.002 A 
ATOM     70  C   UNL A   1      52.226  27.644  24.833  1.00  0.00     0.091 A 
ATOM     71  F   UNL A   1      50.025  28.208  24.100  1.00  0.00    -0.205 F 
ATOM     72  C   UNL A   1      53.133  27.466  25.892  1.00  0.00     0.022 A 
BRANCH  70  73
ATOM     73  S   UNL A   1      52.847  27.330  23.177  1.00  0.00     0.127 S 
ATOM     74  O   UNL A   1      51.623  26.965  22.466  1.00  0.00    -0.237 OA
ATOM     75  O   UNL A   1      53.404  28.630  22.805  1.00  0.00    -0.237 OA
ATOM     76  O   UNL A   1      53.829  26.261  23.310  1.00  0.00    -0.744 OA
ENDBRANCH  70  73
ENDBRANCH  52  66
BRANCH  53  77
ATOM     77  C   UNL A   1      40.929  29.238  29.093  1.00  0.00     0.023 A 
ATOM     78  C   UNL A   1      39.900  29.510  28.171  1.00  0.00     0.012 A 
ATOM     79  C   UNL A   1      40.609  29.102  30.457  1.00  0.00     0.148 A 
ATOM     80  C   UNL A   1      38.585  29.686  28.603  1.00  0.00     0.002 A 
ATOM     81  C   UNL A   1      39.287  29.220  30.873  1.00  0.00     0.091 A 
ATOM     82  F   UNL A   1      41.602  28.861  31.325  1.00  0.00    -0.205 F 
ATOM     83  C   UNL A   1      38.276  29.532  29.952  1.00  0.00     0.022 A 
BRANCH  81  84
ATOM     84  S   UNL A   1      38.797  28.894  32.570  1.00  0.00     0.127 S 
ATOM     85  O   UNL A   1      37.341  28.912  32.472  1.00  0.00    -0.237 OA
ATOM     86  O   UNL A   1      39.382  27.575  32.813  1.00  0.00    -0.237 OA
ATOM     87  O   UNL A   1      39.401  29.963  33.355  1.00  0.00    -0.744 OA
ENDBRANCH  81  84
ENDBRANCH  53  77
BRANCH  65  88
ATOM     88  C   UNL A   1      46.379  33.583  28.765  1.00  0.00     0.023 A 
ATOM     89  C   UNL A   1      46.885  33.914  30.037  1.00  0.00     0.012 A 
ATOM     90  C   UNL A   1      46.103  34.609  27.842  1.00  0.00     0.148 A 
ATOM     91  C   UNL A   1      47.078  35.247  30.399  1.00  0.00     0.002 A 
ATOM     92  C   UNL A   1      46.344  35.933  28.191  1.00  0.00     0.091 A 
ATOM     93  F   UNL A   1      45.605  34.276  26.642  1.00  0.00    -0.205 F 
ATOM     94  C   UNL A   1      46.820  36.254  29.473  1.00  0.00     0.022 A 
BRANCH  92  95
ATOM     95  S   UNL A   1      46.130  37.285  27.027  1.00  0.00     0.127 S 
ATOM     96  O   UNL A   1      44.675  37.340  26.900  1.00  0.00    -0.237 OA
ATOM     97  O   UNL A   1      46.723  38.413  27.745  1.00  0.00    -0.237 OA
ATOM     98  O   UNL A   1      46.852  36.891  25.824  1.00  0.00    -0.744 OA
ENDBRANCH  92  95
ENDBRANCH  65  88
ENDBRANCH  39  40
ENDBRANCH  31  34
ENDBRANCH  29  30
ENDBRANCH  28  29
ENDBRANCH  27  28
ENDBRANCH   1  27
TORSDOF 20
ENDMDL
MODEL 2
REMARK VINA RESULT:     -10.6      6.138     10.973
REMARK SMILES CC(=O)Nc1nc(C[N@@H+]2CCO[C@@H](CC(=O)NCCCCCCNC(=O)c3ccc(-c4c5nc(c(-c6cccc(S(=O)(=O)[O-])c6F)c6ccc([nH]6)c(-c6cccc(S(=O)(=O)[O-])c6F)c6nc(c(-c7cccc(S(=O)(=O)[O-])c7F)c7ccc4[nH]7)C=C6)C=C5)cc3)C2)cs1
REMARK SMILES IDX 20 1 19 2 18 3 17 4 15 5 16 6 14 8 13 9 9 10 10 11 90 12
REMARK SMILES IDX 11 14 12 15 8 16 7 17 5 18 6 19 92 20 91 21 4 22 1 23 2 24
REMARK SMILES IDX 3 25 21 27 22 28 23 29 24 30 25 31 26 33 27 34 28 35 89 36
REMARK SMILES IDX 29 37 88 38 30 39 31 40 32 41 82 42 33 43 87 44 81 45 83 46
REMARK SMILES IDX 34 47 86 48 80 49 79 50 35 52 67 53 47 54 66 55 48 56 51 57
REMARK SMILES IDX 65 58 84 59 49 60 50 61 64 63 85 64 52 65 36 66 37 67 45 68
REMARK SMILES IDX 38 69 40 70 46 71 39 72 41 73 42 74 43 75 44 76 68 77 69 78
REMARK SMILES IDX 77 79 70 80 72 81 78 82 71 83 73 84 74 85 75 86 76 87 53 88
REMARK SMILES IDX 54 89 62 90 55 91 57 92 63 93 56 94 58 95 59 96 60 97 61 98
REMARK H PARENT 17 7 9 13 4 26 24 32 83 51 51 62
REMARK Flexibility Score: inf
ROOT
ATOM      1  C   UNL A   1      33.619  27.250  25.562  1.00  0.00     0.002 C 
ENDROOT
BRANCH   1   2
ATOM      2  C   UNL A   1      32.510  26.705  26.459  1.00  0.00     0.021 C 
BRANCH   2   3
ATOM      3  C   UNL A   1      31.429  25.910  25.718  1.00  0.00     0.116 C 
BRANCH   3   4
ATOM      4  N   UNL A   1      30.513  25.279  26.657  1.00  0.00    -0.356 N 
ATOM      5  C   UNL A   1      30.020  24.007  26.684  1.00  0.00     0.222 C 
ATOM      6  O   UNL A   1      29.172  23.720  27.531  1.00  0.00    -0.275 OA
ATOM      7  H   UNL A   1      30.199  25.861  27.387  1.00  0.00     0.163 HD
BRANCH   5   8
ATOM      8  C   UNL A   1      30.504  22.978  25.689  1.00  0.00     0.138 C 
BRANCH   8   9
ATOM      9  C   UNL A   1      31.819  22.306  26.094  1.00  0.00     0.182 C 
ATOM     10  N   UNL A   1      34.329  22.296  25.588  1.00  0.00    -0.326 N 
ATOM     11  C   UNL A   1      34.529  22.544  27.014  1.00  0.00     0.291 C 
ATOM     12  C   UNL A   1      32.983  22.669  25.149  1.00  0.00     0.295 C 
ATOM     13  H   UNL A   1      34.968  22.951  25.139  1.00  0.00     0.348 HD
ATOM     14  C   UNL A   1      33.332  22.195  27.915  1.00  0.00     0.222 C 
ATOM     15  O   UNL A   1      32.109  22.758  27.433  1.00  0.00    -0.366 OA
BRANCH  10  16
ATOM     16  C   UNL A   1      34.876  21.066  25.016  1.00  0.00     0.320 C 
BRANCH  16  17
ATOM     17  C   UNL A   1      33.830  20.083  24.586  1.00  0.00     0.108 A 
ATOM     18  C   UNL A   1      32.725  18.186  24.775  1.00  0.00     0.189 A 
ATOM     19  N   UNL A   1      33.544  18.990  25.400  1.00  0.00    -0.219 NA
ATOM     20  S   UNL A   1      32.214  18.673  23.223  1.00  0.00    -0.105 S 
ATOM     21  C   UNL A   1      33.070  20.143  23.431  1.00  0.00     0.098 A 
BRANCH  18  22
ATOM     22  N   UNL A   1      32.209  16.995  25.184  1.00  0.00    -0.302 N 
ATOM     23  C   UNL A   1      34.377  15.792  25.060  1.00  0.00     0.114 C 
ATOM     24  C   UNL A   1      32.879  15.810  25.223  1.00  0.00     0.223 C 
ATOM     25  O   UNL A   1      32.258  14.777  25.484  1.00  0.00    -0.275 OA
ATOM     26  H   UNL A   1      31.270  16.989  25.477  1.00  0.00     0.172 HD
ENDBRANCH  18  22
ENDBRANCH  16  17
ENDBRANCH  10  16
ENDBRANCH   8   9
ENDBRANCH   5   8
ENDBRANCH   3   4
ENDBRANCH   2   3
ENDBRANCH   1   2
BRANCH   1  27
ATOM     27  C   UNL A   1      33.994  28.711  25.823  1.00  0.00     0.002 C 
BRANCH  27  28
ATOM     28  C   UNL A   1      32.831  29.710  25.790  1.00  0.00     0.021 C 
BRANCH  28  29
ATOM     29  C   UNL A   1      32.508  30.384  27.123  1.00  0.00     0.116 C 
BRANCH  29  30
ATOM     30  N   UNL A   1      32.703  31.824  27.066  1.00  0.00    -0.352 N 
ATOM     31  C   UNL A   1      33.672  32.605  27.643  1.00  0.00     0.251 C 
ATOM     32  H   UNL A   1      32.038  32.313  26.530  1.00  0.00     0.163 HD
ATOM     33  O   UNL A   1      33.531  33.825  27.666  1.00  0.00    -0.269 OA
BRANCH  31  34
ATOM     34  C   UNL A   1      34.877  31.991  28.241  1.00  0.00     0.039 A 
ATOM     35  C   UNL A   1      36.075  32.710  28.229  1.00  0.00     0.014 A 
ATOM     36  C   UNL A   1      34.846  30.696  28.768  1.00  0.00     0.014 A 
ATOM     37  C   UNL A   1      37.227  32.152  28.788  1.00  0.00     0.010 A 
ATOM     38  C   UNL A   1      35.981  30.165  29.381  1.00  0.00     0.010 A 
ATOM     39  C   UNL A   1      37.185  30.884  29.392  1.00  0.00    -0.014 A 
BRANCH  39  40
ATOM     40  C   UNL A   1      38.388  30.321  30.061  1.00  0.00     0.031 A 
ATOM     41  C   UNL A   1      38.795  30.782  31.435  1.00  0.00     0.074 A 
ATOM     42  C   UNL A   1      39.162  29.442  29.391  1.00  0.00     0.049 A 
ATOM     43  N   UNL A   1      39.813  30.399  32.161  1.00  0.00    -0.248 NA
ATOM     44  C   UNL A   1      37.969  31.824  32.068  1.00  0.00     0.031 C 
ATOM     45  C   UNL A   1      38.933  28.992  28.016  1.00  0.00     0.029 A 
ATOM     46  N   UNL A   1      40.312  28.792  29.764  1.00  0.00    -0.354 N 
ATOM     47  C   UNL A   1      39.775  31.174  33.314  1.00  0.00     0.074 A 
ATOM     48  C   UNL A   1      38.643  32.066  33.185  1.00  0.00     0.031 C 
ATOM     49  C   UNL A   1      39.912  28.146  27.660  1.00  0.00     0.029 A 
ATOM     50  C   UNL A   1      40.848  28.004  28.771  1.00  0.00     0.049 A 
ATOM     51  H   UNL A   1      40.715  28.881  30.658  1.00  0.00     0.167 HD
ATOM     52  C   UNL A   1      40.593  31.131  34.393  1.00  0.00     0.034 A 
ATOM     53  C   UNL A   1      41.967  27.255  28.754  1.00  0.00     0.034 A 
ATOM     54  C   UNL A   1      41.681  30.201  34.545  1.00  0.00     0.049 A 
ATOM     55  C   UNL A   1      42.808  27.166  30.000  1.00  0.00     0.074 A 
ATOM     56  C   UNL A   1      42.482  29.993  35.655  1.00  0.00     0.029 A 
ATOM     57  N   UNL A   1      42.127  29.336  33.562  1.00  0.00    -0.354 N 
ATOM     58  N   UNL A   1      42.630  27.754  31.158  1.00  0.00    -0.248 NA
ATOM     59  C   UNL A   1      43.978  26.278  29.952  1.00  0.00     0.031 C 
ATOM     60  C   UNL A   1      43.431  29.017  35.333  1.00  0.00     0.029 A 
ATOM     61  C   UNL A   1      43.205  28.603  34.031  1.00  0.00     0.049 A 
ATOM     62  H   UNL A   1      41.737  29.252  32.662  1.00  0.00     0.167 HD
ATOM     63  C   UNL A   1      43.646  27.285  31.983  1.00  0.00     0.074 A 
ATOM     64  C   UNL A   1      44.416  26.340  31.202  1.00  0.00     0.031 C 
ATOM     65  C   UNL A   1      43.931  27.625  33.264  1.00  0.00     0.034 A 
BRANCH  52  66
ATOM     66  C   UNL A   1      40.316  32.071  35.537  1.00  0.00     0.023 A 
ATOM     67  C   UNL A   1      41.057  33.265  35.647  1.00  0.00     0.012 A 
ATOM     68  C   UNL A   1      39.254  31.828  36.430  1.00  0.00     0.148 A 
ATOM     69  C   UNL A   1      40.755  34.196  36.641  1.00  0.00     0.002 A 
ATOM     70  C   UNL A   1      38.935  32.780  37.392  1.00  0.00     0.091 A 
ATOM     71  F   UNL A   1      38.574  30.678  36.317  1.00  0.00    -0.205 F 
ATOM     72  C   UNL A   1      39.688  33.960  37.503  1.00  0.00     0.022 A 
BRANCH  70  73
ATOM     73  S   UNL A   1      37.532  32.610  38.502  1.00  0.00     0.127 S 
ATOM     74  O   UNL A   1      36.426  33.038  37.647  1.00  0.00    -0.237 OA
ATOM     75  O   UNL A   1      37.551  31.179  38.805  1.00  0.00    -0.237 OA
ATOM     76  O   UNL A   1      37.809  33.479  39.638  1.00  0.00    -0.744 OA
ENDBRANCH  70  73
ENDBRANCH  52  66
BRANCH  53  77
ATOM     77  C   UNL A   1      42.330  26.478  27.535  1.00  0.00     0.023 A 
ATOM     78  C   UNL A   1      43.013  27.116  26.481  1.00  0.00     0.012 A 
ATOM     79  C   UNL A   1      42.012  25.112  27.417  1.00  0.00     0.148 A 
ATOM     80  C   UNL A   1      43.336  26.419  25.317  1.00  0.00     0.002 A 
ATOM     81  C   UNL A   1      42.389  24.408  26.279  1.00  0.00     0.091 A 
ATOM     82  F   UNL A   1      41.346  24.522  28.421  1.00  0.00    -0.205 F 
ATOM     83  C   UNL A   1      43.033  25.063  25.219  1.00  0.00     0.022 A 
BRANCH  81  84
ATOM     84  S   UNL A   1      42.159  22.631  26.145  1.00  0.00     0.127 S 
ATOM     85  O   UNL A   1      42.800  22.151  27.366  1.00  0.00    -0.237 OA
ATOM     86  O   UNL A   1      40.701  22.509  26.126  1.00  0.00    -0.237 OA
ATOM     87  O   UNL A   1      42.801  22.256  24.892  1.00  0.00    -0.744 OA
ENDBRANCH  81  84
ENDBRANCH  53  77
BRANCH  65  88
ATOM     88  C   UNL A   1      45.113  26.956  33.916  1.00  0.00     0.023 A 
ATOM     89  C   UNL A   1      46.386  27.552  33.826  1.00  0.00     0.012 A 
ATOM     90  C   UNL A   1      44.954  25.775  34.666  1.00  0.00     0.148 A 
ATOM     91  C   UNL A   1      47.491  26.963  34.441  1.00  0.00     0.002 A 
ATOM     92  C   UNL A   1      46.048  25.219  35.317  1.00  0.00     0.091 A 
ATOM     93  F   UNL A   1      43.738  25.212  34.724  1.00  0.00    -0.205 F 
ATOM     94  C   UNL A   1      47.319  25.805  35.196  1.00  0.00     0.022 A 
BRANCH  92  95
ATOM     95  S   UNL A   1      45.899  23.784  36.387  1.00  0.00     0.127 S 
ATOM     96  O   UNL A   1      45.526  22.740  35.434  1.00  0.00    -0.237 OA
ATOM     97  O   UNL A   1      47.251  23.657  36.932  1.00  0.00    -0.237 OA
ATOM     98  O   UNL A   1      44.884  24.128  37.373  1.00  0.00    -0.744 OA
ENDBRANCH  92  95
ENDBRANCH  65  88
ENDBRANCH  39  40
ENDBRANCH  31  34
ENDBRANCH  29  30
ENDBRANCH  28  29
ENDBRANCH  27  28
ENDBRANCH   1  27
TORSDOF 20
ENDMDL
MODEL 3
REMARK VINA RESULT:     -10.6      6.306     10.463
REMARK SMILES CC(=O)Nc1nc(C[N@@H+]2CCO[C@@H](CC(=O)NCCCCCCNC(=O)c3ccc(-c4c5nc(c(-c6cccc(S(=O)(=O)[O-])c6F)c6ccc([nH]6)c(-c6cccc(S(=O)(=O)[O-])c6F)c6nc(c(-c7cccc(S(=O)(=O)[O-])c7F)c7ccc4[nH]7)C=C6)C=C5)cc3)C2)cs1
REMARK SMILES IDX 20 1 19 2 18 3 17 4 15 5 16 6 14 8 13 9 9 10 10 11 90 12
REMARK SMILES IDX 11 14 12 15 8 16 7 17 5 18 6 19 92 20 91 21 4 22 1 23 2 24
REMARK SMILES IDX 3 25 21 27 22 28 23 29 24 30 25 31 26 33 27 34 28 35 89 36
REMARK SMILES IDX 29 37 88 38 30 39 31 40 32 41 82 42 33 43 87 44 81 45 83 46
REMARK SMILES IDX 34 47 86 48 80 49 79 50 35 52 67 53 47 54 66 55 48 56 51 57
REMARK SMILES IDX 65 58 84 59 49 60 50 61 64 63 85 64 52 65 36 66 37 67 45 68
REMARK SMILES IDX 38 69 40 70 46 71 39 72 41 73 42 74 43 75 44 76 68 77 69 78
REMARK SMILES IDX 77 79 70 80 72 81 78 82 71 83 73 84 74 85 75 86 76 87 53 88
REMARK SMILES IDX 54 89 62 90 55 91 57 92 63 93 56 94 58 95 59 96 60 97 61 98
REMARK H PARENT 17 7 9 13 4 26 24 32 83 51 51 62
REMARK Flexibility Score: inf
ROOT
ATOM      1  C   UNL A   1      34.901  30.184  27.347  1.00  0.00     0.002 C 
ENDROOT
BRANCH   1   2
ATOM      2  C   UNL A   1      34.145  28.875  27.133  1.00  0.00     0.021 C 
BRANCH   2   3
ATOM      3  C   UNL A   1      32.707  29.048  26.633  1.00  0.00     0.116 C 
BRANCH   3   4
ATOM      4  N   UNL A   1      32.686  29.411  25.224  1.00  0.00    -0.356 N 
ATOM      5  C   UNL A   1      33.107  28.711  24.130  1.00  0.00     0.222 C 
ATOM      6  O   UNL A   1      33.078  29.263  23.028  1.00  0.00    -0.275 OA
ATOM      7  H   UNL A   1      32.312  30.300  25.028  1.00  0.00     0.163 HD
BRANCH   5   8
ATOM      8  C   UNL A   1      33.600  27.290  24.274  1.00  0.00     0.138 C 
BRANCH   8   9
ATOM      9  C   UNL A   1      32.488  26.243  24.176  1.00  0.00     0.182 C 
ATOM     10  N   UNL A   1      31.780  23.949  25.068  1.00  0.00    -0.326 N 
ATOM     11  C   UNL A   1      30.533  24.592  25.479  1.00  0.00     0.291 C 
ATOM     12  C   UNL A   1      32.859  24.919  24.876  1.00  0.00     0.295 C 
ATOM     13  H   UNL A   1      32.039  23.389  25.879  1.00  0.00     0.348 HD
ATOM     14  C   UNL A   1      30.217  25.923  24.777  1.00  0.00     0.222 C 
ATOM     15  O   UNL A   1      31.326  26.825  24.803  1.00  0.00    -0.366 OA
BRANCH  10  16
ATOM     16  C   UNL A   1      31.708  22.862  24.093  1.00  0.00     0.320 C 
BRANCH  16  17
ATOM     17  C   UNL A   1      32.579  21.690  24.431  1.00  0.00     0.108 A 
ATOM     18  C   UNL A   1      32.947  19.719  25.346  1.00  0.00     0.189 A 
ATOM     19  N   UNL A   1      32.004  20.551  24.988  1.00  0.00    -0.219 NA
ATOM     20  S   UNL A   1      34.550  20.199  25.021  1.00  0.00    -0.105 S 
ATOM     21  C   UNL A   1      33.945  21.596  24.234  1.00  0.00     0.098 A 
BRANCH  18  22
ATOM     22  N   UNL A   1      32.839  18.504  25.950  1.00  0.00    -0.302 N 
ATOM     23  C   UNL A   1      32.990  17.222  23.830  1.00  0.00     0.114 C 
ATOM     24  C   UNL A   1      32.726  17.307  25.311  1.00  0.00     0.223 C 
ATOM     25  O   UNL A   1      32.498  16.292  25.974  1.00  0.00    -0.275 OA
ATOM     26  H   UNL A   1      32.844  18.489  26.933  1.00  0.00     0.172 HD
ENDBRANCH  18  22
ENDBRANCH  16  17
ENDBRANCH  10  16
ENDBRANCH   8   9
ENDBRANCH   5   8
ENDBRANCH   3   4
ENDBRANCH   2   3
ENDBRANCH   1   2
BRANCH   1  27
ATOM     27  C   UNL A   1      34.116  31.263  28.097  1.00  0.00     0.002 C 
BRANCH  27  28
ATOM     28  C   UNL A   1      33.753  32.508  27.280  1.00  0.00     0.021 C 
BRANCH  28  29
ATOM     29  C   UNL A   1      32.432  33.178  27.657  1.00  0.00     0.116 C 
BRANCH  29  30
ATOM     30  N   UNL A   1      32.598  34.598  27.922  1.00  0.00    -0.352 N 
ATOM     31  C   UNL A   1      33.419  35.236  28.816  1.00  0.00     0.251 C 
ATOM     32  H   UNL A   1      32.036  35.192  27.375  1.00  0.00     0.163 HD
ATOM     33  O   UNL A   1      33.246  36.430  29.051  1.00  0.00    -0.269 OA
BRANCH  31  34
ATOM     34  C   UNL A   1      34.502  34.500  29.503  1.00  0.00     0.039 A 
ATOM     35  C   UNL A   1      35.793  34.552  28.971  1.00  0.00     0.014 A 
ATOM     36  C   UNL A   1      34.245  33.721  30.636  1.00  0.00     0.014 A 
ATOM     37  C   UNL A   1      36.834  33.865  29.602  1.00  0.00     0.010 A 
ATOM     38  C   UNL A   1      35.296  33.087  31.299  1.00  0.00     0.010 A 
ATOM     39  C   UNL A   1      36.600  33.146  30.785  1.00  0.00    -0.014 A 
BRANCH  39  40
ATOM     40  C   UNL A   1      37.719  32.482  31.505  1.00  0.00     0.031 A 
ATOM     41  C   UNL A   1      38.463  31.331  30.882  1.00  0.00     0.074 A 
ATOM     42  C   UNL A   1      38.015  32.871  32.763  1.00  0.00     0.049 A 
ATOM     43  N   UNL A   1      39.459  30.637  31.370  1.00  0.00    -0.248 NA
ATOM     44  C   UNL A   1      38.019  30.883  29.551  1.00  0.00     0.031 C 
ATOM     45  C   UNL A   1      37.302  33.904  33.517  1.00  0.00     0.029 A 
ATOM     46  N   UNL A   1      38.973  32.425  33.638  1.00  0.00    -0.354 N 
ATOM     47  C   UNL A   1      39.736  29.651  30.430  1.00  0.00     0.074 A 
ATOM     48  C   UNL A   1      38.790  29.822  29.349  1.00  0.00     0.031 C 
ATOM     49  C   UNL A   1      37.843  34.009  34.741  1.00  0.00     0.029 A 
ATOM     50  C   UNL A   1      38.927  33.041  34.868  1.00  0.00     0.049 A 
ATOM     51  H   UNL A   1      39.630  31.728  33.409  1.00  0.00     0.167 HD
ATOM     52  C   UNL A   1      40.706  28.706  30.453  1.00  0.00     0.034 A 
ATOM     53  C   UNL A   1      39.672  32.847  35.974  1.00  0.00     0.034 A 
ATOM     54  C   UNL A   1      41.684  28.577  31.500  1.00  0.00     0.049 A 
ATOM     55  C   UNL A   1      40.794  31.845  35.935  1.00  0.00     0.074 A 
ATOM     56  C   UNL A   1      42.782  27.736  31.549  1.00  0.00     0.029 A 
ATOM     57  N   UNL A   1      41.678  29.295  32.683  1.00  0.00    -0.354 N 
ATOM     58  N   UNL A   1      41.171  31.066  34.951  1.00  0.00    -0.248 NA
ATOM     59  C   UNL A   1      41.623  31.725  37.144  1.00  0.00     0.031 C 
ATOM     60  C   UNL A   1      43.427  27.929  32.775  1.00  0.00     0.029 A 
ATOM     61  C   UNL A   1      42.743  28.907  33.478  1.00  0.00     0.049 A 
ATOM     62  H   UNL A   1      41.015  29.982  32.925  1.00  0.00     0.167 HD
ATOM     63  C   UNL A   1      42.293  30.388  35.409  1.00  0.00     0.074 A 
ATOM     64  C   UNL A   1      42.556  30.871  36.749  1.00  0.00     0.031 C 
ATOM     65  C   UNL A   1      43.027  29.432  34.787  1.00  0.00     0.034 A 
BRANCH  52  66
ATOM     66  C   UNL A   1      40.811  27.763  29.282  1.00  0.00     0.023 A 
ATOM     67  C   UNL A   1      39.969  26.635  29.223  1.00  0.00     0.012 A 
ATOM     68  C   UNL A   1      41.659  28.054  28.196  1.00  0.00     0.148 A 
ATOM     69  C   UNL A   1      39.981  25.801  28.106  1.00  0.00     0.002 A 
ATOM     70  C   UNL A   1      41.636  27.240  27.069  1.00  0.00     0.091 A 
ATOM     71  F   UNL A   1      42.464  29.124  28.281  1.00  0.00    -0.205 F 
ATOM     72  C   UNL A   1      40.804  26.109  27.025  1.00  0.00     0.022 A 
BRANCH  70  73
ATOM     73  S   UNL A   1      42.598  27.592  25.593  1.00  0.00     0.127 S 
ATOM     74  O   UNL A   1      43.948  27.713  26.142  1.00  0.00    -0.237 OA
ATOM     75  O   UNL A   1      42.372  26.393  24.786  1.00  0.00    -0.237 OA
ATOM     76  O   UNL A   1      42.044  28.818  25.033  1.00  0.00    -0.744 OA
ENDBRANCH  70  73
ENDBRANCH  52  66
BRANCH  53  77
ATOM     77  C   UNL A   1      39.422  33.663  37.197  1.00  0.00     0.023 A 
ATOM     78  C   UNL A   1      39.924  34.976  37.273  1.00  0.00     0.012 A 
ATOM     79  C   UNL A   1      38.681  33.149  38.278  1.00  0.00     0.148 A 
ATOM     80  C   UNL A   1      39.729  35.747  38.418  1.00  0.00     0.002 A 
ATOM     81  C   UNL A   1      38.441  33.944  39.393  1.00  0.00     0.091 A 
ATOM     82  F   UNL A   1      38.225  31.890  38.199  1.00  0.00    -0.205 F 
ATOM     83  C   UNL A   1      38.979  35.236  39.475  1.00  0.00     0.022 A 
BRANCH  81  84
ATOM     84  S   UNL A   1      37.366  33.402  40.727  1.00  0.00     0.127 S 
ATOM     85  O   UNL A   1      38.162  32.347  41.347  1.00  0.00    -0.237 OA
ATOM     86  O   UNL A   1      37.228  34.620  41.527  1.00  0.00    -0.237 OA
ATOM     87  O   UNL A   1      36.133  32.979  40.077  1.00  0.00    -0.744 OA
ENDBRANCH  81  84
ENDBRANCH  53  77
BRANCH  65  88
ATOM     88  C   UNL A   1      44.201  28.857  35.537  1.00  0.00     0.023 A 
ATOM     89  C   UNL A   1      45.477  29.431  35.377  1.00  0.00     0.012 A 
ATOM     90  C   UNL A   1      44.030  27.792  36.442  1.00  0.00     0.148 A 
ATOM     91  C   UNL A   1      46.573  28.930  36.078  1.00  0.00     0.002 A 
ATOM     92  C   UNL A   1      45.116  27.328  37.174  1.00  0.00     0.091 A 
ATOM     93  F   UNL A   1      42.812  27.245  36.566  1.00  0.00    -0.205 F 
ATOM     94  C   UNL A   1      46.391  27.888  36.984  1.00  0.00     0.022 A 
BRANCH  92  95
ATOM     95  S   UNL A   1      44.953  26.055  38.431  1.00  0.00     0.127 S 
ATOM     96  O   UNL A   1      46.346  25.670  38.648  1.00  0.00    -0.237 OA
ATOM     97  O   UNL A   1      44.342  26.787  39.541  1.00  0.00    -0.237 OA
ATOM     98  O   UNL A   1      44.100  25.029  37.846  1.00  0.00    -0.744 OA
ENDBRANCH  92  95
ENDBRANCH  65  88
ENDBRANCH  39  40
ENDBRANCH  31  34
ENDBRANCH  29  30
ENDBRANCH  28  29
ENDBRANCH  27  28
ENDBRANCH   1  27
TORSDOF 20
ENDMDL
