MODEL 1
REMARK VINA RESULT:     -11.2      0.000      0.000
REMARK SMILES N#CCNC(=O)Cn1ccc(C(=O)NCCCCCCNC(=O)c2ccc(-c3c4nc(c(-c5cccc(S(=O)(=O)[O-])c5F)c5ccc([nH]5)c(-c5cccc(S(=O)(=O)[O-])c5F)c5nc(c(-c6cccc(S(=O)(=O)[O-])c6F)c6ccc3[nH]6)C=C5)C=C4)cc2)c1
REMARK SMILES IDX 17 1 16 2 15 3 14 4 12 5 13 6 11 8 8 9 9 10 87 11 10 12 7 13
REMARK SMILES IDX 5 14 4 15 6 17 3 18 2 19 1 20 18 21 19 22 20 23 21 24 22 25
REMARK SMILES IDX 23 27 24 28 25 29 86 30 26 31 85 32 27 33 28 34 29 35 79 36
REMARK SMILES IDX 30 37 84 38 78 39 80 40 31 41 83 42 77 43 76 44 32 46 64 47
REMARK SMILES IDX 44 48 63 49 45 50 48 51 62 52 81 53 46 54 47 55 61 57 82 58
REMARK SMILES IDX 49 59 33 60 34 61 42 62 35 63 37 64 43 65 36 66 38 67 39 68
REMARK SMILES IDX 40 69 41 70 65 71 66 72 74 73 67 74 69 75 75 76 68 77 70 78
REMARK SMILES IDX 71 79 72 80 73 81 50 82 51 83 59 84 52 85 54 86 60 87 53 88
REMARK SMILES IDX 55 89 56 90 57 91 58 92
REMARK H PARENT 14 7 4 16 21 26 80 45 48 56
REMARK Flexibility Score: inf
ROOT
ATOM      1  C   UNL A   1      35.376  23.299  23.659  1.00  0.00     0.002 C 
ENDROOT
BRANCH   1   2
ATOM      2  C   UNL A   1      34.208  24.206  23.252  1.00  0.00     0.021 C 
BRANCH   2   3
ATOM      3  C   UNL A   1      33.087  23.509  22.489  1.00  0.00     0.116 C 
BRANCH   3   4
ATOM      4  N   UNL A   1      32.798  23.981  21.153  1.00  0.00    -0.352 N 
ATOM      5  C   UNL A   1      32.758  25.291  20.703  1.00  0.00     0.252 C 
ATOM      6  O   UNL A   1      32.997  25.491  19.513  1.00  0.00    -0.269 OA
ATOM      7  H   UNL A   1      32.607  23.288  20.480  1.00  0.00     0.163 HD
BRANCH   5   8
ATOM      8  C   UNL A   1      32.483  26.415  21.612  1.00  0.00     0.057 A 
ATOM      9  N   UNL A   1      31.558  27.789  23.123  1.00  0.00    -0.344 N 
ATOM     10  C   UNL A   1      32.798  28.303  22.866  1.00  0.00     0.087 A 
ATOM     11  C   UNL A   1      31.295  26.789  22.219  1.00  0.00     0.100 A 
ATOM     12  C   UNL A   1      33.405  27.460  21.959  1.00  0.00     0.033 A 
BRANCH   9  13
ATOM     13  C   UNL A   1      30.665  28.212  24.190  1.00  0.00     0.221 C 
BRANCH  13  14
ATOM     14  C   UNL A   1      30.573  29.727  24.280  1.00  0.00     0.240 C 
ATOM     15  N   UNL A   1      31.315  30.428  25.184  1.00  0.00    -0.341 N 
ATOM     16  H   UNL A   1      31.122  31.392  25.222  1.00  0.00     0.164 HD
ATOM     17  O   UNL A   1      29.803  30.365  23.556  1.00  0.00    -0.273 OA
BRANCH  15  18
ATOM     18  C   UNL A   1      32.350  29.972  26.103  1.00  0.00     0.236 C 
BRANCH  18  19
ATOM     19  C   UNL A   1      31.790  28.963  27.092  1.00  0.00     0.084 C 
ATOM     20  N   UNL A   1      31.326  28.126  27.913  1.00  0.00    -0.196 NA
ENDBRANCH  18  19
ENDBRANCH  15  18
ENDBRANCH  13  14
ENDBRANCH   9  13
ENDBRANCH   5   8
ENDBRANCH   3   4
ENDBRANCH   2   3
ENDBRANCH   1   2
BRANCH   1  21
ATOM     21  C   UNL A   1      35.841  23.357  25.126  1.00  0.00     0.002 C 
BRANCH  21  22
ATOM     22  C   UNL A   1      37.337  23.147  25.405  1.00  0.00     0.021 C 
BRANCH  22  23
ATOM     23  C   UNL A   1      37.955  24.126  26.404  1.00  0.00     0.116 C 
BRANCH  23  24
ATOM     24  N   UNL A   1      39.136  23.566  27.042  1.00  0.00    -0.352 N 
ATOM     25  C   UNL A   1      40.191  24.193  27.656  1.00  0.00     0.251 C 
ATOM     26  H   UNL A   1      39.187  22.583  27.032  1.00  0.00     0.163 HD
ATOM     27  O   UNL A   1      41.230  23.559  27.837  1.00  0.00    -0.269 OA
BRANCH  25  28
ATOM     28  C   UNL A   1      40.118  25.607  28.085  1.00  0.00     0.039 A 
ATOM     29  C   UNL A   1      39.525  25.889  29.326  1.00  0.00     0.014 A 
ATOM     30  C   UNL A   1      40.545  26.653  27.264  1.00  0.00     0.014 A 
ATOM     31  C   UNL A   1      39.433  27.206  29.771  1.00  0.00     0.010 A 
ATOM     32  C   UNL A   1      40.480  27.966  27.716  1.00  0.00     0.010 A 
ATOM     33  C   UNL A   1      39.943  28.242  28.977  1.00  0.00    -0.014 A 
BRANCH  33  34
ATOM     34  C   UNL A   1      40.091  29.597  29.553  1.00  0.00     0.031 A 
ATOM     35  C   UNL A   1      38.829  30.451  29.285  1.00  0.00     0.074 A 
ATOM     36  C   UNL A   1      41.267  29.877  30.202  1.00  0.00     0.049 A 
ATOM     37  N   UNL A   1      38.720  31.726  29.061  1.00  0.00    -0.248 NA
ATOM     38  C   UNL A   1      37.510  29.779  29.107  1.00  0.00     0.031 C 
ATOM     39  C   UNL A   1      42.377  28.912  30.380  1.00  0.00     0.029 A 
ATOM     40  N   UNL A   1      41.782  30.988  30.848  1.00  0.00    -0.354 N 
ATOM     41  C   UNL A   1      37.334  32.026  28.980  1.00  0.00     0.074 A 
ATOM     42  C   UNL A   1      36.661  30.776  28.834  1.00  0.00     0.031 C 
ATOM     43  C   UNL A   1      43.432  29.486  30.999  1.00  0.00     0.029 A 
ATOM     44  C   UNL A   1      43.117  30.865  31.324  1.00  0.00     0.049 A 
ATOM     45  H   UNL A   1      41.256  31.812  30.970  1.00  0.00     0.167 HD
ATOM     46  C   UNL A   1      36.827  33.271  29.245  1.00  0.00     0.034 A 
ATOM     47  C   UNL A   1      43.924  31.807  31.915  1.00  0.00     0.034 A 
ATOM     48  C   UNL A   1      37.897  34.102  29.689  1.00  0.00     0.049 A 
ATOM     49  C   UNL A   1      43.052  32.953  32.208  1.00  0.00     0.074 A 
ATOM     50  C   UNL A   1      38.977  34.650  29.051  1.00  0.00     0.029 A 
ATOM     51  N   UNL A   1      38.108  34.081  31.049  1.00  0.00    -0.354 N 
ATOM     52  N   UNL A   1      42.143  32.966  33.137  1.00  0.00    -0.248 NA
ATOM     53  C   UNL A   1      43.124  34.137  31.343  1.00  0.00     0.031 C 
ATOM     54  C   UNL A   1      40.002  34.493  30.002  1.00  0.00     0.029 A 
ATOM     55  C   UNL A   1      39.458  34.130  31.243  1.00  0.00     0.049 A 
ATOM     56  H   UNL A   1      37.417  34.039  31.749  1.00  0.00     0.167 HD
ATOM     57  C   UNL A   1      41.312  33.963  32.692  1.00  0.00     0.074 A 
ATOM     58  C   UNL A   1      42.115  34.833  31.860  1.00  0.00     0.031 C 
ATOM     59  C   UNL A   1      39.997  33.669  32.498  1.00  0.00     0.034 A 
BRANCH  46  60
ATOM     60  C   UNL A   1      35.448  33.850  29.476  1.00  0.00     0.023 A 
ATOM     61  C   UNL A   1      34.824  34.398  28.312  1.00  0.00     0.012 A 
ATOM     62  C   UNL A   1      34.887  34.185  30.718  1.00  0.00     0.148 A 
ATOM     63  C   UNL A   1      33.802  35.341  28.379  1.00  0.00     0.002 A 
ATOM     64  C   UNL A   1      33.821  35.091  30.777  1.00  0.00     0.091 A 
ATOM     65  F   UNL A   1      35.431  33.699  31.838  1.00  0.00    -0.205 F 
ATOM     66  C   UNL A   1      33.310  35.701  29.618  1.00  0.00     0.022 A 
BRANCH  64  67
ATOM     67  S   UNL A   1      33.029  35.570  32.318  1.00  0.00     0.127 S 
ATOM     68  O   UNL A   1      34.105  36.280  33.005  1.00  0.00    -0.237 OA
ATOM     69  O   UNL A   1      31.942  36.429  31.842  1.00  0.00    -0.237 OA
ATOM     70  O   UNL A   1      32.577  34.329  32.933  1.00  0.00    -0.744 OA
ENDBRANCH  64  67
ENDBRANCH  46  60
BRANCH  47  71
ATOM     71  C   UNL A   1      45.396  31.986  32.241  1.00  0.00     0.023 A 
ATOM     72  C   UNL A   1      46.408  32.155  31.288  1.00  0.00     0.012 A 
ATOM     73  C   UNL A   1      45.816  32.105  33.607  1.00  0.00     0.148 A 
ATOM     74  C   UNL A   1      47.718  32.524  31.664  1.00  0.00     0.002 A 
ATOM     75  C   UNL A   1      47.063  32.601  33.970  1.00  0.00     0.091 A 
ATOM     76  F   UNL A   1      45.008  31.699  34.591  1.00  0.00    -0.205 F 
ATOM     77  C   UNL A   1      48.033  32.799  32.996  1.00  0.00     0.022 A 
BRANCH  75  78
ATOM     78  S   UNL A   1      47.412  33.150  35.655  1.00  0.00     0.127 S 
ATOM     79  O   UNL A   1      47.844  31.913  36.305  1.00  0.00    -0.237 OA
ATOM     80  O   UNL A   1      48.477  34.126  35.426  1.00  0.00    -0.237 OA
ATOM     81  O   UNL A   1      46.172  33.714  36.171  1.00  0.00    -0.744 OA
ENDBRANCH  75  78
ENDBRANCH  47  71
BRANCH  59  82
ATOM     82  C   UNL A   1      39.407  32.633  33.456  1.00  0.00     0.023 A 
ATOM     83  C   UNL A   1      39.048  31.388  32.895  1.00  0.00     0.012 A 
ATOM     84  C   UNL A   1      39.107  32.825  34.827  1.00  0.00     0.148 A 
ATOM     85  C   UNL A   1      38.406  30.392  33.638  1.00  0.00     0.002 A 
ATOM     86  C   UNL A   1      38.455  31.830  35.574  1.00  0.00     0.091 A 
ATOM     87  F   UNL A   1      39.452  33.975  35.403  1.00  0.00    -0.205 F 
ATOM     88  C   UNL A   1      38.108  30.613  34.975  1.00  0.00     0.022 A 
BRANCH  86  89
ATOM     89  S   UNL A   1      37.954  32.021  37.301  1.00  0.00     0.127 S 
ATOM     90  O   UNL A   1      39.216  32.354  37.965  1.00  0.00    -0.237 OA
ATOM     91  O   UNL A   1      37.007  33.131  37.236  1.00  0.00    -0.237 OA
ATOM     92  O   UNL A   1      37.386  30.744  37.719  1.00  0.00    -0.744 OA
ENDBRANCH  86  89
ENDBRANCH  59  82
ENDBRANCH  33  34
ENDBRANCH  25  28
ENDBRANCH  23  24
ENDBRANCH  22  23
ENDBRANCH  21  22
ENDBRANCH   1  21
TORSDOF 20
ENDMDL
MODEL 2
REMARK VINA RESULT:     -10.7      2.142      3.642
REMARK SMILES N#CCNC(=O)Cn1ccc(C(=O)NCCCCCCNC(=O)c2ccc(-c3c4nc(c(-c5cccc(S(=O)(=O)[O-])c5F)c5ccc([nH]5)c(-c5cccc(S(=O)(=O)[O-])c5F)c5nc(c(-c6cccc(S(=O)(=O)[O-])c6F)c6ccc3[nH]6)C=C5)C=C4)cc2)c1
REMARK SMILES IDX 17 1 16 2 15 3 14 4 12 5 13 6 11 8 8 9 9 10 87 11 10 12 7 13
REMARK SMILES IDX 5 14 4 15 6 17 3 18 2 19 1 20 18 21 19 22 20 23 21 24 22 25
REMARK SMILES IDX 23 27 24 28 25 29 86 30 26 31 85 32 27 33 28 34 29 35 79 36
REMARK SMILES IDX 30 37 84 38 78 39 80 40 31 41 83 42 77 43 76 44 32 46 64 47
REMARK SMILES IDX 44 48 63 49 45 50 48 51 62 52 81 53 46 54 47 55 61 57 82 58
REMARK SMILES IDX 49 59 33 60 34 61 42 62 35 63 37 64 43 65 36 66 38 67 39 68
REMARK SMILES IDX 40 69 41 70 65 71 66 72 74 73 67 74 69 75 75 76 68 77 70 78
REMARK SMILES IDX 71 79 72 80 73 81 50 82 51 83 59 84 52 85 54 86 60 87 53 88
REMARK SMILES IDX 55 89 56 90 57 91 58 92
REMARK H PARENT 14 7 4 16 21 26 80 45 48 56
REMARK Flexibility Score: inf
ROOT
ATOM      1  C   UNL A   1      35.025  24.342  23.940  1.00  0.00     0.002 C 
ENDROOT
BRANCH   1   2
ATOM      2  C   UNL A   1      33.981  25.271  24.572  1.00  0.00     0.021 C 
BRANCH   2   3
ATOM      3  C   UNL A   1      33.037  25.947  23.584  1.00  0.00     0.116 C 
BRANCH   3   4
ATOM      4  N   UNL A   1      31.709  26.276  24.053  1.00  0.00    -0.352 N 
ATOM      5  C   UNL A   1      30.958  25.618  25.014  1.00  0.00     0.252 C 
ATOM      6  O   UNL A   1      30.123  26.277  25.632  1.00  0.00    -0.269 OA
ATOM      7  H   UNL A   1      31.287  27.064  23.640  1.00  0.00     0.163 HD
BRANCH   5   8
ATOM      8  C   UNL A   1      31.169  24.195  25.323  1.00  0.00     0.057 A 
ATOM      9  N   UNL A   1      31.665  22.013  25.199  1.00  0.00    -0.344 N 
ATOM     10  C   UNL A   1      31.432  22.263  26.522  1.00  0.00     0.087 A 
ATOM     11  C   UNL A   1      31.302  23.116  24.466  1.00  0.00     0.100 A 
ATOM     12  C   UNL A   1      31.152  23.610  26.635  1.00  0.00     0.033 A 
BRANCH   9  13
ATOM     13  C   UNL A   1      32.227  20.788  24.651  1.00  0.00     0.221 C 
BRANCH  13  14
ATOM     14  C   UNL A   1      33.224  20.150  25.604  1.00  0.00     0.240 C 
ATOM     15  N   UNL A   1      33.232  18.803  25.821  1.00  0.00    -0.341 N 
ATOM     16  H   UNL A   1      33.856  18.498  26.518  1.00  0.00     0.164 HD
ATOM     17  O   UNL A   1      34.038  20.834  26.231  1.00  0.00    -0.273 OA
BRANCH  15  18
ATOM     18  C   UNL A   1      32.459  17.746  25.182  1.00  0.00     0.236 C 
BRANCH  18  19
ATOM     19  C   UNL A   1      33.045  17.389  23.826  1.00  0.00     0.084 C 
ATOM     20  N   UNL A   1      33.531  17.094  22.701  1.00  0.00    -0.196 NA
ENDBRANCH  18  19
ENDBRANCH  15  18
ENDBRANCH  13  14
ENDBRANCH   9  13
ENDBRANCH   5   8
ENDBRANCH   3   4
ENDBRANCH   2   3
ENDBRANCH   1   2
BRANCH   1  21
ATOM     21  C   UNL A   1      35.663  23.272  24.844  1.00  0.00     0.002 C 
BRANCH  21  22
ATOM     22  C   UNL A   1      37.188  23.318  25.032  1.00  0.00     0.021 C 
BRANCH  22  23
ATOM     23  C   UNL A   1      37.671  24.175  26.202  1.00  0.00     0.116 C 
BRANCH  23  24
ATOM     24  N   UNL A   1      38.792  23.555  26.891  1.00  0.00    -0.352 N 
ATOM     25  C   UNL A   1      39.847  24.127  27.558  1.00  0.00     0.251 C 
ATOM     26  H   UNL A   1      38.796  22.570  26.877  1.00  0.00     0.163 HD
ATOM     27  O   UNL A   1      40.844  23.442  27.784  1.00  0.00    -0.269 OA
BRANCH  25  28
ATOM     28  C   UNL A   1      39.822  25.541  27.994  1.00  0.00     0.039 A 
ATOM     29  C   UNL A   1      39.279  25.833  29.255  1.00  0.00     0.014 A 
ATOM     30  C   UNL A   1      40.245  26.579  27.161  1.00  0.00     0.014 A 
ATOM     31  C   UNL A   1      39.233  27.149  29.706  1.00  0.00     0.010 A 
ATOM     32  C   UNL A   1      40.226  27.892  27.618  1.00  0.00     0.010 A 
ATOM     33  C   UNL A   1      39.739  28.176  28.898  1.00  0.00    -0.014 A 
BRANCH  33  34
ATOM     34  C   UNL A   1      39.939  29.526  29.472  1.00  0.00     0.031 A 
ATOM     35  C   UNL A   1      38.690  30.411  29.246  1.00  0.00     0.074 A 
ATOM     36  C   UNL A   1      41.142  29.774  30.084  1.00  0.00     0.049 A 
ATOM     37  N   UNL A   1      38.606  31.689  29.029  1.00  0.00    -0.248 NA
ATOM     38  C   UNL A   1      37.350  29.772  29.109  1.00  0.00     0.031 C 
ATOM     39  C   UNL A   1      42.232  28.781  30.224  1.00  0.00     0.029 A 
ATOM     40  N   UNL A   1      41.704  30.870  30.716  1.00  0.00    -0.354 N 
ATOM     41  C   UNL A   1      37.226  32.023  28.993  1.00  0.00     0.074 A 
ATOM     42  C   UNL A   1      36.518  30.790  28.866  1.00  0.00     0.031 C 
ATOM     43  C   UNL A   1      43.321  29.328  30.810  1.00  0.00     0.029 A 
ATOM     44  C   UNL A   1      43.050  30.713  31.149  1.00  0.00     0.049 A 
ATOM     45  H   UNL A   1      41.203  31.707  30.856  1.00  0.00     0.167 HD
ATOM     46  C   UNL A   1      36.759  33.279  29.277  1.00  0.00     0.034 A 
ATOM     47  C   UNL A   1      43.899  31.633  31.716  1.00  0.00     0.034 A 
ATOM     48  C   UNL A   1      37.862  34.082  29.688  1.00  0.00     0.049 A 
ATOM     49  C   UNL A   1      43.065  32.799  32.039  1.00  0.00     0.074 A 
ATOM     50  C   UNL A   1      38.935  34.606  29.018  1.00  0.00     0.029 A 
ATOM     51  N   UNL A   1      38.116  34.052  31.041  1.00  0.00    -0.354 N 
ATOM     52  N   UNL A   1      42.187  32.831  32.997  1.00  0.00    -0.248 NA
ATOM     53  C   UNL A   1      43.138  33.984  31.176  1.00  0.00     0.031 C 
ATOM     54  C   UNL A   1      39.985  34.420  29.935  1.00  0.00     0.029 A 
ATOM     55  C   UNL A   1      39.472  34.067  31.192  1.00  0.00     0.049 A 
ATOM     56  H   UNL A   1      37.447  34.024  31.762  1.00  0.00     0.167 HD
ATOM     57  C   UNL A   1      41.367  33.849  32.581  1.00  0.00     0.074 A 
ATOM     58  C   UNL A   1      42.164  34.702  31.726  1.00  0.00     0.031 C 
ATOM     59  C   UNL A   1      40.040  33.589  32.428  1.00  0.00     0.034 A 
BRANCH  46  60
ATOM     60  C   UNL A   1      35.402  33.892  29.553  1.00  0.00     0.023 A 
ATOM     61  C   UNL A   1      34.750  34.447  28.409  1.00  0.00     0.012 A 
ATOM     62  C   UNL A   1      34.894  34.246  30.812  1.00  0.00     0.148 A 
ATOM     63  C   UNL A   1      33.753  35.413  28.506  1.00  0.00     0.002 A 
ATOM     64  C   UNL A   1      33.851  35.176  30.903  1.00  0.00     0.091 A 
ATOM     65  F   UNL A   1      35.467  33.754  31.915  1.00  0.00    -0.205 F 
ATOM     66  C   UNL A   1      33.314  35.792  29.759  1.00  0.00     0.022 A 
BRANCH  64  67
ATOM     67  S   UNL A   1      33.127  35.683  32.468  1.00  0.00     0.127 S 
ATOM     68  O   UNL A   1      32.375  34.492  32.855  1.00  0.00    -0.237 OA
ATOM     69  O   UNL A   1      34.319  35.939  33.281  1.00  0.00    -0.237 OA
ATOM     70  O   UNL A   1      32.344  36.875  32.174  1.00  0.00    -0.744 OA
ENDBRANCH  64  67
ENDBRANCH  46  60
BRANCH  47  71
ATOM     71  C   UNL A   1      45.385  31.774  31.996  1.00  0.00     0.023 A 
ATOM     72  C   UNL A   1      46.367  31.941  31.012  1.00  0.00     0.012 A 
ATOM     73  C   UNL A   1      45.852  31.858  33.348  1.00  0.00     0.148 A 
ATOM     74  C   UNL A   1      47.697  32.274  31.351  1.00  0.00     0.002 A 
ATOM     75  C   UNL A   1      47.121  32.321  33.678  1.00  0.00     0.091 A 
ATOM     76  F   UNL A   1      45.069  31.451  34.351  1.00  0.00    -0.205 F 
ATOM     77  C   UNL A   1      48.062  32.517  32.675  1.00  0.00     0.022 A 
BRANCH  75  78
ATOM     78  S   UNL A   1      47.538  32.829  35.360  1.00  0.00     0.127 S 
ATOM     79  O   UNL A   1      47.642  31.550  36.059  1.00  0.00    -0.237 OA
ATOM     80  O   UNL A   1      48.812  33.517  35.146  1.00  0.00    -0.237 OA
ATOM     81  O   UNL A   1      46.452  33.690  35.813  1.00  0.00    -0.744 OA
ENDBRANCH  75  78
ENDBRANCH  47  71
BRANCH  59  82
ATOM     82  C   UNL A   1      39.455  32.565  33.403  1.00  0.00     0.023 A 
ATOM     83  C   UNL A   1      39.141  31.295  32.869  1.00  0.00     0.012 A 
ATOM     84  C   UNL A   1      39.118  32.787  34.760  1.00  0.00     0.148 A 
ATOM     85  C   UNL A   1      38.509  30.304  33.626  1.00  0.00     0.002 A 
ATOM     86  C   UNL A   1      38.475  31.797  35.521  1.00  0.00     0.091 A 
ATOM     87  F   UNL A   1      39.420  33.961  35.311  1.00  0.00    -0.205 F 
ATOM     88  C   UNL A   1      38.175  30.554  34.949  1.00  0.00     0.022 A 
BRANCH  86  89
ATOM     89  S   UNL A   1      37.930  32.022  37.230  1.00  0.00     0.127 S 
ATOM     90  O   UNL A   1      39.173  32.378  37.918  1.00  0.00    -0.237 OA
ATOM     91  O   UNL A   1      36.979  33.125  37.116  1.00  0.00    -0.237 OA
ATOM     92  O   UNL A   1      37.359  30.752  37.661  1.00  0.00    -0.744 OA
ENDBRANCH  86  89
ENDBRANCH  59  82
ENDBRANCH  33  34
ENDBRANCH  25  28
ENDBRANCH  23  24
ENDBRANCH  22  23
ENDBRANCH  21  22
ENDBRANCH   1  21
TORSDOF 20
ENDMDL
MODEL 3
REMARK VINA RESULT:     -10.4      5.087      7.159
REMARK SMILES N#CCNC(=O)Cn1ccc(C(=O)NCCCCCCNC(=O)c2ccc(-c3c4nc(c(-c5cccc(S(=O)(=O)[O-])c5F)c5ccc([nH]5)c(-c5cccc(S(=O)(=O)[O-])c5F)c5nc(c(-c6cccc(S(=O)(=O)[O-])c6F)c6ccc3[nH]6)C=C5)C=C4)cc2)c1
REMARK SMILES IDX 17 1 16 2 15 3 14 4 12 5 13 6 11 8 8 9 9 10 87 11 10 12 7 13
REMARK SMILES IDX 5 14 4 15 6 17 3 18 2 19 1 20 18 21 19 22 20 23 21 24 22 25
REMARK SMILES IDX 23 27 24 28 25 29 86 30 26 31 85 32 27 33 28 34 29 35 79 36
REMARK SMILES IDX 30 37 84 38 78 39 80 40 31 41 83 42 77 43 76 44 32 46 64 47
REMARK SMILES IDX 44 48 63 49 45 50 48 51 62 52 81 53 46 54 47 55 61 57 82 58
REMARK SMILES IDX 49 59 33 60 34 61 42 62 35 63 37 64 43 65 36 66 38 67 39 68
REMARK SMILES IDX 40 69 41 70 65 71 66 72 74 73 67 74 69 75 75 76 68 77 70 78
REMARK SMILES IDX 71 79 72 80 73 81 50 82 51 83 59 84 52 85 54 86 60 87 53 88
REMARK SMILES IDX 55 89 56 90 57 91 58 92
REMARK H PARENT 14 7 4 16 21 26 80 45 48 56
REMARK Flexibility Score: inf
ROOT
ATOM      1  C   UNL A   1      36.838  22.750  25.347  1.00  0.00     0.002 C 
ENDROOT
BRANCH   1   2
ATOM      2  C   UNL A   1      35.676  23.453  26.061  1.00  0.00     0.021 C 
BRANCH   2   3
ATOM      3  C   UNL A   1      34.297  22.868  25.778  1.00  0.00     0.116 C 
BRANCH   3   4
ATOM      4  N   UNL A   1      33.310  22.954  26.831  1.00  0.00    -0.352 N 
ATOM      5  C   UNL A   1      32.154  23.719  26.855  1.00  0.00     0.252 C 
ATOM      6  O   UNL A   1      31.220  23.315  27.546  1.00  0.00    -0.269 OA
ATOM      7  H   UNL A   1      33.479  22.402  27.629  1.00  0.00     0.163 HD
BRANCH   5   8
ATOM      8  C   UNL A   1      32.020  24.947  26.057  1.00  0.00     0.057 A 
ATOM      9  N   UNL A   1      31.244  26.594  24.750  1.00  0.00    -0.344 N 
ATOM     10  C   UNL A   1      32.459  27.025  25.203  1.00  0.00     0.087 A 
ATOM     11  C   UNL A   1      31.084  25.274  25.090  1.00  0.00     0.100 A 
ATOM     12  C   UNL A   1      32.950  26.042  26.038  1.00  0.00     0.033 A 
BRANCH   9  13
ATOM     13  C   UNL A   1      30.266  27.404  24.040  1.00  0.00     0.221 C 
BRANCH  13  14
ATOM     14  C   UNL A   1      30.663  27.625  22.590  1.00  0.00     0.240 C 
ATOM     15  N   UNL A   1      30.359  28.788  21.944  1.00  0.00    -0.341 N 
ATOM     16  H   UNL A   1      30.583  28.801  20.985  1.00  0.00     0.164 HD
ATOM     17  O   UNL A   1      31.248  26.750  21.946  1.00  0.00    -0.273 OA
BRANCH  15  18
ATOM     18  C   UNL A   1      29.755  30.013  22.451  1.00  0.00     0.236 C 
BRANCH  18  19
ATOM     19  C   UNL A   1      28.294  29.790  22.807  1.00  0.00     0.084 C 
ATOM     20  N   UNL A   1      27.082  29.605  23.102  1.00  0.00    -0.196 NA
ENDBRANCH  18  19
ENDBRANCH  15  18
ENDBRANCH  13  14
ENDBRANCH   9  13
ENDBRANCH   5   8
ENDBRANCH   3   4
ENDBRANCH   2   3
ENDBRANCH   1   2
BRANCH   1  21
ATOM     21  C   UNL A   1      36.579  21.337  24.792  1.00  0.00     0.002 C 
BRANCH  21  22
ATOM     22  C   UNL A   1      37.701  20.298  24.945  1.00  0.00     0.021 C 
BRANCH  22  23
ATOM     23  C   UNL A   1      38.944  20.790  25.686  1.00  0.00     0.116 C 
BRANCH  23  24
ATOM     24  N   UNL A   1      39.930  19.731  25.836  1.00  0.00    -0.352 N 
ATOM     25  C   UNL A   1      41.289  19.806  26.016  1.00  0.00     0.251 C 
ATOM     26  H   UNL A   1      39.567  18.816  25.804  1.00  0.00     0.163 HD
ATOM     27  O   UNL A   1      41.971  18.806  25.795  1.00  0.00    -0.269 OA
BRANCH  25  28
ATOM     28  C   UNL A   1      41.952  21.057  26.448  1.00  0.00     0.039 A 
ATOM     29  C   UNL A   1      42.332  21.978  25.459  1.00  0.00     0.014 A 
ATOM     30  C   UNL A   1      42.274  21.300  27.786  1.00  0.00     0.014 A 
ATOM     31  C   UNL A   1      42.960  23.167  25.818  1.00  0.00     0.010 A 
ATOM     32  C   UNL A   1      42.876  22.498  28.151  1.00  0.00     0.010 A 
ATOM     33  C   UNL A   1      43.201  23.441  27.171  1.00  0.00    -0.014 A 
BRANCH  33  34
ATOM     34  C   UNL A   1      43.617  24.803  27.577  1.00  0.00     0.031 A 
ATOM     35  C   UNL A   1      42.384  25.691  27.871  1.00  0.00     0.074 A 
ATOM     36  C   UNL A   1      44.964  25.058  27.626  1.00  0.00     0.049 A 
ATOM     37  N   UNL A   1      42.212  26.964  27.677  1.00  0.00    -0.248 NA
ATOM     38  C   UNL A   1      41.111  25.058  28.320  1.00  0.00     0.031 C 
ATOM     39  C   UNL A   1      46.017  24.061  27.322  1.00  0.00     0.029 A 
ATOM     40  N   UNL A   1      45.735  26.165  27.939  1.00  0.00    -0.354 N 
ATOM     41  C   UNL A   1      40.941  27.306  28.211  1.00  0.00     0.074 A 
ATOM     42  C   UNL A   1      40.249  26.076  28.421  1.00  0.00     0.031 C 
ATOM     43  C   UNL A   1      47.249  24.614  27.388  1.00  0.00     0.029 A 
ATOM     44  C   UNL A   1      47.139  26.008  27.775  1.00  0.00     0.049 A 
ATOM     45  H   UNL A   1      45.335  27.007  28.255  1.00  0.00     0.167 HD
ATOM     46  C   UNL A   1      40.631  28.572  28.634  1.00  0.00     0.034 A 
ATOM     47  C   UNL A   1      48.143  26.936  27.915  1.00  0.00     0.034 A 
ATOM     48  C   UNL A   1      41.802  29.377  28.528  1.00  0.00     0.049 A 
ATOM     49  C   UNL A   1      47.516  28.114  28.527  1.00  0.00     0.074 A 
ATOM     50  C   UNL A   1      42.496  29.877  27.459  1.00  0.00     0.029 A 
ATOM     51  N   UNL A   1      42.597  29.377  29.653  1.00  0.00    -0.354 N 
ATOM     52  N   UNL A   1      47.117  28.175  29.763  1.00  0.00    -0.248 NA
ATOM     53  C   UNL A   1      47.218  29.278  27.683  1.00  0.00     0.031 C 
ATOM     54  C   UNL A   1      43.833  29.706  27.860  1.00  0.00     0.029 A 
ATOM     55  C   UNL A   1      43.892  29.387  29.224  1.00  0.00     0.049 A 
ATOM     56  H   UNL A   1      42.289  29.371  30.587  1.00  0.00     0.167 HD
ATOM     57  C   UNL A   1      46.194  29.189  29.702  1.00  0.00     0.074 A 
ATOM     58  C   UNL A   1      46.560  30.016  28.572  1.00  0.00     0.031 C 
ATOM     59  C   UNL A   1      44.925  28.934  30.123  1.00  0.00     0.034 A 
BRANCH  46  60
ATOM     60  C   UNL A   1      39.510  29.200  29.435  1.00  0.00     0.023 A 
ATOM     61  C   UNL A   1      38.920  30.357  28.838  1.00  0.00     0.012 A 
ATOM     62  C   UNL A   1      39.231  28.968  30.791  1.00  0.00     0.148 A 
ATOM     63  C   UNL A   1      38.220  31.309  29.573  1.00  0.00     0.002 A 
ATOM     64  C   UNL A   1      38.477  29.901  31.513  1.00  0.00     0.091 A 
ATOM     65  F   UNL A   1      39.757  27.900  31.398  1.00  0.00    -0.205 F 
ATOM     66  C   UNL A   1      38.012  31.088  30.920  1.00  0.00     0.022 A 
BRANCH  64  67
ATOM     67  S   UNL A   1      38.057  29.686  33.248  1.00  0.00     0.127 S 
ATOM     68  O   UNL A   1      37.306  30.904  33.533  1.00  0.00    -0.237 OA
ATOM     69  O   UNL A   1      37.245  28.467  33.210  1.00  0.00    -0.237 OA
ATOM     70  O   UNL A   1      39.327  29.529  33.945  1.00  0.00    -0.744 OA
ENDBRANCH  64  67
ENDBRANCH  46  60
BRANCH  47  71
ATOM     71  C   UNL A   1      49.610  27.073  27.546  1.00  0.00     0.023 A 
ATOM     72  C   UNL A   1      50.675  26.640  28.345  1.00  0.00     0.012 A 
ATOM     73  C   UNL A   1      49.978  27.575  26.254  1.00  0.00     0.148 A 
ATOM     74  C   UNL A   1      51.998  26.608  27.852  1.00  0.00     0.002 A 
ATOM     75  C   UNL A   1      51.252  27.415  25.721  1.00  0.00     0.091 A 
ATOM     76  F   UNL A   1      49.090  28.257  25.526  1.00  0.00    -0.205 F 
ATOM     77  C   UNL A   1      52.280  26.943  26.527  1.00  0.00     0.022 A 
BRANCH  75  78
ATOM     78  S   UNL A   1      51.580  27.652  23.960  1.00  0.00     0.127 S 
ATOM     79  O   UNL A   1      52.929  27.108  23.816  1.00  0.00    -0.237 OA
ATOM     80  O   UNL A   1      50.522  26.840  23.358  1.00  0.00    -0.237 OA
ATOM     81  O   UNL A   1      51.464  29.083  23.707  1.00  0.00    -0.744 OA
ENDBRANCH  75  78
ENDBRANCH  47  71
BRANCH  59  82
ATOM     82  C   UNL A   1      44.803  27.938  31.277  1.00  0.00     0.023 A 
ATOM     83  C   UNL A   1      44.409  26.624  30.936  1.00  0.00     0.012 A 
ATOM     84  C   UNL A   1      44.963  28.218  32.656  1.00  0.00     0.148 A 
ATOM     85  C   UNL A   1      44.162  25.645  31.904  1.00  0.00     0.002 A 
ATOM     86  C   UNL A   1      44.708  27.240  33.630  1.00  0.00     0.091 A 
ATOM     87  F   UNL A   1      45.359  29.436  33.019  1.00  0.00    -0.205 F 
ATOM     88  C   UNL A   1      44.310  25.952  33.249  1.00  0.00     0.022 A 
BRANCH  86  89
ATOM     89  S   UNL A   1      44.800  27.532  35.412  1.00  0.00     0.127 S 
ATOM     90  O   UNL A   1      43.783  28.566  35.619  1.00  0.00    -0.237 OA
ATOM     91  O   UNL A   1      44.442  26.229  35.966  1.00  0.00    -0.237 OA
ATOM     92  O   UNL A   1      46.159  27.976  35.697  1.00  0.00    -0.744 OA
ENDBRANCH  86  89
ENDBRANCH  59  82
ENDBRANCH  33  34
ENDBRANCH  25  28
ENDBRANCH  23  24
ENDBRANCH  22  23
ENDBRANCH  21  22
ENDBRANCH   1  21
TORSDOF 20
ENDMDL
