MODEL 1
REMARK VINA RESULT:     -12.2      0.000      0.000
REMARK SMILES COc1cc(C)cc2c1[C@@H](C)[C@@H](CC(=O)N[C@@H](Cc1c[nH]c3ccccc13)C(=O)NCCCCCCNC(=O)c1ccc(-c3c4nc(c(-c5cccc(S(=O)(=O)[O-])c5F)c5ccc([nH]5)c(-c5cccc(S(=O)(=O)[O-])c5F)c5nc(c(-c6cccc(S(=O)(=O)[O-])c6F)c6ccc3[nH]6)C=C5)C=C4)cc1)C(=O)O2
REMARK SMILES IDX 33 1 32 2 31 3 30 4 28 5 29 6 17 8 16 9 14 10 15 11 13 13
REMARK SMILES IDX 12 14 3 15 4 16 9 17 5 18 8 19 10 20 6 21 7 22 105 23 11 24
REMARK SMILES IDX 103 25 104 26 2 27 1 28 18 29 19 30 20 31 27 32 21 33 22 34
REMARK SMILES IDX 26 35 23 37 25 38 24 39 34 40 35 41 36 42 37 43 38 44 39 46
REMARK SMILES IDX 40 47 41 48 102 49 42 50 101 51 43 52 44 53 45 54 95 55
REMARK SMILES IDX 46 56 100 57 94 58 96 59 47 60 99 61 93 62 92 63 48 65 80 66
REMARK SMILES IDX 60 67 79 68 61 69 64 70 78 71 97 72 62 73 63 74 77 76 98 77
REMARK SMILES IDX 65 78 49 79 50 80 58 81 51 82 53 83 59 84 52 85 54 86 55 87
REMARK SMILES IDX 56 88 57 89 81 90 82 91 90 92 83 93 85 94 91 95 84 96 86 97
REMARK SMILES IDX 87 98 88 99 89 100 66 101 67 102 75 103 68 104 70 105 76 106
REMARK SMILES IDX 69 107 71 108 72 109 73 110 74 111
REMARK H PARENT 30 7 16 12 21 36 37 45 96 64 64 75
REMARK Flexibility Score: inf
ROOT
ATOM      1  C   UNL A   1      38.143  22.051  25.747  1.00  0.00     0.002 C 
ENDROOT
BRANCH   1   2
ATOM      2  C   UNL A   1      37.704  23.443  25.286  1.00  0.00     0.021 C 
BRANCH   2   3
ATOM      3  C   UNL A   1      36.471  23.925  26.040  1.00  0.00     0.116 C 
BRANCH   3   4
ATOM      4  N   UNL A   1      35.802  22.805  26.644  1.00  0.00    -0.354 N 
ATOM      5  C   UNL A   1      34.507  22.439  26.520  1.00  0.00     0.242 C 
ATOM      6  O   UNL A   1      34.068  21.662  27.379  1.00  0.00    -0.273 OA
ATOM      7  H   UNL A   1      36.358  22.232  27.221  1.00  0.00     0.163 HD
BRANCH   5   8
ATOM      8  C   UNL A   1      33.589  22.910  25.368  1.00  0.00     0.175 C 
BRANCH   8   9
ATOM      9  N   UNL A   1      34.206  23.675  24.303  1.00  0.00    -0.344 N 
ATOM     10  C   UNL A   1      33.661  24.779  23.706  1.00  0.00     0.221 C 
ATOM     11  O   UNL A   1      33.912  25.014  22.526  1.00  0.00    -0.275 OA
ATOM     12  H   UNL A   1      35.087  23.375  23.984  1.00  0.00     0.164 HD
BRANCH  10  13
ATOM     13  C   UNL A   1      32.891  25.772  24.568  1.00  0.00     0.116 C 
BRANCH  13  14
ATOM     14  C   UNL A   1      31.351  25.634  24.690  1.00  0.00     0.116 C 
ATOM     15  C   UNL A   1      30.942  29.393  24.405  1.00  0.00     0.126 A 
ATOM     16  C   UNL A   1      31.462  30.448  25.177  1.00  0.00     0.050 A 
ATOM     17  C   UNL A   1      30.958  28.086  24.890  1.00  0.00     0.041 A 
ATOM     18  C   UNL A   1      32.006  30.217  26.450  1.00  0.00    -0.044 A 
ATOM     19  C   UNL A   1      31.371  27.912  26.222  1.00  0.00     0.138 A 
ATOM     20  C   UNL A   1      30.574  26.841  24.093  1.00  0.00     0.038 C 
ATOM     21  C   UNL A   1      32.599  31.340  27.246  1.00  0.00     0.044 C 
ATOM     22  C   UNL A   1      31.920  28.937  26.988  1.00  0.00     0.051 A 
ATOM     23  O   UNL A   1      31.214  26.684  26.883  1.00  0.00    -0.426 OA
ATOM     24  C   UNL A   1      30.780  26.889  22.576  1.00  0.00     0.014 C 
ATOM     25  C   UNL A   1      30.815  25.618  26.105  1.00  0.00     0.315 C 
ATOM     26  O   UNL A   1      30.077  24.745  26.547  1.00  0.00    -0.251 OA
BRANCH  15  27
ATOM     27  O   UNL A   1      30.291  29.631  23.226  1.00  0.00    -0.496 OA
ATOM     28  C   UNL A   1      29.061  30.330  23.382  1.00  0.00     0.278 C 
ENDBRANCH  15  27
ENDBRANCH  13  14
ENDBRANCH  10  13
ENDBRANCH   8   9
BRANCH   8  29
ATOM     29  C   UNL A   1      32.340  22.164  24.918  1.00  0.00     0.072 C 
BRANCH  29  30
ATOM     30  C   UNL A   1      32.230  20.895  24.117  1.00  0.00    -0.020 A 
ATOM     31  C   UNL A   1      31.790  21.006  22.803  1.00  0.00     0.087 A 
ATOM     32  C   UNL A   1      32.612  19.511  24.287  1.00  0.00     0.003 A 
ATOM     33  N   UNL A   1      32.153  19.887  22.129  1.00  0.00    -0.361 N 
ATOM     34  C   UNL A   1      32.522  18.916  23.019  1.00  0.00     0.046 A 
ATOM     35  C   UNL A   1      33.062  18.672  25.332  1.00  0.00     0.010 A 
ATOM     36  H   UNL A   1      32.151  19.788  21.149  1.00  0.00     0.166 HD
ATOM     37  C   UNL A   1      32.815  17.573  22.756  1.00  0.00     0.026 A 
ATOM     38  C   UNL A   1      33.322  17.308  25.094  1.00  0.00     0.001 A 
ATOM     39  C   UNL A   1      33.190  16.767  23.823  1.00  0.00     0.002 A 
ENDBRANCH  29  30
ENDBRANCH   8  29
ENDBRANCH   5   8
ENDBRANCH   3   4
ENDBRANCH   2   3
ENDBRANCH   1   2
BRANCH   1  40
ATOM     40  C   UNL A   1      37.782  20.929  24.765  1.00  0.00     0.002 C 
BRANCH  40  41
ATOM     41  C   UNL A   1      38.548  19.626  24.997  1.00  0.00     0.021 C 
BRANCH  41  42
ATOM     42  C   UNL A   1      39.346  19.621  26.293  1.00  0.00     0.116 C 
BRANCH  42  43
ATOM     43  N   UNL A   1      40.625  18.946  26.121  1.00  0.00    -0.352 N 
ATOM     44  C   UNL A   1      41.880  19.496  26.005  1.00  0.00     0.251 C 
ATOM     45  H   UNL A   1      40.585  17.963  26.082  1.00  0.00     0.163 HD
ATOM     46  O   UNL A   1      42.817  18.828  25.605  1.00  0.00    -0.269 OA
BRANCH  44  47
ATOM     47  C   UNL A   1      42.050  20.919  26.363  1.00  0.00     0.039 A 
ATOM     48  C   UNL A   1      41.906  21.898  25.377  1.00  0.00     0.014 A 
ATOM     49  C   UNL A   1      42.413  21.264  27.664  1.00  0.00     0.014 A 
ATOM     50  C   UNL A   1      42.300  23.199  25.647  1.00  0.00     0.010 A 
ATOM     51  C   UNL A   1      42.711  22.596  27.959  1.00  0.00     0.010 A 
ATOM     52  C   UNL A   1      42.705  23.564  26.941  1.00  0.00    -0.014 A 
BRANCH  52  53
ATOM     53  C   UNL A   1      43.109  24.967  27.202  1.00  0.00     0.031 A 
ATOM     54  C   UNL A   1      42.178  25.924  27.896  1.00  0.00     0.074 A 
ATOM     55  C   UNL A   1      44.345  25.364  26.842  1.00  0.00     0.049 A 
ATOM     56  N   UNL A   1      42.376  27.181  28.199  1.00  0.00    -0.248 NA
ATOM     57  C   UNL A   1      40.857  25.414  28.301  1.00  0.00     0.031 C 
ATOM     58  C   UNL A   1      45.333  24.526  26.156  1.00  0.00     0.029 A 
ATOM     59  N   UNL A   1      44.988  26.564  27.009  1.00  0.00    -0.354 N 
ATOM     60  C   UNL A   1      41.197  27.623  28.785  1.00  0.00     0.074 A 
ATOM     61  C   UNL A   1      40.283  26.503  28.797  1.00  0.00     0.031 C 
ATOM     62  C   UNL A   1      46.468  25.222  25.998  1.00  0.00     0.029 A 
ATOM     63  C   UNL A   1      46.267  26.573  26.509  1.00  0.00     0.049 A 
ATOM     64  H   UNL A   1      44.573  27.342  27.445  1.00  0.00     0.167 HD
ATOM     65  C   UNL A   1      40.910  28.848  29.283  1.00  0.00     0.034 A 
ATOM     66  C   UNL A   1      47.179  27.562  26.447  1.00  0.00     0.034 A 
ATOM     67  C   UNL A   1      41.840  29.944  29.317  1.00  0.00     0.049 A 
ATOM     68  C   UNL A   1      46.833  28.909  27.004  1.00  0.00     0.074 A 
ATOM     69  C   UNL A   1      41.652  31.208  29.849  1.00  0.00     0.029 A 
ATOM     70  N   UNL A   1      43.125  29.910  28.802  1.00  0.00    -0.354 N 
ATOM     71  N   UNL A   1      45.736  29.285  27.614  1.00  0.00    -0.248 NA
ATOM     72  C   UNL A   1      47.848  29.963  26.879  1.00  0.00     0.031 C 
ATOM     73  C   UNL A   1      42.821  31.945  29.642  1.00  0.00     0.029 A 
ATOM     74  C   UNL A   1      43.742  31.134  28.999  1.00  0.00     0.049 A 
ATOM     75  H   UNL A   1      43.538  29.132  28.362  1.00  0.00     0.167 HD
ATOM     76  C   UNL A   1      45.932  30.616  27.958  1.00  0.00     0.074 A 
ATOM     77  C   UNL A   1      47.259  30.976  27.505  1.00  0.00     0.031 C 
ATOM     78  C   UNL A   1      45.079  31.464  28.580  1.00  0.00     0.034 A 
BRANCH  65  79
ATOM     79  C   UNL A   1      39.549  29.075  29.881  1.00  0.00     0.023 A 
ATOM     80  C   UNL A   1      39.312  28.708  31.220  1.00  0.00     0.012 A 
ATOM     81  C   UNL A   1      38.551  29.758  29.160  1.00  0.00     0.148 A 
ATOM     82  C   UNL A   1      38.098  29.013  31.833  1.00  0.00     0.002 A 
ATOM     83  C   UNL A   1      37.354  30.086  29.786  1.00  0.00     0.091 A 
ATOM     84  F   UNL A   1      38.798  30.088  27.884  1.00  0.00    -0.205 F 
ATOM     85  C   UNL A   1      37.126  29.710  31.121  1.00  0.00     0.022 A 
BRANCH  83  86
ATOM     86  S   UNL A   1      36.057  31.029  28.979  1.00  0.00     0.127 S 
ATOM     87  O   UNL A   1      35.546  30.059  28.012  1.00  0.00    -0.237 OA
ATOM     88  O   UNL A   1      35.151  31.316  30.092  1.00  0.00    -0.237 OA
ATOM     89  O   UNL A   1      36.705  32.196  28.399  1.00  0.00    -0.744 OA
ENDBRANCH  83  86
ENDBRANCH  65  79
BRANCH  66  90
ATOM     90  C   UNL A   1      48.514  27.279  25.858  1.00  0.00     0.023 A 
ATOM     91  C   UNL A   1      48.666  27.289  24.460  1.00  0.00     0.012 A 
ATOM     92  C   UNL A   1      49.645  27.096  26.678  1.00  0.00     0.148 A 
ATOM     93  C   UNL A   1      49.924  27.117  23.885  1.00  0.00     0.002 A 
ATOM     94  C   UNL A   1      50.901  26.967  26.100  1.00  0.00     0.091 A 
ATOM     95  F   UNL A   1      49.469  27.095  28.006  1.00  0.00    -0.205 F 
ATOM     96  C   UNL A   1      51.042  26.969  24.703  1.00  0.00     0.022 A 
BRANCH  94  97
ATOM     97  S   UNL A   1      52.409  26.879  27.070  1.00  0.00     0.127 S 
ATOM     98  O   UNL A   1      53.427  26.771  26.027  1.00  0.00    -0.237 OA
ATOM     99  O   UNL A   1      52.384  28.160  27.777  1.00  0.00    -0.237 OA
ATOM    100  O   UNL A   1      52.265  25.709  27.925  1.00  0.00    -0.744 OA
ENDBRANCH  94  97
ENDBRANCH  66  90
BRANCH  78 101
ATOM    101  C   UNL A   1      45.543  32.870  28.834  1.00  0.00     0.023 A 
ATOM    102  C   UNL A   1      46.365  33.137  29.944  1.00  0.00     0.012 A 
ATOM    103  C   UNL A   1      45.274  33.891  27.902  1.00  0.00     0.148 A 
ATOM    104  C   UNL A   1      46.911  34.406  30.128  1.00  0.00     0.002 A 
ATOM    105  C   UNL A   1      45.849  35.143  28.072  1.00  0.00     0.091 A 
ATOM    106  F   UNL A   1      44.482  33.607  26.856  1.00  0.00    -0.205 F 
ATOM    107  C   UNL A   1      46.664  35.404  29.186  1.00  0.00     0.022 A 
BRANCH 105 108
ATOM    108  S   UNL A   1      45.651  36.469  26.878  1.00  0.00     0.127 S 
ATOM    109  O   UNL A   1      44.221  36.392  26.581  1.00  0.00    -0.237 OA
ATOM    110  O   UNL A   1      46.053  37.643  27.652  1.00  0.00    -0.237 OA
ATOM    111  O   UNL A   1      46.531  36.145  25.762  1.00  0.00    -0.744 OA
ENDBRANCH 105 108
ENDBRANCH  78 101
ENDBRANCH  52  53
ENDBRANCH  44  47
ENDBRANCH  42  43
ENDBRANCH  41  42
ENDBRANCH  40  41
ENDBRANCH   1  40
TORSDOF 22
ENDMDL
MODEL 2
REMARK VINA RESULT:     -11.6      2.591      7.902
REMARK SMILES COc1cc(C)cc2c1[C@@H](C)[C@@H](CC(=O)N[C@@H](Cc1c[nH]c3ccccc13)C(=O)NCCCCCCNC(=O)c1ccc(-c3c4nc(c(-c5cccc(S(=O)(=O)[O-])c5F)c5ccc([nH]5)c(-c5cccc(S(=O)(=O)[O-])c5F)c5nc(c(-c6cccc(S(=O)(=O)[O-])c6F)c6ccc3[nH]6)C=C5)C=C4)cc1)C(=O)O2
REMARK SMILES IDX 33 1 32 2 31 3 30 4 28 5 29 6 17 8 16 9 14 10 15 11 13 13
REMARK SMILES IDX 12 14 3 15 4 16 9 17 5 18 8 19 10 20 6 21 7 22 105 23 11 24
REMARK SMILES IDX 103 25 104 26 2 27 1 28 18 29 19 30 20 31 27 32 21 33 22 34
REMARK SMILES IDX 26 35 23 37 25 38 24 39 34 40 35 41 36 42 37 43 38 44 39 46
REMARK SMILES IDX 40 47 41 48 102 49 42 50 101 51 43 52 44 53 45 54 95 55
REMARK SMILES IDX 46 56 100 57 94 58 96 59 47 60 99 61 93 62 92 63 48 65 80 66
REMARK SMILES IDX 60 67 79 68 61 69 64 70 78 71 97 72 62 73 63 74 77 76 98 77
REMARK SMILES IDX 65 78 49 79 50 80 58 81 51 82 53 83 59 84 52 85 54 86 55 87
REMARK SMILES IDX 56 88 57 89 81 90 82 91 90 92 83 93 85 94 91 95 84 96 86 97
REMARK SMILES IDX 87 98 88 99 89 100 66 101 67 102 75 103 68 104 70 105 76 106
REMARK SMILES IDX 69 107 71 108 72 109 73 110 74 111
REMARK H PARENT 30 7 16 12 21 36 37 45 96 64 64 75
REMARK Flexibility Score: inf
ROOT
ATOM      1  C   UNL A   1      39.722  21.925  26.646  1.00  0.00     0.002 C 
ENDROOT
BRANCH   1   2
ATOM      2  C   UNL A   1      38.667  21.285  25.740  1.00  0.00     0.021 C 
BRANCH   2   3
ATOM      3  C   UNL A   1      37.614  22.293  25.298  1.00  0.00     0.116 C 
BRANCH   3   4
ATOM      4  N   UNL A   1      36.603  22.416  26.312  1.00  0.00    -0.354 N 
ATOM      5  C   UNL A   1      35.297  22.728  26.157  1.00  0.00     0.242 C 
ATOM      6  O   UNL A   1      34.696  23.111  27.171  1.00  0.00    -0.273 OA
ATOM      7  H   UNL A   1      36.900  22.252  27.237  1.00  0.00     0.163 HD
BRANCH   5   8
ATOM      8  C   UNL A   1      34.538  22.602  24.816  1.00  0.00     0.175 C 
BRANCH   8   9
ATOM      9  N   UNL A   1      34.826  23.594  23.799  1.00  0.00    -0.344 N 
ATOM     10  C   UNL A   1      34.002  24.630  23.451  1.00  0.00     0.221 C 
ATOM     11  O   UNL A   1      34.011  25.047  22.295  1.00  0.00    -0.275 OA
ATOM     12  H   UNL A   1      35.682  23.515  23.320  1.00  0.00     0.164 HD
BRANCH  10  13
ATOM     13  C   UNL A   1      33.219  25.342  24.547  1.00  0.00     0.116 C 
BRANCH  13  14
ATOM     14  C   UNL A   1      31.716  25.009  24.743  1.00  0.00     0.116 C 
ATOM     15  C   UNL A   1      30.786  28.641  24.175  1.00  0.00     0.126 A 
ATOM     16  C   UNL A   1      31.179  29.818  24.838  1.00  0.00     0.050 A 
ATOM     17  C   UNL A   1      30.996  27.393  24.762  1.00  0.00     0.041 A 
ATOM     18  C   UNL A   1      31.788  29.771  26.102  1.00  0.00    -0.044 A 
ATOM     19  C   UNL A   1      31.469  27.390  26.085  1.00  0.00     0.138 A 
ATOM     20  C   UNL A   1      30.764  26.046  24.084  1.00  0.00     0.038 C 
ATOM     21  C   UNL A   1      32.243  31.027  26.781  1.00  0.00     0.044 C 
ATOM     22  C   UNL A   1      31.894  28.542  26.744  1.00  0.00     0.051 A 
ATOM     23  O   UNL A   1      31.502  26.213  26.849  1.00  0.00    -0.426 OA
ATOM     24  C   UNL A   1      30.916  25.992  22.560  1.00  0.00     0.014 C 
ATOM     25  C   UNL A   1      31.230  25.041  26.175  1.00  0.00     0.315 C 
ATOM     26  O   UNL A   1      30.633  24.117  26.715  1.00  0.00    -0.251 OA
BRANCH  15  27
ATOM     27  O   UNL A   1      30.074  28.688  23.009  1.00  0.00    -0.496 OA
ATOM     28  C   UNL A   1      28.726  29.110  23.178  1.00  0.00     0.278 C 
ENDBRANCH  15  27
ENDBRANCH  13  14
ENDBRANCH  10  13
ENDBRANCH   8   9
BRANCH   8  29
ATOM     29  C   UNL A   1      34.051  21.281  24.236  1.00  0.00     0.072 C 
BRANCH  29  30
ATOM     30  C   UNL A   1      33.808  19.970  24.934  1.00  0.00    -0.020 A 
ATOM     31  C   UNL A   1      33.346  20.023  26.244  1.00  0.00     0.087 A 
ATOM     32  C   UNL A   1      33.776  18.574  24.562  1.00  0.00     0.003 A 
ATOM     33  N   UNL A   1      32.788  18.827  26.554  1.00  0.00    -0.361 N 
ATOM     34  C   UNL A   1      33.153  17.895  25.620  1.00  0.00     0.046 A 
ATOM     35  C   UNL A   1      34.153  17.778  23.456  1.00  0.00     0.010 A 
ATOM     36  H   UNL A   1      32.209  18.654  27.333  1.00  0.00     0.166 HD
ATOM     37  C   UNL A   1      32.924  16.515  25.647  1.00  0.00     0.026 A 
ATOM     38  C   UNL A   1      33.969  16.382  23.481  1.00  0.00     0.001 A 
ATOM     39  C   UNL A   1      33.371  15.761  24.569  1.00  0.00     0.002 A 
ENDBRANCH  29  30
ENDBRANCH   8  29
ENDBRANCH   5   8
ENDBRANCH   3   4
ENDBRANCH   2   3
ENDBRANCH   1   2
BRANCH   1  40
ATOM     40  C   UNL A   1      40.788  20.943  27.148  1.00  0.00     0.002 C 
BRANCH  40  41
ATOM     41  C   UNL A   1      42.222  21.350  26.805  1.00  0.00     0.021 C 
BRANCH  41  42
ATOM     42  C   UNL A   1      42.305  22.644  26.009  1.00  0.00     0.116 C 
BRANCH  42  43
ATOM     43  N   UNL A   1      43.524  22.695  25.213  1.00  0.00    -0.352 N 
ATOM     44  C   UNL A   1      44.313  23.781  24.915  1.00  0.00     0.251 C 
ATOM     45  H   UNL A   1      43.821  21.836  24.836  1.00  0.00     0.163 HD
ATOM     46  O   UNL A   1      45.146  23.720  24.028  1.00  0.00    -0.269 OA
BRANCH  44  47
ATOM     47  C   UNL A   1      44.107  25.022  25.690  1.00  0.00     0.039 A 
ATOM     48  C   UNL A   1      43.432  26.094  25.103  1.00  0.00     0.014 A 
ATOM     49  C   UNL A   1      44.643  25.131  26.972  1.00  0.00     0.014 A 
ATOM     50  C   UNL A   1      43.448  27.333  25.726  1.00  0.00     0.010 A 
ATOM     51  C   UNL A   1      44.568  26.355  27.641  1.00  0.00     0.010 A 
ATOM     52  C   UNL A   1      44.015  27.477  27.003  1.00  0.00    -0.014 A 
BRANCH  52  53
ATOM     53  C   UNL A   1      44.007  28.812  27.649  1.00  0.00     0.031 A 
ATOM     54  C   UNL A   1      45.186  29.739  27.523  1.00  0.00     0.074 A 
ATOM     55  C   UNL A   1      42.906  29.201  28.321  1.00  0.00     0.049 A 
ATOM     56  N   UNL A   1      45.340  30.937  28.025  1.00  0.00    -0.248 NA
ATOM     57  C   UNL A   1      46.340  29.268  26.739  1.00  0.00     0.031 C 
ATOM     58  C   UNL A   1      41.704  28.385  28.515  1.00  0.00     0.029 A 
ATOM     59  N   UNL A   1      42.611  30.381  28.954  1.00  0.00    -0.354 N 
ATOM     60  C   UNL A   1      46.617  31.343  27.660  1.00  0.00     0.074 A 
ATOM     61  C   UNL A   1      47.202  30.266  26.893  1.00  0.00     0.031 C 
ATOM     62  C   UNL A   1      40.789  29.101  29.183  1.00  0.00     0.029 A 
ATOM     63  C   UNL A   1      41.360  30.399  29.522  1.00  0.00     0.049 A 
ATOM     64  H   UNL A   1      43.235  31.141  28.998  1.00  0.00     0.167 HD
ATOM     65  C   UNL A   1      47.237  32.516  27.926  1.00  0.00     0.034 A 
ATOM     66  C   UNL A   1      40.740  31.345  30.253  1.00  0.00     0.034 A 
ATOM     67  C   UNL A   1      46.633  33.605  28.643  1.00  0.00     0.049 A 
ATOM     68  C   UNL A   1      41.453  32.632  30.534  1.00  0.00     0.074 A 
ATOM     69  C   UNL A   1      47.170  34.851  28.916  1.00  0.00     0.029 A 
ATOM     70  N   UNL A   1      45.365  33.582  29.199  1.00  0.00    -0.354 N 
ATOM     71  N   UNL A   1      42.635  33.021  30.122  1.00  0.00    -0.248 NA
ATOM     72  C   UNL A   1      40.748  33.616  31.367  1.00  0.00     0.031 C 
ATOM     73  C   UNL A   1      46.230  35.577  29.652  1.00  0.00     0.029 A 
ATOM     74  C   UNL A   1      45.102  34.791  29.818  1.00  0.00     0.049 A 
ATOM     75  H   UNL A   1      44.743  32.820  29.158  1.00  0.00     0.167 HD
ATOM     76  C   UNL A   1      42.812  34.300  30.633  1.00  0.00     0.074 A 
ATOM     77  C   UNL A   1      41.609  34.628  31.370  1.00  0.00     0.031 C 
ATOM     78  C   UNL A   1      43.883  35.119  30.512  1.00  0.00     0.034 A 
BRANCH  65  79
ATOM     79  C   UNL A   1      48.633  32.719  27.405  1.00  0.00     0.023 A 
ATOM     80  C   UNL A   1      48.829  33.460  26.223  1.00  0.00     0.012 A 
ATOM     81  C   UNL A   1      49.749  32.284  28.146  1.00  0.00     0.148 A 
ATOM     82  C   UNL A   1      50.116  33.762  25.782  1.00  0.00     0.002 A 
ATOM     83  C   UNL A   1      51.029  32.614  27.717  1.00  0.00     0.091 A 
ATOM     84  F   UNL A   1      49.535  31.572  29.261  1.00  0.00    -0.205 F 
ATOM     85  C   UNL A   1      51.214  33.349  26.534  1.00  0.00     0.022 A 
BRANCH  83  86
ATOM     86  S   UNL A   1      52.509  32.180  28.637  1.00  0.00     0.127 S 
ATOM     87  O   UNL A   1      52.319  30.744  28.838  1.00  0.00    -0.237 OA
ATOM     88  O   UNL A   1      53.569  32.529  27.693  1.00  0.00    -0.237 OA
ATOM     89  O   UNL A   1      52.480  32.981  29.852  1.00  0.00    -0.744 OA
ENDBRANCH  83  86
ENDBRANCH  65  79
BRANCH  66  90
ATOM     90  C   UNL A   1      39.355  31.097  30.731  1.00  0.00     0.023 A 
ATOM     91  C   UNL A   1      39.155  30.338  31.899  1.00  0.00     0.012 A 
ATOM     92  C   UNL A   1      38.249  31.688  30.089  1.00  0.00     0.148 A 
ATOM     93  C   UNL A   1      37.873  30.168  32.419  1.00  0.00     0.002 A 
ATOM     94  C   UNL A   1      36.981  31.549  30.636  1.00  0.00     0.091 A 
ATOM     95  F   UNL A   1      38.472  32.408  28.981  1.00  0.00    -0.205 F 
ATOM     96  C   UNL A   1      36.788  30.783  31.796  1.00  0.00     0.022 A 
BRANCH  94  97
ATOM     97  S   UNL A   1      35.541  32.389  29.969  1.00  0.00     0.127 S 
ATOM     98  O   UNL A   1      36.073  33.723  29.699  1.00  0.00    -0.237 OA
ATOM     99  O   UNL A   1      35.253  31.587  28.779  1.00  0.00    -0.237 OA
ATOM    100  O   UNL A   1      34.523  32.322  31.008  1.00  0.00    -0.744 OA
ENDBRANCH  94  97
ENDBRANCH  66  90
BRANCH  78 101
ATOM    101  C   UNL A   1      43.819  36.466  31.172  1.00  0.00     0.023 A 
ATOM    102  C   UNL A   1      44.074  36.572  32.552  1.00  0.00     0.012 A 
ATOM    103  C   UNL A   1      43.640  37.632  30.403  1.00  0.00     0.148 A 
ATOM    104  C   UNL A   1      44.146  37.824  33.162  1.00  0.00     0.002 A 
ATOM    105  C   UNL A   1      43.747  38.877  31.009  1.00  0.00     0.091 A 
ATOM    106  F   UNL A   1      43.393  37.499  29.091  1.00  0.00    -0.205 F 
ATOM    107  C   UNL A   1      43.996  38.975  32.389  1.00  0.00     0.022 A 
BRANCH 105 108
ATOM    108  S   UNL A   1      43.644  40.415  30.089  1.00  0.00     0.127 S 
ATOM    109  O   UNL A   1      42.286  40.347  29.548  1.00  0.00    -0.237 OA
ATOM    110  O   UNL A   1      43.835  41.415  31.138  1.00  0.00    -0.237 OA
ATOM    111  O   UNL A   1      44.706  40.364  29.093  1.00  0.00    -0.744 OA
ENDBRANCH 105 108
ENDBRANCH  78 101
ENDBRANCH  52  53
ENDBRANCH  44  47
ENDBRANCH  42  43
ENDBRANCH  41  42
ENDBRANCH  40  41
ENDBRANCH   1  40
TORSDOF 22
ENDMDL
MODEL 3
REMARK VINA RESULT:     -10.8      2.892      4.375
REMARK SMILES COc1cc(C)cc2c1[C@@H](C)[C@@H](CC(=O)N[C@@H](Cc1c[nH]c3ccccc13)C(=O)NCCCCCCNC(=O)c1ccc(-c3c4nc(c(-c5cccc(S(=O)(=O)[O-])c5F)c5ccc([nH]5)c(-c5cccc(S(=O)(=O)[O-])c5F)c5nc(c(-c6cccc(S(=O)(=O)[O-])c6F)c6ccc3[nH]6)C=C5)C=C4)cc1)C(=O)O2
REMARK SMILES IDX 33 1 32 2 31 3 30 4 28 5 29 6 17 8 16 9 14 10 15 11 13 13
REMARK SMILES IDX 12 14 3 15 4 16 9 17 5 18 8 19 10 20 6 21 7 22 105 23 11 24
REMARK SMILES IDX 103 25 104 26 2 27 1 28 18 29 19 30 20 31 27 32 21 33 22 34
REMARK SMILES IDX 26 35 23 37 25 38 24 39 34 40 35 41 36 42 37 43 38 44 39 46
REMARK SMILES IDX 40 47 41 48 102 49 42 50 101 51 43 52 44 53 45 54 95 55
REMARK SMILES IDX 46 56 100 57 94 58 96 59 47 60 99 61 93 62 92 63 48 65 80 66
REMARK SMILES IDX 60 67 79 68 61 69 64 70 78 71 97 72 62 73 63 74 77 76 98 77
REMARK SMILES IDX 65 78 49 79 50 80 58 81 51 82 53 83 59 84 52 85 54 86 55 87
REMARK SMILES IDX 56 88 57 89 81 90 82 91 90 92 83 93 85 94 91 95 84 96 86 97
REMARK SMILES IDX 87 98 88 99 89 100 66 101 67 102 75 103 68 104 70 105 76 106
REMARK SMILES IDX 69 107 71 108 72 109 73 110 74 111
REMARK H PARENT 30 7 16 12 21 36 37 45 96 64 64 75
REMARK Flexibility Score: inf
ROOT
ATOM      1  C   UNL A   1      38.749  23.191  26.319  1.00  0.00     0.002 C 
ENDROOT
BRANCH   1   2
ATOM      2  C   UNL A   1      37.624  23.118  25.284  1.00  0.00     0.021 C 
BRANCH   2   3
ATOM      3  C   UNL A   1      36.348  23.781  25.789  1.00  0.00     0.116 C 
BRANCH   3   4
ATOM      4  N   UNL A   1      35.691  22.916  26.731  1.00  0.00    -0.354 N 
ATOM      5  C   UNL A   1      34.420  22.456  26.698  1.00  0.00     0.242 C 
ATOM      6  O   UNL A   1      33.965  22.015  27.763  1.00  0.00    -0.273 OA
ATOM      7  H   UNL A   1      36.236  22.622  27.497  1.00  0.00     0.163 HD
BRANCH   5   8
ATOM      8  C   UNL A   1      33.551  22.428  25.420  1.00  0.00     0.175 C 
BRANCH   8   9
ATOM      9  N   UNL A   1      34.184  22.837  24.182  1.00  0.00    -0.344 N 
ATOM     10  C   UNL A   1      33.714  23.805  23.336  1.00  0.00     0.221 C 
ATOM     11  O   UNL A   1      33.930  23.710  22.130  1.00  0.00    -0.275 OA
ATOM     12  H   UNL A   1      35.019  22.380  23.929  1.00  0.00     0.164 HD
BRANCH  10  13
ATOM     13  C   UNL A   1      33.079  25.054  23.935  1.00  0.00     0.116 C 
BRANCH  13  14
ATOM     14  C   UNL A   1      31.547  25.082  24.179  1.00  0.00     0.116 C 
ATOM     15  C   UNL A   1      31.590  28.870  24.330  1.00  0.00     0.126 A 
ATOM     16  C   UNL A   1      32.294  29.761  25.160  1.00  0.00     0.050 A 
ATOM     17  C   UNL A   1      31.479  27.522  24.671  1.00  0.00     0.041 A 
ATOM     18  C   UNL A   1      32.900  29.323  26.348  1.00  0.00    -0.044 A 
ATOM     19  C   UNL A   1      31.967  27.149  25.935  1.00  0.00     0.138 A 
ATOM     20  C   UNL A   1      30.884  26.431  23.785  1.00  0.00     0.038 C 
ATOM     21  C   UNL A   1      33.687  30.270  27.202  1.00  0.00     0.044 C 
ATOM     22  C   UNL A   1      32.696  28.008  26.753  1.00  0.00     0.051 A 
ATOM     23  O   UNL A   1      31.708  25.879  26.474  1.00  0.00    -0.426 OA
ATOM     24  C   UNL A   1      30.979  26.630  22.268  1.00  0.00     0.014 C 
ATOM     25  C   UNL A   1      31.122  24.964  25.625  1.00  0.00     0.315 C 
ATOM     26  O   UNL A   1      30.316  24.136  26.036  1.00  0.00    -0.251 OA
BRANCH  15  27
ATOM     27  O   UNL A   1      30.886  29.316  23.246  1.00  0.00    -0.496 OA
ATOM     28  C   UNL A   1      29.638  29.912  23.579  1.00  0.00     0.278 C 
ENDBRANCH  15  27
ENDBRANCH  13  14
ENDBRANCH  10  13
ENDBRANCH   8   9
BRANCH   8  29
ATOM     29  C   UNL A   1      32.387  21.470  25.204  1.00  0.00     0.072 C 
BRANCH  29  30
ATOM     30  C   UNL A   1      32.359  20.165  24.456  1.00  0.00    -0.020 A 
ATOM     31  C   UNL A   1      32.147  20.222  23.083  1.00  0.00     0.087 A 
ATOM     32  C   UNL A   1      32.651  18.781  24.751  1.00  0.00     0.003 A 
ATOM     33  N   UNL A   1      32.571  19.058  22.531  1.00  0.00    -0.361 N 
ATOM     34  C   UNL A   1      32.747  18.123  23.515  1.00  0.00     0.046 A 
ATOM     35  C   UNL A   1      32.888  17.983  25.894  1.00  0.00     0.010 A 
ATOM     36  H   UNL A   1      32.727  18.908  21.571  1.00  0.00     0.166 HD
ATOM     37  C   UNL A   1      33.025  16.759  23.366  1.00  0.00     0.026 A 
ATOM     38  C   UNL A   1      33.128  16.601  25.766  1.00  0.00     0.001 A 
ATOM     39  C   UNL A   1      33.185  15.998  24.517  1.00  0.00     0.002 A 
ENDBRANCH  29  30
ENDBRANCH   8  29
ENDBRANCH   5   8
ENDBRANCH   3   4
ENDBRANCH   2   3
ENDBRANCH   1   2
BRANCH   1  40
ATOM     40  C   UNL A   1      39.495  21.864  26.519  1.00  0.00     0.002 C 
BRANCH  40  41
ATOM     41  C   UNL A   1      41.002  21.954  26.279  1.00  0.00     0.021 C 
BRANCH  41  42
ATOM     42  C   UNL A   1      41.499  23.382  26.103  1.00  0.00     0.116 C 
BRANCH  42  43
ATOM     43  N   UNL A   1      42.759  23.415  25.375  1.00  0.00    -0.352 N 
ATOM     44  C   UNL A   1      43.638  24.462  25.221  1.00  0.00     0.251 C 
ATOM     45  H   UNL A   1      43.016  22.575  24.932  1.00  0.00     0.163 HD
ATOM     46  O   UNL A   1      44.511  24.421  24.372  1.00  0.00    -0.269 OA
BRANCH  44  47
ATOM     47  C   UNL A   1      43.477  25.638  26.100  1.00  0.00     0.039 A 
ATOM     48  C   UNL A   1      42.943  26.819  25.578  1.00  0.00     0.014 A 
ATOM     49  C   UNL A   1      43.917  25.577  27.421  1.00  0.00     0.014 A 
ATOM     50  C   UNL A   1      43.016  27.986  26.323  1.00  0.00     0.010 A 
ATOM     51  C   UNL A   1      43.893  26.733  28.204  1.00  0.00     0.010 A 
ATOM     52  C   UNL A   1      43.489  27.956  27.644  1.00  0.00    -0.014 A 
BRANCH  52  53
ATOM     53  C   UNL A   1      43.544  29.219  28.420  1.00  0.00     0.031 A 
ATOM     54  C   UNL A   1      42.359  29.686  29.223  1.00  0.00     0.074 A 
ATOM     55  C   UNL A   1      44.689  29.928  28.427  1.00  0.00     0.049 A 
ATOM     56  N   UNL A   1      42.242  30.764  29.954  1.00  0.00    -0.248 NA
ATOM     57  C   UNL A   1      41.152  28.843  29.205  1.00  0.00     0.031 C 
ATOM     58  C   UNL A   1      45.902  29.577  27.681  1.00  0.00     0.029 A 
ATOM     59  N   UNL A   1      45.030  31.080  29.089  1.00  0.00    -0.354 N 
ATOM     60  C   UNL A   1      40.943  30.754  30.444  1.00  0.00     0.074 A 
ATOM     61  C   UNL A   1      40.304  29.563  29.930  1.00  0.00     0.031 C 
ATOM     62  C   UNL A   1      46.863  30.470  27.958  1.00  0.00     0.029 A 
ATOM     63  C   UNL A   1      46.318  31.490  28.845  1.00  0.00     0.049 A 
ATOM     64  H   UNL A   1      44.411  31.565  29.681  1.00  0.00     0.167 HD
ATOM     65  C   UNL A   1      40.343  31.648  31.264  1.00  0.00     0.034 A 
ATOM     66  C   UNL A   1      46.988  32.578  29.270  1.00  0.00     0.034 A 
ATOM     67  C   UNL A   1      40.998  32.802  31.816  1.00  0.00     0.049 A 
ATOM     68  C   UNL A   1      46.298  33.553  30.175  1.00  0.00     0.074 A 
ATOM     69  C   UNL A   1      40.482  33.738  32.696  1.00  0.00     0.029 A 
ATOM     70  N   UNL A   1      42.302  33.180  31.545  1.00  0.00    -0.354 N 
ATOM     71  N   UNL A   1      45.090  33.488  30.679  1.00  0.00    -0.248 NA
ATOM     72  C   UNL A   1      47.061  34.741  30.580  1.00  0.00     0.031 C 
ATOM     73  C   UNL A   1      41.473  34.691  32.947  1.00  0.00     0.029 A 
ATOM     74  C   UNL A   1      42.609  34.338  32.238  1.00  0.00     0.049 A 
ATOM     75  H   UNL A   1      42.919  32.697  30.950  1.00  0.00     0.167 HD
ATOM     76  C   UNL A   1      44.950  34.619  31.472  1.00  0.00     0.074 A 
ATOM     77  C   UNL A   1      46.203  35.343  31.396  1.00  0.00     0.031 C 
ATOM     78  C   UNL A   1      43.874  35.024  32.186  1.00  0.00     0.034 A 
BRANCH  65  79
ATOM     79  C   UNL A   1      38.914  31.405  31.663  1.00  0.00     0.023 A 
ATOM     80  C   UNL A   1      38.636  30.575  32.767  1.00  0.00     0.012 A 
ATOM     81  C   UNL A   1      37.861  32.089  31.025  1.00  0.00     0.148 A 
ATOM     82  C   UNL A   1      37.329  30.426  33.228  1.00  0.00     0.002 A 
ATOM     83  C   UNL A   1      36.565  31.960  31.509  1.00  0.00     0.091 A 
ATOM     84  F   UNL A   1      38.152  32.865  29.970  1.00  0.00    -0.205 F 
ATOM     85  C   UNL A   1      36.297  31.126  32.608  1.00  0.00     0.022 A 
BRANCH  83  86
ATOM     86  S   UNL A   1      35.172  32.858  30.818  1.00  0.00     0.127 S 
ATOM     87  O   UNL A   1      34.133  32.601  31.814  1.00  0.00    -0.237 OA
ATOM     88  O   UNL A   1      35.673  34.232  30.800  1.00  0.00    -0.237 OA
ATOM     89  O   UNL A   1      34.925  32.278  29.506  1.00  0.00    -0.744 OA
ENDBRANCH  83  86
ENDBRANCH  65  79
BRANCH  66  90
ATOM     90  C   UNL A   1      48.404  32.762  28.856  1.00  0.00     0.023 A 
ATOM     91  C   UNL A   1      49.406  31.984  29.462  1.00  0.00     0.012 A 
ATOM     92  C   UNL A   1      48.743  33.635  27.803  1.00  0.00     0.148 A 
ATOM     93  C   UNL A   1      50.728  32.073  29.028  1.00  0.00     0.002 A 
ATOM     94  C   UNL A   1      50.054  33.687  27.348  1.00  0.00     0.091 A 
ATOM     95  F   UNL A   1      47.766  34.360  27.244  1.00  0.00    -0.205 F 
ATOM     96  C   UNL A   1      51.050  32.913  27.964  1.00  0.00     0.022 A 
BRANCH  94  97
ATOM     97  S   UNL A   1      50.545  34.656  25.919  1.00  0.00     0.127 S 
ATOM     98  O   UNL A   1      50.676  35.992  26.496  1.00  0.00    -0.237 OA
ATOM     99  O   UNL A   1      51.808  34.018  25.546  1.00  0.00    -0.237 OA
ATOM    100  O   UNL A   1      49.474  34.500  24.944  1.00  0.00    -0.744 OA
ENDBRANCH  94  97
ENDBRANCH  66  90
BRANCH  78 101
ATOM    101  C   UNL A   1      43.986  36.303  32.966  1.00  0.00     0.023 A 
ATOM    102  C   UNL A   1      44.394  36.258  34.312  1.00  0.00     0.012 A 
ATOM    103  C   UNL A   1      43.816  37.547  32.328  1.00  0.00     0.148 A 
ATOM    104  C   UNL A   1      44.629  37.438  35.017  1.00  0.00     0.002 A 
ATOM    105  C   UNL A   1      44.085  38.718  33.025  1.00  0.00     0.091 A 
ATOM    106  F   UNL A   1      43.421  37.557  31.046  1.00  0.00    -0.205 F 
ATOM    107  C   UNL A   1      44.486  38.665  34.371  1.00  0.00     0.022 A 
BRANCH 105 108
ATOM    108  S   UNL A   1      44.003  40.340  32.262  1.00  0.00     0.127 S 
ATOM    109  O   UNL A   1      42.567  40.482  32.019  1.00  0.00    -0.237 OA
ATOM    110  O   UNL A   1      44.533  41.204  33.316  1.00  0.00    -0.237 OA
ATOM    111  O   UNL A   1      44.826  40.266  31.062  1.00  0.00    -0.744 OA
ENDBRANCH 105 108
ENDBRANCH  78 101
ENDBRANCH  52  53
ENDBRANCH  44  47
ENDBRANCH  42  43
ENDBRANCH  41  42
ENDBRANCH  40  41
ENDBRANCH   1  40
TORSDOF 22
ENDMDL
