MODEL 1
REMARK VINA RESULT:     -10.4      0.000      0.000
REMARK SMILES O=C(CCCN1C(=O)/C(=C/c2ccccc2Cl)SC1=S)Nc1cccc(C(=O)NCCCCCCNC(=O)c2ccc(-c3c4nc(c(-c5cccc(S(=O)(=O)[O-])c5F)c5ccc([nH]5)c(-c5cccc(S(=O)(=O)[O-])c5F)c5nc(c(-c6cccc(S(=O)(=O)[O-])c6F)c6ccc3[nH]6)C=C5)C=C4)cc2)c1
REMARK SMILES IDX 31 1 30 2 29 3 27 4 28 5 26 7 22 8 23 9 102 10 24 11 25 12
REMARK SMILES IDX 21 13 1 14 2 15 3 17 4 18 5 19 6 20 7 21 19 22 8 23 9 24
REMARK SMILES IDX 18 25 20 26 10 27 11 28 12 29 16 30 13 31 15 32 17 33 14 34
REMARK SMILES IDX 32 35 33 36 34 37 35 38 36 39 37 40 38 42 39 43 40 44 101 45
REMARK SMILES IDX 41 46 100 47 42 48 43 49 44 50 94 51 45 52 99 53 93 54 95 55
REMARK SMILES IDX 46 56 98 57 92 58 91 59 47 61 79 62 59 63 78 64 60 65 63 66
REMARK SMILES IDX 77 67 96 68 61 69 62 70 76 72 97 73 64 74 48 75 49 76 57 77
REMARK SMILES IDX 50 78 52 79 58 80 51 81 53 82 54 83 55 84 56 85 80 86 81 87
REMARK SMILES IDX 89 88 82 89 84 90 90 91 83 92 85 93 86 94 87 95 88 96 65 97
REMARK SMILES IDX 66 98 74 99 67 100 69 101 75 102 68 103 70 104 71 105 72 106
REMARK SMILES IDX 73 107
REMARK H PARENT 29 6 21 16 36 41 95 60 63 71
REMARK Flexibility Score: inf
ROOT
ATOM      1  C   UNL A   1      34.556  33.989  30.588  1.00  0.00     0.021 C 
ENDROOT
BRANCH   1   2
ATOM      2  C   UNL A   1      35.067  34.291  29.185  1.00  0.00     0.116 C 
BRANCH   2   3
ATOM      3  N   UNL A   1      36.473  34.677  29.138  1.00  0.00    -0.352 N 
ATOM      4  C   UNL A   1      37.596  33.891  29.006  1.00  0.00     0.251 C 
ATOM      5  O   UNL A   1      38.711  34.408  29.052  1.00  0.00    -0.269 OA
ATOM      6  H   UNL A   1      36.643  35.643  29.213  1.00  0.00     0.163 HD
BRANCH   4   7
ATOM      7  C   UNL A   1      37.480  32.416  28.887  1.00  0.00     0.041 A 
ATOM      8  C   UNL A   1      36.348  30.479  27.990  1.00  0.00     0.041 A 
ATOM      9  C   UNL A   1      36.963  29.688  28.971  1.00  0.00     0.026 A 
ATOM     10  C   UNL A   1      36.690  31.824  27.898  1.00  0.00     0.040 A 
ATOM     11  C   UNL A   1      37.871  30.248  29.872  1.00  0.00     0.003 A 
ATOM     12  C   UNL A   1      38.115  31.618  29.845  1.00  0.00     0.014 A 
BRANCH   8  13
ATOM     13  N   UNL A   1      35.283  29.901  27.260  1.00  0.00    -0.326 N 
ATOM     14  O   UNL A   1      33.487  31.223  27.848  1.00  0.00    -0.275 OA
ATOM     15  C   UNL A   1      33.937  30.173  27.392  1.00  0.00     0.224 C 
ATOM     16  H   UNL A   1      35.530  29.231  26.583  1.00  0.00     0.169 HD
BRANCH  15  17
ATOM     17  C   UNL A   1      32.979  29.013  27.086  1.00  0.00     0.102 C 
BRANCH  17  18
ATOM     18  C   UNL A   1      31.913  29.132  25.995  1.00  0.00     0.032 C 
BRANCH  18  19
ATOM     19  C   UNL A   1      31.324  27.876  25.317  1.00  0.00     0.128 C 
BRANCH  19  20
ATOM     20  N   UNL A   1      32.227  26.753  25.049  1.00  0.00    -0.293 N 
ATOM     21  C   UNL A   1      32.169  25.653  25.901  1.00  0.00     0.266 C 
ATOM     22  C   UNL A   1      32.950  26.554  23.888  1.00  0.00     0.148 C 
ATOM     23  O   UNL A   1      31.395  25.501  26.836  1.00  0.00    -0.268 OA
ATOM     24  C   UNL A   1      33.093  24.586  25.439  1.00  0.00     0.081 C 
ATOM     25  S   UNL A   1      33.876  25.072  23.993  1.00  0.00    -0.054 SA
ATOM     26  S   UNL A   1      32.958  27.435  22.475  1.00  0.00    -0.052 S 
ATOM     27  C   UNL A   1      33.246  23.418  26.078  1.00  0.00     0.031 C 
BRANCH  27  28
ATOM     28  C   UNL A   1      34.229  22.412  25.650  1.00  0.00    -0.006 A 
ATOM     29  C   UNL A   1      35.593  22.666  25.856  1.00  0.00     0.010 A 
ATOM     30  C   UNL A   1      33.834  21.165  25.133  1.00  0.00     0.048 A 
ATOM     31  C   UNL A   1      36.541  21.679  25.577  1.00  0.00     0.001 A 
ATOM     32  C   UNL A   1      34.784  20.181  24.864  1.00  0.00     0.021 A 
ATOM     33  Cl  UNL A   1      32.171  20.789  24.834  1.00  0.00    -0.084 Cl
ATOM     34  C   UNL A   1      36.136  20.435  25.091  1.00  0.00     0.002 A 
ENDBRANCH  27  28
ENDBRANCH  19  20
ENDBRANCH  18  19
ENDBRANCH  17  18
ENDBRANCH  15  17
ENDBRANCH   8  13
ENDBRANCH   4   7
ENDBRANCH   2   3
ENDBRANCH   1   2
BRANCH   1  35
ATOM     35  C   UNL A   1      34.717  32.542  31.057  1.00  0.00     0.002 C 
BRANCH  35  36
ATOM     36  C   UNL A   1      35.288  32.354  32.465  1.00  0.00     0.002 C 
BRANCH  36  37
ATOM     37  C   UNL A   1      35.281  33.593  33.363  1.00  0.00     0.021 C 
BRANCH  37  38
ATOM     38  C   UNL A   1      36.610  33.923  34.034  1.00  0.00     0.116 C 
BRANCH  38  39
ATOM     39  N   UNL A   1      36.720  33.357  35.370  1.00  0.00    -0.352 N 
ATOM     40  C   UNL A   1      37.572  32.384  35.839  1.00  0.00     0.251 C 
ATOM     41  H   UNL A   1      36.094  33.724  36.034  1.00  0.00     0.163 HD
ATOM     42  O   UNL A   1      37.415  31.919  36.960  1.00  0.00    -0.269 OA
BRANCH  40  43
ATOM     43  C   UNL A   1      38.667  31.888  34.976  1.00  0.00     0.039 A 
ATOM     44  C   UNL A   1      38.371  30.967  33.967  1.00  0.00     0.014 A 
ATOM     45  C   UNL A   1      39.981  32.329  35.160  1.00  0.00     0.014 A 
ATOM     46  C   UNL A   1      39.381  30.538  33.102  1.00  0.00     0.010 A 
ATOM     47  C   UNL A   1      40.968  31.957  34.252  1.00  0.00     0.010 A 
ATOM     48  C   UNL A   1      40.681  31.056  33.216  1.00  0.00    -0.014 A 
BRANCH  48  49
ATOM     49  C   UNL A   1      41.754  30.680  32.259  1.00  0.00     0.031 A 
ATOM     50  C   UNL A   1      42.482  29.372  32.415  1.00  0.00     0.074 A 
ATOM     51  C   UNL A   1      42.142  31.557  31.311  1.00  0.00     0.049 A 
ATOM     52  N   UNL A   1      43.505  28.910  31.743  1.00  0.00    -0.248 NA
ATOM     53  C   UNL A   1      42.016  28.475  33.486  1.00  0.00     0.031 C 
ATOM     54  C   UNL A   1      41.562  32.885  31.100  1.00  0.00     0.029 A 
ATOM     55  N   UNL A   1      43.137  31.477  30.369  1.00  0.00    -0.354 N 
ATOM     56  C   UNL A   1      43.831  27.695  32.332  1.00  0.00     0.074 A 
ATOM     57  C   UNL A   1      42.915  27.502  33.436  1.00  0.00     0.031 C 
ATOM     58  C   UNL A   1      42.214  33.496  30.098  1.00  0.00     0.029 A 
ATOM     59  C   UNL A   1      43.280  32.622  29.619  1.00  0.00     0.049 A 
ATOM     60  H   UNL A   1      43.697  30.677  30.242  1.00  0.00     0.167 HD
ATOM     61  C   UNL A   1      44.790  26.808  31.974  1.00  0.00     0.034 A 
ATOM     62  C   UNL A   1      44.180  32.941  28.668  1.00  0.00     0.034 A 
ATOM     63  C   UNL A   1      45.673  26.986  30.853  1.00  0.00     0.049 A 
ATOM     64  C   UNL A   1      45.219  31.927  28.272  1.00  0.00     0.074 A 
ATOM     65  C   UNL A   1      46.616  26.106  30.356  1.00  0.00     0.029 A 
ATOM     66  N   UNL A   1      45.731  28.125  30.064  1.00  0.00    -0.354 N 
ATOM     67  N   UNL A   1      45.414  30.719  28.742  1.00  0.00    -0.248 NA
ATOM     68  C   UNL A   1      46.142  32.306  27.191  1.00  0.00     0.031 C 
ATOM     69  C   UNL A   1      47.271  26.725  29.286  1.00  0.00     0.029 A 
ATOM     70  C   UNL A   1      46.705  27.975  29.092  1.00  0.00     0.049 A 
ATOM     71  H   UNL A   1      45.164  28.921  30.179  1.00  0.00     0.167 HD
ATOM     72  C   UNL A   1      46.452  30.180  27.990  1.00  0.00     0.074 A 
ATOM     73  C   UNL A   1      46.835  31.187  27.023  1.00  0.00     0.031 C 
ATOM     74  C   UNL A   1      47.041  28.963  28.099  1.00  0.00     0.034 A 
BRANCH  61  75
ATOM     75  C   UNL A   1      44.912  25.540  32.781  1.00  0.00     0.023 A 
ATOM     76  C   UNL A   1      44.314  24.353  32.310  1.00  0.00     0.012 A 
ATOM     77  C   UNL A   1      45.668  25.509  33.969  1.00  0.00     0.148 A 
ATOM     78  C   UNL A   1      44.435  23.165  33.028  1.00  0.00     0.002 A 
ATOM     79  C   UNL A   1      45.824  24.311  34.654  1.00  0.00     0.091 A 
ATOM     80  F   UNL A   1      46.213  26.651  34.411  1.00  0.00    -0.205 F 
ATOM     81  C   UNL A   1      45.198  23.140  34.192  1.00  0.00     0.022 A 
BRANCH  79  82
ATOM     82  S   UNL A   1      46.853  24.157  36.118  1.00  0.00     0.127 S 
ATOM     83  O   UNL A   1      48.164  24.549  35.600  1.00  0.00    -0.237 OA
ATOM     84  O   UNL A   1      46.242  25.127  37.027  1.00  0.00    -0.237 OA
ATOM     85  O   UNL A   1      46.743  22.769  36.546  1.00  0.00    -0.744 OA
ENDBRANCH  79  82
ENDBRANCH  61  75
BRANCH  62  86
ATOM     86  C   UNL A   1      44.108  34.266  27.988  1.00  0.00     0.023 A 
ATOM     87  C   UNL A   1      43.366  34.398  26.799  1.00  0.00     0.012 A 
ATOM     88  C   UNL A   1      44.753  35.398  28.524  1.00  0.00     0.148 A 
ATOM     89  C   UNL A   1      43.296  35.623  26.135  1.00  0.00     0.002 A 
ATOM     90  C   UNL A   1      44.634  36.629  27.889  1.00  0.00     0.091 A 
ATOM     91  F   UNL A   1      45.461  35.250  29.653  1.00  0.00    -0.205 F 
ATOM     92  C   UNL A   1      43.921  36.740  26.685  1.00  0.00     0.022 A 
BRANCH  90  93
ATOM     93  S   UNL A   1      45.301  38.143  28.586  1.00  0.00     0.127 S 
ATOM     94  O   UNL A   1      44.650  38.184  29.893  1.00  0.00    -0.237 OA
ATOM     95  O   UNL A   1      46.734  37.852  28.618  1.00  0.00    -0.237 OA
ATOM     96  O   UNL A   1      44.923  39.204  27.662  1.00  0.00    -0.744 OA
ENDBRANCH  90  93
ENDBRANCH  62  86
BRANCH  74  97
ATOM     97  C   UNL A   1      48.131  28.619  27.119  1.00  0.00     0.023 A 
ATOM     98  C   UNL A   1      49.482  28.679  27.515  1.00  0.00     0.012 A 
ATOM     99  C   UNL A   1      47.808  28.147  25.831  1.00  0.00     0.148 A 
ATOM    100  C   UNL A   1      50.495  28.300  26.634  1.00  0.00     0.002 A 
ATOM    101  C   UNL A   1      48.817  27.721  24.978  1.00  0.00     0.091 A 
ATOM    102  F   UNL A   1      46.516  28.115  25.469  1.00  0.00    -0.205 F 
ATOM    103  C   UNL A   1      50.163  27.809  25.372  1.00  0.00     0.022 A 
BRANCH 101 104
ATOM    104  S   UNL A   1      48.481  26.981  23.376  1.00  0.00     0.127 S 
ATOM    105  O   UNL A   1      49.824  26.878  22.809  1.00  0.00    -0.237 OA
ATOM    106  O   UNL A   1      47.876  25.702  23.748  1.00  0.00    -0.237 OA
ATOM    107  O   UNL A   1      47.584  27.899  22.687  1.00  0.00    -0.744 OA
ENDBRANCH 101 104
ENDBRANCH  74  97
ENDBRANCH  48  49
ENDBRANCH  40  43
ENDBRANCH  38  39
ENDBRANCH  37  38
ENDBRANCH  36  37
ENDBRANCH  35  36
ENDBRANCH   1  35
TORSDOF 22
ENDMDL
MODEL 2
REMARK VINA RESULT:      -9.9      1.446      7.188
REMARK SMILES O=C(CCCN1C(=O)/C(=C/c2ccccc2Cl)SC1=S)Nc1cccc(C(=O)NCCCCCCNC(=O)c2ccc(-c3c4nc(c(-c5cccc(S(=O)(=O)[O-])c5F)c5ccc([nH]5)c(-c5cccc(S(=O)(=O)[O-])c5F)c5nc(c(-c6cccc(S(=O)(=O)[O-])c6F)c6ccc3[nH]6)C=C5)C=C4)cc2)c1
REMARK SMILES IDX 31 1 30 2 29 3 27 4 28 5 26 7 22 8 23 9 102 10 24 11 25 12
REMARK SMILES IDX 21 13 1 14 2 15 3 17 4 18 5 19 6 20 7 21 19 22 8 23 9 24
REMARK SMILES IDX 18 25 20 26 10 27 11 28 12 29 16 30 13 31 15 32 17 33 14 34
REMARK SMILES IDX 32 35 33 36 34 37 35 38 36 39 37 40 38 42 39 43 40 44 101 45
REMARK SMILES IDX 41 46 100 47 42 48 43 49 44 50 94 51 45 52 99 53 93 54 95 55
REMARK SMILES IDX 46 56 98 57 92 58 91 59 47 61 79 62 59 63 78 64 60 65 63 66
REMARK SMILES IDX 77 67 96 68 61 69 62 70 76 72 97 73 64 74 48 75 49 76 57 77
REMARK SMILES IDX 50 78 52 79 58 80 51 81 53 82 54 83 55 84 56 85 80 86 81 87
REMARK SMILES IDX 89 88 82 89 84 90 90 91 83 92 85 93 86 94 87 95 88 96 65 97
REMARK SMILES IDX 66 98 74 99 67 100 69 101 75 102 68 103 70 104 71 105 72 106
REMARK SMILES IDX 73 107
REMARK H PARENT 29 6 21 16 36 41 95 60 63 71
REMARK Flexibility Score: inf
ROOT
ATOM      1  C   UNL A   1      34.438  34.125  30.190  1.00  0.00     0.021 C 
ENDROOT
BRANCH   1   2
ATOM      2  C   UNL A   1      35.140  34.230  28.842  1.00  0.00     0.116 C 
BRANCH   2   3
ATOM      3  N   UNL A   1      36.556  34.567  28.939  1.00  0.00    -0.352 N 
ATOM      4  C   UNL A   1      37.649  33.740  29.078  1.00  0.00     0.251 C 
ATOM      5  O   UNL A   1      38.771  34.227  29.207  1.00  0.00    -0.269 OA
ATOM      6  H   UNL A   1      36.761  35.528  28.899  1.00  0.00     0.163 HD
BRANCH   4   7
ATOM      7  C   UNL A   1      37.480  32.267  29.155  1.00  0.00     0.041 A 
ATOM      8  C   UNL A   1      36.373  30.253  28.408  1.00  0.00     0.041 A 
ATOM      9  C   UNL A   1      36.832  29.595  29.558  1.00  0.00     0.026 A 
ATOM     10  C   UNL A   1      36.785  31.560  28.170  1.00  0.00     0.040 A 
ATOM     11  C   UNL A   1      37.653  30.254  30.476  1.00  0.00     0.003 A 
ATOM     12  C   UNL A   1      37.961  31.599  30.286  1.00  0.00     0.014 A 
BRANCH   8  13
ATOM     13  N   UNL A   1      35.374  29.606  27.642  1.00  0.00    -0.326 N 
ATOM     14  O   UNL A   1      33.759  31.238  27.429  1.00  0.00    -0.275 OA
ATOM     15  C   UNL A   1      34.095  30.055  27.389  1.00  0.00     0.224 C 
ATOM     16  H   UNL A   1      35.621  28.739  27.246  1.00  0.00     0.169 HD
BRANCH  15  17
ATOM     17  C   UNL A   1      33.022  28.973  27.202  1.00  0.00     0.102 C 
BRANCH  17  18
ATOM     18  C   UNL A   1      32.032  29.032  26.038  1.00  0.00     0.032 C 
BRANCH  18  19
ATOM     19  C   UNL A   1      31.399  27.746  25.465  1.00  0.00     0.128 C 
BRANCH  19  20
ATOM     20  N   UNL A   1      32.286  26.618  25.166  1.00  0.00    -0.293 N 
ATOM     21  C   UNL A   1      32.189  25.483  25.967  1.00  0.00     0.266 C 
ATOM     22  C   UNL A   1      33.030  26.457  24.013  1.00  0.00     0.148 C 
ATOM     23  O   UNL A   1      31.393  25.305  26.878  1.00  0.00    -0.268 OA
ATOM     24  C   UNL A   1      33.103  24.420  25.478  1.00  0.00     0.081 C 
ATOM     25  S   UNL A   1      33.927  24.954  24.071  1.00  0.00    -0.054 SA
ATOM     26  S   UNL A   1      33.086  27.399  22.641  1.00  0.00    -0.052 S 
ATOM     27  C   UNL A   1      33.221  23.222  26.067  1.00  0.00     0.031 C 
BRANCH  27  28
ATOM     28  C   UNL A   1      34.194  22.217  25.615  1.00  0.00    -0.006 A 
ATOM     29  C   UNL A   1      35.544  22.378  25.958  1.00  0.00     0.010 A 
ATOM     30  C   UNL A   1      33.793  21.051  24.937  1.00  0.00     0.048 A 
ATOM     31  C   UNL A   1      36.471  21.378  25.653  1.00  0.00     0.001 A 
ATOM     32  C   UNL A   1      34.721  20.053  24.642  1.00  0.00     0.021 A 
ATOM     33  Cl  UNL A   1      32.148  20.794  24.464  1.00  0.00    -0.084 Cl
ATOM     34  C   UNL A   1      36.057  20.213  25.005  1.00  0.00     0.002 A 
ENDBRANCH  27  28
ENDBRANCH  19  20
ENDBRANCH  18  19
ENDBRANCH  17  18
ENDBRANCH  15  17
ENDBRANCH   8  13
ENDBRANCH   4   7
ENDBRANCH   2   3
ENDBRANCH   1   2
BRANCH   1  35
ATOM     35  C   UNL A   1      34.417  32.733  30.823  1.00  0.00     0.002 C 
BRANCH  35  36
ATOM     36  C   UNL A   1      34.937  32.642  32.259  1.00  0.00     0.002 C 
BRANCH  36  37
ATOM     37  C   UNL A   1      34.397  33.688  33.236  1.00  0.00     0.021 C 
BRANCH  37  38
ATOM     38  C   UNL A   1      35.452  34.527  33.949  1.00  0.00     0.116 C 
BRANCH  38  39
ATOM     39  N   UNL A   1      35.569  34.200  35.362  1.00  0.00    -0.352 N 
ATOM     40  C   UNL A   1      36.531  33.462  36.012  1.00  0.00     0.251 C 
ATOM     41  H   UNL A   1      34.854  34.558  35.936  1.00  0.00     0.163 HD
ATOM     42  O   UNL A   1      36.382  33.157  37.187  1.00  0.00    -0.269 OA
BRANCH  40  43
ATOM     43  C   UNL A   1      37.740  33.024  35.279  1.00  0.00     0.039 A 
ATOM     44  C   UNL A   1      38.951  33.680  35.516  1.00  0.00     0.014 A 
ATOM     45  C   UNL A   1      37.680  31.970  34.363  1.00  0.00     0.014 A 
ATOM     46  C   UNL A   1      40.115  33.237  34.883  1.00  0.00     0.010 A 
ATOM     47  C   UNL A   1      38.853  31.485  33.789  1.00  0.00     0.010 A 
ATOM     48  C   UNL A   1      40.082  32.114  34.040  1.00  0.00    -0.014 A 
BRANCH  48  49
ATOM     49  C   UNL A   1      41.318  31.572  33.418  1.00  0.00     0.031 A 
ATOM     50  C   UNL A   1      41.946  32.278  32.246  1.00  0.00     0.074 A 
ATOM     51  C   UNL A   1      41.817  30.394  33.841  1.00  0.00     0.049 A 
ATOM     52  N   UNL A   1      42.966  31.912  31.512  1.00  0.00    -0.248 NA
ATOM     53  C   UNL A   1      41.333  33.548  31.827  1.00  0.00     0.031 C 
ATOM     54  C   UNL A   1      41.260  29.578  34.922  1.00  0.00     0.029 A 
ATOM     55  N   UNL A   1      42.888  29.661  33.392  1.00  0.00    -0.354 N 
ATOM     56  C   UNL A   1      43.089  32.880  30.523  1.00  0.00     0.074 A 
ATOM     57  C   UNL A   1      42.023  33.836  30.733  1.00  0.00     0.031 C 
ATOM     58  C   UNL A   1      41.989  28.458  35.049  1.00  0.00     0.029 A 
ATOM     59  C   UNL A   1      43.040  28.455  34.037  1.00  0.00     0.049 A 
ATOM     60  H   UNL A   1      43.490  29.967  32.675  1.00  0.00     0.167 HD
ATOM     61  C   UNL A   1      44.019  32.979  29.543  1.00  0.00     0.034 A 
ATOM     62  C   UNL A   1      43.914  27.450  33.826  1.00  0.00     0.034 A 
ATOM     63  C   UNL A   1      45.099  32.047  29.361  1.00  0.00     0.049 A 
ATOM     64  C   UNL A   1      44.952  27.597  32.747  1.00  0.00     0.074 A 
ATOM     65  C   UNL A   1      46.142  32.109  28.455  1.00  0.00     0.029 A 
ATOM     66  N   UNL A   1      45.269  30.880  30.090  1.00  0.00    -0.354 N 
ATOM     67  N   UNL A   1      45.145  28.594  31.918  1.00  0.00    -0.248 NA
ATOM     68  C   UNL A   1      45.915  26.496  32.594  1.00  0.00     0.031 C 
ATOM     69  C   UNL A   1      46.925  30.960  28.612  1.00  0.00     0.029 A 
ATOM     70  C   UNL A   1      46.392  30.205  29.644  1.00  0.00     0.049 A 
ATOM     71  H   UNL A   1      44.678  30.577  30.816  1.00  0.00     0.167 HD
ATOM     72  C   UNL A   1      46.272  28.260  31.175  1.00  0.00     0.074 A 
ATOM     73  C   UNL A   1      46.728  26.975  31.661  1.00  0.00     0.031 C 
ATOM     74  C   UNL A   1      46.868  28.952  30.172  1.00  0.00     0.034 A 
BRANCH  61  75
ATOM     75  C   UNL A   1      43.934  34.159  28.609  1.00  0.00     0.023 A 
ATOM     76  C   UNL A   1      43.370  33.997  27.327  1.00  0.00     0.012 A 
ATOM     77  C   UNL A   1      44.353  35.439  29.022  1.00  0.00     0.148 A 
ATOM     78  C   UNL A   1      43.259  35.080  26.458  1.00  0.00     0.002 A 
ATOM     79  C   UNL A   1      44.196  36.523  28.168  1.00  0.00     0.091 A 
ATOM     80  F   UNL A   1      44.904  35.571  30.237  1.00  0.00    -0.205 F 
ATOM     81  C   UNL A   1      43.662  36.344  26.881  1.00  0.00     0.022 A 
BRANCH  79  82
ATOM     82  S   UNL A   1      44.607  38.205  28.649  1.00  0.00     0.127 S 
ATOM     83  O   UNL A   1      43.754  38.393  29.822  1.00  0.00    -0.237 OA
ATOM     84  O   UNL A   1      46.036  38.100  28.944  1.00  0.00    -0.237 OA
ATOM     85  O   UNL A   1      44.282  39.043  27.503  1.00  0.00    -0.744 OA
ENDBRANCH  79  82
ENDBRANCH  61  75
BRANCH  62  86
ATOM     86  C   UNL A   1      43.874  26.234  34.687  1.00  0.00     0.023 A 
ATOM     87  C   UNL A   1      43.026  25.165  34.342  1.00  0.00     0.012 A 
ATOM     88  C   UNL A   1      44.685  26.124  35.833  1.00  0.00     0.148 A 
ATOM     89  C   UNL A   1      42.958  24.023  35.139  1.00  0.00     0.002 A 
ATOM     90  C   UNL A   1      44.656  24.961  36.594  1.00  0.00     0.091 A 
ATOM     91  F   UNL A   1      45.480  27.156  36.150  1.00  0.00    -0.205 F 
ATOM     92  C   UNL A   1      43.780  23.917  36.259  1.00  0.00     0.022 A 
BRANCH  90  93
ATOM     93  S   UNL A   1      45.763  24.685  37.980  1.00  0.00     0.127 S 
ATOM     94  O   UNL A   1      45.051  25.349  39.069  1.00  0.00    -0.237 OA
ATOM     95  O   UNL A   1      45.789  23.225  38.059  1.00  0.00    -0.237 OA
ATOM     96  O   UNL A   1      47.032  25.290  37.599  1.00  0.00    -0.744 OA
ENDBRANCH  90  93
ENDBRANCH  62  86
BRANCH  74  97
ATOM     97  C   UNL A   1      48.113  28.369  29.558  1.00  0.00     0.023 A 
ATOM     98  C   UNL A   1      49.383  28.776  30.013  1.00  0.00     0.012 A 
ATOM     99  C   UNL A   1      48.019  27.348  28.591  1.00  0.00     0.148 A 
ATOM    100  C   UNL A   1      50.540  28.195  29.495  1.00  0.00     0.002 A 
ATOM    101  C   UNL A   1      49.173  26.736  28.119  1.00  0.00     0.091 A 
ATOM    102  F   UNL A   1      46.801  26.988  28.160  1.00  0.00    -0.205 F 
ATOM    103  C   UNL A   1      50.436  27.167  28.560  1.00  0.00     0.022 A 
BRANCH 101 104
ATOM    104  S   UNL A   1      49.134  25.339  26.991  1.00  0.00     0.127 S 
ATOM    105  O   UNL A   1      48.164  24.460  27.641  1.00  0.00    -0.237 OA
ATOM    106  O   UNL A   1      48.664  25.956  25.751  1.00  0.00    -0.237 OA
ATOM    107  O   UNL A   1      50.497  24.827  26.934  1.00  0.00    -0.744 OA
ENDBRANCH 101 104
ENDBRANCH  74  97
ENDBRANCH  48  49
ENDBRANCH  40  43
ENDBRANCH  38  39
ENDBRANCH  37  38
ENDBRANCH  36  37
ENDBRANCH  35  36
ENDBRANCH   1  35
TORSDOF 22
ENDMDL
MODEL 3
REMARK VINA RESULT:      -9.3      4.490      7.993
REMARK SMILES O=C(CCCN1C(=O)/C(=C/c2ccccc2Cl)SC1=S)Nc1cccc(C(=O)NCCCCCCNC(=O)c2ccc(-c3c4nc(c(-c5cccc(S(=O)(=O)[O-])c5F)c5ccc([nH]5)c(-c5cccc(S(=O)(=O)[O-])c5F)c5nc(c(-c6cccc(S(=O)(=O)[O-])c6F)c6ccc3[nH]6)C=C5)C=C4)cc2)c1
REMARK SMILES IDX 31 1 30 2 29 3 27 4 28 5 26 7 22 8 23 9 102 10 24 11 25 12
REMARK SMILES IDX 21 13 1 14 2 15 3 17 4 18 5 19 6 20 7 21 19 22 8 23 9 24
REMARK SMILES IDX 18 25 20 26 10 27 11 28 12 29 16 30 13 31 15 32 17 33 14 34
REMARK SMILES IDX 32 35 33 36 34 37 35 38 36 39 37 40 38 42 39 43 40 44 101 45
REMARK SMILES IDX 41 46 100 47 42 48 43 49 44 50 94 51 45 52 99 53 93 54 95 55
REMARK SMILES IDX 46 56 98 57 92 58 91 59 47 61 79 62 59 63 78 64 60 65 63 66
REMARK SMILES IDX 77 67 96 68 61 69 62 70 76 72 97 73 64 74 48 75 49 76 57 77
REMARK SMILES IDX 50 78 52 79 58 80 51 81 53 82 54 83 55 84 56 85 80 86 81 87
REMARK SMILES IDX 89 88 82 89 84 90 90 91 83 92 85 93 86 94 87 95 88 96 65 97
REMARK SMILES IDX 66 98 74 99 67 100 69 101 75 102 68 103 70 104 71 105 72 106
REMARK SMILES IDX 73 107
REMARK H PARENT 29 6 21 16 36 41 95 60 63 71
REMARK Flexibility Score: inf
ROOT
ATOM      1  C   UNL A   1      39.356  25.854  27.621  1.00  0.00     0.021 C 
ENDROOT
BRANCH   1   2
ATOM      2  C   UNL A   1      39.907  24.790  26.680  1.00  0.00     0.116 C 
BRANCH   2   3
ATOM      3  N   UNL A   1      40.586  23.693  27.361  1.00  0.00    -0.352 N 
ATOM      4  C   UNL A   1      40.380  22.335  27.261  1.00  0.00     0.251 C 
ATOM      5  O   UNL A   1      41.022  21.567  27.975  1.00  0.00    -0.269 OA
ATOM      6  H   UNL A   1      41.297  23.965  27.984  1.00  0.00     0.163 HD
BRANCH   4   7
ATOM      7  C   UNL A   1      39.334  21.791  26.359  1.00  0.00     0.041 A 
ATOM      8  C   UNL A   1      37.027  21.723  25.644  1.00  0.00     0.041 A 
ATOM      9  C   UNL A   1      37.283  20.506  24.995  1.00  0.00     0.026 A 
ATOM     10  C   UNL A   1      38.084  22.404  26.239  1.00  0.00     0.040 A 
ATOM     11  C   UNL A   1      38.569  19.960  24.985  1.00  0.00     0.003 A 
ATOM     12  C   UNL A   1      39.592  20.592  25.686  1.00  0.00     0.014 A 
BRANCH   8  13
ATOM     13  N   UNL A   1      35.674  22.104  25.805  1.00  0.00    -0.326 N 
ATOM     14  O   UNL A   1      35.562  24.091  24.640  1.00  0.00    -0.275 OA
ATOM     15  C   UNL A   1      35.104  23.316  25.479  1.00  0.00     0.224 C 
ATOM     16  H   UNL A   1      35.073  21.427  26.193  1.00  0.00     0.169 HD
BRANCH  15  17
ATOM     17  C   UNL A   1      33.918  23.762  26.347  1.00  0.00     0.102 C 
BRANCH  17  18
ATOM     18  C   UNL A   1      32.812  22.781  26.741  1.00  0.00     0.032 C 
BRANCH  18  19
ATOM     19  C   UNL A   1      31.549  22.614  25.868  1.00  0.00     0.128 C 
BRANCH  19  20
ATOM     20  N   UNL A   1      31.204  23.698  24.944  1.00  0.00    -0.293 N 
ATOM     21  C   UNL A   1      30.689  24.874  25.484  1.00  0.00     0.266 C 
ATOM     22  C   UNL A   1      31.575  23.778  23.615  1.00  0.00     0.148 C 
ATOM     23  O   UNL A   1      30.540  25.121  26.672  1.00  0.00    -0.268 OA
ATOM     24  C   UNL A   1      30.467  25.883  24.417  1.00  0.00     0.081 C 
ATOM     25  S   UNL A   1      30.963  25.254  22.900  1.00  0.00    -0.054 SA
ATOM     26  S   UNL A   1      32.547  22.767  22.718  1.00  0.00    -0.052 S 
ATOM     27  C   UNL A   1      29.970  27.105  24.652  1.00  0.00     0.031 C 
BRANCH  27  28
ATOM     28  C   UNL A   1      29.679  28.056  23.570  1.00  0.00    -0.006 A 
ATOM     29  C   UNL A   1      28.348  28.247  23.173  1.00  0.00     0.010 A 
ATOM     30  C   UNL A   1      30.687  28.850  22.992  1.00  0.00     0.048 A 
ATOM     31  C   UNL A   1      28.027  29.233  22.237  1.00  0.00     0.001 A 
ATOM     32  C   UNL A   1      30.361  29.839  22.064  1.00  0.00     0.021 A 
ATOM     33  Cl  UNL A   1      32.354  28.657  23.418  1.00  0.00    -0.084 Cl
ATOM     34  C   UNL A   1      29.032  30.034  21.692  1.00  0.00     0.002 A 
ENDBRANCH  27  28
ENDBRANCH  19  20
ENDBRANCH  18  19
ENDBRANCH  17  18
ENDBRANCH  15  17
ENDBRANCH   8  13
ENDBRANCH   4   7
ENDBRANCH   2   3
ENDBRANCH   1   2
BRANCH   1  35
ATOM     35  C   UNL A   1      39.966  27.249  27.477  1.00  0.00     0.002 C 
BRANCH  35  36
ATOM     36  C   UNL A   1      39.580  28.264  28.555  1.00  0.00     0.002 C 
BRANCH  36  37
ATOM     37  C   UNL A   1      38.142  28.783  28.505  1.00  0.00     0.021 C 
BRANCH  37  38
ATOM     38  C   UNL A   1      37.945  30.218  28.982  1.00  0.00     0.116 C 
BRANCH  38  39
ATOM     39  N   UNL A   1      37.171  30.299  30.212  1.00  0.00    -0.352 N 
ATOM     40  C   UNL A   1      37.498  29.874  31.479  1.00  0.00     0.251 C 
ATOM     41  H   UNL A   1      36.285  30.718  30.124  1.00  0.00     0.163 HD
ATOM     42  O   UNL A   1      36.654  29.882  32.366  1.00  0.00    -0.269 OA
BRANCH  40  43
ATOM     43  C   UNL A   1      38.868  29.389  31.762  1.00  0.00     0.039 A 
ATOM     44  C   UNL A   1      39.051  28.054  32.132  1.00  0.00     0.014 A 
ATOM     45  C   UNL A   1      39.966  30.247  31.661  1.00  0.00     0.014 A 
ATOM     46  C   UNL A   1      40.342  27.563  32.338  1.00  0.00     0.010 A 
ATOM     47  C   UNL A   1      41.255  29.738  31.795  1.00  0.00     0.010 A 
ATOM     48  C   UNL A   1      41.457  28.392  32.138  1.00  0.00    -0.014 A 
BRANCH  48  49
ATOM     49  C   UNL A   1      42.845  27.875  32.271  1.00  0.00     0.031 A 
ATOM     50  C   UNL A   1      43.563  27.970  33.590  1.00  0.00     0.074 A 
ATOM     51  C   UNL A   1      43.493  27.414  31.183  1.00  0.00     0.049 A 
ATOM     52  N   UNL A   1      44.802  27.663  33.880  1.00  0.00    -0.248 NA
ATOM     53  C   UNL A   1      42.798  28.504  34.729  1.00  0.00     0.031 C 
ATOM     54  C   UNL A   1      42.930  27.335  29.833  1.00  0.00     0.029 A 
ATOM     55  N   UNL A   1      44.778  26.954  31.032  1.00  0.00    -0.354 N 
ATOM     56  C   UNL A   1      44.977  28.004  35.215  1.00  0.00     0.074 A 
ATOM     57  C   UNL A   1      43.726  28.568  35.673  1.00  0.00     0.031 C 
ATOM     58  C   UNL A   1      43.864  26.861  28.993  1.00  0.00     0.029 A 
ATOM     59  C   UNL A   1      45.102  26.638  29.733  1.00  0.00     0.049 A 
ATOM     60  H   UNL A   1      45.409  26.860  31.783  1.00  0.00     0.167 HD
ATOM     61  C   UNL A   1      46.071  27.842  35.997  1.00  0.00     0.034 A 
ATOM     62  C   UNL A   1      46.269  26.233  29.193  1.00  0.00     0.034 A 
ATOM     63  C   UNL A   1      47.300  27.246  35.547  1.00  0.00     0.049 A 
ATOM     64  C   UNL A   1      47.462  26.037  30.089  1.00  0.00     0.074 A 
ATOM     65  C   UNL A   1      48.433  26.955  36.285  1.00  0.00     0.029 A 
ATOM     66  N   UNL A   1      47.562  26.860  34.242  1.00  0.00    -0.354 N 
ATOM     67  N   UNL A   1      47.562  26.224  31.382  1.00  0.00    -0.248 NA
ATOM     68  C   UNL A   1      48.694  25.542  29.457  1.00  0.00     0.031 C 
ATOM     69  C   UNL A   1      49.394  26.425  35.419  1.00  0.00     0.029 A 
ATOM     70  C   UNL A   1      48.844  26.348  34.150  1.00  0.00     0.049 A 
ATOM     71  H   UNL A   1      46.929  26.938  33.492  1.00  0.00     0.167 HD
ATOM     72  C   UNL A   1      48.850  25.832  31.726  1.00  0.00     0.074 A 
ATOM     73  C   UNL A   1      49.491  25.384  30.507  1.00  0.00     0.031 C 
ATOM     74  C   UNL A   1      49.452  25.853  32.941  1.00  0.00     0.034 A 
BRANCH  61  75
ATOM     75  C   UNL A   1      45.978  28.281  37.436  1.00  0.00     0.023 A 
ATOM     76  C   UNL A   1      45.596  27.353  38.426  1.00  0.00     0.012 A 
ATOM     77  C   UNL A   1      46.329  29.592  37.816  1.00  0.00     0.148 A 
ATOM     78  C   UNL A   1      45.528  27.732  39.766  1.00  0.00     0.002 A 
ATOM     79  C   UNL A   1      46.304  29.949  39.158  1.00  0.00     0.091 A 
ATOM     80  F   UNL A   1      46.671  30.466  36.858  1.00  0.00    -0.205 F 
ATOM     81  C   UNL A   1      45.892  29.025  40.133  1.00  0.00     0.022 A 
BRANCH  79  82
ATOM     82  S   UNL A   1      46.832  31.564  39.741  1.00  0.00     0.127 S 
ATOM     83  O   UNL A   1      46.699  31.411  41.190  1.00  0.00    -0.237 OA
ATOM     84  O   UNL A   1      48.212  31.630  39.260  1.00  0.00    -0.237 OA
ATOM     85  O   UNL A   1      45.928  32.529  39.133  1.00  0.00    -0.744 OA
ENDBRANCH  79  82
ENDBRANCH  61  75
BRANCH  62  86
ATOM     86  C   UNL A   1      46.353  25.940  27.733  1.00  0.00     0.023 A 
ATOM     87  C   UNL A   1      45.804  24.744  27.232  1.00  0.00     0.012 A 
ATOM     88  C   UNL A   1      46.955  26.847  26.840  1.00  0.00     0.148 A 
ATOM     89  C   UNL A   1      45.883  24.440  25.873  1.00  0.00     0.002 A 
ATOM     90  C   UNL A   1      46.982  26.564  25.479  1.00  0.00     0.091 A 
ATOM     91  F   UNL A   1      47.480  27.976  27.338  1.00  0.00    -0.205 F 
ATOM     92  C   UNL A   1      46.463  25.353  24.996  1.00  0.00     0.022 A 
BRANCH  90  93
ATOM     93  S   UNL A   1      47.598  27.732  24.262  1.00  0.00     0.127 S 
ATOM     94  O   UNL A   1      47.675  26.902  23.063  1.00  0.00    -0.237 OA
ATOM     95  O   UNL A   1      46.537  28.739  24.249  1.00  0.00    -0.237 OA
ATOM     96  O   UNL A   1      48.873  28.208  24.780  1.00  0.00    -0.744 OA
ENDBRANCH  90  93
ENDBRANCH  62  86
BRANCH  74  97
ATOM     97  C   UNL A   1      50.861  25.330  33.038  1.00  0.00     0.023 A 
ATOM     98  C   UNL A   1      51.937  26.225  33.207  1.00  0.00     0.012 A 
ATOM     99  C   UNL A   1      51.107  23.942  33.052  1.00  0.00     0.148 A 
ATOM    100  C   UNL A   1      53.238  25.745  33.361  1.00  0.00     0.002 A 
ATOM    101  C   UNL A   1      52.396  23.472  33.260  1.00  0.00     0.091 A 
ATOM    102  F   UNL A   1      50.070  23.109  32.872  1.00  0.00    -0.205 F 
ATOM    103  C   UNL A   1      53.466  24.371  33.402  1.00  0.00     0.022 A 
BRANCH 101 104
ATOM    104  S   UNL A   1      52.771  21.723  33.428  1.00  0.00     0.127 S 
ATOM    105  O   UNL A   1      54.223  21.745  33.597  1.00  0.00    -0.237 OA
ATOM    106  O   UNL A   1      52.022  21.361  34.631  1.00  0.00    -0.237 OA
ATOM    107  O   UNL A   1      52.297  21.089  32.205  1.00  0.00    -0.744 OA
ENDBRANCH 101 104
ENDBRANCH  74  97
ENDBRANCH  48  49
ENDBRANCH  40  43
ENDBRANCH  38  39
ENDBRANCH  37  38
ENDBRANCH  36  37
ENDBRANCH  35  36
ENDBRANCH   1  35
TORSDOF 22
ENDMDL
