MODEL 1
REMARK VINA RESULT:     -10.7      0.000      0.000
REMARK SMILES O=C(CCCc1csc2ccccc12)NCCCCCCNC(=O)c1ccc(-c2c3nc(c(-c4cccc(S(=O)(=O)[O-])c4F)c4ccc([nH]4)c(-c4cccc(S(=O)(=O)[O-])c4F)c4nc(c(-c5cccc(S(=O)(=O)[O-])c5F)c5ccc2[nH]5)C=C4)C=C3)cc1
REMARK SMILES IDX 18 1 17 2 16 3 15 4 1 5 2 6 3 8 4 9 5 10 6 11 7 12 14 13
REMARK SMILES IDX 8 14 9 15 13 16 10 17 12 18 11 19 19 20 20 21 21 22 22 23
REMARK SMILES IDX 23 24 24 26 25 27 26 28 87 29 27 30 86 31 28 32 29 33 30 34
REMARK SMILES IDX 80 35 31 36 85 37 79 38 81 39 32 40 84 41 78 42 77 43 33 45
REMARK SMILES IDX 65 46 45 47 64 48 46 49 49 50 63 51 82 52 47 53 48 54 62 56
REMARK SMILES IDX 83 57 50 58 34 59 35 60 43 61 36 62 38 63 44 64 37 65 39 66
REMARK SMILES IDX 40 67 41 68 42 69 66 70 67 71 75 72 68 73 70 74 76 75 69 76
REMARK SMILES IDX 71 77 72 78 73 79 74 80 51 81 52 82 60 83 53 84 55 85 61 86
REMARK SMILES IDX 54 87 56 88 57 89 58 90 59 91
REMARK H PARENT 15 7 22 25 81 44 49 55
REMARK Flexibility Score: inf
ROOT
ATOM      1  C   UNL A   1      33.093  28.944  26.588  1.00  0.00     0.002 C 
ENDROOT
BRANCH   1   2
ATOM      2  C   UNL A   1      32.245  27.843  27.233  1.00  0.00     0.021 C 
BRANCH   2   3
ATOM      3  C   UNL A   1      30.981  27.473  26.457  1.00  0.00     0.116 C 
BRANCH   3   4
ATOM      4  N   UNL A   1      31.184  26.307  25.622  1.00  0.00    -0.356 N 
ATOM      5  O   UNL A   1      29.800  24.903  26.804  1.00  0.00    -0.275 OA
ATOM      6  C   UNL A   1      30.568  25.106  25.869  1.00  0.00     0.220 C 
ATOM      7  H   UNL A   1      31.787  26.378  24.847  1.00  0.00     0.163 HD
BRANCH   6   8
ATOM      8  C   UNL A   1      30.924  24.023  24.875  1.00  0.00     0.100 C 
BRANCH   8   9
ATOM      9  C   UNL A   1      31.110  24.552  23.451  1.00  0.00     0.015 C 
BRANCH   9  10
ATOM     10  C   UNL A   1      32.312  23.997  22.670  1.00  0.00     0.037 C 
BRANCH  10  11
ATOM     11  C   UNL A   1      33.401  23.361  23.504  1.00  0.00    -0.029 A 
ATOM     12  C   UNL A   1      34.473  24.035  24.057  1.00  0.00     0.069 A 
ATOM     13  C   UNL A   1      33.439  21.953  23.863  1.00  0.00    -0.004 A 
ATOM     14  S   UNL A   1      35.594  23.006  24.816  1.00  0.00    -0.144 S 
ATOM     15  C   UNL A   1      34.625  21.618  24.525  1.00  0.00     0.035 A 
ATOM     16  C   UNL A   1      32.506  20.910  23.632  1.00  0.00     0.010 A 
ATOM     17  C   UNL A   1      34.927  20.290  24.887  1.00  0.00     0.019 A 
ATOM     18  C   UNL A   1      32.790  19.594  24.018  1.00  0.00     0.001 A 
ATOM     19  C   UNL A   1      33.998  19.285  24.619  1.00  0.00     0.001 A 
ENDBRANCH  10  11
ENDBRANCH   9  10
ENDBRANCH   8   9
ENDBRANCH   6   8
ENDBRANCH   3   4
ENDBRANCH   2   3
ENDBRANCH   1   2
BRANCH   1  20
ATOM     20  C   UNL A   1      32.301  30.010  25.825  1.00  0.00     0.002 C 
BRANCH  20  21
ATOM     21  C   UNL A   1      31.841  31.200  26.662  1.00  0.00     0.021 C 
BRANCH  21  22
ATOM     22  C   UNL A   1      32.968  32.001  27.306  1.00  0.00     0.116 C 
BRANCH  22  23
ATOM     23  N   UNL A   1      32.626  33.404  27.508  1.00  0.00    -0.352 N 
ATOM     24  C   UNL A   1      33.154  34.299  28.408  1.00  0.00     0.251 C 
ATOM     25  H   UNL A   1      31.922  33.760  26.919  1.00  0.00     0.163 HD
ATOM     26  O   UNL A   1      32.655  35.414  28.537  1.00  0.00    -0.269 OA
BRANCH  24  27
ATOM     27  C   UNL A   1      34.310  33.897  29.238  1.00  0.00     0.039 A 
ATOM     28  C   UNL A   1      34.098  33.081  30.352  1.00  0.00     0.014 A 
ATOM     29  C   UNL A   1      35.605  34.295  28.892  1.00  0.00     0.014 A 
ATOM     30  C   UNL A   1      35.194  32.602  31.075  1.00  0.00     0.010 A 
ATOM     31  C   UNL A   1      36.695  33.756  29.566  1.00  0.00     0.010 A 
ATOM     32  C   UNL A   1      36.503  32.904  30.664  1.00  0.00    -0.014 A 
BRANCH  32  33
ATOM     33  C   UNL A   1      37.685  32.319  31.348  1.00  0.00     0.031 A 
ATOM     34  C   UNL A   1      38.437  31.177  30.719  1.00  0.00     0.074 A 
ATOM     35  C   UNL A   1      38.017  32.745  32.582  1.00  0.00     0.049 A 
ATOM     36  N   UNL A   1      39.448  30.495  31.194  1.00  0.00    -0.248 NA
ATOM     37  C   UNL A   1      37.976  30.720  29.397  1.00  0.00     0.031 C 
ATOM     38  C   UNL A   1      37.312  33.782  33.338  1.00  0.00     0.029 A 
ATOM     39  N   UNL A   1      39.016  32.339  33.433  1.00  0.00    -0.354 N 
ATOM     40  C   UNL A   1      39.719  29.510  30.252  1.00  0.00     0.074 A 
ATOM     41  C   UNL A   1      38.744  29.660  29.194  1.00  0.00     0.031 C 
ATOM     42  C   UNL A   1      37.899  33.932  34.537  1.00  0.00     0.029 A 
ATOM     43  C   UNL A   1      39.005  32.986  34.646  1.00  0.00     0.049 A 
ATOM     44  H   UNL A   1      39.676  31.648  33.197  1.00  0.00     0.167 HD
ATOM     45  C   UNL A   1      40.707  28.585  30.251  1.00  0.00     0.034 A 
ATOM     46  C   UNL A   1      39.795  32.833  35.729  1.00  0.00     0.034 A 
ATOM     47  C   UNL A   1      41.705  28.471  31.280  1.00  0.00     0.049 A 
ATOM     48  C   UNL A   1      40.919  31.834  35.679  1.00  0.00     0.074 A 
ATOM     49  C   UNL A   1      42.806  27.633  31.322  1.00  0.00     0.029 A 
ATOM     50  N   UNL A   1      41.723  29.213  32.450  1.00  0.00    -0.354 N 
ATOM     51  N   UNL A   1      41.263  31.029  34.704  1.00  0.00    -0.248 NA
ATOM     52  C   UNL A   1      41.786  31.749  36.863  1.00  0.00     0.031 C 
ATOM     53  C   UNL A   1      43.478  27.856  32.528  1.00  0.00     0.029 A 
ATOM     54  C   UNL A   1      42.809  28.848  33.227  1.00  0.00     0.049 A 
ATOM     55  H   UNL A   1      41.059  29.899  32.694  1.00  0.00     0.167 HD
ATOM     56  C   UNL A   1      42.406  30.368  35.141  1.00  0.00     0.074 A 
ATOM     57  C   UNL A   1      42.707  30.884  36.461  1.00  0.00     0.031 C 
ATOM     58  C   UNL A   1      43.131  29.409  34.514  1.00  0.00     0.034 A 
BRANCH  45  59
ATOM     59  C   UNL A   1      40.797  27.659  29.065  1.00  0.00     0.023 A 
ATOM     60  C   UNL A   1      39.910  26.567  28.970  1.00  0.00     0.012 A 
ATOM     61  C   UNL A   1      41.712  27.899  28.022  1.00  0.00     0.148 A 
ATOM     62  C   UNL A   1      39.954  25.709  27.873  1.00  0.00     0.002 A 
ATOM     63  C   UNL A   1      41.720  27.065  26.910  1.00  0.00     0.091 A 
ATOM     64  F   UNL A   1      42.562  28.929  28.139  1.00  0.00    -0.205 F 
ATOM     65  C   UNL A   1      40.851  25.962  26.839  1.00  0.00     0.022 A 
BRANCH  63  66
ATOM     66  S   UNL A   1      42.782  27.352  25.490  1.00  0.00     0.127 S 
ATOM     67  O   UNL A   1      44.078  27.570  26.131  1.00  0.00    -0.237 OA
ATOM     68  O   UNL A   1      42.668  26.090  24.759  1.00  0.00    -0.237 OA
ATOM     69  O   UNL A   1      42.222  28.506  24.798  1.00  0.00    -0.744 OA
ENDBRANCH  63  66
ENDBRANCH  45  59
BRANCH  46  70
ATOM     70  C   UNL A   1      39.595  33.702  36.924  1.00  0.00     0.023 A 
ATOM     71  C   UNL A   1      40.019  35.044  36.877  1.00  0.00     0.012 A 
ATOM     72  C   UNL A   1      38.964  33.221  38.087  1.00  0.00     0.148 A 
ATOM     73  C   UNL A   1      39.847  35.883  37.978  1.00  0.00     0.002 A 
ATOM     74  C   UNL A   1      38.746  34.078  39.161  1.00  0.00     0.091 A 
ATOM     75  F   UNL A   1      38.579  31.937  38.117  1.00  0.00    -0.205 F 
ATOM     76  C   UNL A   1      39.203  35.404  39.115  1.00  0.00     0.022 A 
BRANCH  74  77
ATOM     77  S   UNL A   1      37.807  33.584  40.610  1.00  0.00     0.127 S 
ATOM     78  O   UNL A   1      36.520  33.222  40.023  1.00  0.00    -0.237 OA
ATOM     79  O   UNL A   1      38.594  32.457  41.112  1.00  0.00    -0.237 OA
ATOM     80  O   UNL A   1      37.801  34.747  41.487  1.00  0.00    -0.744 OA
ENDBRANCH  74  77
ENDBRANCH  46  70
BRANCH  58  81
ATOM     81  C   UNL A   1      44.344  28.871  35.225  1.00  0.00     0.023 A 
ATOM     82  C   UNL A   1      45.614  29.417  34.954  1.00  0.00     0.012 A 
ATOM     83  C   UNL A   1      44.215  27.879  36.217  1.00  0.00     0.148 A 
ATOM     84  C   UNL A   1      46.741  28.962  35.637  1.00  0.00     0.002 A 
ATOM     85  C   UNL A   1      45.335  27.465  36.928  1.00  0.00     0.091 A 
ATOM     86  F   UNL A   1      43.000  27.358  36.447  1.00  0.00    -0.205 F 
ATOM     87  C   UNL A   1      46.601  27.997  36.632  1.00  0.00     0.022 A 
BRANCH  85  88
ATOM     88  S   UNL A   1      45.233  26.298  38.290  1.00  0.00     0.127 S 
ATOM     89  O   UNL A   1      45.153  25.021  37.583  1.00  0.00    -0.237 OA
ATOM     90  O   UNL A   1      46.496  26.527  38.993  1.00  0.00    -0.237 OA
ATOM     91  O   UNL A   1      44.046  26.670  39.047  1.00  0.00    -0.744 OA
ENDBRANCH  85  88
ENDBRANCH  58  81
ENDBRANCH  32  33
ENDBRANCH  24  27
ENDBRANCH  22  23
ENDBRANCH  21  22
ENDBRANCH  20  21
ENDBRANCH   1  20
TORSDOF 19
ENDMDL
MODEL 2
REMARK VINA RESULT:     -10.7      3.507      8.784
REMARK SMILES O=C(CCCc1csc2ccccc12)NCCCCCCNC(=O)c1ccc(-c2c3nc(c(-c4cccc(S(=O)(=O)[O-])c4F)c4ccc([nH]4)c(-c4cccc(S(=O)(=O)[O-])c4F)c4nc(c(-c5cccc(S(=O)(=O)[O-])c5F)c5ccc2[nH]5)C=C4)C=C3)cc1
REMARK SMILES IDX 18 1 17 2 16 3 15 4 1 5 2 6 3 8 4 9 5 10 6 11 7 12 14 13
REMARK SMILES IDX 8 14 9 15 13 16 10 17 12 18 11 19 19 20 20 21 21 22 22 23
REMARK SMILES IDX 23 24 24 26 25 27 26 28 87 29 27 30 86 31 28 32 29 33 30 34
REMARK SMILES IDX 80 35 31 36 85 37 79 38 81 39 32 40 84 41 78 42 77 43 33 45
REMARK SMILES IDX 65 46 45 47 64 48 46 49 49 50 63 51 82 52 47 53 48 54 62 56
REMARK SMILES IDX 83 57 50 58 34 59 35 60 43 61 36 62 38 63 44 64 37 65 39 66
REMARK SMILES IDX 40 67 41 68 42 69 66 70 67 71 75 72 68 73 70 74 76 75 69 76
REMARK SMILES IDX 71 77 72 78 73 79 74 80 51 81 52 82 60 83 53 84 55 85 61 86
REMARK SMILES IDX 54 87 56 88 57 89 58 90 59 91
REMARK H PARENT 15 7 22 25 81 44 49 55
REMARK Flexibility Score: inf
ROOT
ATOM      1  C   UNL A   1      33.245  27.770  24.478  1.00  0.00     0.002 C 
ENDROOT
BRANCH   1   2
ATOM      2  C   UNL A   1      33.611  28.321  23.096  1.00  0.00     0.021 C 
BRANCH   2   3
ATOM      3  C   UNL A   1      32.926  27.616  21.925  1.00  0.00     0.116 C 
BRANCH   3   4
ATOM      4  N   UNL A   1      32.746  26.201  22.181  1.00  0.00    -0.356 N 
ATOM      5  O   UNL A   1      33.134  25.501  20.026  1.00  0.00    -0.275 OA
ATOM      6  C   UNL A   1      32.867  25.252  21.197  1.00  0.00     0.220 C 
ATOM      7  H   UNL A   1      32.528  25.909  23.095  1.00  0.00     0.163 HD
BRANCH   6   8
ATOM      8  C   UNL A   1      32.635  23.839  21.682  1.00  0.00     0.100 C 
BRANCH   8   9
ATOM      9  C   UNL A   1      31.989  23.778  23.069  1.00  0.00     0.015 C 
BRANCH   9  10
ATOM     10  C   UNL A   1      32.189  22.474  23.857  1.00  0.00     0.037 C 
BRANCH  10  11
ATOM     11  C   UNL A   1      33.170  22.544  25.006  1.00  0.00    -0.029 A 
ATOM     12  C   UNL A   1      32.848  22.360  26.337  1.00  0.00     0.069 A 
ATOM     13  C   UNL A   1      34.596  22.779  24.851  1.00  0.00    -0.004 A 
ATOM     14  S   UNL A   1      34.153  22.647  27.390  1.00  0.00    -0.144 S 
ATOM     15  C   UNL A   1      35.236  22.925  26.086  1.00  0.00     0.035 A 
ATOM     16  C   UNL A   1      35.396  22.902  23.685  1.00  0.00     0.010 A 
ATOM     17  C   UNL A   1      36.603  23.253  26.183  1.00  0.00     0.019 A 
ATOM     18  C   UNL A   1      36.761  23.198  23.779  1.00  0.00     0.001 A 
ATOM     19  C   UNL A   1      37.353  23.394  25.016  1.00  0.00     0.001 A 
ENDBRANCH  10  11
ENDBRANCH   9  10
ENDBRANCH   8   9
ENDBRANCH   6   8
ENDBRANCH   3   4
ENDBRANCH   2   3
ENDBRANCH   1   2
BRANCH   1  20
ATOM     20  C   UNL A   1      32.078  28.481  25.170  1.00  0.00     0.002 C 
BRANCH  20  21
ATOM     21  C   UNL A   1      32.125  28.472  26.695  1.00  0.00     0.021 C 
BRANCH  21  22
ATOM     22  C   UNL A   1      33.469  28.873  27.295  1.00  0.00     0.116 C 
BRANCH  22  23
ATOM     23  N   UNL A   1      33.541  30.290  27.632  1.00  0.00    -0.352 N 
ATOM     24  C   UNL A   1      34.545  30.973  28.276  1.00  0.00     0.251 C 
ATOM     25  H   UNL A   1      32.765  30.832  27.362  1.00  0.00     0.163 HD
ATOM     26  O   UNL A   1      34.385  32.146  28.603  1.00  0.00    -0.269 OA
BRANCH  24  27
ATOM     27  C   UNL A   1      35.809  30.273  28.597  1.00  0.00     0.039 A 
ATOM     28  C   UNL A   1      36.862  30.317  27.681  1.00  0.00     0.014 A 
ATOM     29  C   UNL A   1      35.962  29.610  29.818  1.00  0.00     0.014 A 
ATOM     30  C   UNL A   1      38.097  29.759  28.023  1.00  0.00     0.010 A 
ATOM     31  C   UNL A   1      37.212  29.124  30.186  1.00  0.00     0.010 A 
ATOM     32  C   UNL A   1      38.294  29.193  29.295  1.00  0.00    -0.014 A 
BRANCH  32  33
ATOM     33  C   UNL A   1      39.625  28.692  29.723  1.00  0.00     0.031 A 
ATOM     34  C   UNL A   1      40.396  29.412  30.796  1.00  0.00     0.074 A 
ATOM     35  C   UNL A   1      40.185  27.652  29.074  1.00  0.00     0.049 A 
ATOM     36  N   UNL A   1      41.597  29.165  31.254  1.00  0.00    -0.248 NA
ATOM     37  C   UNL A   1      39.748  30.580  31.416  1.00  0.00     0.031 C 
ATOM     38  C   UNL A   1      39.579  26.927  27.955  1.00  0.00     0.029 A 
ATOM     39  N   UNL A   1      41.404  27.043  29.240  1.00  0.00    -0.354 N 
ATOM     40  C   UNL A   1      41.862  30.163  32.184  1.00  0.00     0.074 A 
ATOM     41  C   UNL A   1      40.712  31.041  32.200  1.00  0.00     0.031 C 
ATOM     42  C   UNL A   1      40.425  25.971  27.539  1.00  0.00     0.029 A 
ATOM     43  C   UNL A   1      41.643  26.031  28.340  1.00  0.00     0.049 A 
ATOM     44  H   UNL A   1      42.047  27.306  29.938  1.00  0.00     0.167 HD
ATOM     45  C   UNL A   1      42.949  30.319  32.976  1.00  0.00     0.034 A 
ATOM     46  C   UNL A   1      42.724  25.241  28.174  1.00  0.00     0.034 A 
ATOM     47  C   UNL A   1      44.069  29.418  32.994  1.00  0.00     0.049 A 
ATOM     48  C   UNL A   1      43.896  25.402  29.104  1.00  0.00     0.074 A 
ATOM     49  C   UNL A   1      45.173  29.433  33.828  1.00  0.00     0.029 A 
ATOM     50  N   UNL A   1      44.232  28.342  32.135  1.00  0.00    -0.354 N 
ATOM     51  N   UNL A   1      44.054  26.247  30.093  1.00  0.00    -0.248 NA
ATOM     52  C   UNL A   1      45.024  24.477  28.918  1.00  0.00     0.031 C 
ATOM     53  C   UNL A   1      46.012  28.376  33.461  1.00  0.00     0.029 A 
ATOM     54  C   UNL A   1      45.421  27.690  32.412  1.00  0.00     0.049 A 
ATOM     55  H   UNL A   1      43.595  28.080  31.430  1.00  0.00     0.167 HD
ATOM     56  C   UNL A   1      45.280  25.934  30.671  1.00  0.00     0.074 A 
ATOM     57  C   UNL A   1      45.812  24.807  29.932  1.00  0.00     0.031 C 
ATOM     58  C   UNL A   1      45.914  26.534  31.707  1.00  0.00     0.034 A 
BRANCH  45  59
ATOM     59  C   UNL A   1      42.953  31.479  33.938  1.00  0.00     0.023 A 
ATOM     60  C   UNL A   1      43.507  32.712  33.535  1.00  0.00     0.012 A 
ATOM     61  C   UNL A   1      42.360  31.371  35.211  1.00  0.00     0.148 A 
ATOM     62  C   UNL A   1      43.502  33.809  34.396  1.00  0.00     0.002 A 
ATOM     63  C   UNL A   1      42.319  32.482  36.046  1.00  0.00     0.091 A 
ATOM     64  F   UNL A   1      41.857  30.186  35.584  1.00  0.00    -0.205 F 
ATOM     65  C   UNL A   1      42.901  33.697  35.646  1.00  0.00     0.022 A 
BRANCH  63  66
ATOM     66  S   UNL A   1      41.497  32.463  37.644  1.00  0.00     0.127 S 
ATOM     67  O   UNL A   1      42.300  31.486  38.377  1.00  0.00    -0.237 OA
ATOM     68  O   UNL A   1      41.661  33.846  38.091  1.00  0.00    -0.237 OA
ATOM     69  O   UNL A   1      40.119  32.071  37.380  1.00  0.00    -0.744 OA
ENDBRANCH  63  66
ENDBRANCH  45  59
BRANCH  46  70
ATOM     70  C   UNL A   1      42.714  24.176  27.132  1.00  0.00     0.023 A 
ATOM     71  C   UNL A   1      43.375  24.404  25.910  1.00  0.00     0.012 A 
ATOM     72  C   UNL A   1      42.087  22.935  27.353  1.00  0.00     0.148 A 
ATOM     73  C   UNL A   1      43.384  23.428  24.913  1.00  0.00     0.002 A 
ATOM     74  C   UNL A   1      42.146  21.946  26.377  1.00  0.00     0.091 A 
ATOM     75  F   UNL A   1      41.452  22.742  28.518  1.00  0.00    -0.205 F 
ATOM     76  C   UNL A   1      42.780  22.196  25.149  1.00  0.00     0.022 A 
BRANCH  74  77
ATOM     77  S   UNL A   1      41.512  20.287  26.648  1.00  0.00     0.127 S 
ATOM     78  O   UNL A   1      41.911  19.609  25.419  1.00  0.00    -0.237 OA
ATOM     79  O   UNL A   1      42.245  19.875  27.846  1.00  0.00    -0.237 OA
ATOM     80  O   UNL A   1      40.078  20.446  26.850  1.00  0.00    -0.744 OA
ENDBRANCH  74  77
ENDBRANCH  46  70
BRANCH  58  81
ATOM     81  C   UNL A   1      47.243  25.971  32.136  1.00  0.00     0.023 A 
ATOM     82  C   UNL A   1      48.423  26.398  31.497  1.00  0.00     0.012 A 
ATOM     83  C   UNL A   1      47.329  25.079  33.222  1.00  0.00     0.148 A 
ATOM     84  C   UNL A   1      49.666  25.922  31.911  1.00  0.00     0.002 A 
ATOM     85  C   UNL A   1      48.575  24.645  33.662  1.00  0.00     0.091 A 
ATOM     86  F   UNL A   1      46.193  24.669  33.806  1.00  0.00    -0.205 F 
ATOM     87  C   UNL A   1      49.744  25.057  33.000  1.00  0.00     0.022 A 
BRANCH  85  88
ATOM     88  S   UNL A   1      48.775  23.608  35.114  1.00  0.00     0.127 S 
ATOM     89  O   UNL A   1      48.087  22.384  34.704  1.00  0.00    -0.237 OA
ATOM     90  O   UNL A   1      50.230  23.486  35.212  1.00  0.00    -0.237 OA
ATOM     91  O   UNL A   1      48.156  24.335  36.214  1.00  0.00    -0.744 OA
ENDBRANCH  85  88
ENDBRANCH  58  81
ENDBRANCH  32  33
ENDBRANCH  24  27
ENDBRANCH  22  23
ENDBRANCH  21  22
ENDBRANCH  20  21
ENDBRANCH   1  20
TORSDOF 19
ENDMDL
MODEL 3
REMARK VINA RESULT:     -10.5      1.059      7.982
REMARK SMILES O=C(CCCc1csc2ccccc12)NCCCCCCNC(=O)c1ccc(-c2c3nc(c(-c4cccc(S(=O)(=O)[O-])c4F)c4ccc([nH]4)c(-c4cccc(S(=O)(=O)[O-])c4F)c4nc(c(-c5cccc(S(=O)(=O)[O-])c5F)c5ccc2[nH]5)C=C4)C=C3)cc1
REMARK SMILES IDX 18 1 17 2 16 3 15 4 1 5 2 6 3 8 4 9 5 10 6 11 7 12 14 13
REMARK SMILES IDX 8 14 9 15 13 16 10 17 12 18 11 19 19 20 20 21 21 22 22 23
REMARK SMILES IDX 23 24 24 26 25 27 26 28 87 29 27 30 86 31 28 32 29 33 30 34
REMARK SMILES IDX 80 35 31 36 85 37 79 38 81 39 32 40 84 41 78 42 77 43 33 45
REMARK SMILES IDX 65 46 45 47 64 48 46 49 49 50 63 51 82 52 47 53 48 54 62 56
REMARK SMILES IDX 83 57 50 58 34 59 35 60 43 61 36 62 38 63 44 64 37 65 39 66
REMARK SMILES IDX 40 67 41 68 42 69 66 70 67 71 75 72 68 73 70 74 76 75 69 76
REMARK SMILES IDX 71 77 72 78 73 79 74 80 51 81 52 82 60 83 53 84 55 85 61 86
REMARK SMILES IDX 54 87 56 88 57 89 58 90 59 91
REMARK H PARENT 15 7 22 25 81 44 49 55
REMARK Flexibility Score: inf
ROOT
ATOM      1  C   UNL A   1      32.349  29.278  25.915  1.00  0.00     0.002 C 
ENDROOT
BRANCH   1   2
ATOM      2  C   UNL A   1      31.366  29.535  24.768  1.00  0.00     0.021 C 
BRANCH   2   3
ATOM      3  C   UNL A   1      31.807  28.983  23.413  1.00  0.00     0.116 C 
BRANCH   3   4
ATOM      4  N   UNL A   1      32.274  27.615  23.516  1.00  0.00    -0.356 N 
ATOM      5  O   UNL A   1      30.219  26.623  23.244  1.00  0.00    -0.275 OA
ATOM      6  C   UNL A   1      31.429  26.538  23.421  1.00  0.00     0.220 C 
ATOM      7  H   UNL A   1      33.234  27.451  23.659  1.00  0.00     0.163 HD
BRANCH   6   8
ATOM      8  C   UNL A   1      32.126  25.203  23.560  1.00  0.00     0.100 C 
BRANCH   8   9
ATOM      9  C   UNL A   1      33.014  24.861  22.360  1.00  0.00     0.015 C 
BRANCH   9  10
ATOM     10  C   UNL A   1      33.110  23.373  21.987  1.00  0.00     0.037 C 
BRANCH  10  11
ATOM     11  C   UNL A   1      33.418  22.428  23.126  1.00  0.00    -0.029 A 
ATOM     12  C   UNL A   1      32.535  21.503  23.650  1.00  0.00     0.069 A 
ATOM     13  C   UNL A   1      34.705  22.346  23.796  1.00  0.00    -0.004 A 
ATOM     14  S   UNL A   1      33.143  20.696  25.018  1.00  0.00    -0.144 S 
ATOM     15  C   UNL A   1      34.664  21.482  24.895  1.00  0.00     0.035 A 
ATOM     16  C   UNL A   1      35.935  23.001  23.528  1.00  0.00     0.010 A 
ATOM     17  C   UNL A   1      35.770  21.315  25.754  1.00  0.00     0.019 A 
ATOM     18  C   UNL A   1      37.044  22.814  24.362  1.00  0.00     0.001 A 
ATOM     19  C   UNL A   1      36.954  21.997  25.476  1.00  0.00     0.001 A 
ENDBRANCH  10  11
ENDBRANCH   9  10
ENDBRANCH   8   9
ENDBRANCH   6   8
ENDBRANCH   3   4
ENDBRANCH   2   3
ENDBRANCH   1   2
BRANCH   1  20
ATOM     20  C   UNL A   1      32.129  30.138  27.163  1.00  0.00     0.002 C 
BRANCH  20  21
ATOM     21  C   UNL A   1      31.894  31.622  26.896  1.00  0.00     0.021 C 
BRANCH  21  22
ATOM     22  C   UNL A   1      33.085  32.522  27.206  1.00  0.00     0.116 C 
BRANCH  22  23
ATOM     23  N   UNL A   1      32.692  33.863  27.622  1.00  0.00    -0.352 N 
ATOM     24  C   UNL A   1      33.158  34.609  28.678  1.00  0.00     0.251 C 
ATOM     25  H   UNL A   1      32.000  34.294  27.070  1.00  0.00     0.163 HD
ATOM     26  O   UNL A   1      32.619  35.674  28.968  1.00  0.00    -0.269 OA
BRANCH  24  27
ATOM     27  C   UNL A   1      34.295  34.104  29.479  1.00  0.00     0.039 A 
ATOM     28  C   UNL A   1      34.039  33.314  30.602  1.00  0.00     0.014 A 
ATOM     29  C   UNL A   1      35.610  34.379  29.095  1.00  0.00     0.014 A 
ATOM     30  C   UNL A   1      35.105  32.737  31.297  1.00  0.00     0.010 A 
ATOM     31  C   UNL A   1      36.664  33.742  29.741  1.00  0.00     0.010 A 
ATOM     32  C   UNL A   1      36.425  32.914  30.848  1.00  0.00    -0.014 A 
BRANCH  32  33
ATOM     33  C   UNL A   1      37.566  32.224  31.503  1.00  0.00     0.031 A 
ATOM     34  C   UNL A   1      38.107  32.727  32.813  1.00  0.00     0.074 A 
ATOM     35  C   UNL A   1      38.182  31.208  30.866  1.00  0.00     0.049 A 
ATOM     36  N   UNL A   1      39.134  32.298  33.500  1.00  0.00    -0.248 NA
ATOM     37  C   UNL A   1      37.423  33.883  33.419  1.00  0.00     0.031 C 
ATOM     38  C   UNL A   1      37.812  30.686  29.549  1.00  0.00     0.029 A 
ATOM     39  N   UNL A   1      39.270  30.452  31.226  1.00  0.00    -0.354 N 
ATOM     40  C   UNL A   1      39.243  33.149  34.594  1.00  0.00     0.074 A 
ATOM     41  C   UNL A   1      38.199  34.141  34.461  1.00  0.00     0.031 C 
ATOM     42  C   UNL A   1      38.654  29.695  29.214  1.00  0.00     0.029 A 
ATOM     43  C   UNL A   1      39.639  29.528  30.277  1.00  0.00     0.049 A 
ATOM     44  H   UNL A   1      39.741  30.561  32.084  1.00  0.00     0.167 HD
ATOM     45  C   UNL A   1      40.113  33.093  35.630  1.00  0.00     0.034 A 
ATOM     46  C   UNL A   1      40.661  28.647  30.261  1.00  0.00     0.034 A 
ATOM     47  C   UNL A   1      41.117  32.076  35.785  1.00  0.00     0.049 A 
ATOM     48  C   UNL A   1      41.579  28.570  31.451  1.00  0.00     0.074 A 
ATOM     49  C   UNL A   1      41.980  31.873  36.848  1.00  0.00     0.029 A 
ATOM     50  N   UNL A   1      41.398  31.092  34.850  1.00  0.00    -0.354 N 
ATOM     51  N   UNL A   1      41.557  29.275  32.556  1.00  0.00    -0.248 NA
ATOM     52  C   UNL A   1      42.639  27.553  31.408  1.00  0.00     0.031 C 
ATOM     53  C   UNL A   1      42.796  30.779  36.545  1.00  0.00     0.029 A 
ATOM     54  C   UNL A   1      42.426  30.285  35.304  1.00  0.00     0.049 A 
ATOM     55  H   UNL A   1      40.934  30.985  33.987  1.00  0.00     0.167 HD
ATOM     56  C   UNL A   1      42.574  28.764  33.355  1.00  0.00     0.074 A 
ATOM     57  C   UNL A   1      43.178  27.675  32.614  1.00  0.00     0.031 C 
ATOM     58  C   UNL A   1      42.981  29.169  34.582  1.00  0.00     0.034 A 
BRANCH  45  59
ATOM     59  C   UNL A   1      39.974  34.129  36.716  1.00  0.00     0.023 A 
ATOM     60  C   UNL A   1      40.327  35.467  36.446  1.00  0.00     0.012 A 
ATOM     61  C   UNL A   1      39.442  33.795  37.977  1.00  0.00     0.148 A 
ATOM     62  C   UNL A   1      40.186  36.451  37.424  1.00  0.00     0.002 A 
ATOM     63  C   UNL A   1      39.263  34.790  38.931  1.00  0.00     0.091 A 
ATOM     64  F   UNL A   1      39.132  32.514  38.222  1.00  0.00    -0.205 F 
ATOM     65  C   UNL A   1      39.646  36.115  38.661  1.00  0.00     0.022 A 
BRANCH  63  66
ATOM     66  S   UNL A   1      38.502  34.475  40.528  1.00  0.00     0.127 S 
ATOM     67  O   UNL A   1      38.235  35.832  41.001  1.00  0.00    -0.237 OA
ATOM     68  O   UNL A   1      37.309  33.713  40.156  1.00  0.00    -0.237 OA
ATOM     69  O   UNL A   1      39.485  33.724  41.298  1.00  0.00    -0.744 OA
ENDBRANCH  63  66
ENDBRANCH  45  59
BRANCH  46  70
ATOM     70  C   UNL A   1      40.821  27.714  29.110  1.00  0.00     0.023 A 
ATOM     71  C   UNL A   1      40.061  26.529  29.074  1.00  0.00     0.012 A 
ATOM     72  C   UNL A   1      41.690  28.005  28.041  1.00  0.00     0.148 A 
ATOM     73  C   UNL A   1      40.187  25.634  28.011  1.00  0.00     0.002 A 
ATOM     74  C   UNL A   1      41.770  27.136  26.958  1.00  0.00     0.091 A 
ATOM     75  F   UNL A   1      42.413  29.132  28.099  1.00  0.00    -0.205 F 
ATOM     76  C   UNL A   1      41.033  25.942  26.949  1.00  0.00     0.022 A 
BRANCH  74  77
ATOM     77  S   UNL A   1      42.730  27.518  25.488  1.00  0.00     0.127 S 
ATOM     78  O   UNL A   1      44.090  27.549  26.019  1.00  0.00    -0.237 OA
ATOM     79  O   UNL A   1      42.431  26.375  24.625  1.00  0.00    -0.237 OA
ATOM     80  O   UNL A   1      42.209  28.788  25.001  1.00  0.00    -0.744 OA
ENDBRANCH  74  77
ENDBRANCH  46  70
BRANCH  58  81
ATOM     81  C   UNL A   1      44.115  28.417  35.227  1.00  0.00     0.023 A 
ATOM     82  C   UNL A   1      45.446  28.732  34.890  1.00  0.00     0.012 A 
ATOM     83  C   UNL A   1      43.864  27.453  36.224  1.00  0.00     0.148 A 
ATOM     84  C   UNL A   1      46.509  28.077  35.511  1.00  0.00     0.002 A 
ATOM     85  C   UNL A   1      44.928  26.839  36.873  1.00  0.00     0.091 A 
ATOM     86  F   UNL A   1      42.590  27.153  36.517  1.00  0.00    -0.205 F 
ATOM     87  C   UNL A   1      46.252  27.141  36.511  1.00  0.00     0.022 A 
BRANCH  85  88
ATOM     88  S   UNL A   1      44.691  25.694  38.237  1.00  0.00     0.127 S 
ATOM     89  O   UNL A   1      43.861  26.482  39.147  1.00  0.00    -0.237 OA
ATOM     90  O   UNL A   1      43.998  24.579  37.590  1.00  0.00    -0.237 OA
ATOM     91  O   UNL A   1      46.025  25.372  38.726  1.00  0.00    -0.744 OA
ENDBRANCH  85  88
ENDBRANCH  58  81
ENDBRANCH  32  33
ENDBRANCH  24  27
ENDBRANCH  22  23
ENDBRANCH  21  22
ENDBRANCH  20  21
ENDBRANCH   1  20
TORSDOF 19
ENDMDL
