MODEL 1
REMARK VINA RESULT:     -11.5      0.000      0.000
REMARK SMILES C[N@@H+](CC(=O)NCCCCCCNC(=O)c1ccc(-c2c3nc(c(-c4cccc(S(=O)(=O)[O-])c4F)c4ccc([nH]4)c(-c4cccc(S(=O)(=O)[O-])c4F)c4nc(c(-c5cccc(S(=O)(=O)[O-])c5F)c5ccc2[nH]5)C=C4)C=C3)cc1)Cc1cccc2c1OCCO2
REMARK SMILES IDX 9 1 8 2 7 3 6 4 4 5 5 6 3 8 2 9 1 10 79 12 80 13 81 14 85 15
REMARK SMILES IDX 82 16 84 17 86 18 83 19 89 20 87 21 88 22 10 23 11 24 12 25
REMARK SMILES IDX 13 26 14 27 15 29 16 30 17 31 78 32 18 33 77 34 19 35 20 36
REMARK SMILES IDX 21 37 71 38 22 39 76 40 70 41 72 42 23 43 75 44 69 45 68 46
REMARK SMILES IDX 24 48 56 49 36 50 55 51 37 52 40 53 54 54 73 55 38 56 39 57
REMARK SMILES IDX 53 59 74 60 41 61 25 62 26 63 34 64 27 65 29 66 35 67 28 68
REMARK SMILES IDX 30 69 31 70 32 71 33 72 57 73 58 74 66 75 59 76 61 77 67 78
REMARK SMILES IDX 60 79 62 80 63 81 64 82 65 83 42 84 43 85 51 86 44 87 46 88
REMARK SMILES IDX 52 89 45 90 47 91 48 92 49 93 50 94
REMARK H PARENT 6 7 2 11 13 28 72 47 40 58
REMARK Flexibility Score: inf
ROOT
ATOM      1  C   UNL A   1      35.411  18.782  24.803  1.00  0.00     0.002 C 
ENDROOT
BRANCH   1   2
ATOM      2  C   UNL A   1      33.969  19.233  24.527  1.00  0.00     0.021 C 
BRANCH   2   3
ATOM      3  C   UNL A   1      33.768  20.837  24.784  1.00  0.00     0.116 C 
BRANCH   3   4
ATOM      4  N   UNL A   1      33.632  22.474  23.567  1.00  0.00    -0.351 N 
ATOM      5  C   UNL A   1      32.761  23.493  23.015  1.00  0.00     0.275 C 
ATOM      6  O   UNL A   1      33.313  24.218  22.167  1.00  0.00    -0.269 OA
ATOM      7  H   UNL A   1      34.533  22.639  23.205  1.00  0.00     0.163 HD
BRANCH   5   8
ATOM      8  C   UNL A   1      31.250  23.851  23.466  1.00  0.00     0.363 C 
BRANCH   8   9
ATOM      9  N   UNL A   1      30.908  24.545  24.756  1.00  0.00    -0.326 N 
ATOM     10  C   UNL A   1      30.826  23.725  25.970  1.00  0.00     0.333 C 
ATOM     11  H   UNL A   1      31.778  25.070  24.843  1.00  0.00     0.348 HD
BRANCH   9  12
ATOM     12  C   UNL A   1      29.845  25.536  24.719  1.00  0.00     0.303 C 
BRANCH  12  13
ATOM     13  C   UNL A   1      30.187  26.865  24.116  1.00  0.00     0.052 A 
ATOM     14  C   UNL A   1      29.223  27.460  23.241  1.00  0.00     0.014 A 
ATOM     15  C   UNL A   1      31.154  27.743  24.570  1.00  0.00     0.170 A 
ATOM     16  C   UNL A   1      29.097  28.872  22.924  1.00  0.00     0.005 A 
ATOM     17  C   UNL A   1      30.852  29.406  24.333  1.00  0.00     0.161 A 
ATOM     18  O   UNL A   1      32.084  27.191  25.996  1.00  0.00    -0.486 OA
ATOM     19  C   UNL A   1      29.880  29.885  23.490  1.00  0.00     0.050 A 
ATOM     20  O   UNL A   1      31.370  30.602  25.460  1.00  0.00    -0.486 OA
ATOM     21  C   UNL A   1      32.552  28.353  27.405  1.00  0.00     0.271 C 
ATOM     22  C   UNL A   1      32.085  30.227  27.111  1.00  0.00     0.271 C 
ENDBRANCH  12  13
ENDBRANCH   9  12
ENDBRANCH   8   9
ENDBRANCH   5   8
ENDBRANCH   3   4
ENDBRANCH   2   3
ENDBRANCH   1   2
BRANCH   1  23
ATOM     23  C   UNL A   1      36.445  19.913  24.978  1.00  0.00     0.002 C 
BRANCH  23  24
ATOM     24  C   UNL A   1      37.896  19.482  24.770  1.00  0.00     0.021 C 
BRANCH  24  25
ATOM     25  C   UNL A   1      38.846  20.135  25.764  1.00  0.00     0.116 C 
BRANCH  25  26
ATOM     26  N   UNL A   1      40.031  19.300  25.986  1.00  0.00    -0.352 N 
ATOM     27  C   UNL A   1      41.335  19.680  26.141  1.00  0.00     0.251 C 
ATOM     28  H   UNL A   1      39.863  18.332  26.029  1.00  0.00     0.163 HD
ATOM     29  O   UNL A   1      42.256  18.899  25.939  1.00  0.00    -0.269 OA
BRANCH  27  30
ATOM     30  C   UNL A   1      41.576  21.055  26.581  1.00  0.00     0.039 A 
ATOM     31  C   UNL A   1      42.086  21.303  27.853  1.00  0.00     0.014 A 
ATOM     32  C   UNL A   1      41.375  22.082  25.655  1.00  0.00     0.014 A 
ATOM     33  C   UNL A   1      42.463  22.602  28.172  1.00  0.00     0.010 A 
ATOM     34  C   UNL A   1      41.876  23.336  25.927  1.00  0.00     0.010 A 
ATOM     35  C   UNL A   1      42.401  23.612  27.196  1.00  0.00    -0.014 A 
BRANCH  35  36
ATOM     36  C   UNL A   1      42.878  24.979  27.471  1.00  0.00     0.031 A 
ATOM     37  C   UNL A   1      41.942  25.975  28.096  1.00  0.00     0.074 A 
ATOM     38  C   UNL A   1      44.111  25.337  27.065  1.00  0.00     0.049 A 
ATOM     39  N   UNL A   1      42.149  27.235  28.365  1.00  0.00    -0.248 NA
ATOM     40  C   UNL A   1      40.582  25.507  28.424  1.00  0.00     0.031 C 
ATOM     41  C   UNL A   1      45.055  24.469  26.355  1.00  0.00     0.029 A 
ATOM     42  N   UNL A   1      44.772  26.530  27.170  1.00  0.00    -0.354 N 
ATOM     43  C   UNL A   1      40.942  27.715  28.853  1.00  0.00     0.074 A 
ATOM     44  C   UNL A   1      39.990  26.631  28.792  1.00  0.00     0.031 C 
ATOM     45  C   UNL A   1      46.183  25.153  26.111  1.00  0.00     0.029 A 
ATOM     46  C   UNL A   1      46.025  26.516  26.605  1.00  0.00     0.049 A 
ATOM     47  H   UNL A   1      44.387  27.325  27.608  1.00  0.00     0.167 HD
ATOM     48  C   UNL A   1      40.662  28.943  29.343  1.00  0.00     0.034 A 
ATOM     49  C   UNL A   1      46.936  27.499  26.490  1.00  0.00     0.034 A 
ATOM     50  C   UNL A   1      41.631  29.998  29.428  1.00  0.00     0.049 A 
ATOM     51  C   UNL A   1      46.610  28.847  27.071  1.00  0.00     0.074 A 
ATOM     52  C   UNL A   1      41.491  31.249  29.997  1.00  0.00     0.029 A 
ATOM     53  N   UNL A   1      42.916  29.929  28.911  1.00  0.00    -0.354 N 
ATOM     54  N   UNL A   1      45.523  29.235  27.693  1.00  0.00    -0.248 NA
ATOM     55  C   UNL A   1      47.645  29.883  26.960  1.00  0.00     0.031 C 
ATOM     56  C   UNL A   1      42.677  31.956  29.781  1.00  0.00     0.029 A 
ATOM     57  C   UNL A   1      43.572  31.128  29.119  1.00  0.00     0.049 A 
ATOM     58  H   UNL A   1      43.304  29.144  28.461  1.00  0.00     0.167 HD
ATOM     59  C   UNL A   1      45.749  30.553  28.068  1.00  0.00     0.074 A 
ATOM     60  C   UNL A   1      47.091  30.884  27.630  1.00  0.00     0.031 C 
ATOM     61  C   UNL A   1      44.919  31.421  28.699  1.00  0.00     0.034 A 
BRANCH  48  62
ATOM     62  C   UNL A   1      39.266  29.193  29.849  1.00  0.00     0.023 A 
ATOM     63  C   UNL A   1      38.875  28.700  31.112  1.00  0.00     0.012 A 
ATOM     64  C   UNL A   1      38.353  29.948  29.090  1.00  0.00     0.148 A 
ATOM     65  C   UNL A   1      37.586  28.922  31.593  1.00  0.00     0.002 A 
ATOM     66  C   UNL A   1      37.088  30.210  29.599  1.00  0.00     0.091 A 
ATOM     67  F   UNL A   1      38.733  30.384  27.880  1.00  0.00    -0.205 F 
ATOM     68  C   UNL A   1      36.698  29.686  30.843  1.00  0.00     0.022 A 
BRANCH  66  69
ATOM     69  S   UNL A   1      35.898  31.251  28.749  1.00  0.00     0.127 S 
ATOM     70  O   UNL A   1      36.703  32.433  28.446  1.00  0.00    -0.237 OA
ATOM     71  O   UNL A   1      35.553  30.433  27.586  1.00  0.00    -0.237 OA
ATOM     72  O   UNL A   1      34.806  31.468  29.688  1.00  0.00    -0.744 OA
ENDBRANCH  66  69
ENDBRANCH  48  62
BRANCH  49  73
ATOM     73  C   UNL A   1      48.246  27.229  25.836  1.00  0.00     0.023 A 
ATOM     74  C   UNL A   1      49.314  26.719  26.599  1.00  0.00     0.012 A 
ATOM     75  C   UNL A   1      48.428  27.444  24.456  1.00  0.00     0.148 A 
ATOM     76  C   UNL A   1      50.550  26.460  26.006  1.00  0.00     0.002 A 
ATOM     77  C   UNL A   1      49.644  27.129  23.860  1.00  0.00     0.091 A 
ATOM     78  F   UNL A   1      47.400  27.933  23.749  1.00  0.00    -0.205 F 
ATOM     79  C   UNL A   1      50.713  26.656  24.637  1.00  0.00     0.022 A 
BRANCH  77  80
ATOM     80  S   UNL A   1      49.899  27.222  22.085  1.00  0.00     0.127 S 
ATOM     81  O   UNL A   1      48.762  26.458  21.579  1.00  0.00    -0.237 OA
ATOM     82  O   UNL A   1      49.829  28.665  21.848  1.00  0.00    -0.237 OA
ATOM     83  O   UNL A   1      51.211  26.638  21.842  1.00  0.00    -0.744 OA
ENDBRANCH  77  80
ENDBRANCH  49  73
BRANCH  61  84
ATOM     84  C   UNL A   1      45.441  32.806  28.969  1.00  0.00     0.023 A 
ATOM     85  C   UNL A   1      46.203  33.055  30.127  1.00  0.00     0.012 A 
ATOM     86  C   UNL A   1      45.241  33.839  28.033  1.00  0.00     0.148 A 
ATOM     87  C   UNL A   1      46.729  34.322  30.368  1.00  0.00     0.002 A 
ATOM     88  C   UNL A   1      45.815  35.084  28.252  1.00  0.00     0.091 A 
ATOM     89  F   UNL A   1      44.503  33.581  26.943  1.00  0.00    -0.205 F 
ATOM     90  C   UNL A   1      46.545  35.333  29.425  1.00  0.00     0.022 A 
BRANCH  88  91
ATOM     91  S   UNL A   1      45.719  36.416  27.052  1.00  0.00     0.127 S 
ATOM     92  O   UNL A   1      46.537  37.448  27.688  1.00  0.00    -0.237 OA
ATOM     93  O   UNL A   1      46.320  35.805  25.866  1.00  0.00    -0.237 OA
ATOM     94  O   UNL A   1      44.305  36.741  26.919  1.00  0.00    -0.744 OA
ENDBRANCH  88  91
ENDBRANCH  61  84
ENDBRANCH  35  36
ENDBRANCH  27  30
ENDBRANCH  25  26
ENDBRANCH  24  25
ENDBRANCH  23  24
ENDBRANCH   1  23
TORSDOF 19
ENDMDL
MODEL 2
REMARK VINA RESULT:     -11.4      5.404     10.841
REMARK SMILES C[N@@H+](CC(=O)NCCCCCCNC(=O)c1ccc(-c2c3nc(c(-c4cccc(S(=O)(=O)[O-])c4F)c4ccc([nH]4)c(-c4cccc(S(=O)(=O)[O-])c4F)c4nc(c(-c5cccc(S(=O)(=O)[O-])c5F)c5ccc2[nH]5)C=C4)C=C3)cc1)Cc1cccc2c1OCCO2
REMARK SMILES IDX 9 1 8 2 7 3 6 4 4 5 5 6 3 8 2 9 1 10 79 12 80 13 81 14 85 15
REMARK SMILES IDX 82 16 84 17 86 18 83 19 89 20 87 21 88 22 10 23 11 24 12 25
REMARK SMILES IDX 13 26 14 27 15 29 16 30 17 31 78 32 18 33 77 34 19 35 20 36
REMARK SMILES IDX 21 37 71 38 22 39 76 40 70 41 72 42 23 43 75 44 69 45 68 46
REMARK SMILES IDX 24 48 56 49 36 50 55 51 37 52 40 53 54 54 73 55 38 56 39 57
REMARK SMILES IDX 53 59 74 60 41 61 25 62 26 63 34 64 27 65 29 66 35 67 28 68
REMARK SMILES IDX 30 69 31 70 32 71 33 72 57 73 58 74 66 75 59 76 61 77 67 78
REMARK SMILES IDX 60 79 62 80 63 81 64 82 65 83 42 84 43 85 51 86 44 87 46 88
REMARK SMILES IDX 52 89 45 90 47 91 48 92 49 93 50 94
REMARK H PARENT 6 7 2 11 13 28 72 47 40 58
REMARK Flexibility Score: inf
ROOT
ATOM      1  C   UNL A   1      33.785  27.547  25.670  1.00  0.00     0.002 C 
ENDROOT
BRANCH   1   2
ATOM      2  C   UNL A   1      34.053  26.360  24.734  1.00  0.00     0.021 C 
BRANCH   2   3
ATOM      3  C   UNL A   1      34.413  24.994  25.561  1.00  0.00     0.116 C 
BRANCH   3   4
ATOM      4  N   UNL A   1      33.343  23.717  26.746  1.00  0.00    -0.351 N 
ATOM      5  C   UNL A   1      32.281  22.732  26.799  1.00  0.00     0.275 C 
ATOM      6  O   UNL A   1      32.008  22.350  27.953  1.00  0.00    -0.269 OA
ATOM      7  H   UNL A   1      33.697  23.807  27.660  1.00  0.00     0.163 HD
BRANCH   5   8
ATOM      8  C   UNL A   1      31.535  22.013  25.557  1.00  0.00     0.363 C 
BRANCH   8   9
ATOM      9  N   UNL A   1      31.887  22.267  24.116  1.00  0.00    -0.326 N 
ATOM     10  C   UNL A   1      31.069  23.234  23.375  1.00  0.00     0.333 C 
ATOM     11  H   UNL A   1      32.773  22.741  24.292  1.00  0.00     0.348 HD
BRANCH   9  12
ATOM     12  C   UNL A   1      32.207  21.111  23.295  1.00  0.00     0.303 C 
BRANCH  12  13
ATOM     13  C   UNL A   1      32.845  19.947  23.992  1.00  0.00     0.052 A 
ATOM     14  C   UNL A   1      32.473  18.634  23.559  1.00  0.00     0.014 A 
ATOM     15  C   UNL A   1      33.998  19.985  24.753  1.00  0.00     0.170 A 
ATOM     16  C   UNL A   1      33.249  17.418  23.722  1.00  0.00     0.005 A 
ATOM     17  C   UNL A   1      34.965  18.578  24.749  1.00  0.00     0.161 A 
ATOM     18  O   UNL A   1      34.755  21.597  24.924  1.00  0.00    -0.486 OA
ATOM     19  C   UNL A   1      34.530  17.363  24.284  1.00  0.00     0.050 A 
ATOM     20  O   UNL A   1      36.685  18.647  24.851  1.00  0.00    -0.486 OA
ATOM     21  C   UNL A   1      36.622  21.847  24.857  1.00  0.00     0.271 C 
ATOM     22  C   UNL A   1      37.665  20.199  24.750  1.00  0.00     0.271 C 
ENDBRANCH  12  13
ENDBRANCH   9  12
ENDBRANCH   8   9
ENDBRANCH   5   8
ENDBRANCH   3   4
ENDBRANCH   2   3
ENDBRANCH   1   2
BRANCH   1  23
ATOM     23  C   UNL A   1      32.340  27.671  26.198  1.00  0.00     0.002 C 
BRANCH  23  24
ATOM     24  C   UNL A   1      31.822  29.106  26.293  1.00  0.00     0.021 C 
BRANCH  24  25
ATOM     25  C   UNL A   1      32.829  30.123  25.774  1.00  0.00     0.116 C 
BRANCH  25  26
ATOM     26  N   UNL A   1      32.494  31.475  26.232  1.00  0.00    -0.352 N 
ATOM     27  C   UNL A   1      33.011  32.181  27.282  1.00  0.00     0.251 C 
ATOM     28  H   UNL A   1      31.799  31.938  25.711  1.00  0.00     0.163 HD
ATOM     29  O   UNL A   1      32.401  33.115  27.786  1.00  0.00    -0.269 OA
BRANCH  27  30
ATOM     30  C   UNL A   1      34.336  31.782  27.758  1.00  0.00     0.039 A 
ATOM     31  C   UNL A   1      35.350  32.729  27.879  1.00  0.00     0.014 A 
ATOM     32  C   UNL A   1      34.510  30.460  28.176  1.00  0.00     0.014 A 
ATOM     33  C   UNL A   1      36.538  32.351  28.494  1.00  0.00     0.010 A 
ATOM     34  C   UNL A   1      35.631  30.130  28.905  1.00  0.00     0.010 A 
ATOM     35  C   UNL A   1      36.664  31.065  29.048  1.00  0.00    -0.014 A 
BRANCH  35  36
ATOM     36  C   UNL A   1      37.874  30.661  29.788  1.00  0.00     0.031 A 
ATOM     37  C   UNL A   1      38.833  29.692  29.159  1.00  0.00     0.074 A 
ATOM     38  C   UNL A   1      38.041  31.090  31.053  1.00  0.00     0.049 A 
ATOM     39  N   UNL A   1      39.918  29.171  29.662  1.00  0.00    -0.248 NA
ATOM     40  C   UNL A   1      38.513  29.212  27.801  1.00  0.00     0.031 C 
ATOM     41  C   UNL A   1      37.109  31.950  31.788  1.00  0.00     0.029 A 
ATOM     42  N   UNL A   1      39.043  30.843  31.952  1.00  0.00    -0.354 N 
ATOM     43  C   UNL A   1      40.384  28.279  28.705  1.00  0.00     0.074 A 
ATOM     44  C   UNL A   1      39.437  28.284  27.615  1.00  0.00     0.031 C 
ATOM     45  C   UNL A   1      37.596  32.178  33.016  1.00  0.00     0.029 A 
ATOM     46  C   UNL A   1      38.848  31.446  33.171  1.00  0.00     0.049 A 
ATOM     47  H   UNL A   1      39.829  30.285  31.746  1.00  0.00     0.167 HD
ATOM     48  C   UNL A   1      41.520  27.547  28.720  1.00  0.00     0.034 A 
ATOM     49  C   UNL A   1      39.593  31.401  34.291  1.00  0.00     0.034 A 
ATOM     50  C   UNL A   1      42.467  27.582  29.798  1.00  0.00     0.049 A 
ATOM     51  C   UNL A   1      40.868  30.603  34.269  1.00  0.00     0.074 A 
ATOM     52  C   UNL A   1      43.699  26.963  29.879  1.00  0.00     0.029 A 
ATOM     53  N   UNL A   1      42.274  28.260  30.992  1.00  0.00    -0.354 N 
ATOM     54  N   UNL A   1      41.386  29.905  33.288  1.00  0.00    -0.248 NA
ATOM     55  C   UNL A   1      41.673  30.610  35.497  1.00  0.00     0.031 C 
ATOM     56  C   UNL A   1      44.231  27.228  31.144  1.00  0.00     0.029 A 
ATOM     57  C   UNL A   1      43.352  28.050  31.832  1.00  0.00     0.049 A 
ATOM     58  H   UNL A   1      41.487  28.809  31.211  1.00  0.00     0.167 HD
ATOM     59  C   UNL A   1      42.590  29.406  33.770  1.00  0.00     0.074 A 
ATOM     60  C   UNL A   1      42.736  29.911  35.121  1.00  0.00     0.031 C 
ATOM     61  C   UNL A   1      43.486  28.589  33.162  1.00  0.00     0.034 A 
BRANCH  48  62
ATOM     62  C   UNL A   1      41.808  26.680  27.524  1.00  0.00     0.023 A 
ATOM     63  C   UNL A   1      42.398  27.240  26.372  1.00  0.00     0.012 A 
ATOM     64  C   UNL A   1      41.528  25.301  27.555  1.00  0.00     0.148 A 
ATOM     65  C   UNL A   1      42.669  26.450  25.256  1.00  0.00     0.002 A 
ATOM     66  C   UNL A   1      41.851  24.510  26.460  1.00  0.00     0.091 A 
ATOM     67  F   UNL A   1      40.942  24.791  28.648  1.00  0.00    -0.205 F 
ATOM     68  C   UNL A   1      42.407  25.085  25.305  1.00  0.00     0.022 A 
BRANCH  66  69
ATOM     69  S   UNL A   1      41.629  22.728  26.453  1.00  0.00     0.127 S 
ATOM     70  O   UNL A   1      40.179  22.612  26.312  1.00  0.00    -0.237 OA
ATOM     71  O   UNL A   1      42.392  22.332  25.269  1.00  0.00    -0.237 OA
ATOM     72  O   UNL A   1      42.171  22.248  27.716  1.00  0.00    -0.744 OA
ENDBRANCH  66  69
ENDBRANCH  48  62
BRANCH  49  73
ATOM     73  C   UNL A   1      39.171  32.161  35.499  1.00  0.00     0.023 A 
ATOM     74  C   UNL A   1      38.331  31.550  36.450  1.00  0.00     0.012 A 
ATOM     75  C   UNL A   1      39.625  33.475  35.727  1.00  0.00     0.148 A 
ATOM     76  C   UNL A   1      37.922  32.245  37.588  1.00  0.00     0.002 A 
ATOM     77  C   UNL A   1      39.262  34.141  36.891  1.00  0.00     0.091 A 
ATOM     78  F   UNL A   1      40.421  34.039  34.809  1.00  0.00    -0.205 F 
ATOM     79  C   UNL A   1      38.394  33.537  37.814  1.00  0.00     0.022 A 
BRANCH  77  80
ATOM     80  S   UNL A   1      39.929  35.750  37.328  1.00  0.00     0.127 S 
ATOM     81  O   UNL A   1      39.179  36.066  38.540  1.00  0.00    -0.237 OA
ATOM     82  O   UNL A   1      41.344  35.440  37.541  1.00  0.00    -0.237 OA
ATOM     83  O   UNL A   1      39.670  36.611  36.182  1.00  0.00    -0.744 OA
ENDBRANCH  77  80
ENDBRANCH  49  73
BRANCH  61  84
ATOM     84  C   UNL A   1      44.710  28.202  33.945  1.00  0.00     0.023 A 
ATOM     85  C   UNL A   1      45.871  28.995  33.868  1.00  0.00     0.012 A 
ATOM     86  C   UNL A   1      44.682  27.095  34.815  1.00  0.00     0.148 A 
ATOM     87  C   UNL A   1      46.999  28.672  34.620  1.00  0.00     0.002 A 
ATOM     88  C   UNL A   1      45.788  26.812  35.603  1.00  0.00     0.091 A 
ATOM     89  F   UNL A   1      43.569  26.348  34.863  1.00  0.00    -0.205 F 
ATOM     90  C   UNL A   1      46.953  27.589  35.496  1.00  0.00     0.022 A 
BRANCH  88  91
ATOM     91  S   UNL A   1      45.791  25.502  36.830  1.00  0.00     0.127 S 
ATOM     92  O   UNL A   1      47.214  25.396  37.149  1.00  0.00    -0.237 OA
ATOM     93  O   UNL A   1      44.967  26.076  37.894  1.00  0.00    -0.237 OA
ATOM     94  O   UNL A   1      45.214  24.334  36.178  1.00  0.00    -0.744 OA
ENDBRANCH  88  91
ENDBRANCH  61  84
ENDBRANCH  35  36
ENDBRANCH  27  30
ENDBRANCH  25  26
ENDBRANCH  24  25
ENDBRANCH  23  24
ENDBRANCH   1  23
TORSDOF 19
ENDMDL
MODEL 3
REMARK VINA RESULT:     -11.3      5.248      9.144
REMARK SMILES C[N@@H+](CC(=O)NCCCCCCNC(=O)c1ccc(-c2c3nc(c(-c4cccc(S(=O)(=O)[O-])c4F)c4ccc([nH]4)c(-c4cccc(S(=O)(=O)[O-])c4F)c4nc(c(-c5cccc(S(=O)(=O)[O-])c5F)c5ccc2[nH]5)C=C4)C=C3)cc1)Cc1cccc2c1OCCO2
REMARK SMILES IDX 9 1 8 2 7 3 6 4 4 5 5 6 3 8 2 9 1 10 79 12 80 13 81 14 85 15
REMARK SMILES IDX 82 16 84 17 86 18 83 19 89 20 87 21 88 22 10 23 11 24 12 25
REMARK SMILES IDX 13 26 14 27 15 29 16 30 17 31 78 32 18 33 77 34 19 35 20 36
REMARK SMILES IDX 21 37 71 38 22 39 76 40 70 41 72 42 23 43 75 44 69 45 68 46
REMARK SMILES IDX 24 48 56 49 36 50 55 51 37 52 40 53 54 54 73 55 38 56 39 57
REMARK SMILES IDX 53 59 74 60 41 61 25 62 26 63 34 64 27 65 29 66 35 67 28 68
REMARK SMILES IDX 30 69 31 70 32 71 33 72 57 73 58 74 66 75 59 76 61 77 67 78
REMARK SMILES IDX 60 79 62 80 63 81 64 82 65 83 42 84 43 85 51 86 44 87 46 88
REMARK SMILES IDX 52 89 45 90 47 91 48 92 49 93 50 94
REMARK H PARENT 6 7 2 11 13 28 72 47 40 58
REMARK Flexibility Score: inf
ROOT
ATOM      1  C   UNL A   1      31.240  28.380  25.781  1.00  0.00     0.002 C 
ENDROOT
BRANCH   1   2
ATOM      2  C   UNL A   1      31.073  29.559  24.812  1.00  0.00     0.021 C 
BRANCH   2   3
ATOM      3  C   UNL A   1      31.121  29.079  23.248  1.00  0.00     0.116 C 
BRANCH   3   4
ATOM      4  N   UNL A   1      32.288  27.779  22.187  1.00  0.00    -0.351 N 
ATOM      5  C   UNL A   1      32.900  26.465  22.153  1.00  0.00     0.275 C 
ATOM      6  O   UNL A   1      33.654  26.288  21.178  1.00  0.00    -0.269 OA
ATOM      7  H   UNL A   1      32.539  28.233  21.350  1.00  0.00     0.163 HD
BRANCH   5   8
ATOM      8  C   UNL A   1      32.614  25.216  23.140  1.00  0.00     0.363 C 
BRANCH   8   9
ATOM      9  N   UNL A   1      31.806  24.011  22.744  1.00  0.00    -0.326 N 
ATOM     10  C   UNL A   1      30.649  23.662  23.576  1.00  0.00     0.333 C 
ATOM     11  H   UNL A   1      31.415  24.405  21.888  1.00  0.00     0.348 HD
BRANCH   9  12
ATOM     12  C   UNL A   1      32.538  22.822  22.337  1.00  0.00     0.303 C 
BRANCH  12  13
ATOM     13  C   UNL A   1      32.829  21.814  23.408  1.00  0.00     0.052 A 
ATOM     14  C   UNL A   1      32.158  20.552  23.327  1.00  0.00     0.014 A 
ATOM     15  C   UNL A   1      33.920  21.819  24.257  1.00  0.00     0.170 A 
ATOM     16  C   UNL A   1      32.593  19.301  23.921  1.00  0.00     0.005 A 
ATOM     17  C   UNL A   1      34.500  20.297  24.769  1.00  0.00     0.161 A 
ATOM     18  O   UNL A   1      35.051  23.189  24.048  1.00  0.00    -0.486 OA
ATOM     19  C   UNL A   1      33.792  19.130  24.623  1.00  0.00     0.050 A 
ATOM     20  O   UNL A   1      36.175  20.001  25.049  1.00  0.00    -0.486 OA
ATOM     21  C   UNL A   1      36.922  22.975  24.134  1.00  0.00     0.271 C 
ATOM     22  C   UNL A   1      37.519  21.181  24.626  1.00  0.00     0.271 C 
ENDBRANCH  12  13
ENDBRANCH   9  12
ENDBRANCH   8   9
ENDBRANCH   5   8
ENDBRANCH   3   4
ENDBRANCH   2   3
ENDBRANCH   1   2
BRANCH   1  23
ATOM     23  C   UNL A   1      32.486  28.431  26.691  1.00  0.00     0.002 C 
BRANCH  23  24
ATOM     24  C   UNL A   1      33.816  28.465  25.939  1.00  0.00     0.021 C 
BRANCH  24  25
ATOM     25  C   UNL A   1      34.940  29.063  26.773  1.00  0.00     0.116 C 
BRANCH  25  26
ATOM     26  N   UNL A   1      34.640  30.450  27.142  1.00  0.00    -0.352 N 
ATOM     27  C   UNL A   1      35.030  31.150  28.249  1.00  0.00     0.251 C 
ATOM     28  H   UNL A   1      34.079  30.945  26.503  1.00  0.00     0.163 HD
ATOM     29  O   UNL A   1      34.420  32.142  28.626  1.00  0.00    -0.269 OA
BRANCH  27  30
ATOM     30  C   UNL A   1      36.224  30.672  28.948  1.00  0.00     0.039 A 
ATOM     31  C   UNL A   1      36.113  29.703  29.942  1.00  0.00     0.014 A 
ATOM     32  C   UNL A   1      37.467  31.141  28.513  1.00  0.00     0.014 A 
ATOM     33  C   UNL A   1      37.278  29.151  30.460  1.00  0.00     0.010 A 
ATOM     34  C   UNL A   1      38.610  30.494  28.930  1.00  0.00     0.010 A 
ATOM     35  C   UNL A   1      38.527  29.512  29.924  1.00  0.00    -0.014 A 
BRANCH  35  36
ATOM     36  C   UNL A   1      39.775  28.878  30.385  1.00  0.00     0.031 A 
ATOM     37  C   UNL A   1      40.480  29.431  31.591  1.00  0.00     0.074 A 
ATOM     38  C   UNL A   1      40.311  27.881  29.657  1.00  0.00     0.049 A 
ATOM     39  N   UNL A   1      41.612  29.055  32.121  1.00  0.00    -0.248 NA
ATOM     40  C   UNL A   1      39.855  30.583  32.268  1.00  0.00     0.031 C 
ATOM     41  C   UNL A   1      39.753  27.346  28.412  1.00  0.00     0.029 A 
ATOM     42  N   UNL A   1      41.456  27.156  29.847  1.00  0.00    -0.354 N 
ATOM     43  C   UNL A   1      41.851  29.944  33.160  1.00  0.00     0.074 A 
ATOM     44  C   UNL A   1      40.779  30.912  33.155  1.00  0.00     0.031 C 
ATOM     45  C   UNL A   1      40.546  26.360  27.963  1.00  0.00     0.029 A 
ATOM     46  C   UNL A   1      41.686  26.225  28.862  1.00  0.00     0.049 A 
ATOM     47  H   UNL A   1      42.058  27.288  30.615  1.00  0.00     0.167 HD
ATOM     48  C   UNL A   1      42.857  29.932  34.062  1.00  0.00     0.034 A 
ATOM     49  C   UNL A   1      42.713  25.370  28.699  1.00  0.00     0.034 A 
ATOM     50  C   UNL A   1      43.895  28.940  34.073  1.00  0.00     0.049 A 
ATOM     51  C   UNL A   1      43.802  25.357  29.734  1.00  0.00     0.074 A 
ATOM     52  C   UNL A   1      44.907  28.766  34.996  1.00  0.00     0.029 A 
ATOM     53  N   UNL A   1      44.061  27.965  33.101  1.00  0.00    -0.354 N 
ATOM     54  N   UNL A   1      43.921  26.089  30.816  1.00  0.00    -0.248 NA
ATOM     55  C   UNL A   1      44.885  24.382  29.543  1.00  0.00     0.031 C 
ATOM     56  C   UNL A   1      45.716  27.716  34.556  1.00  0.00     0.029 A 
ATOM     57  C   UNL A   1      45.180  27.204  33.384  1.00  0.00     0.049 A 
ATOM     58  H   UNL A   1      43.471  27.834  32.324  1.00  0.00     0.167 HD
ATOM     59  C   UNL A   1      45.078  25.650  31.448  1.00  0.00     0.074 A 
ATOM     60  C   UNL A   1      45.605  24.567  30.641  1.00  0.00     0.031 C 
ATOM     61  C   UNL A   1      45.665  26.111  32.580  1.00  0.00     0.034 A 
BRANCH  48  62
ATOM     62  C   UNL A   1      42.859  31.001  35.122  1.00  0.00     0.023 A 
ATOM     63  C   UNL A   1      42.262  30.753  36.376  1.00  0.00     0.012 A 
ATOM     64  C   UNL A   1      43.486  32.239  34.889  1.00  0.00     0.148 A 
ATOM     65  C   UNL A   1      42.255  31.734  37.366  1.00  0.00     0.002 A 
ATOM     66  C   UNL A   1      43.521  33.192  35.899  1.00  0.00     0.091 A 
ATOM     67  F   UNL A   1      44.023  32.468  33.682  1.00  0.00    -0.205 F 
ATOM     68  C   UNL A   1      42.894  32.947  37.132  1.00  0.00     0.022 A 
BRANCH  66  69
ATOM     69  S   UNL A   1      44.390  34.754  35.727  1.00  0.00     0.127 S 
ATOM     70  O   UNL A   1      43.604  35.416  34.688  1.00  0.00    -0.237 OA
ATOM     71  O   UNL A   1      44.244  35.331  37.064  1.00  0.00    -0.237 OA
ATOM     72  O   UNL A   1      45.756  34.418  35.354  1.00  0.00    -0.744 OA
ENDBRANCH  66  69
ENDBRANCH  48  62
BRANCH  49  73
ATOM     73  C   UNL A   1      42.730  24.438  27.538  1.00  0.00     0.023 A 
ATOM     74  C   UNL A   1      43.356  24.829  26.339  1.00  0.00     0.012 A 
ATOM     75  C   UNL A   1      42.158  23.154  27.628  1.00  0.00     0.148 A 
ATOM     76  C   UNL A   1      43.382  23.972  25.239  1.00  0.00     0.002 A 
ATOM     77  C   UNL A   1      42.238  22.283  26.548  1.00  0.00     0.091 A 
ATOM     78  F   UNL A   1      41.564  22.803  28.776  1.00  0.00    -0.205 F 
ATOM     79  C   UNL A   1      42.831  22.697  25.345  1.00  0.00     0.022 A 
BRANCH  77  80
ATOM     80  S   UNL A   1      41.678  20.580  26.641  1.00  0.00     0.127 S 
ATOM     81  O   UNL A   1      40.229  20.745  26.712  1.00  0.00    -0.237 OA
ATOM     82  O   UNL A   1      42.176  20.031  25.379  1.00  0.00    -0.237 OA
ATOM     83  O   UNL A   1      42.309  20.019  27.828  1.00  0.00    -0.744 OA
ENDBRANCH  77  80
ENDBRANCH  49  73
BRANCH  61  84
ATOM     84  C   UNL A   1      46.935  25.438  33.024  1.00  0.00     0.023 A 
ATOM     85  C   UNL A   1      48.180  25.929  32.585  1.00  0.00     0.012 A 
ATOM     86  C   UNL A   1      46.894  24.367  33.937  1.00  0.00     0.148 A 
ATOM     87  C   UNL A   1      49.365  25.342  33.021  1.00  0.00     0.002 A 
ATOM     88  C   UNL A   1      48.080  23.823  34.412  1.00  0.00     0.091 A 
ATOM     89  F   UNL A   1      45.697  23.909  34.333  1.00  0.00    -0.205 F 
ATOM     90  C   UNL A   1      49.316  24.298  33.943  1.00  0.00     0.022 A 
BRANCH  88  91
ATOM     91  S   UNL A   1      48.121  22.546  35.672  1.00  0.00     0.127 S 
ATOM     92  O   UNL A   1      47.550  23.245  36.823  1.00  0.00    -0.237 OA
ATOM     93  O   UNL A   1      47.260  21.515  35.094  1.00  0.00    -0.237 OA
ATOM     94  O   UNL A   1      49.520  22.162  35.814  1.00  0.00    -0.744 OA
ENDBRANCH  88  91
ENDBRANCH  61  84
ENDBRANCH  35  36
ENDBRANCH  27  30
ENDBRANCH  25  26
ENDBRANCH  24  25
ENDBRANCH  23  24
ENDBRANCH   1  23
TORSDOF 19
ENDMDL
