MODEL 1
REMARK VINA RESULT:     -12.5      0.000      0.000
REMARK SMILES Cc1cc2c(c(C)c1Cl)C=C(C(=O)NCCCCCCNC(=O)c1ccc(-c3c4nc(c(-c5cccc(S(=O)(=O)[O-])c5F)c5ccc([nH]5)c(-c5cccc(S(=O)(=O)[O-])c5F)c5nc(c(-c6cccc(S(=O)(=O)[O-])c6F)c6ccc3[nH]6)C=C5)C=C4)cc1)[C@H](C(F)(F)F)O2
REMARK SMILES IDX 18 1 17 2 16 3 15 4 14 5 12 6 13 7 11 9 1 10 2 11 3 12 8 13
REMARK SMILES IDX 4 14 6 15 9 16 5 17 92 18 7 19 10 20 87 21 88 22 89 23 90 24
REMARK SMILES IDX 91 25 19 26 20 27 21 28 22 29 23 31 24 32 25 33 86 34 26 35
REMARK SMILES IDX 85 36 27 37 28 38 29 39 79 40 30 41 84 42 78 43 80 44 31 45
REMARK SMILES IDX 83 46 77 47 76 48 32 50 64 51 44 52 63 53 45 54 48 55 62 56
REMARK SMILES IDX 81 57 46 58 47 59 61 61 82 62 49 63 33 64 34 65 42 66 35 67
REMARK SMILES IDX 37 68 43 69 36 70 38 71 39 72 40 73 41 74 65 75 66 76 74 77
REMARK SMILES IDX 67 78 69 79 75 80 68 81 70 82 71 83 72 84 73 85 50 86 51 87
REMARK SMILES IDX 59 88 52 89 54 90 60 91 53 92 55 93 56 94 57 95 58 96
REMARK H PARENT 14 8 21 30 80 49 48 60
REMARK Flexibility Score: inf
ROOT
ATOM      1  C   UNL A   1      31.469  30.748  26.331  1.00  0.00     0.002 C 
ENDROOT
BRANCH   1   2
ATOM      2  C   UNL A   1      32.320  29.896  27.281  1.00  0.00     0.002 C 
BRANCH   2   3
ATOM      3  C   UNL A   1      32.780  28.552  26.711  1.00  0.00     0.021 C 
BRANCH   3   4
ATOM      4  C   UNL A   1      34.045  28.642  25.859  1.00  0.00     0.116 C 
BRANCH   4   5
ATOM      5  N   UNL A   1      33.730  28.979  24.483  1.00  0.00    -0.352 N 
ATOM      6  C   UNL A   1      33.276  28.339  23.383  1.00  0.00     0.251 C 
ATOM      7  O   UNL A   1      33.160  29.051  22.379  1.00  0.00    -0.270 OA
ATOM      8  H   UNL A   1      33.892  29.933  24.301  1.00  0.00     0.163 HD
BRANCH   6   9
ATOM      9  C   UNL A   1      32.915  26.890  23.304  1.00  0.00     0.067 C 
ATOM     10  C   UNL A   1      32.519  20.404  23.731  1.00  0.00     0.046 C 
ATOM     11  C   UNL A   1      32.916  21.853  23.791  1.00  0.00    -0.028 A 
ATOM     12  C   UNL A   1      32.148  22.784  23.086  1.00  0.00     0.052 A 
ATOM     13  C   UNL A   1      34.016  22.310  24.544  1.00  0.00     0.047 A 
ATOM     14  C   UNL A   1      32.454  24.139  23.138  1.00  0.00     0.128 A 
ATOM     15  C   UNL A   1      34.354  23.686  24.588  1.00  0.00    -0.021 A 
ATOM     16  Cl  UNL A   1      34.954  21.141  25.426  1.00  0.00    -0.084 Cl
ATOM     17  C   UNL A   1      33.545  24.606  23.875  1.00  0.00     0.022 A 
ATOM     18  O   UNL A   1      31.649  24.944  22.389  1.00  0.00    -0.475 OA
ATOM     19  C   UNL A   1      35.542  24.191  25.370  1.00  0.00     0.047 C 
ATOM     20  C   UNL A   1      33.811  26.047  23.849  1.00  0.00     0.026 C 
ATOM     21  C   UNL A   1      31.643  26.358  22.709  1.00  0.00     0.314 C 
BRANCH  21  22
ATOM     22  C   UNL A   1      30.390  26.691  23.541  1.00  0.00     0.429 C 
ATOM     23  F   UNL A   1      29.578  25.622  23.714  1.00  0.00    -0.167 F 
ATOM     24  F   UNL A   1      30.740  27.117  24.779  1.00  0.00    -0.167 F 
ATOM     25  F   UNL A   1      29.633  27.661  22.978  1.00  0.00    -0.167 F 
ENDBRANCH  21  22
ENDBRANCH   6   9
ENDBRANCH   4   5
ENDBRANCH   3   4
ENDBRANCH   2   3
ENDBRANCH   1   2
BRANCH   1  26
ATOM     26  C   UNL A   1      31.415  32.242  26.661  1.00  0.00     0.021 C 
BRANCH  26  27
ATOM     27  C   UNL A   1      32.709  32.809  27.237  1.00  0.00     0.116 C 
BRANCH  27  28
ATOM     28  N   UNL A   1      32.538  34.183  27.679  1.00  0.00    -0.352 N 
ATOM     29  C   UNL A   1      33.111  34.829  28.745  1.00  0.00     0.251 C 
ATOM     30  H   UNL A   1      31.923  34.729  27.137  1.00  0.00     0.163 HD
ATOM     31  O   UNL A   1      32.664  35.906  29.125  1.00  0.00    -0.269 OA
BRANCH  29  32
ATOM     32  C   UNL A   1      34.270  34.220  29.433  1.00  0.00     0.039 A 
ATOM     33  C   UNL A   1      35.556  34.471  28.949  1.00  0.00     0.014 A 
ATOM     34  C   UNL A   1      34.080  33.380  30.534  1.00  0.00     0.014 A 
ATOM     35  C   UNL A   1      36.658  33.906  29.595  1.00  0.00     0.010 A 
ATOM     36  C   UNL A   1      35.181  32.872  31.214  1.00  0.00     0.010 A 
ATOM     37  C   UNL A   1      36.479  33.115  30.742  1.00  0.00    -0.014 A 
BRANCH  37  38
ATOM     38  C   UNL A   1      37.633  32.505  31.446  1.00  0.00     0.031 A 
ATOM     39  C   UNL A   1      38.353  31.337  30.828  1.00  0.00     0.074 A 
ATOM     40  C   UNL A   1      37.985  32.952  32.667  1.00  0.00     0.049 A 
ATOM     41  N   UNL A   1      39.332  30.622  31.315  1.00  0.00    -0.248 NA
ATOM     42  C   UNL A   1      37.898  30.901  29.496  1.00  0.00     0.031 C 
ATOM     43  C   UNL A   1      37.327  34.043  33.387  1.00  0.00     0.029 A 
ATOM     44  N   UNL A   1      38.969  32.530  33.526  1.00  0.00    -0.354 N 
ATOM     45  C   UNL A   1      39.593  29.640  30.367  1.00  0.00     0.074 A 
ATOM     46  C   UNL A   1      38.643  29.825  29.293  1.00  0.00     0.031 C 
ATOM     47  C   UNL A   1      37.929  34.209  34.576  1.00  0.00     0.029 A 
ATOM     48  C   UNL A   1      38.993  33.218  34.717  1.00  0.00     0.049 A 
ATOM     49  H   UNL A   1      39.597  31.804  33.311  1.00  0.00     0.167 HD
ATOM     50  C   UNL A   1      40.559  28.691  30.375  1.00  0.00     0.034 A 
ATOM     51  C   UNL A   1      39.780  33.064  35.800  1.00  0.00     0.034 A 
ATOM     52  C   UNL A   1      41.528  28.542  31.426  1.00  0.00     0.049 A 
ATOM     53  C   UNL A   1      40.854  32.009  35.776  1.00  0.00     0.074 A 
ATOM     54  C   UNL A   1      42.587  27.654  31.496  1.00  0.00     0.029 A 
ATOM     55  N   UNL A   1      41.560  29.296  32.589  1.00  0.00    -0.354 N 
ATOM     56  N   UNL A   1      41.170  31.175  34.815  1.00  0.00    -0.248 NA
ATOM     57  C   UNL A   1      41.702  31.894  36.972  1.00  0.00     0.031 C 
ATOM     58  C   UNL A   1      43.247  27.858  32.710  1.00  0.00     0.029 A 
ATOM     59  C   UNL A   1      42.615  28.890  33.386  1.00  0.00     0.049 A 
ATOM     60  H   UNL A   1      40.926  30.015  32.813  1.00  0.00     0.167 HD
ATOM     61  C   UNL A   1      42.267  30.457  35.277  1.00  0.00     0.074 A 
ATOM     62  C   UNL A   1      42.579  30.973  36.594  1.00  0.00     0.031 C 
ATOM     63  C   UNL A   1      42.944  29.447  34.674  1.00  0.00     0.034 A 
BRANCH  50  64
ATOM     64  C   UNL A   1      40.665  27.782  29.179  1.00  0.00     0.023 A 
ATOM     65  C   UNL A   1      39.803  26.669  29.080  1.00  0.00     0.012 A 
ATOM     66  C   UNL A   1      41.544  28.070  28.118  1.00  0.00     0.148 A 
ATOM     67  C   UNL A   1      39.831  25.845  27.956  1.00  0.00     0.002 A 
ATOM     68  C   UNL A   1      41.534  27.271  26.980  1.00  0.00     0.091 A 
ATOM     69  F   UNL A   1      42.369  29.120  28.239  1.00  0.00    -0.205 F 
ATOM     70  C   UNL A   1      40.686  26.153  26.902  1.00  0.00     0.022 A 
BRANCH  68  71
ATOM     71  S   UNL A   1      42.534  27.627  25.531  1.00  0.00     0.127 S 
ATOM     72  O   UNL A   1      43.880  27.669  26.103  1.00  0.00    -0.237 OA
ATOM     73  O   UNL A   1      42.269  26.466  24.682  1.00  0.00    -0.237 OA
ATOM     74  O   UNL A   1      42.045  28.894  25.003  1.00  0.00    -0.744 OA
ENDBRANCH  68  71
ENDBRANCH  50  64
BRANCH  51  75
ATOM     75  C   UNL A   1      39.629  33.986  36.963  1.00  0.00     0.023 A 
ATOM     76  C   UNL A   1      40.023  35.331  36.827  1.00  0.00     0.012 A 
ATOM     77  C   UNL A   1      39.054  33.559  38.175  1.00  0.00     0.148 A 
ATOM     78  C   UNL A   1      39.868  36.229  37.884  1.00  0.00     0.002 A 
ATOM     79  C   UNL A   1      38.849  34.471  39.205  1.00  0.00     0.091 A 
ATOM     80  F   UNL A   1      38.697  32.272  38.290  1.00  0.00    -0.205 F 
ATOM     81  C   UNL A   1      39.271  35.803  39.067  1.00  0.00     0.022 A 
BRANCH  79  82
ATOM     82  S   UNL A   1      37.958  34.049  40.707  1.00  0.00     0.127 S 
ATOM     83  O   UNL A   1      36.762  33.401  40.174  1.00  0.00    -0.237 OA
ATOM     84  O   UNL A   1      38.901  33.151  41.374  1.00  0.00    -0.237 OA
ATOM     85  O   UNL A   1      37.737  35.309  41.402  1.00  0.00    -0.744 OA
ENDBRANCH  79  82
ENDBRANCH  51  75
BRANCH  63  86
ATOM     86  C   UNL A   1      44.101  28.830  35.416  1.00  0.00     0.023 A 
ATOM     87  C   UNL A   1      45.388  29.387  35.283  1.00  0.00     0.012 A 
ATOM     88  C   UNL A   1      43.895  27.777  36.330  1.00  0.00     0.148 A 
ATOM     89  C   UNL A   1      46.456  28.890  36.027  1.00  0.00     0.002 A 
ATOM     90  C   UNL A   1      44.953  27.321  37.107  1.00  0.00     0.091 A 
ATOM     91  F   UNL A   1      42.665  27.250  36.433  1.00  0.00    -0.205 F 
ATOM     92  C   UNL A   1      46.237  27.868  36.949  1.00  0.00     0.022 A 
BRANCH  90  93
ATOM     93  S   UNL A   1      44.743  26.086  38.394  1.00  0.00     0.127 S 
ATOM     94  O   UNL A   1      44.160  24.972  37.647  1.00  0.00    -0.237 OA
ATOM     95  O   UNL A   1      46.119  25.865  38.840  1.00  0.00    -0.237 OA
ATOM     96  O   UNL A   1      43.873  26.689  39.393  1.00  0.00    -0.744 OA
ENDBRANCH  90  93
ENDBRANCH  63  86
ENDBRANCH  37  38
ENDBRANCH  29  32
ENDBRANCH  27  28
ENDBRANCH  26  27
ENDBRANCH   1  26
TORSDOF 17
ENDMDL
MODEL 2
REMARK VINA RESULT:     -12.4      6.136     11.920
REMARK SMILES Cc1cc2c(c(C)c1Cl)C=C(C(=O)NCCCCCCNC(=O)c1ccc(-c3c4nc(c(-c5cccc(S(=O)(=O)[O-])c5F)c5ccc([nH]5)c(-c5cccc(S(=O)(=O)[O-])c5F)c5nc(c(-c6cccc(S(=O)(=O)[O-])c6F)c6ccc3[nH]6)C=C5)C=C4)cc1)[C@H](C(F)(F)F)O2
REMARK SMILES IDX 18 1 17 2 16 3 15 4 14 5 12 6 13 7 11 9 1 10 2 11 3 12 8 13
REMARK SMILES IDX 4 14 6 15 9 16 5 17 92 18 7 19 10 20 87 21 88 22 89 23 90 24
REMARK SMILES IDX 91 25 19 26 20 27 21 28 22 29 23 31 24 32 25 33 86 34 26 35
REMARK SMILES IDX 85 36 27 37 28 38 29 39 79 40 30 41 84 42 78 43 80 44 31 45
REMARK SMILES IDX 83 46 77 47 76 48 32 50 64 51 44 52 63 53 45 54 48 55 62 56
REMARK SMILES IDX 81 57 46 58 47 59 61 61 82 62 49 63 33 64 34 65 42 66 35 67
REMARK SMILES IDX 37 68 43 69 36 70 38 71 39 72 40 73 41 74 65 75 66 76 74 77
REMARK SMILES IDX 67 78 69 79 75 80 68 81 70 82 71 83 72 84 73 85 50 86 51 87
REMARK SMILES IDX 59 88 52 89 54 90 60 91 53 92 55 93 56 94 57 95 58 96
REMARK H PARENT 14 8 21 30 80 49 48 60
REMARK Flexibility Score: inf
ROOT
ATOM      1  C   UNL A   1      37.533  20.476  24.787  1.00  0.00     0.002 C 
ENDROOT
BRANCH   1   2
ATOM      2  C   UNL A   1      37.945  21.904  25.169  1.00  0.00     0.002 C 
BRANCH   2   3
ATOM      3  C   UNL A   1      36.973  23.000  24.724  1.00  0.00     0.021 C 
BRANCH   3   4
ATOM      4  C   UNL A   1      36.403  23.826  25.876  1.00  0.00     0.116 C 
BRANCH   4   5
ATOM      5  N   UNL A   1      35.507  23.034  26.698  1.00  0.00    -0.352 N 
ATOM      6  C   UNL A   1      34.173  22.879  26.847  1.00  0.00     0.251 C 
ATOM      7  O   UNL A   1      33.838  22.063  27.714  1.00  0.00    -0.270 OA
ATOM      8  H   UNL A   1      36.006  22.452  27.315  1.00  0.00     0.163 HD
BRANCH   6   9
ATOM      9  C   UNL A   1      33.119  23.595  26.063  1.00  0.00     0.067 C 
ATOM     10  C   UNL A   1      29.113  27.870  23.220  1.00  0.00     0.046 C 
ATOM     11  C   UNL A   1      30.157  27.165  24.042  1.00  0.00    -0.028 A 
ATOM     12  C   UNL A   1      30.164  25.767  24.053  1.00  0.00     0.052 A 
ATOM     13  C   UNL A   1      31.138  27.856  24.782  1.00  0.00     0.047 A 
ATOM     14  C   UNL A   1      31.130  25.070  24.769  1.00  0.00     0.128 A 
ATOM     15  C   UNL A   1      32.114  27.158  25.535  1.00  0.00    -0.021 A 
ATOM     16  Cl  UNL A   1      31.123  29.594  24.747  1.00  0.00    -0.084 Cl
ATOM     17  C   UNL A   1      32.104  25.741  25.512  1.00  0.00     0.022 A 
ATOM     18  O   UNL A   1      31.018  23.712  24.723  1.00  0.00    -0.475 OA
ATOM     19  C   UNL A   1      33.159  27.880  26.352  1.00  0.00     0.047 C 
ATOM     20  C   UNL A   1      33.065  24.925  26.260  1.00  0.00     0.026 C 
ATOM     21  C   UNL A   1      32.188  22.937  25.086  1.00  0.00     0.314 C 
BRANCH  21  22
ATOM     22  C   UNL A   1      32.890  22.440  23.809  1.00  0.00     0.429 C 
ATOM     23  F   UNL A   1      32.038  22.288  22.768  1.00  0.00    -0.167 F 
ATOM     24  F   UNL A   1      33.835  23.326  23.409  1.00  0.00    -0.167 F 
ATOM     25  F   UNL A   1      33.503  21.245  23.981  1.00  0.00    -0.167 F 
ENDBRANCH  21  22
ENDBRANCH   6   9
ENDBRANCH   4   5
ENDBRANCH   3   4
ENDBRANCH   2   3
ENDBRANCH   1   2
BRANCH   1  26
ATOM     26  C   UNL A   1      38.512  19.378  25.209  1.00  0.00     0.021 C 
BRANCH  26  27
ATOM     27  C   UNL A   1      39.663  19.859  26.087  1.00  0.00     0.116 C 
BRANCH  27  28
ATOM     28  N   UNL A   1      40.790  18.941  26.039  1.00  0.00    -0.352 N 
ATOM     29  C   UNL A   1      42.132  19.218  25.979  1.00  0.00     0.251 C 
ATOM     30  H   UNL A   1      40.557  17.985  26.052  1.00  0.00     0.163 HD
ATOM     31  O   UNL A   1      42.930  18.334  25.688  1.00  0.00    -0.269 OA
BRANCH  29  32
ATOM     32  C   UNL A   1      42.611  20.587  26.267  1.00  0.00     0.039 A 
ATOM     33  C   UNL A   1      42.653  21.028  27.591  1.00  0.00     0.014 A 
ATOM     34  C   UNL A   1      42.987  21.441  25.225  1.00  0.00     0.014 A 
ATOM     35  C   UNL A   1      43.110  22.317  27.875  1.00  0.00     0.010 A 
ATOM     36  C   UNL A   1      43.502  22.699  25.514  1.00  0.00     0.010 A 
ATOM     37  C   UNL A   1      43.552  23.157  26.839  1.00  0.00    -0.014 A 
BRANCH  37  38
ATOM     38  C   UNL A   1      44.043  24.529  27.115  1.00  0.00     0.031 A 
ATOM     39  C   UNL A   1      43.085  25.580  27.607  1.00  0.00     0.074 A 
ATOM     40  C   UNL A   1      45.326  24.846  26.855  1.00  0.00     0.049 A 
ATOM     41  N   UNL A   1      43.300  26.849  27.834  1.00  0.00    -0.248 NA
ATOM     42  C   UNL A   1      41.696  25.154  27.853  1.00  0.00     0.031 C 
ATOM     43  C   UNL A   1      46.332  23.924  26.328  1.00  0.00     0.029 A 
ATOM     44  N   UNL A   1      45.996  26.037  26.980  1.00  0.00    -0.354 N 
ATOM     45  C   UNL A   1      42.076  27.377  28.225  1.00  0.00     0.074 A 
ATOM     46  C   UNL A   1      41.111  26.302  28.165  1.00  0.00     0.031 C 
ATOM     47  C   UNL A   1      47.493  24.581  26.180  1.00  0.00     0.029 A 
ATOM     48  C   UNL A   1      47.309  25.976  26.570  1.00  0.00     0.049 A 
ATOM     49  H   UNL A   1      45.579  26.857  27.328  1.00  0.00     0.167 HD
ATOM     50  C   UNL A   1      41.788  28.636  28.629  1.00  0.00     0.034 A 
ATOM     51  C   UNL A   1      48.252  26.937  26.512  1.00  0.00     0.034 A 
ATOM     52  C   UNL A   1      42.761  29.689  28.729  1.00  0.00     0.049 A 
ATOM     53  C   UNL A   1      47.908  28.326  26.980  1.00  0.00     0.074 A 
ATOM     54  C   UNL A   1      42.582  30.981  29.190  1.00  0.00     0.029 A 
ATOM     55  N   UNL A   1      44.094  29.575  28.364  1.00  0.00    -0.354 N 
ATOM     56  N   UNL A   1      46.777  28.775  27.470  1.00  0.00    -0.248 NA
ATOM     57  C   UNL A   1      48.976  29.334  26.919  1.00  0.00     0.031 C 
ATOM     58  C   UNL A   1      43.802  31.654  29.085  1.00  0.00     0.029 A 
ATOM     59  C   UNL A   1      44.748  30.775  28.582  1.00  0.00     0.049 A 
ATOM     60  H   UNL A   1      44.512  28.760  28.003  1.00  0.00     0.167 HD
ATOM     61  C   UNL A   1      47.005  30.106  27.800  1.00  0.00     0.074 A 
ATOM     62  C   UNL A   1      48.389  30.384  27.480  1.00  0.00     0.031 C 
ATOM     63  C   UNL A   1      46.140  31.022  28.305  1.00  0.00     0.034 A 
BRANCH  50  64
ATOM     64  C   UNL A   1      40.376  28.933  29.065  1.00  0.00     0.023 A 
ATOM     65  C   UNL A   1      39.401  29.229  28.089  1.00  0.00     0.012 A 
ATOM     66  C   UNL A   1      39.992  28.832  30.416  1.00  0.00     0.148 A 
ATOM     67  C   UNL A   1      38.073  29.444  28.453  1.00  0.00     0.002 A 
ATOM     68  C   UNL A   1      38.657  29.003  30.766  1.00  0.00     0.091 A 
ATOM     69  F   UNL A   1      40.936  28.569  31.330  1.00  0.00    -0.205 F 
ATOM     70  C   UNL A   1      37.700  29.318  29.788  1.00  0.00     0.022 A 
BRANCH  68  71
ATOM     71  S   UNL A   1      38.055  28.779  32.443  1.00  0.00     0.127 S 
ATOM     72  O   UNL A   1      38.943  29.664  33.196  1.00  0.00    -0.237 OA
ATOM     73  O   UNL A   1      36.673  29.249  32.337  1.00  0.00    -0.237 OA
ATOM     74  O   UNL A   1      38.197  27.360  32.738  1.00  0.00    -0.744 OA
ENDBRANCH  68  71
ENDBRANCH  50  64
BRANCH  51  75
ATOM     75  C   UNL A   1      49.633  26.593  26.065  1.00  0.00     0.023 A 
ATOM     76  C   UNL A   1      50.430  25.762  26.877  1.00  0.00     0.012 A 
ATOM     77  C   UNL A   1      50.141  27.034  24.828  1.00  0.00     0.148 A 
ATOM     78  C   UNL A   1      51.715  25.397  26.476  1.00  0.00     0.002 A 
ATOM     79  C   UNL A   1      51.400  26.619  24.408  1.00  0.00     0.091 A 
ATOM     80  F   UNL A   1      49.373  27.834  24.075  1.00  0.00    -0.205 F 
ATOM     81  C   UNL A   1      52.196  25.813  25.238  1.00  0.00     0.022 A 
BRANCH  79  82
ATOM     82  S   UNL A   1      52.042  26.986  22.770  1.00  0.00     0.127 S 
ATOM     83  O   UNL A   1      52.446  28.382  22.914  1.00  0.00    -0.237 OA
ATOM     84  O   UNL A   1      53.147  26.032  22.659  1.00  0.00    -0.237 OA
ATOM     85  O   UNL A   1      50.941  26.738  21.850  1.00  0.00    -0.744 OA
ENDBRANCH  79  82
ENDBRANCH  51  75
BRANCH  63  86
ATOM     86  C   UNL A   1      46.656  32.415  28.559  1.00  0.00     0.023 A 
ATOM     87  C   UNL A   1      47.193  32.737  29.820  1.00  0.00     0.012 A 
ATOM     88  C   UNL A   1      46.714  33.365  27.519  1.00  0.00     0.148 A 
ATOM     89  C   UNL A   1      47.756  33.991  30.052  1.00  0.00     0.002 A 
ATOM     90  C   UNL A   1      47.324  34.594  27.742  1.00  0.00     0.091 A 
ATOM     91  F   UNL A   1      46.184  33.045  26.329  1.00  0.00    -0.205 F 
ATOM     92  C   UNL A   1      47.835  34.912  29.011  1.00  0.00     0.022 A 
BRANCH  90  93
ATOM     93  S   UNL A   1      47.568  35.801  26.435  1.00  0.00     0.127 S 
ATOM     94  O   UNL A   1      46.191  36.094  26.038  1.00  0.00    -0.237 OA
ATOM     95  O   UNL A   1      48.243  36.891  27.140  1.00  0.00    -0.237 OA
ATOM     96  O   UNL A   1      48.381  35.141  25.424  1.00  0.00    -0.744 OA
ENDBRANCH  90  93
ENDBRANCH  63  86
ENDBRANCH  37  38
ENDBRANCH  29  32
ENDBRANCH  27  28
ENDBRANCH  26  27
ENDBRANCH   1  26
TORSDOF 17
ENDMDL
MODEL 3
REMARK VINA RESULT:     -12.1      1.517      7.654
REMARK SMILES Cc1cc2c(c(C)c1Cl)C=C(C(=O)NCCCCCCNC(=O)c1ccc(-c3c4nc(c(-c5cccc(S(=O)(=O)[O-])c5F)c5ccc([nH]5)c(-c5cccc(S(=O)(=O)[O-])c5F)c5nc(c(-c6cccc(S(=O)(=O)[O-])c6F)c6ccc3[nH]6)C=C5)C=C4)cc1)[C@H](C(F)(F)F)O2
REMARK SMILES IDX 18 1 17 2 16 3 15 4 14 5 12 6 13 7 11 9 1 10 2 11 3 12 8 13
REMARK SMILES IDX 4 14 6 15 9 16 5 17 92 18 7 19 10 20 87 21 88 22 89 23 90 24
REMARK SMILES IDX 91 25 19 26 20 27 21 28 22 29 23 31 24 32 25 33 86 34 26 35
REMARK SMILES IDX 85 36 27 37 28 38 29 39 79 40 30 41 84 42 78 43 80 44 31 45
REMARK SMILES IDX 83 46 77 47 76 48 32 50 64 51 44 52 63 53 45 54 48 55 62 56
REMARK SMILES IDX 81 57 46 58 47 59 61 61 82 62 49 63 33 64 34 65 42 66 35 67
REMARK SMILES IDX 37 68 43 69 36 70 38 71 39 72 40 73 41 74 65 75 66 76 74 77
REMARK SMILES IDX 67 78 69 79 75 80 68 81 70 82 71 83 72 84 73 85 50 86 51 87
REMARK SMILES IDX 59 88 52 89 54 90 60 91 53 92 55 93 56 94 57 95 58 96
REMARK H PARENT 14 8 21 30 80 49 48 60
REMARK Flexibility Score: inf
ROOT
ATOM      1  C   UNL A   1      31.067  31.046  26.422  1.00  0.00     0.002 C 
ENDROOT
BRANCH   1   2
ATOM      2  C   UNL A   1      32.140  30.176  25.754  1.00  0.00     0.002 C 
BRANCH   2   3
ATOM      3  C   UNL A   1      32.835  29.178  26.683  1.00  0.00     0.021 C 
BRANCH   3   4
ATOM      4  C   UNL A   1      34.022  28.461  26.042  1.00  0.00     0.116 C 
BRANCH   4   5
ATOM      5  N   UNL A   1      34.057  28.679  24.607  1.00  0.00    -0.352 N 
ATOM      6  C   UNL A   1      33.781  27.973  23.489  1.00  0.00     0.251 C 
ATOM      7  O   UNL A   1      33.972  28.583  22.430  1.00  0.00    -0.270 OA
ATOM      8  H   UNL A   1      34.366  29.588  24.390  1.00  0.00     0.163 HD
BRANCH   6   9
ATOM      9  C   UNL A   1      33.276  26.566  23.448  1.00  0.00     0.067 C 
ATOM     10  C   UNL A   1      32.376  20.123  23.743  1.00  0.00     0.046 C 
ATOM     11  C   UNL A   1      32.912  21.529  23.758  1.00  0.00    -0.028 A 
ATOM     12  C   UNL A   1      32.096  22.557  23.278  1.00  0.00     0.052 A 
ATOM     13  C   UNL A   1      34.191  21.851  24.254  1.00  0.00     0.047 A 
ATOM     14  C   UNL A   1      32.532  23.876  23.302  1.00  0.00     0.128 A 
ATOM     15  C   UNL A   1      34.658  23.188  24.263  1.00  0.00    -0.021 A 
ATOM     16  Cl  UNL A   1      35.188  20.561  24.859  1.00  0.00    -0.084 Cl
ATOM     17  C   UNL A   1      33.800  24.210  23.785  1.00  0.00     0.022 A 
ATOM     18  O   UNL A   1      31.659  24.786  22.785  1.00  0.00    -0.475 OA
ATOM     19  C   UNL A   1      36.034  23.550  24.769  1.00  0.00     0.047 C 
ATOM     20  C   UNL A   1      34.188  25.622  23.746  1.00  0.00     0.026 C 
ATOM     21  C   UNL A   1      31.858  26.176  23.143  1.00  0.00     0.314 C 
BRANCH  21  22
ATOM     22  C   UNL A   1      30.862  26.569  24.249  1.00  0.00     0.429 C 
ATOM     23  F   UNL A   1      31.381  26.435  25.492  1.00  0.00    -0.167 F 
ATOM     24  F   UNL A   1      30.495  27.868  24.121  1.00  0.00    -0.167 F 
ATOM     25  F   UNL A   1      29.732  25.825  24.222  1.00  0.00    -0.167 F 
ENDBRANCH  21  22
ENDBRANCH   6   9
ENDBRANCH   4   5
ENDBRANCH   3   4
ENDBRANCH   2   3
ENDBRANCH   1   2
BRANCH   1  26
ATOM     26  C   UNL A   1      31.415  32.532  26.548  1.00  0.00     0.021 C 
BRANCH  26  27
ATOM     27  C   UNL A   1      32.709  32.817  27.304  1.00  0.00     0.116 C 
BRANCH  27  28
ATOM     28  N   UNL A   1      32.770  34.198  27.754  1.00  0.00    -0.352 N 
ATOM     29  C   UNL A   1      33.528  34.751  28.755  1.00  0.00     0.251 C 
ATOM     30  H   UNL A   1      32.184  34.826  27.273  1.00  0.00     0.163 HD
ATOM     31  O   UNL A   1      33.271  35.875  29.171  1.00  0.00    -0.269 OA
BRANCH  29  32
ATOM     32  C   UNL A   1      34.655  33.985  29.328  1.00  0.00     0.039 A 
ATOM     33  C   UNL A   1      34.392  33.001  30.284  1.00  0.00     0.014 A 
ATOM     34  C   UNL A   1      35.970  34.264  28.945  1.00  0.00     0.014 A 
ATOM     35  C   UNL A   1      35.449  32.268  30.828  1.00  0.00     0.010 A 
ATOM     36  C   UNL A   1      37.014  33.489  29.438  1.00  0.00     0.010 A 
ATOM     37  C   UNL A   1      36.766  32.496  30.398  1.00  0.00    -0.014 A 
BRANCH  37  38
ATOM     38  C   UNL A   1      37.905  31.730  30.959  1.00  0.00     0.031 A 
ATOM     39  C   UNL A   1      38.425  32.062  32.332  1.00  0.00     0.074 A 
ATOM     40  C   UNL A   1      38.515  30.791  30.210  1.00  0.00     0.049 A 
ATOM     41  N   UNL A   1      39.451  31.562  32.967  1.00  0.00    -0.248 NA
ATOM     42  C   UNL A   1      37.710  33.112  33.080  1.00  0.00     0.031 C 
ATOM     43  C   UNL A   1      38.132  30.420  28.847  1.00  0.00     0.029 A 
ATOM     44  N   UNL A   1      39.598  29.993  30.482  1.00  0.00    -0.354 N 
ATOM     45  C   UNL A   1      39.522  32.248  34.173  1.00  0.00     0.074 A 
ATOM     46  C   UNL A   1      38.460  33.229  34.166  1.00  0.00     0.031 C 
ATOM     47  C   UNL A   1      38.962  29.463  28.404  1.00  0.00     0.029 A 
ATOM     48  C   UNL A   1      39.955  29.174  29.436  1.00  0.00     0.049 A 
ATOM     49  H   UNL A   1      40.074  30.006  31.343  1.00  0.00     0.167 HD
ATOM     50  C   UNL A   1      40.373  32.056  35.208  1.00  0.00     0.034 A 
ATOM     51  C   UNL A   1      40.970  28.296  29.320  1.00  0.00     0.034 A 
ATOM     52  C   UNL A   1      41.399  31.049  35.226  1.00  0.00     0.049 A 
ATOM     53  C   UNL A   1      41.895  28.092  30.491  1.00  0.00     0.074 A 
ATOM     54  C   UNL A   1      42.270  30.731  36.252  1.00  0.00     0.029 A 
ATOM     55  N   UNL A   1      41.693  30.196  34.173  1.00  0.00    -0.354 N 
ATOM     56  N   UNL A   1      41.866  28.659  31.673  1.00  0.00    -0.248 NA
ATOM     57  C   UNL A   1      42.973  27.106  30.326  1.00  0.00     0.031 C 
ATOM     58  C   UNL A   1      43.104  29.700  35.813  1.00  0.00     0.029 A 
ATOM     59  C   UNL A   1      42.736  29.358  34.521  1.00  0.00     0.049 A 
ATOM     60  H   UNL A   1      41.227  30.189  33.306  1.00  0.00     0.167 HD
ATOM     61  C   UNL A   1      42.900  28.080  32.401  1.00  0.00     0.074 A 
ATOM     62  C   UNL A   1      43.520  27.099  31.535  1.00  0.00     0.031 C 
ATOM     63  C   UNL A   1      43.311  28.350  33.665  1.00  0.00     0.034 A 
BRANCH  50  64
ATOM     64  C   UNL A   1      40.191  32.904  36.439  1.00  0.00     0.023 A 
ATOM     65  C   UNL A   1      40.856  34.145  36.527  1.00  0.00     0.012 A 
ATOM     66  C   UNL A   1      39.303  32.523  37.463  1.00  0.00     0.148 A 
ATOM     67  C   UNL A   1      40.657  34.982  37.624  1.00  0.00     0.002 A 
ATOM     68  C   UNL A   1      39.075  33.384  38.532  1.00  0.00     0.091 A 
ATOM     69  F   UNL A   1      38.696  31.331  37.372  1.00  0.00    -0.205 F 
ATOM     70  C   UNL A   1      39.759  34.608  38.618  1.00  0.00     0.022 A 
BRANCH  68  71
ATOM     71  S   UNL A   1      37.875  33.037  39.822  1.00  0.00     0.127 S 
ATOM     72  O   UNL A   1      37.978  34.238  40.652  1.00  0.00    -0.237 OA
ATOM     73  O   UNL A   1      36.630  32.928  39.061  1.00  0.00    -0.237 OA
ATOM     74  O   UNL A   1      38.311  31.803  40.460  1.00  0.00    -0.744 OA
ENDBRANCH  68  71
ENDBRANCH  50  64
BRANCH  51  75
ATOM     75  C   UNL A   1      41.112  27.486  28.075  1.00  0.00     0.023 A 
ATOM     76  C   UNL A   1      41.683  28.079  26.933  1.00  0.00     0.012 A 
ATOM     77  C   UNL A   1      40.738  26.129  28.029  1.00  0.00     0.148 A 
ATOM     78  C   UNL A   1      41.857  27.343  25.760  1.00  0.00     0.002 A 
ATOM     79  C   UNL A   1      40.968  25.385  26.877  1.00  0.00     0.091 A 
ATOM     80  F   UNL A   1      40.184  25.585  29.122  1.00  0.00    -0.205 F 
ATOM     81  C   UNL A   1      41.513  25.995  25.736  1.00  0.00     0.022 A 
BRANCH  79  82
ATOM     82  S   UNL A   1      40.690  23.612  26.800  1.00  0.00     0.127 S 
ATOM     83  O   UNL A   1      39.269  23.546  26.468  1.00  0.00    -0.237 OA
ATOM     84  O   UNL A   1      41.595  23.211  25.722  1.00  0.00    -0.237 OA
ATOM     85  O   UNL A   1      41.057  23.098  28.112  1.00  0.00    -0.744 OA
ENDBRANCH  79  82
ENDBRANCH  51  75
BRANCH  63  86
ATOM     86  C   UNL A   1      44.483  27.573  34.208  1.00  0.00     0.023 A 
ATOM     87  C   UNL A   1      45.792  28.042  33.983  1.00  0.00     0.012 A 
ATOM     88  C   UNL A   1      44.284  26.448  35.034  1.00  0.00     0.148 A 
ATOM     89  C   UNL A   1      46.886  27.391  34.549  1.00  0.00     0.002 A 
ATOM     90  C   UNL A   1      45.375  25.834  35.637  1.00  0.00     0.091 A 
ATOM     91  F   UNL A   1      43.031  26.007  35.224  1.00  0.00    -0.205 F 
ATOM     92  C   UNL A   1      46.677  26.297  35.387  1.00  0.00     0.022 A 
BRANCH  90  93
ATOM     93  S   UNL A   1      45.197  24.490  36.814  1.00  0.00     0.127 S 
ATOM     94  O   UNL A   1      46.478  24.537  37.517  1.00  0.00    -0.237 OA
ATOM     95  O   UNL A   1      44.049  24.924  37.610  1.00  0.00    -0.237 OA
ATOM     96  O   UNL A   1      44.964  23.290  36.023  1.00  0.00    -0.744 OA
ENDBRANCH  90  93
ENDBRANCH  63  86
ENDBRANCH  37  38
ENDBRANCH  29  32
ENDBRANCH  27  28
ENDBRANCH  26  27
ENDBRANCH   1  26
TORSDOF 17
ENDMDL
