MODEL 1
REMARK VINA RESULT:     -11.3      0.000      0.000
REMARK SMILES O=C(NCCCCCCNC(=O)c1ccc(C[NH2+][C@H]2CCCNC2=O)nc1)c1ccc(-c2c3nc(c(-c4cccc(S(=O)(=O)[O-])c4F)c4ccc([nH]4)c(-c4cccc(S(=O)(=O)[O-])c4F)c4nc(c(-c5cccc(S(=O)(=O)[O-])c5F)c5ccc2[nH]5)C=C4)C=C3)cc1
REMARK SMILES IDX 6 1 5 2 4 3 3 4 1 5 2 6 28 8 29 9 90 10 30 11 89 12 31 13
REMARK SMILES IDX 32 14 33 15 83 16 34 17 88 18 82 19 84 20 35 21 87 22 81 23
REMARK SMILES IDX 80 24 36 26 68 27 48 28 67 29 49 30 52 31 66 32 85 33 50 34
REMARK SMILES IDX 51 35 65 37 86 38 53 39 37 40 38 41 46 42 39 43 41 44 47 45
REMARK SMILES IDX 40 46 42 47 43 48 44 49 45 50 69 51 70 52 78 53 71 54 73 55
REMARK SMILES IDX 79 56 72 57 74 58 75 59 76 60 77 61 54 62 55 63 63 64 56 65
REMARK SMILES IDX 58 66 64 67 57 68 59 69 60 70 61 71 62 72 7 73 8 74 9 75
REMARK SMILES IDX 10 76 11 77 12 79 13 80 14 81 27 82 15 83 26 84 16 85 17 86
REMARK SMILES IDX 18 87 19 90 20 91 24 92 21 93 23 94 25 95 22 96
REMARK H PARENT 3 7 84 25 52 36 10 78 18 88 18 89 23 97
REMARK Flexibility Score: inf
ROOT
ATOM      1  C   UNL A   1      36.910  20.705  24.594  1.00  0.00     0.002 C 
ENDROOT
BRANCH   1   2
ATOM      2  C   UNL A   1      37.991  19.658  24.865  1.00  0.00     0.021 C 
BRANCH   2   3
ATOM      3  C   UNL A   1      38.918  19.987  26.028  1.00  0.00     0.116 C 
BRANCH   3   4
ATOM      4  N   UNL A   1      40.127  19.185  26.005  1.00  0.00    -0.352 N 
ATOM      5  O   UNL A   1      42.344  18.816  25.865  1.00  0.00    -0.269 OA
ATOM      6  C   UNL A   1      41.432  19.601  26.107  1.00  0.00     0.251 C 
ATOM      7  H   UNL A   1      39.995  18.216  25.903  1.00  0.00     0.163 HD
BRANCH   6   8
ATOM      8  C   UNL A   1      41.724  20.999  26.492  1.00  0.00     0.039 A 
ATOM      9  C   UNL A   1      42.086  21.312  27.806  1.00  0.00     0.014 A 
ATOM     10  C   UNL A   1      41.660  22.002  25.521  1.00  0.00     0.014 A 
ATOM     11  C   UNL A   1      42.289  22.638  28.172  1.00  0.00     0.010 A 
ATOM     12  C   UNL A   1      41.938  23.324  25.875  1.00  0.00     0.010 A 
ATOM     13  C   UNL A   1      42.247  23.653  27.203  1.00  0.00    -0.014 A 
BRANCH  13  14
ATOM     14  C   UNL A   1      42.674  25.028  27.566  1.00  0.00     0.031 A 
ATOM     15  C   UNL A   1      41.724  26.007  28.191  1.00  0.00     0.074 A 
ATOM     16  C   UNL A   1      43.935  25.396  27.263  1.00  0.00     0.049 A 
ATOM     17  N   UNL A   1      41.942  27.250  28.534  1.00  0.00    -0.248 NA
ATOM     18  C   UNL A   1      40.354  25.542  28.463  1.00  0.00     0.031 C 
ATOM     19  C   UNL A   1      44.923  24.539  26.598  1.00  0.00     0.029 A 
ATOM     20  N   UNL A   1      44.596  26.583  27.444  1.00  0.00    -0.354 N 
ATOM     21  C   UNL A   1      40.733  27.732  29.017  1.00  0.00     0.074 A 
ATOM     22  C   UNL A   1      39.782  26.644  28.936  1.00  0.00     0.031 C 
ATOM     23  C   UNL A   1      46.057  25.229  26.421  1.00  0.00     0.029 A 
ATOM     24  C   UNL A   1      45.863  26.590  26.907  1.00  0.00     0.049 A 
ATOM     25  H   UNL A   1      44.202  27.355  27.911  1.00  0.00     0.167 HD
ATOM     26  C   UNL A   1      40.450  28.970  29.490  1.00  0.00     0.034 A 
ATOM     27  C   UNL A   1      46.757  27.588  26.781  1.00  0.00     0.034 A 
ATOM     28  C   UNL A   1      41.416  30.031  29.602  1.00  0.00     0.049 A 
ATOM     29  C   UNL A   1      46.411  28.942  27.325  1.00  0.00     0.074 A 
ATOM     30  C   UNL A   1      41.258  31.278  30.185  1.00  0.00     0.029 A 
ATOM     31  N   UNL A   1      42.706  29.988  29.098  1.00  0.00    -0.354 N 
ATOM     32  N   UNL A   1      45.326  29.322  27.955  1.00  0.00    -0.248 NA
ATOM     33  C   UNL A   1      47.416  30.000  27.162  1.00  0.00     0.031 C 
ATOM     34  C   UNL A   1      42.440  32.000  30.000  1.00  0.00     0.029 A 
ATOM     35  C   UNL A   1      43.343  31.197  29.323  1.00  0.00     0.049 A 
ATOM     36  H   UNL A   1      43.110  29.212  28.648  1.00  0.00     0.167 HD
ATOM     37  C   UNL A   1      45.522  30.659  28.275  1.00  0.00     0.074 A 
ATOM     38  C   UNL A   1      46.846  31.012  27.802  1.00  0.00     0.031 C 
ATOM     39  C   UNL A   1      44.674  31.522  28.882  1.00  0.00     0.034 A 
BRANCH  26  40
ATOM     40  C   UNL A   1      39.049  29.258  29.961  1.00  0.00     0.023 A 
ATOM     41  C   UNL A   1      38.658  28.876  31.259  1.00  0.00     0.012 A 
ATOM     42  C   UNL A   1      38.167  30.015  29.164  1.00  0.00     0.148 A 
ATOM     43  C   UNL A   1      37.405  29.235  31.755  1.00  0.00     0.002 A 
ATOM     44  C   UNL A   1      36.935  30.400  29.680  1.00  0.00     0.091 A 
ATOM     45  F   UNL A   1      38.555  30.353  27.927  1.00  0.00    -0.205 F 
ATOM     46  C   UNL A   1      36.550  30.006  30.972  1.00  0.00     0.022 A 
BRANCH  44  47
ATOM     47  S   UNL A   1      35.792  31.457  28.780  1.00  0.00     0.127 S 
ATOM     48  O   UNL A   1      34.842  31.821  29.830  1.00  0.00    -0.237 OA
ATOM     49  O   UNL A   1      36.662  32.547  28.342  1.00  0.00    -0.237 OA
ATOM     50  O   UNL A   1      35.248  30.639  27.706  1.00  0.00    -0.744 OA
ENDBRANCH  44  47
ENDBRANCH  26  40
BRANCH  27  51
ATOM     51  C   UNL A   1      48.062  27.332  26.113  1.00  0.00     0.023 A 
ATOM     52  C   UNL A   1      49.155  26.869  26.870  1.00  0.00     0.012 A 
ATOM     53  C   UNL A   1      48.217  27.512  24.724  1.00  0.00     0.148 A 
ATOM     54  C   UNL A   1      50.384  26.615  26.260  1.00  0.00     0.002 A 
ATOM     55  C   UNL A   1      49.425  27.199  24.113  1.00  0.00     0.091 A 
ATOM     56  F   UNL A   1      47.173  27.974  24.020  1.00  0.00    -0.205 F 
ATOM     57  C   UNL A   1      50.516  26.767  24.882  1.00  0.00     0.022 A 
BRANCH  55  58
ATOM     58  S   UNL A   1      49.619  27.228  22.328  1.00  0.00     0.127 S 
ATOM     59  O   UNL A   1      49.287  28.614  22.012  1.00  0.00    -0.237 OA
ATOM     60  O   UNL A   1      51.031  26.880  22.165  1.00  0.00    -0.237 OA
ATOM     61  O   UNL A   1      48.698  26.217  21.827  1.00  0.00    -0.744 OA
ENDBRANCH  55  58
ENDBRANCH  27  51
BRANCH  39  62
ATOM     62  C   UNL A   1      45.147  32.938  29.074  1.00  0.00     0.023 A 
ATOM     63  C   UNL A   1      45.847  33.279  30.249  1.00  0.00     0.012 A 
ATOM     64  C   UNL A   1      44.968  33.905  28.067  1.00  0.00     0.148 A 
ATOM     65  C   UNL A   1      46.338  34.571  30.429  1.00  0.00     0.002 A 
ATOM     66  C   UNL A   1      45.501  35.177  28.233  1.00  0.00     0.091 A 
ATOM     67  F   UNL A   1      44.284  33.561  26.966  1.00  0.00    -0.205 F 
ATOM     68  C   UNL A   1      46.177  35.515  29.419  1.00  0.00     0.022 A 
BRANCH  66  69
ATOM     69  S   UNL A   1      45.423  36.432  26.951  1.00  0.00     0.127 S 
ATOM     70  O   UNL A   1      46.065  35.753  25.828  1.00  0.00    -0.237 OA
ATOM     71  O   UNL A   1      43.981  36.632  26.801  1.00  0.00    -0.237 OA
ATOM     72  O   UNL A   1      46.142  37.586  27.473  1.00  0.00    -0.744 OA
ENDBRANCH  66  69
ENDBRANCH  39  62
ENDBRANCH  13  14
ENDBRANCH   6   8
ENDBRANCH   3   4
ENDBRANCH   2   3
ENDBRANCH   1   2
BRANCH   1  73
ATOM     73  C   UNL A   1      37.383  22.160  24.638  1.00  0.00     0.002 C 
BRANCH  73  74
ATOM     74  C   UNL A   1      36.272  23.209  24.758  1.00  0.00     0.021 C 
BRANCH  74  75
ATOM     75  C   UNL A   1      35.562  23.245  26.109  1.00  0.00     0.116 C 
BRANCH  75  76
ATOM     76  N   UNL A   1      34.418  24.143  26.099  1.00  0.00    -0.352 N 
ATOM     77  C   UNL A   1      33.188  23.962  25.522  1.00  0.00     0.252 C 
ATOM     78  H   UNL A   1      34.544  24.998  26.570  1.00  0.00     0.163 HD
ATOM     79  O   UNL A   1      32.385  24.887  25.443  1.00  0.00    -0.269 OA
BRANCH  77  80
ATOM     80  C   UNL A   1      32.840  22.646  24.978  1.00  0.00     0.058 A 
ATOM     81  C   UNL A   1      32.806  21.505  25.777  1.00  0.00     0.017 A 
ATOM     82  C   UNL A   1      32.554  22.527  23.631  1.00  0.00     0.125 A 
ATOM     83  C   UNL A   1      32.555  20.274  25.181  1.00  0.00     0.030 A 
ATOM     84  N   UNL A   1      32.324  21.339  23.024  1.00  0.00    -0.255 NA
ATOM     85  C   UNL A   1      32.344  20.224  23.801  1.00  0.00     0.094 A 
BRANCH  85  86
ATOM     86  C   UNL A   1      32.206  18.881  23.107  1.00  0.00     0.318 C 
BRANCH  86  87
ATOM     87  N   UNL A   1      32.028  17.763  24.034  1.00  0.00    -0.331 N 
ATOM     88  H   UNL A   1      31.073  17.417  23.937  1.00  0.00     0.347 HD
ATOM     89  H   UNL A   1      32.227  18.123  24.968  1.00  0.00     0.347 HD
BRANCH  87  90
ATOM     90  C   UNL A   1      32.955  16.630  23.810  1.00  0.00     0.272 C 
ATOM     91  C   UNL A   1      34.362  17.028  23.340  1.00  0.00     0.077 C 
ATOM     92  C   UNL A   1      32.934  15.702  25.043  1.00  0.00     0.278 C 
ATOM     93  C   UNL A   1      35.357  17.219  24.480  1.00  0.00     0.028 C 
ATOM     94  N   UNL A   1      34.082  15.550  25.764  1.00  0.00    -0.351 N 
ATOM     95  O   UNL A   1      31.893  15.177  25.443  1.00  0.00    -0.268 OA
ATOM     96  C   UNL A   1      35.395  15.975  25.346  1.00  0.00     0.116 C 
ATOM     97  H   UNL A   1      34.008  15.113  26.642  1.00  0.00     0.163 HD
ENDBRANCH  87  90
ENDBRANCH  86  87
ENDBRANCH  85  86
ENDBRANCH  77  80
ENDBRANCH  75  76
ENDBRANCH  74  75
ENDBRANCH  73  74
ENDBRANCH   1  73
TORSDOF 19
ENDMDL
MODEL 2
REMARK VINA RESULT:     -11.2      5.232      8.401
REMARK SMILES O=C(NCCCCCCNC(=O)c1ccc(C[NH2+][C@H]2CCCNC2=O)nc1)c1ccc(-c2c3nc(c(-c4cccc(S(=O)(=O)[O-])c4F)c4ccc([nH]4)c(-c4cccc(S(=O)(=O)[O-])c4F)c4nc(c(-c5cccc(S(=O)(=O)[O-])c5F)c5ccc2[nH]5)C=C4)C=C3)cc1
REMARK SMILES IDX 6 1 5 2 4 3 3 4 1 5 2 6 28 8 29 9 90 10 30 11 89 12 31 13
REMARK SMILES IDX 32 14 33 15 83 16 34 17 88 18 82 19 84 20 35 21 87 22 81 23
REMARK SMILES IDX 80 24 36 26 68 27 48 28 67 29 49 30 52 31 66 32 85 33 50 34
REMARK SMILES IDX 51 35 65 37 86 38 53 39 37 40 38 41 46 42 39 43 41 44 47 45
REMARK SMILES IDX 40 46 42 47 43 48 44 49 45 50 69 51 70 52 78 53 71 54 73 55
REMARK SMILES IDX 79 56 72 57 74 58 75 59 76 60 77 61 54 62 55 63 63 64 56 65
REMARK SMILES IDX 58 66 64 67 57 68 59 69 60 70 61 71 62 72 7 73 8 74 9 75
REMARK SMILES IDX 10 76 11 77 12 79 13 80 14 81 27 82 15 83 26 84 16 85 17 86
REMARK SMILES IDX 18 87 19 90 20 91 24 92 21 93 23 94 25 95 22 96
REMARK H PARENT 3 7 84 25 52 36 10 78 18 88 18 89 23 97
REMARK Flexibility Score: inf
ROOT
ATOM      1  C   UNL A   1      31.494  28.451  25.886  1.00  0.00     0.002 C 
ENDROOT
BRANCH   1   2
ATOM      2  C   UNL A   1      32.800  28.062  26.579  1.00  0.00     0.021 C 
BRANCH   2   3
ATOM      3  C   UNL A   1      34.016  28.868  26.145  1.00  0.00     0.116 C 
BRANCH   3   4
ATOM      4  N   UNL A   1      33.920  30.260  26.546  1.00  0.00    -0.352 N 
ATOM      5  O   UNL A   1      34.347  32.062  27.827  1.00  0.00    -0.269 OA
ATOM      6  C   UNL A   1      34.691  30.944  27.454  1.00  0.00     0.251 C 
ATOM      7  H   UNL A   1      33.208  30.782  26.112  1.00  0.00     0.163 HD
BRANCH   6   8
ATOM      8  C   UNL A   1      35.921  30.318  27.984  1.00  0.00     0.039 A 
ATOM      9  C   UNL A   1      37.115  30.369  27.256  1.00  0.00     0.014 A 
ATOM     10  C   UNL A   1      35.886  29.695  29.234  1.00  0.00     0.014 A 
ATOM     11  C   UNL A   1      38.246  29.717  27.732  1.00  0.00     0.010 A 
ATOM     12  C   UNL A   1      37.043  29.105  29.745  1.00  0.00     0.010 A 
ATOM     13  C   UNL A   1      38.230  29.104  28.995  1.00  0.00    -0.014 A 
BRANCH  13  14
ATOM     14  C   UNL A   1      39.498  28.600  29.580  1.00  0.00     0.031 A 
ATOM     15  C   UNL A   1      40.189  29.320  30.700  1.00  0.00     0.074 A 
ATOM     16  C   UNL A   1      40.048  27.497  29.033  1.00  0.00     0.049 A 
ATOM     17  N   UNL A   1      41.316  29.019  31.292  1.00  0.00    -0.248 NA
ATOM     18  C   UNL A   1      39.543  30.534  31.224  1.00  0.00     0.031 C 
ATOM     19  C   UNL A   1      39.489  26.754  27.898  1.00  0.00     0.029 A 
ATOM     20  N   UNL A   1      41.205  26.824  29.330  1.00  0.00    -0.354 N 
ATOM     21  C   UNL A   1      41.541  30.025  32.222  1.00  0.00     0.074 A 
ATOM     22  C   UNL A   1      40.427  30.943  32.128  1.00  0.00     0.031 C 
ATOM     23  C   UNL A   1      40.305  25.737  27.592  1.00  0.00     0.029 A 
ATOM     24  C   UNL A   1      41.468  25.785  28.468  1.00  0.00     0.049 A 
ATOM     25  H   UNL A   1      41.789  27.062  30.086  1.00  0.00     0.167 HD
ATOM     26  C   UNL A   1      42.583  30.160  33.078  1.00  0.00     0.034 A 
ATOM     27  C   UNL A   1      42.545  24.983  28.364  1.00  0.00     0.034 A 
ATOM     28  C   UNL A   1      43.664  29.216  33.189  1.00  0.00     0.049 A 
ATOM     29  C   UNL A   1      43.674  25.157  29.336  1.00  0.00     0.074 A 
ATOM     30  C   UNL A   1      44.697  29.200  34.111  1.00  0.00     0.029 A 
ATOM     31  N   UNL A   1      43.873  28.145  32.336  1.00  0.00    -0.354 N 
ATOM     32  N   UNL A   1      43.774  25.999  30.336  1.00  0.00    -0.248 NA
ATOM     33  C   UNL A   1      44.827  24.261  29.182  1.00  0.00     0.031 C 
ATOM     34  C   UNL A   1      45.550  28.139  33.793  1.00  0.00     0.029 A 
ATOM     35  C   UNL A   1      45.038  27.481  32.687  1.00  0.00     0.049 A 
ATOM     36  H   UNL A   1      43.282  27.892  31.591  1.00  0.00     0.167 HD
ATOM     37  C   UNL A   1      44.995  25.726  30.938  1.00  0.00     0.074 A 
ATOM     38  C   UNL A   1      45.581  24.617  30.214  1.00  0.00     0.031 C 
ATOM     39  C   UNL A   1      45.589  26.355  31.981  1.00  0.00     0.034 A 
BRANCH  26  40
ATOM     40  C   UNL A   1      42.606  31.350  34.000  1.00  0.00     0.023 A 
ATOM     41  C   UNL A   1      43.289  32.519  33.612  1.00  0.00     0.012 A 
ATOM     42  C   UNL A   1      41.848  31.350  35.188  1.00  0.00     0.148 A 
ATOM     43  C   UNL A   1      43.226  33.669  34.399  1.00  0.00     0.002 A 
ATOM     44  C   UNL A   1      41.760  32.512  35.947  1.00  0.00     0.091 A 
ATOM     45  F   UNL A   1      41.220  30.221  35.545  1.00  0.00    -0.205 F 
ATOM     46  C   UNL A   1      42.453  33.669  35.557  1.00  0.00     0.022 A 
BRANCH  44  47
ATOM     47  S   UNL A   1      40.732  32.639  37.416  1.00  0.00     0.127 S 
ATOM     48  O   UNL A   1      39.535  31.910  36.999  1.00  0.00    -0.237 OA
ATOM     49  O   UNL A   1      41.544  31.951  38.420  1.00  0.00    -0.237 OA
ATOM     50  O   UNL A   1      40.543  34.062  37.654  1.00  0.00    -0.744 OA
ENDBRANCH  44  47
ENDBRANCH  26  40
BRANCH  27  51
ATOM     51  C   UNL A   1      42.593  23.945  27.298  1.00  0.00     0.023 A 
ATOM     52  C   UNL A   1      43.235  24.227  26.078  1.00  0.00     0.012 A 
ATOM     53  C   UNL A   1      42.036  22.666  27.501  1.00  0.00     0.148 A 
ATOM     54  C   UNL A   1      43.298  23.264  25.070  1.00  0.00     0.002 A 
ATOM     55  C   UNL A   1      42.156  21.693  26.518  1.00  0.00     0.091 A 
ATOM     56  F   UNL A   1      41.409  22.420  28.661  1.00  0.00    -0.205 F 
ATOM     57  C   UNL A   1      42.771  21.995  25.294  1.00  0.00     0.022 A 
BRANCH  55  58
ATOM     58  S   UNL A   1      41.634  19.997  26.796  1.00  0.00     0.127 S 
ATOM     59  O   UNL A   1      41.486  19.500  25.432  1.00  0.00    -0.237 OA
ATOM     60  O   UNL A   1      42.770  19.441  27.535  1.00  0.00    -0.237 OA
ATOM     61  O   UNL A   1      40.411  20.098  27.580  1.00  0.00    -0.744 OA
ENDBRANCH  55  58
ENDBRANCH  27  51
BRANCH  39  62
ATOM     62  C   UNL A   1      46.945  25.858  32.407  1.00  0.00     0.023 A 
ATOM     63  C   UNL A   1      48.099  26.407  31.814  1.00  0.00     0.012 A 
ATOM     64  C   UNL A   1      47.077  24.911  33.439  1.00  0.00     0.148 A 
ATOM     65  C   UNL A   1      49.367  25.999  32.225  1.00  0.00     0.002 A 
ATOM     66  C   UNL A   1      48.344  24.544  33.877  1.00  0.00     0.091 A 
ATOM     67  F   UNL A   1      45.964  24.390  33.976  1.00  0.00    -0.205 F 
ATOM     68  C   UNL A   1      49.490  25.079  33.263  1.00  0.00     0.022 A 
BRANCH  66  69
ATOM     69  S   UNL A   1      48.603  23.434  35.264  1.00  0.00     0.127 S 
ATOM     70  O   UNL A   1      47.830  24.088  36.318  1.00  0.00    -0.237 OA
ATOM     71  O   UNL A   1      48.029  22.182  34.772  1.00  0.00    -0.237 OA
ATOM     72  O   UNL A   1      50.043  23.394  35.484  1.00  0.00    -0.744 OA
ENDBRANCH  66  69
ENDBRANCH  39  62
ENDBRANCH  13  14
ENDBRANCH   6   8
ENDBRANCH   3   4
ENDBRANCH   2   3
ENDBRANCH   1   2
BRANCH   1  73
ATOM     73  C   UNL A   1      30.835  27.342  25.061  1.00  0.00     0.002 C 
BRANCH  73  74
ATOM     74  C   UNL A   1      30.676  27.640  23.566  1.00  0.00     0.021 C 
BRANCH  74  75
ATOM     75  C   UNL A   1      31.964  28.033  22.847  1.00  0.00     0.116 C 
BRANCH  75  76
ATOM     76  N   UNL A   1      32.293  27.107  21.774  1.00  0.00    -0.352 N 
ATOM     77  C   UNL A   1      32.896  25.879  21.853  1.00  0.00     0.252 C 
ATOM     78  H   UNL A   1      32.049  27.403  20.867  1.00  0.00     0.163 HD
ATOM     79  O   UNL A   1      33.272  25.293  20.842  1.00  0.00    -0.269 OA
BRANCH  77  80
ATOM     80  C   UNL A   1      33.109  25.270  23.170  1.00  0.00     0.058 A 
ATOM     81  C   UNL A   1      34.095  25.728  24.041  1.00  0.00     0.017 A 
ATOM     82  C   UNL A   1      32.321  24.201  23.554  1.00  0.00     0.125 A 
ATOM     83  C   UNL A   1      34.302  25.049  25.238  1.00  0.00     0.030 A 
ATOM     84  N   UNL A   1      32.514  23.514  24.704  1.00  0.00    -0.255 NA
ATOM     85  C   UNL A   1      33.513  23.934  25.525  1.00  0.00     0.094 A 
BRANCH  85  86
ATOM     86  C   UNL A   1      33.810  23.095  26.755  1.00  0.00     0.318 C 
BRANCH  86  87
ATOM     87  N   UNL A   1      35.137  22.480  26.733  1.00  0.00    -0.331 N 
ATOM     88  H   UNL A   1      35.117  21.655  27.332  1.00  0.00     0.347 HD
ATOM     89  H   UNL A   1      35.795  23.190  27.057  1.00  0.00     0.347 HD
BRANCH  87  90
ATOM     90  C   UNL A   1      35.595  22.063  25.387  1.00  0.00     0.272 C 
ATOM     91  C   UNL A   1      37.042  22.451  25.046  1.00  0.00     0.077 C 
ATOM     92  C   UNL A   1      35.269  20.570  25.177  1.00  0.00     0.278 C 
ATOM     93  C   UNL A   1      38.062  21.372  25.392  1.00  0.00     0.028 C 
ATOM     94  N   UNL A   1      36.302  19.696  24.999  1.00  0.00    -0.351 N 
ATOM     95  O   UNL A   1      34.118  20.138  25.261  1.00  0.00    -0.268 OA
ATOM     96  C   UNL A   1      37.672  20.062  24.736  1.00  0.00     0.116 C 
ATOM     97  H   UNL A   1      36.095  18.736  25.055  1.00  0.00     0.163 HD
ENDBRANCH  87  90
ENDBRANCH  86  87
ENDBRANCH  85  86
ENDBRANCH  77  80
ENDBRANCH  75  76
ENDBRANCH  74  75
ENDBRANCH  73  74
ENDBRANCH   1  73
TORSDOF 19
ENDMDL
MODEL 3
REMARK VINA RESULT:     -11.1      6.598     12.071
REMARK SMILES O=C(NCCCCCCNC(=O)c1ccc(C[NH2+][C@H]2CCCNC2=O)nc1)c1ccc(-c2c3nc(c(-c4cccc(S(=O)(=O)[O-])c4F)c4ccc([nH]4)c(-c4cccc(S(=O)(=O)[O-])c4F)c4nc(c(-c5cccc(S(=O)(=O)[O-])c5F)c5ccc2[nH]5)C=C4)C=C3)cc1
REMARK SMILES IDX 6 1 5 2 4 3 3 4 1 5 2 6 28 8 29 9 90 10 30 11 89 12 31 13
REMARK SMILES IDX 32 14 33 15 83 16 34 17 88 18 82 19 84 20 35 21 87 22 81 23
REMARK SMILES IDX 80 24 36 26 68 27 48 28 67 29 49 30 52 31 66 32 85 33 50 34
REMARK SMILES IDX 51 35 65 37 86 38 53 39 37 40 38 41 46 42 39 43 41 44 47 45
REMARK SMILES IDX 40 46 42 47 43 48 44 49 45 50 69 51 70 52 78 53 71 54 73 55
REMARK SMILES IDX 79 56 72 57 74 58 75 59 76 60 77 61 54 62 55 63 63 64 56 65
REMARK SMILES IDX 58 66 64 67 57 68 59 69 60 70 61 71 62 72 7 73 8 74 9 75
REMARK SMILES IDX 10 76 11 77 12 79 13 80 14 81 27 82 15 83 26 84 16 85 17 86
REMARK SMILES IDX 18 87 19 90 20 91 24 92 21 93 23 94 25 95 22 96
REMARK H PARENT 3 7 84 25 52 36 10 78 18 88 18 89 23 97
REMARK Flexibility Score: inf
ROOT
ATOM      1  C   UNL A   1      31.564  30.186  26.090  1.00  0.00     0.002 C 
ENDROOT
BRANCH   1   2
ATOM      2  C   UNL A   1      31.432  31.653  26.501  1.00  0.00     0.021 C 
BRANCH   2   3
ATOM      3  C   UNL A   1      32.712  32.282  27.036  1.00  0.00     0.116 C 
BRANCH   3   4
ATOM      4  N   UNL A   1      32.512  33.659  27.447  1.00  0.00    -0.352 N 
ATOM      5  O   UNL A   1      32.721  35.451  28.795  1.00  0.00    -0.269 OA
ATOM      6  C   UNL A   1      33.151  34.357  28.443  1.00  0.00     0.251 C 
ATOM      7  H   UNL A   1      31.829  34.160  26.947  1.00  0.00     0.163 HD
BRANCH   6   8
ATOM      8  C   UNL A   1      34.344  33.771  29.093  1.00  0.00     0.039 A 
ATOM      9  C   UNL A   1      34.209  32.736  30.023  1.00  0.00     0.014 A 
ATOM     10  C   UNL A   1      35.612  34.246  28.746  1.00  0.00     0.014 A 
ATOM     11  C   UNL A   1      35.331  32.242  30.679  1.00  0.00     0.010 A 
ATOM     12  C   UNL A   1      36.744  33.696  29.351  1.00  0.00     0.010 A 
ATOM     13  C   UNL A   1      36.612  32.696  30.327  1.00  0.00    -0.014 A 
BRANCH  13  14
ATOM     14  C   UNL A   1      37.808  32.011  30.879  1.00  0.00     0.031 A 
ATOM     15  C   UNL A   1      38.541  30.958  30.102  1.00  0.00     0.074 A 
ATOM     16  C   UNL A   1      38.188  32.323  32.135  1.00  0.00     0.049 A 
ATOM     17  N   UNL A   1      39.580  30.251  30.463  1.00  0.00    -0.248 NA
ATOM     18  C   UNL A   1      38.047  30.649  28.749  1.00  0.00     0.031 C 
ATOM     19  C   UNL A   1      37.507  33.290  33.002  1.00  0.00     0.029 A 
ATOM     20  N   UNL A   1      39.213  31.847  32.911  1.00  0.00    -0.354 N 
ATOM     21  C   UNL A   1      39.839  29.383  29.410  1.00  0.00     0.074 A 
ATOM     22  C   UNL A   1      38.854  29.659  28.386  1.00  0.00     0.031 C 
ATOM     23  C   UNL A   1      38.126  33.330  34.189  1.00  0.00     0.029 A 
ATOM     24  C   UNL A   1      39.211  32.357  34.189  1.00  0.00     0.049 A 
ATOM     25  H   UNL A   1      39.883  31.204  32.586  1.00  0.00     0.167 HD
ATOM     26  C   UNL A   1      40.815  28.449  29.312  1.00  0.00     0.034 A 
ATOM     27  C   UNL A   1      39.969  32.048  35.258  1.00  0.00     0.034 A 
ATOM     28  C   UNL A   1      41.813  28.214  30.323  1.00  0.00     0.049 A 
ATOM     29  C   UNL A   1      41.046  31.015  35.107  1.00  0.00     0.074 A 
ATOM     30  C   UNL A   1      42.916  27.380  30.262  1.00  0.00     0.029 A 
ATOM     31  N   UNL A   1      41.814  28.786  31.585  1.00  0.00    -0.354 N 
ATOM     32  N   UNL A   1      41.397  30.344  34.037  1.00  0.00    -0.248 NA
ATOM     33  C   UNL A   1      41.846  30.710  36.300  1.00  0.00     0.031 C 
ATOM     34  C   UNL A   1      43.563  27.420  31.500  1.00  0.00     0.029 A 
ATOM     35  C   UNL A   1      42.878  28.295  32.325  1.00  0.00     0.049 A 
ATOM     36  H   UNL A   1      41.157  29.444  31.907  1.00  0.00     0.167 HD
ATOM     37  C   UNL A   1      42.465  29.547  34.424  1.00  0.00     0.074 A 
ATOM     38  C   UNL A   1      42.728  29.846  35.816  1.00  0.00     0.031 C 
ATOM     39  C   UNL A   1      43.150  28.631  33.698  1.00  0.00     0.034 A 
BRANCH  26  40
ATOM     40  C   UNL A   1      40.893  27.620  28.058  1.00  0.00     0.023 A 
ATOM     41  C   UNL A   1      41.511  28.150  26.908  1.00  0.00     0.012 A 
ATOM     42  C   UNL A   1      40.468  26.276  28.060  1.00  0.00     0.148 A 
ATOM     43  C   UNL A   1      41.696  27.358  25.776  1.00  0.00     0.002 A 
ATOM     44  C   UNL A   1      40.690  25.483  26.940  1.00  0.00     0.091 A 
ATOM     45  F   UNL A   1      39.869  25.798  29.159  1.00  0.00    -0.205 F 
ATOM     46  C   UNL A   1      41.298  26.024  25.795  1.00  0.00     0.022 A 
BRANCH  44  47
ATOM     47  S   UNL A   1      40.282  23.733  26.891  1.00  0.00     0.127 S 
ATOM     48  O   UNL A   1      41.166  23.256  25.829  1.00  0.00    -0.237 OA
ATOM     49  O   UNL A   1      40.653  23.294  28.236  1.00  0.00    -0.237 OA
ATOM     50  O   UNL A   1      38.858  23.659  26.595  1.00  0.00    -0.744 OA
ENDBRANCH  44  47
ENDBRANCH  26  40
BRANCH  27  51
ATOM     51  C   UNL A   1      39.730  32.733  36.558  1.00  0.00     0.023 A 
ATOM     52  C   UNL A   1      40.466  33.887  36.884  1.00  0.00     0.012 A 
ATOM     53  C   UNL A   1      38.750  32.266  37.457  1.00  0.00     0.148 A 
ATOM     54  C   UNL A   1      40.250  34.548  38.094  1.00  0.00     0.002 A 
ATOM     55  C   UNL A   1      38.498  32.964  38.631  1.00  0.00     0.091 A 
ATOM     56  F   UNL A   1      38.072  31.153  37.142  1.00  0.00    -0.205 F 
ATOM     57  C   UNL A   1      39.259  34.095  38.961  1.00  0.00     0.022 A 
BRANCH  55  58
ATOM     58  S   UNL A   1      37.137  32.525  39.719  1.00  0.00     0.127 S 
ATOM     59  O   UNL A   1      37.520  31.185  40.153  1.00  0.00    -0.237 OA
ATOM     60  O   UNL A   1      37.225  33.556  40.755  1.00  0.00    -0.237 OA
ATOM     61  O   UNL A   1      35.942  32.616  38.892  1.00  0.00    -0.744 OA
ENDBRANCH  55  58
ENDBRANCH  27  51
BRANCH  39  62
ATOM     62  C   UNL A   1      44.255  27.882  34.394  1.00  0.00     0.023 A 
ATOM     63  C   UNL A   1      45.493  28.520  34.608  1.00  0.00     0.012 A 
ATOM     64  C   UNL A   1      44.045  26.585  34.898  1.00  0.00     0.148 A 
ATOM     65  C   UNL A   1      46.516  27.866  35.293  1.00  0.00     0.002 A 
ATOM     66  C   UNL A   1      45.052  25.957  35.620  1.00  0.00     0.091 A 
ATOM     67  F   UNL A   1      42.865  25.992  34.666  1.00  0.00    -0.205 F 
ATOM     68  C   UNL A   1      46.293  26.592  35.809  1.00  0.00     0.022 A 
BRANCH  66  69
ATOM     69  S   UNL A   1      44.828  24.355  36.400  1.00  0.00     0.127 S 
ATOM     70  O   UNL A   1      45.989  23.617  35.906  1.00  0.00    -0.237 OA
ATOM     71  O   UNL A   1      44.878  24.693  37.822  1.00  0.00    -0.237 OA
ATOM     72  O   UNL A   1      43.537  23.861  35.941  1.00  0.00    -0.744 OA
ENDBRANCH  66  69
ENDBRANCH  39  62
ENDBRANCH  13  14
ENDBRANCH   6   8
ENDBRANCH   3   4
ENDBRANCH   2   3
ENDBRANCH   1   2
BRANCH   1  73
ATOM     73  C   UNL A   1      31.930  29.221  27.221  1.00  0.00     0.002 C 
BRANCH  73  74
ATOM     74  C   UNL A   1      32.747  27.995  26.800  1.00  0.00     0.021 C 
BRANCH  74  75
ATOM     75  C   UNL A   1      31.970  26.680  26.774  1.00  0.00     0.116 C 
BRANCH  75  76
ATOM     76  N   UNL A   1      32.620  25.681  25.941  1.00  0.00    -0.352 N 
ATOM     77  C   UNL A   1      32.569  25.531  24.580  1.00  0.00     0.252 C 
ATOM     78  H   UNL A   1      33.172  25.021  26.421  1.00  0.00     0.163 HD
ATOM     79  O   UNL A   1      33.025  24.529  24.037  1.00  0.00    -0.269 OA
BRANCH  77  80
ATOM     80  C   UNL A   1      31.942  26.579  23.768  1.00  0.00     0.058 A 
ATOM     81  C   UNL A   1      32.679  27.636  23.237  1.00  0.00     0.017 A 
ATOM     82  C   UNL A   1      30.581  26.530  23.537  1.00  0.00     0.125 A 
ATOM     83  C   UNL A   1      32.008  28.644  22.551  1.00  0.00     0.030 A 
ATOM     84  N   UNL A   1      29.903  27.505  22.888  1.00  0.00    -0.255 NA
ATOM     85  C   UNL A   1      30.621  28.560  22.418  1.00  0.00     0.094 A 
BRANCH  85  86
ATOM     86  C   UNL A   1      29.852  29.712  21.796  1.00  0.00     0.318 C 
BRANCH  86  87
ATOM     87  N   UNL A   1      28.401  29.531  21.836  1.00  0.00    -0.331 N 
ATOM     88  H   UNL A   1      28.191  28.775  22.489  1.00  0.00     0.347 HD
ATOM     89  H   UNL A   1      28.105  29.324  20.881  1.00  0.00     0.347 HD
BRANCH  87  90
ATOM     90  C   UNL A   1      27.646  30.733  22.261  1.00  0.00     0.272 C 
ATOM     91  C   UNL A   1      27.876  31.161  23.718  1.00  0.00     0.077 C 
ATOM     92  C   UNL A   1      27.854  31.858  21.226  1.00  0.00     0.278 C 
ATOM     93  C   UNL A   1      28.998  32.181  23.887  1.00  0.00     0.028 C 
ATOM     94  N   UNL A   1      28.478  33.005  21.626  1.00  0.00    -0.351 N 
ATOM     95  O   UNL A   1      27.561  31.711  20.038  1.00  0.00    -0.268 OA
ATOM     96  C   UNL A   1      28.745  33.379  22.992  1.00  0.00     0.116 C 
ATOM     97  H   UNL A   1      28.770  33.628  20.922  1.00  0.00     0.163 HD
ENDBRANCH  87  90
ENDBRANCH  86  87
ENDBRANCH  85  86
ENDBRANCH  77  80
ENDBRANCH  75  76
ENDBRANCH  74  75
ENDBRANCH  73  74
ENDBRANCH   1  73
TORSDOF 19
ENDMDL
