MODEL 1
REMARK VINA RESULT:     -13.6      0.000      0.000
REMARK SMILES Cc1ccc(-c2cnnc(-n3nc(C)c4c3NC(=O)C[C@@H]4c3ccc(C(=O)NCCCCCCNC(=O)c4ccc(-c5c6nc(c(-c7cccc(S(=O)(=O)[O-])c7F)c7ccc([nH]7)c(-c7cccc(S(=O)(=O)[O-])c7F)c7nc(c(-c8cccc(S(=O)(=O)[O-])c8F)c8ccc5[nH]8)C=C7)C=C6)cc4)cc3)n2)cc1
REMARK SMILES IDX 31 1 30 2 29 3 28 4 26 5 27 6 25 8 22 9 23 10 102 11 24 12
REMARK SMILES IDX 101 13 21 14 11 15 12 16 16 17 13 18 15 19 17 20 14 21 18 22
REMARK SMILES IDX 20 24 19 25 10 26 6 27 7 28 103 29 8 30 9 31 5 32 1 33 2 34
REMARK SMILES IDX 3 35 105 36 4 37 104 38 32 39 33 40 34 41 35 42 36 43 37 45
REMARK SMILES IDX 38 46 39 47 100 48 40 49 99 50 41 51 42 52 43 53 93 54 44 55
REMARK SMILES IDX 98 56 92 57 94 58 45 59 97 60 91 61 90 62 46 64 78 65 58 66
REMARK SMILES IDX 77 67 59 68 62 69 76 70 95 71 60 72 61 73 75 75 96 76 63 77
REMARK SMILES IDX 47 78 48 79 56 80 49 81 51 82 57 83 50 84 52 85 53 86 54 87
REMARK SMILES IDX 55 88 79 89 80 90 88 91 81 92 83 93 89 94 82 95 84 96 85 97
REMARK SMILES IDX 86 98 87 99 64 100 65 101 73 102 66 103 68 104 74 105 67 106
REMARK SMILES IDX 69 107 70 108 71 109 72 110
REMARK H PARENT 28 7 17 23 35 44 94 63 62 74
REMARK Flexibility Score: inf
ROOT
ATOM      1  C   UNL A   1      37.888  22.143  25.015  1.00  0.00     0.002 C 
ENDROOT
BRANCH   1   2
ATOM      2  C   UNL A   1      37.051  20.858  24.938  1.00  0.00     0.021 C 
BRANCH   2   3
ATOM      3  C   UNL A   1      35.651  21.002  25.535  1.00  0.00     0.116 C 
BRANCH   3   4
ATOM      4  N   UNL A   1      34.777  19.927  25.086  1.00  0.00    -0.352 N 
ATOM      5  C   UNL A   1      33.502  19.950  24.578  1.00  0.00     0.251 C 
ATOM      6  O   UNL A   1      33.010  18.924  24.117  1.00  0.00    -0.269 OA
ATOM      7  H   UNL A   1      35.169  19.028  25.159  1.00  0.00     0.163 HD
BRANCH   5   8
ATOM      8  C   UNL A   1      32.742  21.216  24.497  1.00  0.00     0.039 A 
ATOM      9  C   UNL A   1      31.707  23.817  24.347  1.00  0.00    -0.040 A 
ATOM     10  C   UNL A   1      32.162  23.160  23.189  1.00  0.00     0.005 A 
ATOM     11  C   UNL A   1      31.597  23.072  25.529  1.00  0.00     0.005 A 
ATOM     12  C   UNL A   1      32.671  21.863  23.262  1.00  0.00     0.014 A 
ATOM     13  C   UNL A   1      32.121  21.784  25.606  1.00  0.00     0.014 A 
BRANCH   9  14
ATOM     14  C   UNL A   1      31.414  25.299  24.248  1.00  0.00     0.064 C 
ATOM     15  N   UNL A   1      33.008  27.650  26.486  1.00  0.00    -0.180 N 
ATOM     16  N   UNL A   1      34.163  27.050  26.090  1.00  0.00    -0.168 NA
ATOM     17  C   UNL A   1      31.951  26.796  26.212  1.00  0.00     0.143 A 
ATOM     18  C   UNL A   1      33.781  26.165  25.166  1.00  0.00     0.066 A 
ATOM     19  C   UNL A   1      32.362  26.075  25.104  1.00  0.00     0.026 A 
ATOM     20  N   UNL A   1      30.724  26.539  26.797  1.00  0.00    -0.310 N 
ATOM     21  C   UNL A   1      34.840  25.365  24.501  1.00  0.00     0.069 C 
ATOM     22  C   UNL A   1      29.800  25.687  26.096  1.00  0.00     0.226 C 
ATOM     23  H   UNL A   1      30.488  26.930  27.670  1.00  0.00     0.171 HD
ATOM     24  C   UNL A   1      29.967  25.642  24.595  1.00  0.00     0.113 C 
ATOM     25  O   UNL A   1      28.906  25.170  26.722  1.00  0.00    -0.275 OA
BRANCH  15  26
ATOM     26  C   UNL A   1      32.959  29.070  26.637  1.00  0.00     0.272 A 
ATOM     27  C   UNL A   1      33.549  31.056  27.596  1.00  0.00     0.095 A 
ATOM     28  C   UNL A   1      32.440  31.653  27.020  1.00  0.00     0.164 A 
ATOM     29  N   UNL A   1      33.803  29.720  27.469  1.00  0.00    -0.208 NA
ATOM     30  N   UNL A   1      31.596  30.952  26.256  1.00  0.00    -0.153 NA
ATOM     31  N   UNL A   1      31.890  29.657  26.029  1.00  0.00    -0.109 NA
BRANCH  27  32
ATOM     32  C   UNL A   1      34.553  31.879  28.281  1.00  0.00     0.002 A 
ATOM     33  C   UNL A   1      37.583  34.107  30.429  1.00  0.00     0.044 C 
ATOM     34  C   UNL A   1      36.542  33.315  29.697  1.00  0.00    -0.051 A 
ATOM     35  C   UNL A   1      36.735  32.973  28.354  1.00  0.00     0.004 A 
ATOM     36  C   UNL A   1      35.362  32.922  30.333  1.00  0.00     0.004 A 
ATOM     37  C   UNL A   1      35.753  32.262  27.655  1.00  0.00     0.011 A 
ATOM     38  C   UNL A   1      34.380  32.217  29.632  1.00  0.00     0.011 A 
ENDBRANCH  27  32
ENDBRANCH  15  26
ENDBRANCH   9  14
ENDBRANCH   5   8
ENDBRANCH   3   4
ENDBRANCH   2   3
ENDBRANCH   1   2
BRANCH   1  39
ATOM     39  C   UNL A   1      38.917  22.195  26.156  1.00  0.00     0.002 C 
BRANCH  39  40
ATOM     40  C   UNL A   1      40.002  21.119  26.108  1.00  0.00     0.021 C 
BRANCH  40  41
ATOM     41  C   UNL A   1      41.400  21.698  26.085  1.00  0.00     0.116 C 
BRANCH  41  42
ATOM     42  N   UNL A   1      42.380  20.754  25.589  1.00  0.00    -0.352 N 
ATOM     43  C   UNL A   1      43.632  20.985  25.056  1.00  0.00     0.251 C 
ATOM     44  H   UNL A   1      42.113  19.808  25.641  1.00  0.00     0.163 HD
ATOM     45  O   UNL A   1      44.112  20.124  24.326  1.00  0.00    -0.269 OA
BRANCH  43  46
ATOM     46  C   UNL A   1      44.447  22.134  25.538  1.00  0.00     0.039 A 
ATOM     47  C   UNL A   1      44.744  22.155  26.908  1.00  0.00     0.014 A 
ATOM     48  C   UNL A   1      44.511  23.310  24.805  1.00  0.00     0.014 A 
ATOM     49  C   UNL A   1      44.774  23.369  27.578  1.00  0.00     0.010 A 
ATOM     50  C   UNL A   1      44.349  24.489  25.471  1.00  0.00     0.010 A 
ATOM     51  C   UNL A   1      44.428  24.502  26.862  1.00  0.00    -0.014 A 
BRANCH  51  52
ATOM     52  C   UNL A   1      44.309  25.831  27.400  1.00  0.00     0.031 A 
ATOM     53  C   UNL A   1      42.947  26.404  27.383  1.00  0.00     0.074 A 
ATOM     54  C   UNL A   1      45.333  26.281  28.160  1.00  0.00     0.049 A 
ATOM     55  N   UNL A   1      42.682  27.643  27.573  1.00  0.00    -0.248 NA
ATOM     56  C   UNL A   1      41.748  25.598  27.124  1.00  0.00     0.031 C 
ATOM     57  C   UNL A   1      45.278  27.298  29.199  1.00  0.00     0.029 A 
ATOM     58  N   UNL A   1      46.703  25.985  28.069  1.00  0.00    -0.354 N 
ATOM     59  C   UNL A   1      41.319  27.738  27.785  1.00  0.00     0.074 A 
ATOM     60  C   UNL A   1      40.771  26.475  27.371  1.00  0.00     0.031 C 
ATOM     61  C   UNL A   1      46.523  27.757  29.424  1.00  0.00     0.029 A 
ATOM     62  C   UNL A   1      47.370  27.181  28.391  1.00  0.00     0.049 A 
ATOM     63  H   UNL A   1      47.110  25.123  27.828  1.00  0.00     0.167 HD
ATOM     64  C   UNL A   1      40.854  28.815  28.476  1.00  0.00     0.034 A 
ATOM     65  C   UNL A   1      48.097  27.911  27.488  1.00  0.00     0.034 A 
ATOM     66  C   UNL A   1      41.986  29.675  28.837  1.00  0.00     0.049 A 
ATOM     67  C   UNL A   1      47.522  29.306  27.288  1.00  0.00     0.074 A 
ATOM     68  C   UNL A   1      42.760  29.736  29.984  1.00  0.00     0.029 A 
ATOM     69  N   UNL A   1      42.682  30.348  27.844  1.00  0.00    -0.354 N 
ATOM     70  N   UNL A   1      46.295  29.628  27.596  1.00  0.00    -0.248 NA
ATOM     71  C   UNL A   1      48.273  30.446  26.770  1.00  0.00     0.031 C 
ATOM     72  C   UNL A   1      43.964  30.407  29.655  1.00  0.00     0.029 A 
ATOM     73  C   UNL A   1      43.911  30.771  28.320  1.00  0.00     0.049 A 
ATOM     74  H   UNL A   1      42.349  30.504  26.930  1.00  0.00     0.167 HD
ATOM     75  C   UNL A   1      46.060  30.942  27.297  1.00  0.00     0.074 A 
ATOM     76  C   UNL A   1      47.343  31.420  26.810  1.00  0.00     0.031 C 
ATOM     77  C   UNL A   1      44.825  31.512  27.463  1.00  0.00     0.034 A 
BRANCH  64  78
ATOM     78  C   UNL A   1      39.491  28.978  29.126  1.00  0.00     0.023 A 
ATOM     79  C   UNL A   1      38.388  29.037  28.239  1.00  0.00     0.012 A 
ATOM     80  C   UNL A   1      39.185  29.110  30.500  1.00  0.00     0.148 A 
ATOM     81  C   UNL A   1      37.082  29.286  28.658  1.00  0.00     0.002 A 
ATOM     82  C   UNL A   1      37.875  29.384  30.923  1.00  0.00     0.091 A 
ATOM     83  F   UNL A   1      40.137  28.927  31.418  1.00  0.00    -0.205 F 
ATOM     84  C   UNL A   1      36.827  29.478  30.003  1.00  0.00     0.022 A 
BRANCH  82  85
ATOM     85  S   UNL A   1      37.432  29.679  32.647  1.00  0.00     0.127 S 
ATOM     86  O   UNL A   1      37.415  28.320  33.193  1.00  0.00    -0.237 OA
ATOM     87  O   UNL A   1      38.541  30.506  33.119  1.00  0.00    -0.237 OA
ATOM     88  O   UNL A   1      36.129  30.331  32.630  1.00  0.00    -0.744 OA
ENDBRANCH  82  85
ENDBRANCH  64  78
BRANCH  65  89
ATOM     89  C   UNL A   1      48.741  27.077  26.429  1.00  0.00     0.023 A 
ATOM     90  C   UNL A   1      48.184  27.178  25.132  1.00  0.00     0.012 A 
ATOM     91  C   UNL A   1      50.062  26.615  26.567  1.00  0.00     0.148 A 
ATOM     92  C   UNL A   1      48.986  27.038  23.999  1.00  0.00     0.002 A 
ATOM     93  C   UNL A   1      50.853  26.462  25.429  1.00  0.00     0.091 A 
ATOM     94  F   UNL A   1      50.545  26.410  27.798  1.00  0.00    -0.205 F 
ATOM     95  C   UNL A   1      50.334  26.735  24.152  1.00  0.00     0.022 A 
BRANCH  93  96
ATOM     96  S   UNL A   1      52.596  26.033  25.538  1.00  0.00     0.127 S 
ATOM     97  O   UNL A   1      52.545  24.800  26.318  1.00  0.00    -0.237 OA
ATOM     98  O   UNL A   1      52.966  25.854  24.135  1.00  0.00    -0.237 OA
ATOM     99  O   UNL A   1      53.226  27.176  26.181  1.00  0.00    -0.744 OA
ENDBRANCH  93  96
ENDBRANCH  65  89
BRANCH  77 100
ATOM    100  C   UNL A   1      44.362  32.835  26.877  1.00  0.00     0.023 A 
ATOM    101  C   UNL A   1      44.176  33.016  25.496  1.00  0.00     0.012 A 
ATOM    102  C   UNL A   1      43.944  33.906  27.716  1.00  0.00     0.148 A 
ATOM    103  C   UNL A   1      43.678  34.211  24.965  1.00  0.00     0.002 A 
ATOM    104  C   UNL A   1      43.326  35.036  27.193  1.00  0.00     0.091 A 
ATOM    105  F   UNL A   1      44.163  33.856  29.037  1.00  0.00    -0.205 F 
ATOM    106  C   UNL A   1      43.230  35.213  25.814  1.00  0.00     0.022 A 
BRANCH 104 107
ATOM    107  S   UNL A   1      42.494  36.224  28.257  1.00  0.00     0.127 S 
ATOM    108  O   UNL A   1      41.916  37.146  27.283  1.00  0.00    -0.237 OA
ATOM    109  O   UNL A   1      41.519  35.383  28.956  1.00  0.00    -0.237 OA
ATOM    110  O   UNL A   1      43.536  36.768  29.117  1.00  0.00    -0.744 OA
ENDBRANCH 104 107
ENDBRANCH  77 100
ENDBRANCH  51  52
ENDBRANCH  43  46
ENDBRANCH  41  42
ENDBRANCH  40  41
ENDBRANCH  39  40
ENDBRANCH   1  39
TORSDOF 19
ENDMDL
MODEL 2
REMARK VINA RESULT:     -11.9      4.468     11.375
REMARK SMILES Cc1ccc(-c2cnnc(-n3nc(C)c4c3NC(=O)C[C@@H]4c3ccc(C(=O)NCCCCCCNC(=O)c4ccc(-c5c6nc(c(-c7cccc(S(=O)(=O)[O-])c7F)c7ccc([nH]7)c(-c7cccc(S(=O)(=O)[O-])c7F)c7nc(c(-c8cccc(S(=O)(=O)[O-])c8F)c8ccc5[nH]8)C=C7)C=C6)cc4)cc3)n2)cc1
REMARK SMILES IDX 31 1 30 2 29 3 28 4 26 5 27 6 25 8 22 9 23 10 102 11 24 12
REMARK SMILES IDX 101 13 21 14 11 15 12 16 16 17 13 18 15 19 17 20 14 21 18 22
REMARK SMILES IDX 20 24 19 25 10 26 6 27 7 28 103 29 8 30 9 31 5 32 1 33 2 34
REMARK SMILES IDX 3 35 105 36 4 37 104 38 32 39 33 40 34 41 35 42 36 43 37 45
REMARK SMILES IDX 38 46 39 47 100 48 40 49 99 50 41 51 42 52 43 53 93 54 44 55
REMARK SMILES IDX 98 56 92 57 94 58 45 59 97 60 91 61 90 62 46 64 78 65 58 66
REMARK SMILES IDX 77 67 59 68 62 69 76 70 95 71 60 72 61 73 75 75 96 76 63 77
REMARK SMILES IDX 47 78 48 79 56 80 49 81 51 82 57 83 50 84 52 85 53 86 54 87
REMARK SMILES IDX 55 88 79 89 80 90 88 91 81 92 83 93 89 94 82 95 84 96 85 97
REMARK SMILES IDX 86 98 87 99 64 100 65 101 73 102 66 103 68 104 74 105 67 106
REMARK SMILES IDX 69 107 70 108 71 109 72 110
REMARK H PARENT 28 7 17 23 35 44 94 63 62 74
REMARK Flexibility Score: inf
ROOT
ATOM      1  C   UNL A   1      41.186  30.755  31.915  1.00  0.00     0.002 C 
ENDROOT
BRANCH   1   2
ATOM      2  C   UNL A   1      40.815  31.670  33.092  1.00  0.00     0.021 C 
BRANCH   2   3
ATOM      3  C   UNL A   1      41.282  33.115  32.916  1.00  0.00     0.116 C 
BRANCH   3   4
ATOM      4  N   UNL A   1      40.339  34.047  33.518  1.00  0.00    -0.352 N 
ATOM      5  C   UNL A   1      39.074  34.424  33.140  1.00  0.00     0.251 C 
ATOM      6  O   UNL A   1      38.394  35.119  33.891  1.00  0.00    -0.269 OA
ATOM      7  H   UNL A   1      40.665  34.483  34.337  1.00  0.00     0.163 HD
BRANCH   5   8
ATOM      8  C   UNL A   1      38.482  33.931  31.878  1.00  0.00     0.039 A 
ATOM      9  C   UNL A   1      37.627  32.634  29.544  1.00  0.00    -0.040 A 
ATOM     10  C   UNL A   1      37.075  32.296  30.794  1.00  0.00     0.005 A 
ATOM     11  C   UNL A   1      38.456  33.762  29.472  1.00  0.00     0.005 A 
ATOM     12  C   UNL A   1      37.496  32.945  31.954  1.00  0.00     0.014 A 
ATOM     13  C   UNL A   1      38.889  34.399  30.632  1.00  0.00     0.014 A 
BRANCH   9  14
ATOM     14  C   UNL A   1      37.326  31.726  28.371  1.00  0.00     0.064 C 
ATOM     15  N   UNL A   1      33.945  30.632  27.702  1.00  0.00    -0.180 N 
ATOM     16  N   UNL A   1      33.638  31.956  27.769  1.00  0.00    -0.168 NA
ATOM     17  C   UNL A   1      35.158  30.427  28.341  1.00  0.00     0.143 A 
ATOM     18  C   UNL A   1      34.814  32.564  27.941  1.00  0.00     0.066 A 
ATOM     19  C   UNL A   1      35.850  31.614  28.165  1.00  0.00     0.026 A 
ATOM     20  N   UNL A   1      35.719  29.391  29.066  1.00  0.00    -0.310 N 
ATOM     21  C   UNL A   1      34.818  34.047  28.011  1.00  0.00     0.069 C 
ATOM     22  C   UNL A   1      37.110  29.486  29.423  1.00  0.00     0.226 C 
ATOM     23  H   UNL A   1      35.182  28.610  29.330  1.00  0.00     0.171 HD
ATOM     24  C   UNL A   1      37.959  30.343  28.513  1.00  0.00     0.113 C 
ATOM     25  O   UNL A   1      37.518  28.801  30.330  1.00  0.00    -0.275 OA
BRANCH  15  26
ATOM     26  C   UNL A   1      33.344  29.811  26.697  1.00  0.00     0.272 A 
ATOM     27  C   UNL A   1      31.783  29.325  25.105  1.00  0.00     0.095 A 
ATOM     28  C   UNL A   1      32.161  27.993  25.155  1.00  0.00     0.164 A 
ATOM     29  N   UNL A   1      32.329  30.266  25.930  1.00  0.00    -0.208 NA
ATOM     30  N   UNL A   1      33.129  27.580  25.978  1.00  0.00    -0.153 NA
ATOM     31  N   UNL A   1      33.755  28.513  26.723  1.00  0.00    -0.109 NA
BRANCH  27  32
ATOM     32  C   UNL A   1      30.847  29.784  24.072  1.00  0.00     0.002 A 
ATOM     33  C   UNL A   1      27.953  30.928  21.059  1.00  0.00     0.044 C 
ATOM     34  C   UNL A   1      28.941  30.512  22.107  1.00  0.00    -0.051 A 
ATOM     35  C   UNL A   1      28.956  31.151  23.351  1.00  0.00     0.004 A 
ATOM     36  C   UNL A   1      29.867  29.497  21.856  1.00  0.00     0.004 A 
ATOM     37  C   UNL A   1      29.896  30.790  24.323  1.00  0.00     0.011 A 
ATOM     38  C   UNL A   1      30.810  29.142  22.825  1.00  0.00     0.011 A 
ENDBRANCH  27  32
ENDBRANCH  15  26
ENDBRANCH   9  14
ENDBRANCH   5   8
ENDBRANCH   3   4
ENDBRANCH   2   3
ENDBRANCH   1   2
BRANCH   1  39
ATOM     39  C   UNL A   1      40.342  29.478  31.778  1.00  0.00     0.002 C 
BRANCH  39  40
ATOM     40  C   UNL A   1      41.051  28.292  31.127  1.00  0.00     0.021 C 
BRANCH  40  41
ATOM     41  C   UNL A   1      40.868  28.252  29.625  1.00  0.00     0.116 C 
BRANCH  41  42
ATOM     42  N   UNL A   1      40.049  27.137  29.198  1.00  0.00    -0.352 N 
ATOM     43  C   UNL A   1      40.290  26.193  28.221  1.00  0.00     0.251 C 
ATOM     44  H   UNL A   1      39.194  27.038  29.676  1.00  0.00     0.163 HD
ATOM     45  O   UNL A   1      39.325  25.614  27.732  1.00  0.00    -0.269 OA
BRANCH  43  46
ATOM     46  C   UNL A   1      41.682  25.747  27.942  1.00  0.00     0.039 A 
ATOM     47  C   UNL A   1      42.121  24.610  28.634  1.00  0.00     0.014 A 
ATOM     48  C   UNL A   1      42.613  26.629  27.413  1.00  0.00     0.014 A 
ATOM     49  C   UNL A   1      43.438  24.544  29.067  1.00  0.00     0.010 A 
ATOM     50  C   UNL A   1      43.851  26.674  27.985  1.00  0.00     0.010 A 
ATOM     51  C   UNL A   1      44.236  25.655  28.854  1.00  0.00    -0.014 A 
BRANCH  51  52
ATOM     52  C   UNL A   1      45.591  25.814  29.310  1.00  0.00     0.031 A 
ATOM     53  C   UNL A   1      46.636  25.353  28.373  1.00  0.00     0.074 A 
ATOM     54  C   UNL A   1      45.794  26.655  30.351  1.00  0.00     0.049 A 
ATOM     55  N   UNL A   1      47.864  25.173  28.691  1.00  0.00    -0.248 NA
ATOM     56  C   UNL A   1      46.359  25.033  26.968  1.00  0.00     0.031 C 
ATOM     57  C   UNL A   1      47.016  27.377  30.673  1.00  0.00     0.029 A 
ATOM     58  N   UNL A   1      44.949  26.949  31.433  1.00  0.00    -0.354 N 
ATOM     59  C   UNL A   1      48.574  25.043  27.513  1.00  0.00     0.074 A 
ATOM     60  C   UNL A   1      47.589  24.834  26.486  1.00  0.00     0.031 C 
ATOM     61  C   UNL A   1      46.966  27.759  31.963  1.00  0.00     0.029 A 
ATOM     62  C   UNL A   1      45.798  27.115  32.541  1.00  0.00     0.049 A 
ATOM     63  H   UNL A   1      43.968  27.022  31.418  1.00  0.00     0.167 HD
ATOM     64  C   UNL A   1      49.904  25.330  27.533  1.00  0.00     0.034 A 
ATOM     65  C   UNL A   1      45.836  26.249  33.604  1.00  0.00     0.034 A 
ATOM     66  C   UNL A   1      50.287  25.718  28.895  1.00  0.00     0.049 A 
ATOM     67  C   UNL A   1      47.201  25.595  33.757  1.00  0.00     0.074 A 
ATOM     68  C   UNL A   1      50.384  26.960  29.499  1.00  0.00     0.029 A 
ATOM     69  N   UNL A   1      50.261  24.775  29.911  1.00  0.00    -0.354 N 
ATOM     70  N   UNL A   1      48.079  25.530  32.794  1.00  0.00    -0.248 NA
ATOM     71  C   UNL A   1      47.701  24.999  34.993  1.00  0.00     0.031 C 
ATOM     72  C   UNL A   1      50.357  26.760  30.901  1.00  0.00     0.029 A 
ATOM     73  C   UNL A   1      50.267  25.400  31.146  1.00  0.00     0.049 A 
ATOM     74  H   UNL A   1      50.241  23.800  29.774  1.00  0.00     0.167 HD
ATOM     75  C   UNL A   1      49.204  24.878  33.218  1.00  0.00     0.074 A 
ATOM     76  C   UNL A   1      48.929  24.593  34.616  1.00  0.00     0.031 C 
ATOM     77  C   UNL A   1      50.252  24.618  32.375  1.00  0.00     0.034 A 
BRANCH  64  78
ATOM     78  C   UNL A   1      50.810  25.597  26.344  1.00  0.00     0.023 A 
ATOM     79  C   UNL A   1      52.037  24.887  26.334  1.00  0.00     0.012 A 
ATOM     80  C   UNL A   1      50.603  26.485  25.264  1.00  0.00     0.148 A 
ATOM     81  C   UNL A   1      53.028  25.089  25.374  1.00  0.00     0.002 A 
ATOM     82  C   UNL A   1      51.608  26.707  24.310  1.00  0.00     0.091 A 
ATOM     83  F   UNL A   1      49.422  27.090  25.114  1.00  0.00    -0.205 F 
ATOM     84  C   UNL A   1      52.822  26.015  24.369  1.00  0.00     0.022 A 
BRANCH  82  85
ATOM     85  S   UNL A   1      51.458  27.910  22.974  1.00  0.00     0.127 S 
ATOM     86  O   UNL A   1      50.217  27.485  22.322  1.00  0.00    -0.237 OA
ATOM     87  O   UNL A   1      51.357  29.175  23.700  1.00  0.00    -0.237 OA
ATOM     88  O   UNL A   1      52.648  27.756  22.147  1.00  0.00    -0.744 OA
ENDBRANCH  82  85
ENDBRANCH  64  78
BRANCH  65  89
ATOM     89  C   UNL A   1      44.522  25.597  33.888  1.00  0.00     0.023 A 
ATOM     90  C   UNL A   1      44.439  24.214  33.600  1.00  0.00     0.012 A 
ATOM     91  C   UNL A   1      43.611  26.157  34.800  1.00  0.00     0.148 A 
ATOM     92  C   UNL A   1      43.624  23.376  34.361  1.00  0.00     0.002 A 
ATOM     93  C   UNL A   1      42.789  25.314  35.547  1.00  0.00     0.091 A 
ATOM     94  F   UNL A   1      43.617  27.483  34.982  1.00  0.00    -0.205 F 
ATOM     95  C   UNL A   1      42.842  23.921  35.373  1.00  0.00     0.022 A 
BRANCH  93  96
ATOM     96  S   UNL A   1      41.717  25.944  36.847  1.00  0.00     0.127 S 
ATOM     97  O   UNL A   1      41.000  27.004  36.146  1.00  0.00    -0.237 OA
ATOM     98  O   UNL A   1      40.907  24.775  37.182  1.00  0.00    -0.237 OA
ATOM     99  O   UNL A   1      42.620  26.369  37.906  1.00  0.00    -0.744 OA
ENDBRANCH  93  96
ENDBRANCH  65  89
BRANCH  77 100
ATOM    100  C   UNL A   1      51.386  23.642  32.629  1.00  0.00     0.023 A 
ATOM    101  C   UNL A   1      51.188  22.250  32.635  1.00  0.00     0.012 A 
ATOM    102  C   UNL A   1      52.736  24.086  32.718  1.00  0.00     0.148 A 
ATOM    103  C   UNL A   1      52.247  21.350  32.796  1.00  0.00     0.002 A 
ATOM    104  C   UNL A   1      53.794  23.186  32.742  1.00  0.00     0.091 A 
ATOM    105  F   UNL A   1      53.012  25.395  32.807  1.00  0.00    -0.205 F 
ATOM    106  C   UNL A   1      53.554  21.816  32.824  1.00  0.00     0.022 A 
BRANCH 104 107
ATOM    107  S   UNL A   1      55.492  23.733  32.508  1.00  0.00     0.127 S 
ATOM    108  O   UNL A   1      56.192  22.996  33.558  1.00  0.00    -0.237 OA
ATOM    109  O   UNL A   1      55.779  23.277  31.147  1.00  0.00    -0.237 OA
ATOM    110  O   UNL A   1      55.455  25.182  32.657  1.00  0.00    -0.744 OA
ENDBRANCH 104 107
ENDBRANCH  77 100
ENDBRANCH  51  52
ENDBRANCH  43  46
ENDBRANCH  41  42
ENDBRANCH  40  41
ENDBRANCH  39  40
ENDBRANCH   1  39
TORSDOF 19
ENDMDL
MODEL 3
REMARK VINA RESULT:     -11.7      5.139     10.372
REMARK SMILES Cc1ccc(-c2cnnc(-n3nc(C)c4c3NC(=O)C[C@@H]4c3ccc(C(=O)NCCCCCCNC(=O)c4ccc(-c5c6nc(c(-c7cccc(S(=O)(=O)[O-])c7F)c7ccc([nH]7)c(-c7cccc(S(=O)(=O)[O-])c7F)c7nc(c(-c8cccc(S(=O)(=O)[O-])c8F)c8ccc5[nH]8)C=C7)C=C6)cc4)cc3)n2)cc1
REMARK SMILES IDX 31 1 30 2 29 3 28 4 26 5 27 6 25 8 22 9 23 10 102 11 24 12
REMARK SMILES IDX 101 13 21 14 11 15 12 16 16 17 13 18 15 19 17 20 14 21 18 22
REMARK SMILES IDX 20 24 19 25 10 26 6 27 7 28 103 29 8 30 9 31 5 32 1 33 2 34
REMARK SMILES IDX 3 35 105 36 4 37 104 38 32 39 33 40 34 41 35 42 36 43 37 45
REMARK SMILES IDX 38 46 39 47 100 48 40 49 99 50 41 51 42 52 43 53 93 54 44 55
REMARK SMILES IDX 98 56 92 57 94 58 45 59 97 60 91 61 90 62 46 64 78 65 58 66
REMARK SMILES IDX 77 67 59 68 62 69 76 70 95 71 60 72 61 73 75 75 96 76 63 77
REMARK SMILES IDX 47 78 48 79 56 80 49 81 51 82 57 83 50 84 52 85 53 86 54 87
REMARK SMILES IDX 55 88 79 89 80 90 88 91 81 92 83 93 89 94 82 95 84 96 85 97
REMARK SMILES IDX 86 98 87 99 64 100 65 101 73 102 66 103 68 104 74 105 67 106
REMARK SMILES IDX 69 107 70 108 71 109 72 110
REMARK H PARENT 28 7 17 23 35 44 94 63 62 74
REMARK Flexibility Score: inf
ROOT
ATOM      1  C   UNL A   1      42.559  28.407  28.802  1.00  0.00     0.002 C 
ENDROOT
BRANCH   1   2
ATOM      2  C   UNL A   1      43.959  27.781  28.872  1.00  0.00     0.021 C 
BRANCH   2   3
ATOM      3  C   UNL A   1      44.195  26.943  30.129  1.00  0.00     0.116 C 
BRANCH   3   4
ATOM      4  N   UNL A   1      45.570  26.470  30.193  1.00  0.00    -0.352 N 
ATOM      5  C   UNL A   1      46.188  25.401  29.594  1.00  0.00     0.251 C 
ATOM      6  O   UNL A   1      47.408  25.279  29.670  1.00  0.00    -0.269 OA
ATOM      7  H   UNL A   1      46.160  27.011  30.765  1.00  0.00     0.163 HD
BRANCH   5   8
ATOM      8  C   UNL A   1      45.415  24.437  28.782  1.00  0.00     0.039 A 
ATOM      9  C   UNL A   1      43.750  22.977  27.062  1.00  0.00    -0.040 A 
ATOM     10  C   UNL A   1      44.954  23.532  26.592  1.00  0.00     0.005 A 
ATOM     11  C   UNL A   1      43.508  22.999  28.443  1.00  0.00     0.005 A 
ATOM     12  C   UNL A   1      45.786  24.253  27.449  1.00  0.00     0.014 A 
ATOM     13  C   UNL A   1      44.328  23.733  29.295  1.00  0.00     0.014 A 
BRANCH   9  14
ATOM     14  C   UNL A   1      42.774  22.437  26.039  1.00  0.00     0.064 C 
ATOM     15  N   UNL A   1      39.208  22.798  26.517  1.00  0.00    -0.180 N 
ATOM     16  N   UNL A   1      39.495  24.114  26.710  1.00  0.00    -0.168 NA
ATOM     17  C   UNL A   1      40.366  22.061  26.709  1.00  0.00     0.143 A 
ATOM     18  C   UNL A   1      40.809  24.205  26.492  1.00  0.00     0.066 A 
ATOM     19  C   UNL A   1      41.390  22.916  26.336  1.00  0.00     0.026 A 
ATOM     20  N   UNL A   1      40.652  20.792  27.182  1.00  0.00    -0.310 N 
ATOM     21  C   UNL A   1      41.430  25.551  26.588  1.00  0.00     0.069 C 
ATOM     22  C   UNL A   1      42.000  20.306  27.055  1.00  0.00     0.226 C 
ATOM     23  H   UNL A   1      39.951  20.237  27.594  1.00  0.00     0.171 HD
ATOM     24  C   UNL A   1      42.808  20.913  25.932  1.00  0.00     0.113 C 
ATOM     25  O   UNL A   1      42.349  19.388  27.758  1.00  0.00    -0.275 OA
BRANCH  15  26
ATOM     26  C   UNL A   1      38.059  22.424  25.754  1.00  0.00     0.272 A 
ATOM     27  C   UNL A   1      36.006  22.782  24.822  1.00  0.00     0.095 A 
ATOM     28  C   UNL A   1      35.859  21.417  24.642  1.00  0.00     0.164 A 
ATOM     29  N   UNL A   1      37.095  23.320  25.447  1.00  0.00    -0.208 NA
ATOM     30  N   UNL A   1      36.816  20.563  25.022  1.00  0.00    -0.153 NA
ATOM     31  N   UNL A   1      37.945  21.083  25.542  1.00  0.00    -0.109 NA
BRANCH  27  32
ATOM     32  C   UNL A   1      35.027  23.708  24.239  1.00  0.00     0.002 A 
ATOM     33  C   UNL A   1      31.959  26.282  22.591  1.00  0.00     0.044 C 
ATOM     34  C   UNL A   1      33.003  25.377  23.171  1.00  0.00    -0.051 A 
ATOM     35  C   UNL A   1      33.666  25.733  24.350  1.00  0.00     0.004 A 
ATOM     36  C   UNL A   1      33.341  24.177  22.539  1.00  0.00     0.004 A 
ATOM     37  C   UNL A   1      34.665  24.907  24.879  1.00  0.00     0.011 A 
ATOM     38  C   UNL A   1      34.343  23.357  23.065  1.00  0.00     0.011 A 
ENDBRANCH  27  32
ENDBRANCH  15  26
ENDBRANCH   9  14
ENDBRANCH   5   8
ENDBRANCH   3   4
ENDBRANCH   2   3
ENDBRANCH   1   2
BRANCH   1  39
ATOM     39  C   UNL A   1      41.515  27.800  29.753  1.00  0.00     0.002 C 
BRANCH  39  40
ATOM     40  C   UNL A   1      40.080  28.281  29.541  1.00  0.00     0.021 C 
BRANCH  40  41
ATOM     41  C   UNL A   1      39.994  29.492  28.637  1.00  0.00     0.116 C 
BRANCH  41  42
ATOM     42  N   UNL A   1      38.676  29.660  28.063  1.00  0.00    -0.352 N 
ATOM     43  C   UNL A   1      37.513  30.116  28.650  1.00  0.00     0.251 C 
ATOM     44  H   UNL A   1      38.598  29.412  27.113  1.00  0.00     0.163 HD
ATOM     45  O   UNL A   1      36.446  29.789  28.140  1.00  0.00    -0.269 OA
BRANCH  43  46
ATOM     46  C   UNL A   1      37.574  31.145  29.723  1.00  0.00     0.039 A 
ATOM     47  C   UNL A   1      37.810  32.463  29.310  1.00  0.00     0.014 A 
ATOM     48  C   UNL A   1      37.841  30.781  31.035  1.00  0.00     0.014 A 
ATOM     49  C   UNL A   1      38.600  33.291  30.093  1.00  0.00     0.010 A 
ATOM     50  C   UNL A   1      38.768  31.506  31.725  1.00  0.00     0.010 A 
ATOM     51  C   UNL A   1      39.183  32.737  31.220  1.00  0.00    -0.014 A 
BRANCH  51  52
ATOM     52  C   UNL A   1      40.104  33.402  32.102  1.00  0.00     0.031 A 
ATOM     53  C   UNL A   1      39.497  34.052  33.282  1.00  0.00     0.074 A 
ATOM     54  C   UNL A   1      41.414  33.091  31.972  1.00  0.00     0.049 A 
ATOM     55  N   UNL A   1      40.101  34.897  34.033  1.00  0.00    -0.248 NA
ATOM     56  C   UNL A   1      38.115  33.800  33.706  1.00  0.00     0.031 C 
ATOM     57  C   UNL A   1      42.448  33.190  32.992  1.00  0.00     0.029 A 
ATOM     58  N   UNL A   1      42.128  32.718  30.822  1.00  0.00    -0.354 N 
ATOM     59  C   UNL A   1      39.339  35.041  35.177  1.00  0.00     0.074 A 
ATOM     60  C   UNL A   1      38.065  34.447  34.874  1.00  0.00     0.031 C 
ATOM     61  C   UNL A   1      43.651  33.197  32.390  1.00  0.00     0.029 A 
ATOM     62  C   UNL A   1      43.400  33.302  30.961  1.00  0.00     0.049 A 
ATOM     63  H   UNL A   1      41.805  32.165  30.075  1.00  0.00     0.167 HD
ATOM     64  C   UNL A   1      39.960  35.472  36.308  1.00  0.00     0.034 A 
ATOM     65  C   UNL A   1      43.858  34.320  30.166  1.00  0.00     0.034 A 
ATOM     66  C   UNL A   1      41.378  35.709  36.013  1.00  0.00     0.049 A 
ATOM     67  C   UNL A   1      44.151  35.581  30.965  1.00  0.00     0.074 A 
ATOM     68  C   UNL A   1      42.490  34.896  36.152  1.00  0.00     0.029 A 
ATOM     69  N   UNL A   1      41.740  36.747  35.167  1.00  0.00    -0.354 N 
ATOM     70  N   UNL A   1      43.653  35.812  32.149  1.00  0.00    -0.248 NA
ATOM     71  C   UNL A   1      45.041  36.653  30.528  1.00  0.00     0.031 C 
ATOM     72  C   UNL A   1      43.515  35.424  35.330  1.00  0.00     0.029 A 
ATOM     73  C   UNL A   1      43.034  36.567  34.712  1.00  0.00     0.049 A 
ATOM     74  H   UNL A   1      41.158  37.504  34.924  1.00  0.00     0.167 HD
ATOM     75  C   UNL A   1      44.081  37.024  32.617  1.00  0.00     0.074 A 
ATOM     76  C   UNL A   1      44.975  37.498  31.574  1.00  0.00     0.031 C 
ATOM     77  C   UNL A   1      43.647  37.534  33.812  1.00  0.00     0.034 A 
BRANCH  64  78
ATOM     78  C   UNL A   1      39.449  35.384  37.735  1.00  0.00     0.023 A 
ATOM     79  C   UNL A   1      39.491  36.589  38.480  1.00  0.00     0.012 A 
ATOM     80  C   UNL A   1      38.966  34.249  38.426  1.00  0.00     0.148 A 
ATOM     81  C   UNL A   1      39.157  36.664  39.832  1.00  0.00     0.002 A 
ATOM     82  C   UNL A   1      38.652  34.317  39.792  1.00  0.00     0.091 A 
ATOM     83  F   UNL A   1      38.759  33.105  37.769  1.00  0.00    -0.205 F 
ATOM     84  C   UNL A   1      38.753  35.521  40.495  1.00  0.00     0.022 A 
BRANCH  82  85
ATOM     85  S   UNL A   1      38.143  32.884  40.764  1.00  0.00     0.127 S 
ATOM     86  O   UNL A   1      39.351  32.056  40.739  1.00  0.00    -0.237 OA
ATOM     87  O   UNL A   1      37.843  33.478  42.065  1.00  0.00    -0.237 OA
ATOM     88  O   UNL A   1      37.005  32.299  40.066  1.00  0.00    -0.744 OA
ENDBRANCH  82  85
ENDBRANCH  64  78
BRANCH  65  89
ATOM     89  C   UNL A   1      43.314  34.280  28.775  1.00  0.00     0.023 A 
ATOM     90  C   UNL A   1      42.402  35.307  28.434  1.00  0.00     0.012 A 
ATOM     91  C   UNL A   1      43.990  33.602  27.746  1.00  0.00     0.148 A 
ATOM     92  C   UNL A   1      42.333  35.794  27.128  1.00  0.00     0.002 A 
ATOM     93  C   UNL A   1      43.905  34.086  26.440  1.00  0.00     0.091 A 
ATOM     94  F   UNL A   1      44.762  32.556  28.064  1.00  0.00    -0.205 F 
ATOM     95  C   UNL A   1      43.128  35.218  26.144  1.00  0.00     0.022 A 
BRANCH  93  96
ATOM     96  S   UNL A   1      44.871  33.371  25.101  1.00  0.00     0.127 S 
ATOM     97  O   UNL A   1      43.885  33.320  24.026  1.00  0.00    -0.237 OA
ATOM     98  O   UNL A   1      45.930  34.361  24.913  1.00  0.00    -0.237 OA
ATOM     99  O   UNL A   1      45.333  32.090  25.612  1.00  0.00    -0.744 OA
ENDBRANCH  93  96
ENDBRANCH  65  89
BRANCH  77 100
ATOM    100  C   UNL A   1      43.788  38.972  34.277  1.00  0.00     0.023 A 
ATOM    101  C   UNL A   1      44.426  39.308  35.484  1.00  0.00     0.012 A 
ATOM    102  C   UNL A   1      43.419  40.059  33.436  1.00  0.00     0.148 A 
ATOM    103  C   UNL A   1      44.620  40.637  35.876  1.00  0.00     0.002 A 
ATOM    104  C   UNL A   1      43.735  41.371  33.767  1.00  0.00     0.091 A 
ATOM    105  F   UNL A   1      42.729  39.838  32.308  1.00  0.00    -0.205 F 
ATOM    106  C   UNL A   1      44.298  41.670  35.007  1.00  0.00     0.022 A 
BRANCH 104 107
ATOM    107  S   UNL A   1      43.584  42.702  32.566  1.00  0.00     0.127 S 
ATOM    108  O   UNL A   1      43.909  43.874  33.375  1.00  0.00    -0.237 OA
ATOM    109  O   UNL A   1      44.601  42.342  31.576  1.00  0.00    -0.237 OA
ATOM    110  O   UNL A   1      42.216  42.622  32.072  1.00  0.00    -0.744 OA
ENDBRANCH 104 107
ENDBRANCH  77 100
ENDBRANCH  51  52
ENDBRANCH  43  46
ENDBRANCH  41  42
ENDBRANCH  40  41
ENDBRANCH  39  40
ENDBRANCH   1  39
TORSDOF 19
ENDMDL
