MODEL 1
REMARK VINA RESULT:     -13.4      0.000      0.000
REMARK SMILES O=C(NCCCCCCNC(=O)c1ccc(-c2c3nc(c(-c4cccc(S(=O)(=O)[O-])c4F)c4ccc([nH]4)c(-c4cccc(S(=O)(=O)[O-])c4F)c4nc(c(-c5cccc(S(=O)(=O)[O-])c5F)c5ccc2[nH]5)C=C4)C=C3)cc1)C1=Cc2cc(S(F)(F)(F)(F)F)cc(Br)c2O[C@@H]1C(F)(F)F
REMARK SMILES IDX 7 1 6 2 5 3 4 4 3 5 1 6 2 7 76 9 77 10 92 11 78 12 91 13
REMARK SMILES IDX 79 14 90 15 80 16 88 17 87 18 89 19 93 20 94 21 95 22 96 23
REMARK SMILES IDX 81 24 82 25 83 26 84 27 85 28 86 29 8 30 9 31 10 32 11 33
REMARK SMILES IDX 12 35 13 36 14 37 75 38 15 39 74 40 16 41 17 42 18 43 68 44
REMARK SMILES IDX 19 45 73 46 67 47 69 48 20 49 72 50 66 51 65 52 21 54 53 55
REMARK SMILES IDX 33 56 52 57 34 58 37 59 51 60 70 61 35 62 36 63 50 65 71 66
REMARK SMILES IDX 38 67 22 68 23 69 31 70 24 71 26 72 32 73 25 74 27 75 28 76
REMARK SMILES IDX 29 77 30 78 54 79 55 80 63 81 56 82 58 83 64 84 57 85 59 86
REMARK SMILES IDX 60 87 61 88 62 89 39 90 40 91 48 92 41 93 43 94 49 95 42 96
REMARK SMILES IDX 44 97 45 98 46 99 47 100
REMARK H PARENT 3 8 10 34 69 53 37 64
REMARK Flexibility Score: inf
ROOT
ATOM      1  C   UNL A   1      32.122  27.481  24.293  1.00  0.00     0.002 C 
ENDROOT
BRANCH   1   2
ATOM      2  C   UNL A   1      33.491  26.849  24.104  1.00  0.00     0.002 C 
BRANCH   2   3
ATOM      3  C   UNL A   1      34.044  26.423  25.454  1.00  0.00     0.021 C 
BRANCH   3   4
ATOM      4  C   UNL A   1      33.887  24.919  25.614  1.00  0.00     0.116 C 
BRANCH   4   5
ATOM      5  N   UNL A   1      34.110  24.263  24.318  1.00  0.00    -0.352 N 
ATOM      6  O   UNL A   1      33.360  22.674  22.719  1.00  0.00    -0.270 OA
ATOM      7  C   UNL A   1      33.167  23.242  23.840  1.00  0.00     0.251 C 
ATOM      8  H   UNL A   1      34.890  24.508  23.769  1.00  0.00     0.163 HD
BRANCH   7   9
ATOM      9  C   UNL A   1      31.962  22.864  24.686  1.00  0.00     0.067 C 
ATOM     10  C   UNL A   1      31.854  21.606  25.191  1.00  0.00     0.025 C 
ATOM     11  C   UNL A   1      30.878  23.892  24.967  1.00  0.00     0.314 C 
ATOM     12  C   UNL A   1      32.938  20.578  24.910  1.00  0.00     0.020 A 
ATOM     13  O   UNL A   1      34.538  22.301  25.255  1.00  0.00    -0.474 OA
ATOM     14  C   UNL A   1      32.586  19.291  24.536  1.00  0.00     0.036 A 
ATOM     15  C   UNL A   1      34.211  20.937  25.028  1.00  0.00     0.142 A 
ATOM     16  C   UNL A   1      33.656  18.366  24.589  1.00  0.00     0.109 A 
ATOM     17  C   UNL A   1      35.212  20.003  24.933  1.00  0.00     0.062 A 
ATOM     18  C   UNL A   1      34.933  18.700  24.625  1.00  0.00     0.044 A 
ATOM     19  Br  UNL A   1      37.072  20.544  25.243  1.00  0.00    -0.047 Br
BRANCH  11  20
ATOM     20  C   UNL A   1      30.761  24.107  26.466  1.00  0.00     0.429 C 
ATOM     21  F   UNL A   1      31.880  23.703  27.062  1.00  0.00    -0.167 F 
ATOM     22  F   UNL A   1      30.570  25.400  26.715  1.00  0.00    -0.167 F 
ATOM     23  F   UNL A   1      29.731  23.410  26.936  1.00  0.00    -0.167 F 
ENDBRANCH  11  20
BRANCH  16  24
ATOM     24  S   UNL A   1      33.245  16.604  24.608  1.00  0.00     0.310 S 
ATOM     25  F   UNL A   1      34.766  16.185  24.439  1.00  0.00    -0.094 F 
ATOM     26  F   UNL A   1      33.152  16.638  23.034  1.00  0.00    -0.094 F 
ATOM     27  F   UNL A   1      32.894  15.090  24.623  1.00  0.00    -0.094 F 
ATOM     28  F   UNL A   1      33.480  16.557  26.168  1.00  0.00    -0.094 F 
ATOM     29  F   UNL A   1      33.713  18.114  24.597  1.00  0.00    -0.094 F 
ENDBRANCH  16  24
ENDBRANCH   7   9
ENDBRANCH   4   5
ENDBRANCH   3   4
ENDBRANCH   2   3
ENDBRANCH   1   2
BRANCH   1  30
ATOM     30  C   UNL A   1      32.114  28.298  25.574  1.00  0.00     0.021 C 
BRANCH  30  31
ATOM     31  C   UNL A   1      32.946  29.555  25.380  1.00  0.00     0.116 C 
BRANCH  31  32
ATOM     32  N   UNL A   1      32.144  30.734  25.736  1.00  0.00    -0.352 N 
ATOM     33  C   UNL A   1      32.559  31.594  26.854  1.00  0.00     0.251 C 
ATOM     34  H   UNL A   1      31.329  30.947  25.228  1.00  0.00     0.163 HD
ATOM     35  O   UNL A   1      31.865  32.613  27.163  1.00  0.00    -0.269 OA
BRANCH  33  36
ATOM     36  C   UNL A   1      33.818  31.265  27.640  1.00  0.00     0.039 A 
ATOM     37  C   UNL A   1      34.701  32.282  27.961  1.00  0.00     0.014 A 
ATOM     38  C   UNL A   1      34.048  30.011  28.007  1.00  0.00     0.014 A 
ATOM     39  C   UNL A   1      35.957  31.824  28.427  1.00  0.00     0.010 A 
ATOM     40  C   UNL A   1      35.245  29.658  28.581  1.00  0.00     0.010 A 
ATOM     41  C   UNL A   1      36.190  30.603  28.873  1.00  0.00    -0.014 A 
BRANCH  41  42
ATOM     42  C   UNL A   1      37.442  30.266  29.666  1.00  0.00     0.031 A 
ATOM     43  C   UNL A   1      37.602  30.856  30.921  1.00  0.00     0.074 A 
ATOM     44  C   UNL A   1      38.355  29.392  29.099  1.00  0.00     0.049 A 
ATOM     45  N   UNL A   1      38.601  30.671  31.785  1.00  0.00    -0.248 NA
ATOM     46  C   UNL A   1      36.651  31.811  31.510  1.00  0.00     0.031 C 
ATOM     47  C   UNL A   1      38.196  28.786  27.838  1.00  0.00     0.029 A 
ATOM     48  N   UNL A   1      39.550  28.958  29.629  1.00  0.00    -0.354 N 
ATOM     49  C   UNL A   1      38.395  31.394  32.889  1.00  0.00     0.074 A 
ATOM     50  C   UNL A   1      37.142  32.142  32.725  1.00  0.00     0.031 C 
ATOM     51  C   UNL A   1      39.286  28.007  27.606  1.00  0.00     0.029 A 
ATOM     52  C   UNL A   1      40.142  28.112  28.717  1.00  0.00     0.049 A 
ATOM     53  H   UNL A   1      39.917  29.208  30.508  1.00  0.00     0.167 HD
ATOM     54  C   UNL A   1      39.202  31.456  34.025  1.00  0.00     0.034 A 
ATOM     55  C   UNL A   1      41.360  27.461  28.831  1.00  0.00     0.034 A 
ATOM     56  C   UNL A   1      40.400  30.772  34.156  1.00  0.00     0.049 A 
ATOM     57  C   UNL A   1      42.197  27.569  29.944  1.00  0.00     0.074 A 
ATOM     58  C   UNL A   1      41.222  30.818  35.298  1.00  0.00     0.029 A 
ATOM     59  N   UNL A   1      41.004  29.945  33.234  1.00  0.00    -0.354 N 
ATOM     60  N   UNL A   1      41.972  28.261  31.062  1.00  0.00    -0.248 NA
ATOM     61  C   UNL A   1      43.505  26.911  30.061  1.00  0.00     0.031 C 
ATOM     62  C   UNL A   1      42.311  30.038  35.065  1.00  0.00     0.029 A 
ATOM     63  C   UNL A   1      42.188  29.493  33.773  1.00  0.00     0.049 A 
ATOM     64  H   UNL A   1      40.650  29.718  32.344  1.00  0.00     0.167 HD
ATOM     65  C   UNL A   1      42.991  28.109  31.910  1.00  0.00     0.074 A 
ATOM     66  C   UNL A   1      43.996  27.243  31.275  1.00  0.00     0.031 C 
ATOM     67  C   UNL A   1      43.123  28.652  33.189  1.00  0.00     0.034 A 
BRANCH  54  68
ATOM     68  C   UNL A   1      38.743  32.325  35.185  1.00  0.00     0.023 A 
ATOM     69  C   UNL A   1      39.000  33.687  35.186  1.00  0.00     0.012 A 
ATOM     70  C   UNL A   1      38.145  31.736  36.214  1.00  0.00     0.148 A 
ATOM     71  C   UNL A   1      38.847  34.297  36.453  1.00  0.00     0.002 A 
ATOM     72  C   UNL A   1      37.902  32.432  37.374  1.00  0.00     0.091 A 
ATOM     73  F   UNL A   1      37.777  30.461  36.120  1.00  0.00    -0.205 F 
ATOM     74  C   UNL A   1      38.186  33.766  37.465  1.00  0.00     0.022 A 
BRANCH  72  75
ATOM     75  S   UNL A   1      37.198  31.569  38.800  1.00  0.00     0.127 S 
ATOM     76  O   UNL A   1      37.034  30.084  38.468  1.00  0.00    -0.237 OA
ATOM     77  O   UNL A   1      38.132  31.724  40.003  1.00  0.00    -0.237 OA
ATOM     78  O   UNL A   1      35.671  32.241  39.175  1.00  0.00    -0.744 OA
ENDBRANCH  72  75
ENDBRANCH  54  68
BRANCH  55  79
ATOM     79  C   UNL A   1      41.812  26.579  27.677  1.00  0.00     0.023 A 
ATOM     80  C   UNL A   1      42.477  27.179  26.622  1.00  0.00     0.012 A 
ATOM     81  C   UNL A   1      41.616  25.266  27.711  1.00  0.00     0.148 A 
ATOM     82  C   UNL A   1      42.649  26.337  25.498  1.00  0.00     0.002 A 
ATOM     83  C   UNL A   1      41.933  24.484  26.627  1.00  0.00     0.091 A 
ATOM     84  F   UNL A   1      41.109  24.704  28.804  1.00  0.00    -0.205 F 
ATOM     85  C   UNL A   1      42.540  25.021  25.526  1.00  0.00     0.022 A 
BRANCH  83  86
ATOM     86  S   UNL A   1      41.542  22.716  26.658  1.00  0.00     0.127 S 
ATOM     87  O   UNL A   1      42.060  22.057  25.378  1.00  0.00    -0.237 OA
ATOM     88  O   UNL A   1      42.210  22.068  27.873  1.00  0.00    -0.237 OA
ATOM     89  O   UNL A   1      39.848  22.509  26.761  1.00  0.00    -0.744 OA
ENDBRANCH  83  86
ENDBRANCH  55  79
BRANCH  67  90
ATOM     90  C   UNL A   1      44.367  28.302  33.989  1.00  0.00     0.023 A 
ATOM     91  C   UNL A   1      45.480  29.124  33.907  1.00  0.00     0.012 A 
ATOM     92  C   UNL A   1      44.367  27.216  34.752  1.00  0.00     0.148 A 
ATOM     93  C   UNL A   1      46.655  28.553  34.450  1.00  0.00     0.002 A 
ATOM     94  C   UNL A   1      45.522  26.791  35.363  1.00  0.00     0.091 A 
ATOM     95  F   UNL A   1      43.240  26.533  34.928  1.00  0.00    -0.205 F 
ATOM     96  C   UNL A   1      46.675  27.522  35.275  1.00  0.00     0.022 A 
BRANCH  94  97
ATOM     97  S   UNL A   1      45.519  25.240  36.297  1.00  0.00     0.127 S 
ATOM     98  O   UNL A   1      46.909  25.000  36.892  1.00  0.00    -0.237 OA
ATOM     99  O   UNL A   1      44.489  25.327  37.425  1.00  0.00    -0.237 OA
ATOM    100  O   UNL A   1      45.115  23.947  35.253  1.00  0.00    -0.744 OA
ENDBRANCH  94  97
ENDBRANCH  67  90
ENDBRANCH  41  42
ENDBRANCH  33  36
ENDBRANCH  31  32
ENDBRANCH  30  31
ENDBRANCH   1  30
TORSDOF 18
ENDMDL
MODEL 2
REMARK VINA RESULT:     -13.4      3.186      5.261
REMARK SMILES O=C(NCCCCCCNC(=O)c1ccc(-c2c3nc(c(-c4cccc(S(=O)(=O)[O-])c4F)c4ccc([nH]4)c(-c4cccc(S(=O)(=O)[O-])c4F)c4nc(c(-c5cccc(S(=O)(=O)[O-])c5F)c5ccc2[nH]5)C=C4)C=C3)cc1)C1=Cc2cc(S(F)(F)(F)(F)F)cc(Br)c2O[C@@H]1C(F)(F)F
REMARK SMILES IDX 7 1 6 2 5 3 4 4 3 5 1 6 2 7 76 9 77 10 92 11 78 12 91 13
REMARK SMILES IDX 79 14 90 15 80 16 88 17 87 18 89 19 93 20 94 21 95 22 96 23
REMARK SMILES IDX 81 24 82 25 83 26 84 27 85 28 86 29 8 30 9 31 10 32 11 33
REMARK SMILES IDX 12 35 13 36 14 37 75 38 15 39 74 40 16 41 17 42 18 43 68 44
REMARK SMILES IDX 19 45 73 46 67 47 69 48 20 49 72 50 66 51 65 52 21 54 53 55
REMARK SMILES IDX 33 56 52 57 34 58 37 59 51 60 70 61 35 62 36 63 50 65 71 66
REMARK SMILES IDX 38 67 22 68 23 69 31 70 24 71 26 72 32 73 25 74 27 75 28 76
REMARK SMILES IDX 29 77 30 78 54 79 55 80 63 81 56 82 58 83 64 84 57 85 59 86
REMARK SMILES IDX 60 87 61 88 62 89 39 90 40 91 48 92 41 93 43 94 49 95 42 96
REMARK SMILES IDX 44 97 45 98 46 99 47 100
REMARK H PARENT 3 8 10 34 69 53 37 64
REMARK Flexibility Score: inf
ROOT
ATOM      1  C   UNL A   1      31.650  31.011  25.878  1.00  0.00     0.002 C 
ENDROOT
BRANCH   1   2
ATOM      2  C   UNL A   1      32.383  29.745  26.289  1.00  0.00     0.002 C 
BRANCH   2   3
ATOM      3  C   UNL A   1      31.786  29.209  27.579  1.00  0.00     0.021 C 
BRANCH   3   4
ATOM      4  C   UNL A   1      31.640  27.699  27.481  1.00  0.00     0.116 C 
BRANCH   4   5
ATOM      5  N   UNL A   1      32.848  27.129  26.866  1.00  0.00    -0.352 N 
ATOM      6  O   UNL A   1      33.811  25.375  25.586  1.00  0.00    -0.270 OA
ATOM      7  C   UNL A   1      32.766  25.867  26.117  1.00  0.00     0.251 C 
ATOM      8  H   UNL A   1      33.712  27.592  26.957  1.00  0.00     0.163 HD
BRANCH   7   9
ATOM      9  C   UNL A   1      31.432  25.151  25.977  1.00  0.00     0.067 C 
ATOM     10  C   UNL A   1      30.470  25.661  25.162  1.00  0.00     0.025 C 
ATOM     11  C   UNL A   1      31.174  23.866  26.747  1.00  0.00     0.314 C 
ATOM     12  C   UNL A   1      30.728  26.946  24.392  1.00  0.00     0.020 A 
ATOM     13  O   UNL A   1      32.921  26.141  23.957  1.00  0.00    -0.474 OA
ATOM     14  C   UNL A   1      29.757  27.932  24.355  1.00  0.00     0.036 A 
ATOM     15  C   UNL A   1      31.889  27.098  23.766  1.00  0.00     0.142 A 
ATOM     16  C   UNL A   1      29.993  28.933  23.383  1.00  0.00     0.109 A 
ATOM     17  C   UNL A   1      32.100  28.172  22.938  1.00  0.00     0.062 A 
ATOM     18  C   UNL A   1      31.160  29.156  22.806  1.00  0.00     0.044 A 
ATOM     19  Br  UNL A   1      33.776  28.298  21.926  1.00  0.00    -0.047 Br
BRANCH  11  20
ATOM     20  C   UNL A   1      30.887  22.739  25.769  1.00  0.00     0.429 C 
ATOM     21  F   UNL A   1      30.684  23.244  24.556  1.00  0.00    -0.167 F 
ATOM     22  F   UNL A   1      31.924  21.906  25.734  1.00  0.00    -0.167 F 
ATOM     23  F   UNL A   1      29.802  22.078  26.162  1.00  0.00    -0.167 F 
ENDBRANCH  11  20
BRANCH  16  24
ATOM     24  S   UNL A   1      28.599  29.981  22.896  1.00  0.00     0.310 S 
ATOM     25  F   UNL A   1      29.479  30.762  21.832  1.00  0.00    -0.094 F 
ATOM     26  F   UNL A   1      29.066  31.046  23.961  1.00  0.00    -0.094 F 
ATOM     27  F   UNL A   1      27.404  30.882  22.478  1.00  0.00    -0.094 F 
ATOM     28  F   UNL A   1      28.231  28.969  21.742  1.00  0.00    -0.094 F 
ATOM     29  F   UNL A   1      29.874  29.109  23.234  1.00  0.00    -0.094 F 
ENDBRANCH  16  24
ENDBRANCH   7   9
ENDBRANCH   4   5
ENDBRANCH   3   4
ENDBRANCH   2   3
ENDBRANCH   1   2
BRANCH   1  30
ATOM     30  C   UNL A   1      31.487  31.917  27.088  1.00  0.00     0.021 C 
BRANCH  30  31
ATOM     31  C   UNL A   1      32.699  32.826  27.207  1.00  0.00     0.116 C 
BRANCH  31  32
ATOM     32  N   UNL A   1      32.263  34.178  27.586  1.00  0.00    -0.352 N 
ATOM     33  C   UNL A   1      33.011  34.934  28.600  1.00  0.00     0.251 C 
ATOM     34  H   UNL A   1      31.469  34.576  27.161  1.00  0.00     0.163 HD
ATOM     35  O   UNL A   1      32.633  36.103  28.929  1.00  0.00    -0.269 OA
BRANCH  33  36
ATOM     36  C   UNL A   1      34.236  34.319  29.257  1.00  0.00     0.039 A 
ATOM     37  C   UNL A   1      35.490  34.578  28.730  1.00  0.00     0.014 A 
ATOM     38  C   UNL A   1      34.084  33.546  30.325  1.00  0.00     0.014 A 
ATOM     39  C   UNL A   1      36.508  33.734  29.231  1.00  0.00     0.010 A 
ATOM     40  C   UNL A   1      35.151  32.855  30.846  1.00  0.00     0.010 A 
ATOM     41  C   UNL A   1      36.410  33.017  30.337  1.00  0.00    -0.014 A 
BRANCH  41  42
ATOM     42  C   UNL A   1      37.629  32.404  31.005  1.00  0.00     0.031 A 
ATOM     43  C   UNL A   1      38.101  32.996  32.178  1.00  0.00     0.074 A 
ATOM     44  C   UNL A   1      38.206  31.293  30.412  1.00  0.00     0.049 A 
ATOM     45  N   UNL A   1      39.127  32.599  32.933  1.00  0.00    -0.248 NA
ATOM     46  C   UNL A   1      37.512  34.196  32.791  1.00  0.00     0.031 C 
ATOM     47  C   UNL A   1      37.731  30.686  29.234  1.00  0.00     0.029 A 
ATOM     48  N   UNL A   1      39.311  30.588  30.835  1.00  0.00    -0.354 N 
ATOM     49  C   UNL A   1      39.260  33.407  33.989  1.00  0.00     0.074 A 
ATOM     50  C   UNL A   1      38.228  34.448  33.908  1.00  0.00     0.031 C 
ATOM     51  C   UNL A   1      38.546  29.637  28.943  1.00  0.00     0.029 A 
ATOM     52  C   UNL A   1      39.542  29.571  29.935  1.00  0.00     0.049 A 
ATOM     53  H   UNL A   1      39.844  30.778  31.640  1.00  0.00     0.167 HD
ATOM     54  C   UNL A   1      40.202  33.313  35.014  1.00  0.00     0.034 A 
ATOM     55  C   UNL A   1      40.559  28.629  29.961  1.00  0.00     0.034 A 
ATOM     56  C   UNL A   1      41.193  32.346  35.063  1.00  0.00     0.049 A 
ATOM     57  C   UNL A   1      41.537  28.571  30.956  1.00  0.00     0.074 A 
ATOM     58  C   UNL A   1      42.145  32.233  36.094  1.00  0.00     0.029 A 
ATOM     59  N   UNL A   1      41.438  31.343  34.150  1.00  0.00    -0.354 N 
ATOM     60  N   UNL A   1      41.647  29.355  32.031  1.00  0.00    -0.248 NA
ATOM     61  C   UNL A   1      42.638  27.599  30.976  1.00  0.00     0.031 C 
ATOM     62  C   UNL A   1      42.960  31.184  35.802  1.00  0.00     0.029 A 
ATOM     63  C   UNL A   1      42.530  30.624  34.584  1.00  0.00     0.049 A 
ATOM     64  H   UNL A   1      40.922  31.172  33.330  1.00  0.00     0.167 HD
ATOM     65  C   UNL A   1      42.698  28.984  32.764  1.00  0.00     0.074 A 
ATOM     66  C   UNL A   1      43.355  27.853  32.092  1.00  0.00     0.031 C 
ATOM     67  C   UNL A   1      43.134  29.538  33.969  1.00  0.00     0.034 A 
BRANCH  54  68
ATOM     68  C   UNL A   1      40.138  34.331  36.142  1.00  0.00     0.023 A 
ATOM     69  C   UNL A   1      40.650  35.606  35.965  1.00  0.00     0.012 A 
ATOM     70  C   UNL A   1      39.636  33.945  37.309  1.00  0.00     0.148 A 
ATOM     71  C   UNL A   1      40.851  36.315  37.174  1.00  0.00     0.002 A 
ATOM     72  C   UNL A   1      39.747  34.749  38.418  1.00  0.00     0.091 A 
ATOM     73  F   UNL A   1      39.018  32.772  37.404  1.00  0.00    -0.205 F 
ATOM     74  C   UNL A   1      40.295  35.999  38.329  1.00  0.00     0.022 A 
BRANCH  72  75
ATOM     75  S   UNL A   1      39.160  34.144  40.019  1.00  0.00     0.127 S 
ATOM     76  O   UNL A   1      37.677  33.781  39.916  1.00  0.00    -0.237 OA
ATOM     77  O   UNL A   1      39.963  32.904  40.422  1.00  0.00    -0.237 OA
ATOM     78  O   UNL A   1      39.367  35.364  41.200  1.00  0.00    -0.744 OA
ENDBRANCH  72  75
ENDBRANCH  54  68
BRANCH  55  79
ATOM     79  C   UNL A   1      40.613  27.602  28.842  1.00  0.00     0.023 A 
ATOM     80  C   UNL A   1      39.748  26.522  28.908  1.00  0.00     0.012 A 
ATOM     81  C   UNL A   1      41.430  27.767  27.808  1.00  0.00     0.148 A 
ATOM     82  C   UNL A   1      40.026  25.506  27.964  1.00  0.00     0.002 A 
ATOM     83  C   UNL A   1      41.551  26.791  26.850  1.00  0.00     0.091 A 
ATOM     84  F   UNL A   1      42.137  28.888  27.701  1.00  0.00    -0.205 F 
ATOM     85  C   UNL A   1      40.770  25.670  26.885  1.00  0.00     0.022 A 
BRANCH  83  86
ATOM     86  S   UNL A   1      42.763  26.993  25.519  1.00  0.00     0.127 S 
ATOM     87  O   UNL A   1      42.859  25.694  24.716  1.00  0.00    -0.237 OA
ATOM     88  O   UNL A   1      42.322  28.132  24.597  1.00  0.00    -0.237 OA
ATOM     89  O   UNL A   1      44.291  27.362  26.191  1.00  0.00    -0.744 OA
ENDBRANCH  83  86
ENDBRANCH  55  79
BRANCH  67  90
ATOM     90  C   UNL A   1      44.344  28.916  34.645  1.00  0.00     0.023 A 
ATOM     91  C   UNL A   1      45.605  29.426  34.383  1.00  0.00     0.012 A 
ATOM     92  C   UNL A   1      44.172  27.894  35.476  1.00  0.00     0.148 A 
ATOM     93  C   UNL A   1      46.662  28.597  34.828  1.00  0.00     0.002 A 
ATOM     94  C   UNL A   1      45.254  27.214  35.981  1.00  0.00     0.091 A 
ATOM     95  F   UNL A   1      42.943  27.526  35.823  1.00  0.00    -0.205 F 
ATOM     96  C   UNL A   1      46.531  27.627  35.714  1.00  0.00     0.022 A 
BRANCH  94  97
ATOM     97  S   UNL A   1      44.987  25.751  37.012  1.00  0.00     0.127 S 
ATOM     98  O   UNL A   1      44.175  24.716  36.229  1.00  0.00    -0.237 OA
ATOM     99  O   UNL A   1      46.338  25.150  37.404  1.00  0.00    -0.237 OA
ATOM    100  O   UNL A   1      44.130  26.198  38.423  1.00  0.00    -0.744 OA
ENDBRANCH  94  97
ENDBRANCH  67  90
ENDBRANCH  41  42
ENDBRANCH  33  36
ENDBRANCH  31  32
ENDBRANCH  30  31
ENDBRANCH   1  30
TORSDOF 18
ENDMDL
MODEL 3
REMARK VINA RESULT:     -13.3      5.775      9.004
REMARK SMILES O=C(NCCCCCCNC(=O)c1ccc(-c2c3nc(c(-c4cccc(S(=O)(=O)[O-])c4F)c4ccc([nH]4)c(-c4cccc(S(=O)(=O)[O-])c4F)c4nc(c(-c5cccc(S(=O)(=O)[O-])c5F)c5ccc2[nH]5)C=C4)C=C3)cc1)C1=Cc2cc(S(F)(F)(F)(F)F)cc(Br)c2O[C@@H]1C(F)(F)F
REMARK SMILES IDX 7 1 6 2 5 3 4 4 3 5 1 6 2 7 76 9 77 10 92 11 78 12 91 13
REMARK SMILES IDX 79 14 90 15 80 16 88 17 87 18 89 19 93 20 94 21 95 22 96 23
REMARK SMILES IDX 81 24 82 25 83 26 84 27 85 28 86 29 8 30 9 31 10 32 11 33
REMARK SMILES IDX 12 35 13 36 14 37 75 38 15 39 74 40 16 41 17 42 18 43 68 44
REMARK SMILES IDX 19 45 73 46 67 47 69 48 20 49 72 50 66 51 65 52 21 54 53 55
REMARK SMILES IDX 33 56 52 57 34 58 37 59 51 60 70 61 35 62 36 63 50 65 71 66
REMARK SMILES IDX 38 67 22 68 23 69 31 70 24 71 26 72 32 73 25 74 27 75 28 76
REMARK SMILES IDX 29 77 30 78 54 79 55 80 63 81 56 82 58 83 64 84 57 85 59 86
REMARK SMILES IDX 60 87 61 88 62 89 39 90 40 91 48 92 41 93 43 94 49 95 42 96
REMARK SMILES IDX 44 97 45 98 46 99 47 100
REMARK H PARENT 3 8 10 34 69 53 37 64
REMARK Flexibility Score: inf
ROOT
ATOM      1  C   UNL A   1      37.088  20.620  25.100  1.00  0.00     0.002 C 
ENDROOT
BRANCH   1   2
ATOM      2  C   UNL A   1      37.691  21.990  24.838  1.00  0.00     0.002 C 
BRANCH   2   3
ATOM      3  C   UNL A   1      37.445  22.892  26.036  1.00  0.00     0.021 C 
BRANCH   3   4
ATOM      4  C   UNL A   1      36.524  24.032  25.631  1.00  0.00     0.116 C 
BRANCH   4   5
ATOM      5  N   UNL A   1      36.203  23.918  24.201  1.00  0.00    -0.352 N 
ATOM      6  O   UNL A   1      34.586  23.388  22.544  1.00  0.00    -0.270 OA
ATOM      7  C   UNL A   1      34.863  23.487  23.781  1.00  0.00     0.251 C 
ATOM      8  H   UNL A   1      36.887  24.129  23.524  1.00  0.00     0.163 HD
BRANCH   7   9
ATOM      9  C   UNL A   1      33.807  23.160  24.824  1.00  0.00     0.067 C 
ATOM     10  C   UNL A   1      33.140  24.164  25.454  1.00  0.00     0.025 C 
ATOM     11  C   UNL A   1      33.497  21.711  25.164  1.00  0.00     0.314 C 
ATOM     12  C   UNL A   1      33.450  25.613  25.114  1.00  0.00     0.020 A 
ATOM     13  O   UNL A   1      33.562  24.961  22.831  1.00  0.00    -0.474 OA
ATOM     14  C   UNL A   1      33.605  26.540  26.131  1.00  0.00     0.036 A 
ATOM     15  C   UNL A   1      33.567  25.962  23.838  1.00  0.00     0.142 A 
ATOM     16  C   UNL A   1      33.598  27.883  25.688  1.00  0.00     0.109 A 
ATOM     17  C   UNL A   1      33.694  27.283  23.485  1.00  0.00     0.062 A 
ATOM     18  C   UNL A   1      33.793  28.260  24.437  1.00  0.00     0.044 A 
ATOM     19  Br  UNL A   1      33.732  27.777  21.588  1.00  0.00    -0.047 Br
BRANCH  11  20
ATOM     20  C   UNL A   1      32.035  21.422  24.867  1.00  0.00     0.429 C 
ATOM     21  F   UNL A   1      31.288  21.803  25.900  1.00  0.00    -0.167 F 
ATOM     22  F   UNL A   1      31.662  22.093  23.781  1.00  0.00    -0.167 F 
ATOM     23  F   UNL A   1      31.874  20.119  24.659  1.00  0.00    -0.167 F 
ENDBRANCH  11  20
BRANCH  16  24
ATOM     24  S   UNL A   1      33.301  29.176  26.919  1.00  0.00     0.310 S 
ATOM     25  F   UNL A   1      32.782  28.124  27.987  1.00  0.00    -0.094 F 
ATOM     26  F   UNL A   1      31.814  29.283  26.406  1.00  0.00    -0.094 F 
ATOM     27  F   UNL A   1      33.045  30.285  27.977  1.00  0.00    -0.094 F 
ATOM     28  F   UNL A   1      34.747  28.956  27.511  1.00  0.00    -0.094 F 
ATOM     29  F   UNL A   1      33.540  27.970  25.925  1.00  0.00    -0.094 F 
ENDBRANCH  16  24
ENDBRANCH   7   9
ENDBRANCH   4   5
ENDBRANCH   3   4
ENDBRANCH   2   3
ENDBRANCH   1   2
BRANCH   1  30
ATOM     30  C   UNL A   1      38.161  19.555  24.941  1.00  0.00     0.021 C 
BRANCH  30  31
ATOM     31  C   UNL A   1      39.353  19.902  25.818  1.00  0.00     0.116 C 
BRANCH  31  32
ATOM     32  N   UNL A   1      40.333  18.808  25.766  1.00  0.00    -0.352 N 
ATOM     33  C   UNL A   1      41.753  19.080  26.029  1.00  0.00     0.251 C 
ATOM     34  H   UNL A   1      40.039  17.892  25.555  1.00  0.00     0.163 HD
ATOM     35  O   UNL A   1      42.602  18.135  25.984  1.00  0.00    -0.269 OA
BRANCH  33  36
ATOM     36  C   UNL A   1      42.208  20.494  26.356  1.00  0.00     0.039 A 
ATOM     37  C   UNL A   1      42.252  20.903  27.678  1.00  0.00     0.014 A 
ATOM     38  C   UNL A   1      42.556  21.311  25.369  1.00  0.00     0.014 A 
ATOM     39  C   UNL A   1      42.403  22.301  27.840  1.00  0.00     0.010 A 
ATOM     40  C   UNL A   1      42.823  22.635  25.618  1.00  0.00     0.010 A 
ATOM     41  C   UNL A   1      42.826  23.123  26.896  1.00  0.00    -0.014 A 
BRANCH  41  42
ATOM     42  C   UNL A   1      43.290  24.535  27.213  1.00  0.00     0.031 A 
ATOM     43  C   UNL A   1      42.325  25.476  27.577  1.00  0.00     0.074 A 
ATOM     44  C   UNL A   1      44.644  24.810  27.122  1.00  0.00     0.049 A 
ATOM     45  N   UNL A   1      42.521  26.749  27.925  1.00  0.00    -0.248 NA
ATOM     46  C   UNL A   1      40.883  25.195  27.641  1.00  0.00     0.031 C 
ATOM     47  C   UNL A   1      45.624  23.865  26.763  1.00  0.00     0.029 A 
ATOM     48  N   UNL A   1      45.280  26.010  27.352  1.00  0.00    -0.354 N 
ATOM     49  C   UNL A   1      41.356  27.328  28.227  1.00  0.00     0.074 A 
ATOM     50  C   UNL A   1      40.286  26.339  28.042  1.00  0.00     0.031 C 
ATOM     51  C   UNL A   1      46.832  24.489  26.765  1.00  0.00     0.029 A 
ATOM     52  C   UNL A   1      46.627  25.833  27.127  1.00  0.00     0.049 A 
ATOM     53  H   UNL A   1      44.846  26.850  27.631  1.00  0.00     0.167 HD
ATOM     54  C   UNL A   1      41.147  28.641  28.649  1.00  0.00     0.034 A 
ATOM     55  C   UNL A   1      47.635  26.780  27.224  1.00  0.00     0.034 A 
ATOM     56  C   UNL A   1      42.160  29.576  28.788  1.00  0.00     0.049 A 
ATOM     57  C   UNL A   1      47.418  28.110  27.590  1.00  0.00     0.074 A 
ATOM     58  C   UNL A   1      41.966  30.902  29.220  1.00  0.00     0.029 A 
ATOM     59  N   UNL A   1      43.504  29.405  28.539  1.00  0.00    -0.354 N 
ATOM     60  N   UNL A   1      46.259  28.678  27.929  1.00  0.00    -0.248 NA
ATOM     61  C   UNL A   1      48.473  29.129  27.665  1.00  0.00     0.031 C 
ATOM     62  C   UNL A   1      43.175  31.525  29.223  1.00  0.00     0.029 A 
ATOM     63  C   UNL A   1      44.143  30.599  28.791  1.00  0.00     0.049 A 
ATOM     64  H   UNL A   1      43.933  28.574  28.233  1.00  0.00     0.167 HD
ATOM     65  C   UNL A   1      46.449  29.962  28.236  1.00  0.00     0.074 A 
ATOM     66  C   UNL A   1      47.876  30.273  28.064  1.00  0.00     0.031 C 
ATOM     67  C   UNL A   1      45.493  30.887  28.658  1.00  0.00     0.034 A 
BRANCH  54  68
ATOM     68  C   UNL A   1      39.725  29.072  28.976  1.00  0.00     0.023 A 
ATOM     69  C   UNL A   1      38.895  29.563  27.981  1.00  0.00     0.012 A 
ATOM     70  C   UNL A   1      39.327  29.018  30.241  1.00  0.00     0.148 A 
ATOM     71  C   UNL A   1      37.758  30.248  28.470  1.00  0.00     0.002 A 
ATOM     72  C   UNL A   1      38.137  29.590  30.624  1.00  0.00     0.091 A 
ATOM     73  F   UNL A   1      40.085  28.405  31.145  1.00  0.00    -0.205 F 
ATOM     74  C   UNL A   1      37.295  30.146  29.702  1.00  0.00     0.022 A 
BRANCH  72  75
ATOM     75  S   UNL A   1      37.680  29.607  32.375  1.00  0.00     0.127 S 
ATOM     76  O   UNL A   1      38.700  30.434  33.161  1.00  0.00    -0.237 OA
ATOM     77  O   UNL A   1      36.290  30.227  32.534  1.00  0.00    -0.237 OA
ATOM     78  O   UNL A   1      37.661  28.006  32.975  1.00  0.00    -0.744 OA
ENDBRANCH  72  75
ENDBRANCH  54  68
BRANCH  55  79
ATOM     79  C   UNL A   1      49.058  26.345  26.913  1.00  0.00     0.023 A 
ATOM     80  C   UNL A   1      49.715  25.556  27.843  1.00  0.00     0.012 A 
ATOM     81  C   UNL A   1      49.631  26.672  25.761  1.00  0.00     0.148 A 
ATOM     82  C   UNL A   1      51.097  25.397  27.587  1.00  0.00     0.002 A 
ATOM     83  C   UNL A   1      50.948  26.365  25.523  1.00  0.00     0.091 A 
ATOM     84  F   UNL A   1      48.922  27.301  24.829  1.00  0.00    -0.205 F 
ATOM     85  C   UNL A   1      51.675  25.638  26.425  1.00  0.00     0.022 A 
BRANCH  83  86
ATOM     86  S   UNL A   1      51.734  26.931  23.993  1.00  0.00     0.127 S 
ATOM     87  O   UNL A   1      52.194  28.381  24.162  1.00  0.00    -0.237 OA
ATOM     88  O   UNL A   1      52.943  26.045  23.683  1.00  0.00    -0.237 OA
ATOM     89  O   UNL A   1      50.611  26.836  22.707  1.00  0.00    -0.744 OA
ENDBRANCH  83  86
ENDBRANCH  55  79
BRANCH  67  90
ATOM     90  C   UNL A   1      45.959  32.295  28.991  1.00  0.00     0.023 A 
ATOM     91  C   UNL A   1      46.474  32.560  30.250  1.00  0.00     0.012 A 
ATOM     92  C   UNL A   1      45.867  33.247  28.070  1.00  0.00     0.148 A 
ATOM     93  C   UNL A   1      46.598  33.939  30.539  1.00  0.00     0.002 A 
ATOM     94  C   UNL A   1      46.134  34.557  28.388  1.00  0.00     0.091 A 
ATOM     95  F   UNL A   1      45.511  32.931  26.828  1.00  0.00    -0.205 F 
ATOM     96  C   UNL A   1      46.589  34.899  29.632  1.00  0.00     0.022 A 
BRANCH  94  97
ATOM     97  S   UNL A   1      45.880  35.847  27.144  1.00  0.00     0.127 S 
ATOM     98  O   UNL A   1      46.182  37.216  27.760  1.00  0.00    -0.237 OA
ATOM     99  O   UNL A   1      46.816  35.604  25.959  1.00  0.00    -0.237 OA
ATOM    100  O   UNL A   1      44.257  35.809  26.607  1.00  0.00    -0.744 OA
ENDBRANCH  94  97
ENDBRANCH  67  90
ENDBRANCH  41  42
ENDBRANCH  33  36
ENDBRANCH  31  32
ENDBRANCH  30  31
ENDBRANCH   1  30
TORSDOF 18
ENDMDL
