MODEL 1
REMARK VINA RESULT:     -10.1      0.000      0.000
REMARK SMILES C[C@H]1C[C@](C(=O)NCCCCCCNC(=O)c2ccc(-c3c4nc(c(-c5cccc(S(=O)(=O)[O-])c5F)c5ccc([nH]5)c(-c5cccc(S(=O)(=O)[O-])c5F)c5nc(c(-c6cccc(S(=O)(=O)[O-])c6F)c6ccc3[nH]6)C=C5)C=C4)cc2)(N(C=O)C2CC2)CS1
REMARK SMILES IDX 11 1 10 2 9 3 8 4 7 5 5 6 6 7 4 9 1 10 2 11 3 12 87 13 86 14
REMARK SMILES IDX 80 15 81 16 82 17 83 18 84 19 85 20 12 21 13 22 14 23 15 24
REMARK SMILES IDX 16 26 17 27 18 28 79 29 19 30 78 31 20 32 21 33 22 34 72 35
REMARK SMILES IDX 23 36 77 37 71 38 73 39 24 40 76 41 70 42 69 43 25 45 57 46
REMARK SMILES IDX 37 47 56 48 38 49 41 50 55 51 74 52 39 53 40 54 54 56 75 57
REMARK SMILES IDX 42 58 26 59 27 60 35 61 28 62 30 63 36 64 29 65 31 66 32 67
REMARK SMILES IDX 33 68 34 69 58 70 59 71 67 72 60 73 62 74 68 75 61 76 63 77
REMARK SMILES IDX 64 78 65 79 66 80 43 81 44 82 52 83 45 84 47 85 53 86 46 87
REMARK SMILES IDX 48 88 49 89 50 90 51 91
REMARK H PARENT 7 8 14 25 73 44 41 55
REMARK Flexibility Score: inf
ROOT
ATOM      1  C   UNL A   1      37.298  21.220  24.613  1.00  0.00     0.002 C 
ENDROOT
BRANCH   1   2
ATOM      2  C   UNL A   1      35.864  21.166  25.149  1.00  0.00     0.002 C 
BRANCH   2   3
ATOM      3  C   UNL A   1      35.515  22.204  26.224  1.00  0.00     0.021 C 
BRANCH   3   4
ATOM      4  C   UNL A   1      35.643  23.664  25.792  1.00  0.00     0.116 C 
BRANCH   4   5
ATOM      5  N   UNL A   1      35.314  23.837  24.389  1.00  0.00    -0.354 N 
ATOM      6  C   UNL A   1      34.178  24.301  23.793  1.00  0.00     0.246 C 
ATOM      7  O   UNL A   1      34.177  24.281  22.558  1.00  0.00    -0.272 OA
ATOM      8  H   UNL A   1      36.029  23.578  23.764  1.00  0.00     0.163 HD
BRANCH   6   9
ATOM      9  C   UNL A   1      32.898  24.693  24.629  1.00  0.00     0.131 C 
ATOM     10  C   UNL A   1      32.124  27.628  22.697  1.00  0.00     0.019 C 
ATOM     11  C   UNL A   1      31.541  26.698  23.756  1.00  0.00     0.046 C 
ATOM     12  C   UNL A   1      31.940  25.240  23.534  1.00  0.00     0.054 C 
ATOM     13  S   UNL A   1      32.102  27.194  25.399  1.00  0.00    -0.156 SA
ATOM     14  C   UNL A   1      33.281  25.839  25.595  1.00  0.00     0.108 C 
BRANCH   9  15
ATOM     15  N   UNL A   1      32.436  23.485  25.407  1.00  0.00    -0.327 N 
BRANCH  15  16
ATOM     16  C   UNL A   1      32.131  23.688  26.771  1.00  0.00     0.341 C 
ATOM     17  O   UNL A   1      31.014  23.754  27.270  1.00  0.00    -0.279 OA
ENDBRANCH  15  16
BRANCH  15  18
ATOM     18  C   UNL A   1      31.826  22.283  24.831  1.00  0.00     0.086 C 
ATOM     19  C   UNL A   1      32.372  21.430  23.727  1.00  0.00     0.027 C 
ATOM     20  C   UNL A   1      32.188  20.852  25.103  1.00  0.00     0.027 C 
ENDBRANCH  15  18
ENDBRANCH   9  15
ENDBRANCH   6   9
ENDBRANCH   4   5
ENDBRANCH   3   4
ENDBRANCH   2   3
ENDBRANCH   1   2
BRANCH   1  21
ATOM     21  C   UNL A   1      38.164  20.002  24.932  1.00  0.00     0.021 C 
BRANCH  21  22
ATOM     22  C   UNL A   1      39.160  20.193  26.070  1.00  0.00     0.116 C 
BRANCH  22  23
ATOM     23  N   UNL A   1      40.282  19.270  25.997  1.00  0.00    -0.352 N 
ATOM     24  C   UNL A   1      41.626  19.539  26.081  1.00  0.00     0.251 C 
ATOM     25  H   UNL A   1      40.045  18.323  25.870  1.00  0.00     0.163 HD
ATOM     26  O   UNL A   1      42.447  18.653  25.860  1.00  0.00    -0.269 OA
BRANCH  24  27
ATOM     27  C   UNL A   1      42.079  20.907  26.415  1.00  0.00     0.039 A 
ATOM     28  C   UNL A   1      42.295  21.819  25.380  1.00  0.00     0.014 A 
ATOM     29  C   UNL A   1      42.276  21.291  27.744  1.00  0.00     0.014 A 
ATOM     30  C   UNL A   1      42.649  23.136  25.682  1.00  0.00     0.010 A 
ATOM     31  C   UNL A   1      42.553  22.621  28.045  1.00  0.00     0.010 A 
ATOM     32  C   UNL A   1      42.751  23.557  27.019  1.00  0.00    -0.014 A 
BRANCH  32  33
ATOM     33  C   UNL A   1      43.062  24.967  27.365  1.00  0.00     0.031 A 
ATOM     34  C   UNL A   1      44.470  25.484  27.242  1.00  0.00     0.074 A 
ATOM     35  C   UNL A   1      42.095  25.760  27.867  1.00  0.00     0.049 A 
ATOM     36  N   UNL A   1      44.947  26.662  27.548  1.00  0.00    -0.248 NA
ATOM     37  C   UNL A   1      45.482  24.542  26.734  1.00  0.00     0.031 C 
ATOM     38  C   UNL A   1      40.705  25.358  28.099  1.00  0.00     0.029 A 
ATOM     39  N   UNL A   1      42.137  27.063  28.296  1.00  0.00    -0.354 N 
ATOM     40  C   UNL A   1      46.313  26.595  27.302  1.00  0.00     0.074 A 
ATOM     41  C   UNL A   1      46.596  25.247  26.862  1.00  0.00     0.031 C 
ATOM     42  C   UNL A   1      40.026  26.397  28.612  1.00  0.00     0.029 A 
ATOM     43  C   UNL A   1      40.936  27.525  28.780  1.00  0.00     0.049 A 
ATOM     44  H   UNL A   1      42.952  27.615  28.260  1.00  0.00     0.167 HD
ATOM     45  C   UNL A   1      47.245  27.574  27.399  1.00  0.00     0.034 A 
ATOM     46  C   UNL A   1      40.605  28.722  29.304  1.00  0.00     0.034 A 
ATOM     47  C   UNL A   1      46.954  28.922  27.806  1.00  0.00     0.049 A 
ATOM     48  C   UNL A   1      41.657  29.796  29.394  1.00  0.00     0.074 A 
ATOM     49  C   UNL A   1      47.810  30.006  27.868  1.00  0.00     0.029 A 
ATOM     50  N   UNL A   1      45.711  29.370  28.231  1.00  0.00    -0.354 N 
ATOM     51  N   UNL A   1      42.912  29.756  29.020  1.00  0.00    -0.248 NA
ATOM     52  C   UNL A   1      41.236  31.090  29.950  1.00  0.00     0.031 C 
ATOM     53  C   UNL A   1      47.093  31.103  28.358  1.00  0.00     0.029 A 
ATOM     54  C   UNL A   1      45.780  30.710  28.567  1.00  0.00     0.049 A 
ATOM     55  H   UNL A   1      44.900  28.815  28.284  1.00  0.00     0.167 HD
ATOM     56  C   UNL A   1      43.419  31.031  29.252  1.00  0.00     0.074 A 
ATOM     57  C   UNL A   1      42.330  31.821  29.786  1.00  0.00     0.031 C 
ATOM     58  C   UNL A   1      44.675  31.500  29.048  1.00  0.00     0.034 A 
BRANCH  45  59
ATOM     59  C   UNL A   1      48.661  27.226  27.015  1.00  0.00     0.023 A 
ATOM     60  C   UNL A   1      49.490  26.559  27.942  1.00  0.00     0.012 A 
ATOM     61  C   UNL A   1      49.163  27.524  25.734  1.00  0.00     0.148 A 
ATOM     62  C   UNL A   1      50.808  26.240  27.619  1.00  0.00     0.002 A 
ATOM     63  C   UNL A   1      50.464  27.158  25.401  1.00  0.00     0.091 A 
ATOM     64  F   UNL A   1      48.371  28.176  24.870  1.00  0.00    -0.205 F 
ATOM     65  C   UNL A   1      51.291  26.531  26.347  1.00  0.00     0.022 A 
BRANCH  63  66
ATOM     66  S   UNL A   1      51.153  27.417  23.762  1.00  0.00     0.127 S 
ATOM     67  O   UNL A   1      52.431  26.714  23.866  1.00  0.00    -0.237 OA
ATOM     68  O   UNL A   1      50.164  26.761  22.906  1.00  0.00    -0.237 OA
ATOM     69  O   UNL A   1      51.244  28.860  23.589  1.00  0.00    -0.744 OA
ENDBRANCH  63  66
ENDBRANCH  45  59
BRANCH  46  70
ATOM     70  C   UNL A   1      39.199  28.995  29.715  1.00  0.00     0.023 A 
ATOM     71  C   UNL A   1      38.778  28.632  31.009  1.00  0.00     0.012 A 
ATOM     72  C   UNL A   1      38.287  29.628  28.849  1.00  0.00     0.148 A 
ATOM     73  C   UNL A   1      37.466  28.861  31.423  1.00  0.00     0.002 A 
ATOM     74  C   UNL A   1      36.996  29.903  29.286  1.00  0.00     0.091 A 
ATOM     75  F   UNL A   1      38.705  29.960  27.619  1.00  0.00    -0.205 F 
ATOM     76  C   UNL A   1      36.578  29.505  30.565  1.00  0.00     0.022 A 
BRANCH  74  77
ATOM     77  S   UNL A   1      35.819  30.835  28.300  1.00  0.00     0.127 S 
ATOM     78  O   UNL A   1      34.824  31.211  29.300  1.00  0.00    -0.237 OA
ATOM     79  O   UNL A   1      36.646  31.935  27.806  1.00  0.00    -0.237 OA
ATOM     80  O   UNL A   1      35.357  29.917  27.266  1.00  0.00    -0.744 OA
ENDBRANCH  74  77
ENDBRANCH  46  70
BRANCH  58  81
ATOM     81  C   UNL A   1      44.937  32.951  29.359  1.00  0.00     0.023 A 
ATOM     82  C   UNL A   1      45.407  33.328  30.633  1.00  0.00     0.012 A 
ATOM     83  C   UNL A   1      44.788  33.933  28.359  1.00  0.00     0.148 A 
ATOM     84  C   UNL A   1      45.690  34.663  30.917  1.00  0.00     0.002 A 
ATOM     85  C   UNL A   1      45.124  35.254  28.634  1.00  0.00     0.091 A 
ATOM     86  F   UNL A   1      44.324  33.558  27.159  1.00  0.00    -0.205 F 
ATOM     87  C   UNL A   1      45.561  35.623  29.916  1.00  0.00     0.022 A 
BRANCH  85  88
ATOM     88  S   UNL A   1      45.085  36.539  27.379  1.00  0.00     0.127 S 
ATOM     89  O   UNL A   1      43.665  36.572  27.030  1.00  0.00    -0.237 OA
ATOM     90  O   UNL A   1      45.557  37.709  28.121  1.00  0.00    -0.237 OA
ATOM     91  O   UNL A   1      45.978  36.095  26.318  1.00  0.00    -0.744 OA
ENDBRANCH  85  88
ENDBRANCH  58  81
ENDBRANCH  32  33
ENDBRANCH  24  27
ENDBRANCH  22  23
ENDBRANCH  21  22
ENDBRANCH   1  21
TORSDOF 19
ENDMDL
MODEL 2
REMARK VINA RESULT:     -10.0      0.862      7.618
REMARK SMILES C[C@H]1C[C@](C(=O)NCCCCCCNC(=O)c2ccc(-c3c4nc(c(-c5cccc(S(=O)(=O)[O-])c5F)c5ccc([nH]5)c(-c5cccc(S(=O)(=O)[O-])c5F)c5nc(c(-c6cccc(S(=O)(=O)[O-])c6F)c6ccc3[nH]6)C=C5)C=C4)cc2)(N(C=O)C2CC2)CS1
REMARK SMILES IDX 11 1 10 2 9 3 8 4 7 5 5 6 6 7 4 9 1 10 2 11 3 12 87 13 86 14
REMARK SMILES IDX 80 15 81 16 82 17 83 18 84 19 85 20 12 21 13 22 14 23 15 24
REMARK SMILES IDX 16 26 17 27 18 28 79 29 19 30 78 31 20 32 21 33 22 34 72 35
REMARK SMILES IDX 23 36 77 37 71 38 73 39 24 40 76 41 70 42 69 43 25 45 57 46
REMARK SMILES IDX 37 47 56 48 38 49 41 50 55 51 74 52 39 53 40 54 54 56 75 57
REMARK SMILES IDX 42 58 26 59 27 60 35 61 28 62 30 63 36 64 29 65 31 66 32 67
REMARK SMILES IDX 33 68 34 69 58 70 59 71 67 72 60 73 62 74 68 75 61 76 63 77
REMARK SMILES IDX 64 78 65 79 66 80 43 81 44 82 52 83 45 84 47 85 53 86 46 87
REMARK SMILES IDX 48 88 49 89 50 90 51 91
REMARK H PARENT 7 8 14 25 73 44 41 55
REMARK Flexibility Score: inf
ROOT
ATOM      1  C   UNL A   1      36.791  20.786  24.790  1.00  0.00     0.002 C 
ENDROOT
BRANCH   1   2
ATOM      2  C   UNL A   1      37.305  22.215  24.591  1.00  0.00     0.002 C 
BRANCH   2   3
ATOM      3  C   UNL A   1      36.862  23.235  25.647  1.00  0.00     0.021 C 
BRANCH   3   4
ATOM      4  C   UNL A   1      35.420  23.726  25.520  1.00  0.00     0.116 C 
BRANCH   4   5
ATOM      5  N   UNL A   1      35.077  24.026  24.142  1.00  0.00    -0.354 N 
ATOM      6  C   UNL A   1      33.905  24.459  23.592  1.00  0.00     0.246 C 
ATOM      7  O   UNL A   1      33.905  24.576  22.363  1.00  0.00    -0.272 OA
ATOM      8  H   UNL A   1      35.810  23.898  23.498  1.00  0.00     0.163 HD
BRANCH   6   9
ATOM      9  C   UNL A   1      32.599  24.650  24.456  1.00  0.00     0.131 C 
ATOM     10  C   UNL A   1      31.188  27.217  22.367  1.00  0.00     0.019 C 
ATOM     11  C   UNL A   1      30.839  26.272  23.511  1.00  0.00     0.046 C 
ATOM     12  C   UNL A   1      31.517  24.910  23.371  1.00  0.00     0.054 C 
ATOM     13  S   UNL A   1      31.337  26.992  25.090  1.00  0.00    -0.156 SA
ATOM     14  C   UNL A   1      32.771  25.918  25.324  1.00  0.00     0.108 C 
BRANCH   9  15
ATOM     15  N   UNL A   1      32.415  23.436  25.334  1.00  0.00    -0.327 N 
BRANCH  15  16
ATOM     16  C   UNL A   1      32.063  23.675  26.681  1.00  0.00     0.341 C 
ATOM     17  O   UNL A   1      32.073  22.862  27.597  1.00  0.00    -0.279 OA
ENDBRANCH  15  16
BRANCH  15  18
ATOM     18  C   UNL A   1      32.092  22.085  24.864  1.00  0.00     0.086 C 
ATOM     19  C   UNL A   1      32.942  21.197  24.008  1.00  0.00     0.027 C 
ATOM     20  C   UNL A   1      32.596  20.781  25.411  1.00  0.00     0.027 C 
ENDBRANCH  15  18
ENDBRANCH   9  15
ENDBRANCH   6   9
ENDBRANCH   4   5
ENDBRANCH   3   4
ENDBRANCH   2   3
ENDBRANCH   1   2
BRANCH   1  21
ATOM     21  C   UNL A   1      37.872  19.720  24.972  1.00  0.00     0.021 C 
BRANCH  21  22
ATOM     22  C   UNL A   1      38.822  19.950  26.141  1.00  0.00     0.116 C 
BRANCH  22  23
ATOM     23  N   UNL A   1      40.023  19.134  26.060  1.00  0.00    -0.352 N 
ATOM     24  C   UNL A   1      41.338  19.525  26.133  1.00  0.00     0.251 C 
ATOM     25  H   UNL A   1      39.873  18.169  25.935  1.00  0.00     0.163 HD
ATOM     26  O   UNL A   1      42.235  18.717  25.905  1.00  0.00    -0.269 OA
BRANCH  24  27
ATOM     27  C   UNL A   1      41.666  20.929  26.462  1.00  0.00     0.039 A 
ATOM     28  C   UNL A   1      42.132  21.232  27.743  1.00  0.00     0.014 A 
ATOM     29  C   UNL A   1      41.531  21.939  25.505  1.00  0.00     0.014 A 
ATOM     30  C   UNL A   1      42.518  22.540  28.047  1.00  0.00     0.010 A 
ATOM     31  C   UNL A   1      41.989  23.223  25.786  1.00  0.00     0.010 A 
ATOM     32  C   UNL A   1      42.479  23.540  27.061  1.00  0.00    -0.014 A 
BRANCH  32  33
ATOM     33  C   UNL A   1      42.947  24.921  27.341  1.00  0.00     0.031 A 
ATOM     34  C   UNL A   1      42.029  25.911  28.006  1.00  0.00     0.074 A 
ATOM     35  C   UNL A   1      44.168  25.310  26.924  1.00  0.00     0.049 A 
ATOM     36  N   UNL A   1      42.234  27.173  28.282  1.00  0.00    -0.248 NA
ATOM     37  C   UNL A   1      40.691  25.425  28.386  1.00  0.00     0.031 C 
ATOM     38  C   UNL A   1      45.127  24.466  26.208  1.00  0.00     0.029 A 
ATOM     39  N   UNL A   1      44.804  26.523  27.021  1.00  0.00    -0.354 N 
ATOM     40  C   UNL A   1      41.049  27.639  28.836  1.00  0.00     0.074 A 
ATOM     41  C   UNL A   1      40.112  26.537  28.817  1.00  0.00     0.031 C 
ATOM     42  C   UNL A   1      46.233  25.181  25.945  1.00  0.00     0.029 A 
ATOM     43  C   UNL A   1      46.051  26.542  26.440  1.00  0.00     0.049 A 
ATOM     44  H   UNL A   1      44.405  27.306  27.466  1.00  0.00     0.167 HD
ATOM     45  C   UNL A   1      40.770  28.863  29.346  1.00  0.00     0.034 A 
ATOM     46  C   UNL A   1      46.943  27.543  26.316  1.00  0.00     0.034 A 
ATOM     47  C   UNL A   1      41.714  29.948  29.392  1.00  0.00     0.049 A 
ATOM     48  C   UNL A   1      46.614  28.892  26.897  1.00  0.00     0.074 A 
ATOM     49  C   UNL A   1      41.557  31.202  29.951  1.00  0.00     0.029 A 
ATOM     50  N   UNL A   1      42.989  29.910  28.848  1.00  0.00    -0.354 N 
ATOM     51  N   UNL A   1      45.541  29.272  27.548  1.00  0.00    -0.248 NA
ATOM     52  C   UNL A   1      47.634  29.942  26.757  1.00  0.00     0.031 C 
ATOM     53  C   UNL A   1      42.727  31.934  29.721  1.00  0.00     0.029 A 
ATOM     54  C   UNL A   1      43.627  31.121  29.048  1.00  0.00     0.049 A 
ATOM     55  H   UNL A   1      43.384  29.133  28.388  1.00  0.00     0.167 HD
ATOM     56  C   UNL A   1      45.775  30.588  27.932  1.00  0.00     0.074 A 
ATOM     57  C   UNL A   1      47.097  30.933  27.454  1.00  0.00     0.031 C 
ATOM     58  C   UNL A   1      44.963  31.435  28.612  1.00  0.00     0.034 A 
BRANCH  45  59
ATOM     59  C   UNL A   1      39.398  29.075  29.935  1.00  0.00     0.023 A 
ATOM     60  C   UNL A   1      39.125  28.623  31.244  1.00  0.00     0.012 A 
ATOM     61  C   UNL A   1      38.392  29.746  29.215  1.00  0.00     0.148 A 
ATOM     62  C   UNL A   1      37.861  28.791  31.807  1.00  0.00     0.002 A 
ATOM     63  C   UNL A   1      37.147  29.954  29.802  1.00  0.00     0.091 A 
ATOM     64  F   UNL A   1      38.659  30.152  27.966  1.00  0.00    -0.205 F 
ATOM     65  C   UNL A   1      36.876  29.464  31.090  1.00  0.00     0.022 A 
BRANCH  63  66
ATOM     66  S   UNL A   1      35.838  30.880  28.991  1.00  0.00     0.127 S 
ATOM     67  O   UNL A   1      35.088  31.393  30.137  1.00  0.00    -0.237 OA
ATOM     68  O   UNL A   1      36.591  31.894  28.253  1.00  0.00    -0.237 OA
ATOM     69  O   UNL A   1      35.129  29.922  28.156  1.00  0.00    -0.744 OA
ENDBRANCH  63  66
ENDBRANCH  45  59
BRANCH  46  70
ATOM     70  C   UNL A   1      48.266  27.290  25.678  1.00  0.00     0.023 A 
ATOM     71  C   UNL A   1      49.344  26.859  26.477  1.00  0.00     0.012 A 
ATOM     72  C   UNL A   1      48.461  27.452  24.293  1.00  0.00     0.148 A 
ATOM     73  C   UNL A   1      50.599  26.626  25.915  1.00  0.00     0.002 A 
ATOM     74  C   UNL A   1      49.700  27.166  23.731  1.00  0.00     0.091 A 
ATOM     75  F   UNL A   1      47.425  27.870  23.551  1.00  0.00    -0.205 F 
ATOM     76  C   UNL A   1      50.775  26.770  24.542  1.00  0.00     0.022 A 
BRANCH  74  77
ATOM     77  S   UNL A   1      49.991  27.205  21.959  1.00  0.00     0.127 S 
ATOM     78  O   UNL A   1      48.942  26.316  21.465  1.00  0.00    -0.237 OA
ATOM     79  O   UNL A   1      49.794  28.622  21.654  1.00  0.00    -0.237 OA
ATOM     80  O   UNL A   1      51.356  26.732  21.772  1.00  0.00    -0.744 OA
ENDBRANCH  74  77
ENDBRANCH  46  70
BRANCH  58  81
ATOM     81  C   UNL A   1      45.495  32.810  28.927  1.00  0.00     0.023 A 
ATOM     82  C   UNL A   1      46.234  33.030  30.106  1.00  0.00     0.012 A 
ATOM     83  C   UNL A   1      45.324  33.868  28.011  1.00  0.00     0.148 A 
ATOM     84  C   UNL A   1      46.764  34.289  30.386  1.00  0.00     0.002 A 
ATOM     85  C   UNL A   1      45.901  35.106  28.271  1.00  0.00     0.091 A 
ATOM     86  F   UNL A   1      44.603  33.645  26.904  1.00  0.00    -0.205 F 
ATOM     87  C   UNL A   1      46.608  35.322  29.464  1.00  0.00     0.022 A 
BRANCH  85  88
ATOM     88  S   UNL A   1      45.838  36.464  27.098  1.00  0.00     0.127 S 
ATOM     89  O   UNL A   1      44.398  36.686  26.976  1.00  0.00    -0.237 OA
ATOM     90  O   UNL A   1      46.558  37.520  27.809  1.00  0.00    -0.237 OA
ATOM     91  O   UNL A   1      46.500  35.987  25.892  1.00  0.00    -0.744 OA
ENDBRANCH  85  88
ENDBRANCH  58  81
ENDBRANCH  32  33
ENDBRANCH  24  27
ENDBRANCH  22  23
ENDBRANCH  21  22
ENDBRANCH   1  21
TORSDOF 19
ENDMDL
MODEL 3
REMARK VINA RESULT:      -9.9      1.693      7.903
REMARK SMILES C[C@H]1C[C@](C(=O)NCCCCCCNC(=O)c2ccc(-c3c4nc(c(-c5cccc(S(=O)(=O)[O-])c5F)c5ccc([nH]5)c(-c5cccc(S(=O)(=O)[O-])c5F)c5nc(c(-c6cccc(S(=O)(=O)[O-])c6F)c6ccc3[nH]6)C=C5)C=C4)cc2)(N(C=O)C2CC2)CS1
REMARK SMILES IDX 11 1 10 2 9 3 8 4 7 5 5 6 6 7 4 9 1 10 2 11 3 12 87 13 86 14
REMARK SMILES IDX 80 15 81 16 82 17 83 18 84 19 85 20 12 21 13 22 14 23 15 24
REMARK SMILES IDX 16 26 17 27 18 28 79 29 19 30 78 31 20 32 21 33 22 34 72 35
REMARK SMILES IDX 23 36 77 37 71 38 73 39 24 40 76 41 70 42 69 43 25 45 57 46
REMARK SMILES IDX 37 47 56 48 38 49 41 50 55 51 74 52 39 53 40 54 54 56 75 57
REMARK SMILES IDX 42 58 26 59 27 60 35 61 28 62 30 63 36 64 29 65 31 66 32 67
REMARK SMILES IDX 33 68 34 69 58 70 59 71 67 72 60 73 62 74 68 75 61 76 63 77
REMARK SMILES IDX 64 78 65 79 66 80 43 81 44 82 52 83 45 84 47 85 53 86 46 87
REMARK SMILES IDX 48 88 49 89 50 90 51 91
REMARK H PARENT 7 8 14 25 73 44 41 55
REMARK Flexibility Score: inf
ROOT
ATOM      1  C   UNL A   1      37.200  21.041  24.611  1.00  0.00     0.002 C 
ENDROOT
BRANCH   1   2
ATOM      2  C   UNL A   1      36.579  21.827  25.770  1.00  0.00     0.002 C 
BRANCH   2   3
ATOM      3  C   UNL A   1      36.789  23.346  25.732  1.00  0.00     0.021 C 
BRANCH   3   4
ATOM      4  C   UNL A   1      35.614  24.157  25.188  1.00  0.00     0.116 C 
BRANCH   4   5
ATOM      5  N   UNL A   1      34.444  24.041  26.040  1.00  0.00    -0.354 N 
ATOM      6  C   UNL A   1      33.146  24.403  25.822  1.00  0.00     0.246 C 
ATOM      7  O   UNL A   1      32.377  24.225  26.771  1.00  0.00    -0.272 OA
ATOM      8  H   UNL A   1      34.615  23.635  26.919  1.00  0.00     0.163 HD
BRANCH   6   9
ATOM      9  C   UNL A   1      32.697  25.137  24.500  1.00  0.00     0.131 C 
ATOM     10  C   UNL A   1      33.748  28.410  25.560  1.00  0.00     0.019 C 
ATOM     11  C   UNL A   1      33.287  27.636  24.330  1.00  0.00     0.046 C 
ATOM     12  C   UNL A   1      33.813  26.201  24.313  1.00  0.00     0.054 C 
ATOM     13  S   UNL A   1      31.484  27.578  24.268  1.00  0.00    -0.156 SA
ATOM     14  C   UNL A   1      31.350  25.848  24.772  1.00  0.00     0.108 C 
BRANCH   9  15
ATOM     15  N   UNL A   1      32.534  24.111  23.405  1.00  0.00    -0.327 N 
BRANCH  15  16
ATOM     16  C   UNL A   1      33.256  24.337  22.211  1.00  0.00     0.341 C 
ATOM     17  O   UNL A   1      33.342  25.392  21.596  1.00  0.00    -0.279 OA
ENDBRANCH  15  16
BRANCH  15  18
ATOM     18  C   UNL A   1      32.120  22.718  23.597  1.00  0.00     0.086 C 
ATOM     19  C   UNL A   1      32.156  21.614  22.585  1.00  0.00     0.027 C 
ATOM     20  C   UNL A   1      33.002  21.524  23.825  1.00  0.00     0.027 C 
ENDBRANCH  15  18
ENDBRANCH   9  15
ENDBRANCH   6   9
ENDBRANCH   4   5
ENDBRANCH   3   4
ENDBRANCH   2   3
ENDBRANCH   1   2
BRANCH   1  21
ATOM     21  C   UNL A   1      38.103  19.876  25.018  1.00  0.00     0.021 C 
BRANCH  21  22
ATOM     22  C   UNL A   1      39.317  20.257  25.856  1.00  0.00     0.116 C 
BRANCH  22  23
ATOM     23  N   UNL A   1      40.289  19.180  25.961  1.00  0.00    -0.352 N 
ATOM     24  C   UNL A   1      41.645  19.261  26.167  1.00  0.00     0.251 C 
ATOM     25  H   UNL A   1      39.927  18.270  25.871  1.00  0.00     0.163 HD
ATOM     26  O   UNL A   1      42.341  18.251  26.090  1.00  0.00    -0.269 OA
BRANCH  24  27
ATOM     27  C   UNL A   1      42.265  20.572  26.457  1.00  0.00     0.039 A 
ATOM     28  C   UNL A   1      42.858  21.285  25.413  1.00  0.00     0.014 A 
ATOM     29  C   UNL A   1      42.247  21.102  27.750  1.00  0.00     0.014 A 
ATOM     30  C   UNL A   1      43.380  22.558  25.655  1.00  0.00     0.010 A 
ATOM     31  C   UNL A   1      42.698  22.400  27.972  1.00  0.00     0.010 A 
ATOM     32  C   UNL A   1      43.277  23.139  26.929  1.00  0.00    -0.014 A 
BRANCH  32  33
ATOM     33  C   UNL A   1      43.765  24.516  27.195  1.00  0.00     0.031 A 
ATOM     34  C   UNL A   1      42.814  25.575  27.685  1.00  0.00     0.074 A 
ATOM     35  C   UNL A   1      45.045  24.836  26.918  1.00  0.00     0.049 A 
ATOM     36  N   UNL A   1      43.038  26.842  27.919  1.00  0.00    -0.248 NA
ATOM     37  C   UNL A   1      41.420  25.160  27.916  1.00  0.00     0.031 C 
ATOM     38  C   UNL A   1      46.049  23.918  26.375  1.00  0.00     0.029 A 
ATOM     39  N   UNL A   1      45.715  26.028  27.033  1.00  0.00    -0.354 N 
ATOM     40  C   UNL A   1      41.813  27.382  28.293  1.00  0.00     0.074 A 
ATOM     41  C   UNL A   1      40.840  26.315  28.211  1.00  0.00     0.031 C 
ATOM     42  C   UNL A   1      47.209  24.576  26.220  1.00  0.00     0.029 A 
ATOM     43  C   UNL A   1      47.025  25.969  26.616  1.00  0.00     0.049 A 
ATOM     44  H   UNL A   1      45.298  26.849  27.382  1.00  0.00     0.167 HD
ATOM     45  C   UNL A   1      41.526  28.642  28.699  1.00  0.00     0.034 A 
ATOM     46  C   UNL A   1      47.968  26.928  26.555  1.00  0.00     0.034 A 
ATOM     47  C   UNL A   1      42.503  29.692  28.808  1.00  0.00     0.049 A 
ATOM     48  C   UNL A   1      47.627  28.319  27.020  1.00  0.00     0.074 A 
ATOM     49  C   UNL A   1      42.331  30.982  29.278  1.00  0.00     0.029 A 
ATOM     50  N   UNL A   1      43.834  29.577  28.435  1.00  0.00    -0.354 N 
ATOM     51  N   UNL A   1      46.498  28.774  27.507  1.00  0.00    -0.248 NA
ATOM     52  C   UNL A   1      48.701  29.321  26.957  1.00  0.00     0.031 C 
ATOM     53  C   UNL A   1      43.551  31.656  29.161  1.00  0.00     0.029 A 
ATOM     54  C   UNL A   1      44.492  30.774  28.652  1.00  0.00     0.049 A 
ATOM     55  H   UNL A   1      44.249  28.762  28.070  1.00  0.00     0.167 HD
ATOM     56  C   UNL A   1      46.739  30.101  27.850  1.00  0.00     0.074 A 
ATOM     57  C   UNL A   1      48.125  30.370  27.527  1.00  0.00     0.031 C 
ATOM     58  C   UNL A   1      45.886  31.014  28.376  1.00  0.00     0.034 A 
BRANCH  45  59
ATOM     59  C   UNL A   1      40.102  28.937  29.096  1.00  0.00     0.023 A 
ATOM     60  C   UNL A   1      39.133  29.166  28.095  1.00  0.00     0.012 A 
ATOM     61  C   UNL A   1      39.711  28.955  30.448  1.00  0.00     0.148 A 
ATOM     62  C   UNL A   1      37.813  29.457  28.434  1.00  0.00     0.002 A 
ATOM     63  C   UNL A   1      38.381  29.197  30.778  1.00  0.00     0.091 A 
ATOM     64  F   UNL A   1      40.645  28.756  31.389  1.00  0.00    -0.205 F 
ATOM     65  C   UNL A   1      37.435  29.463  29.774  1.00  0.00     0.022 A 
BRANCH  63  66
ATOM     66  S   UNL A   1      37.778  29.147  32.470  1.00  0.00     0.127 S 
ATOM     67  O   UNL A   1      38.721  30.040  33.144  1.00  0.00    -0.237 OA
ATOM     68  O   UNL A   1      36.425  29.686  32.330  1.00  0.00    -0.237 OA
ATOM     69  O   UNL A   1      37.838  27.751  32.875  1.00  0.00    -0.744 OA
ENDBRANCH  63  66
ENDBRANCH  45  59
BRANCH  46  70
ATOM     70  C   UNL A   1      49.349  26.592  26.106  1.00  0.00     0.023 A 
ATOM     71  C   UNL A   1      50.154  25.767  26.916  1.00  0.00     0.012 A 
ATOM     72  C   UNL A   1      49.862  27.061  24.882  1.00  0.00     0.148 A 
ATOM     73  C   UNL A   1      51.455  25.442  26.533  1.00  0.00     0.002 A 
ATOM     74  C   UNL A   1      51.140  26.691  24.480  1.00  0.00     0.091 A 
ATOM     75  F   UNL A   1      49.083  27.851  24.129  1.00  0.00    -0.205 F 
ATOM     76  C   UNL A   1      51.945  25.897  25.311  1.00  0.00     0.022 A 
BRANCH  74  77
ATOM     77  S   UNL A   1      51.812  27.125  22.872  1.00  0.00     0.127 S 
ATOM     78  O   UNL A   1      52.095  28.548  23.042  1.00  0.00    -0.237 OA
ATOM     79  O   UNL A   1      52.993  26.265  22.798  1.00  0.00    -0.237 OA
ATOM     80  O   UNL A   1      50.769  26.802  21.908  1.00  0.00    -0.744 OA
ENDBRANCH  74  77
ENDBRANCH  46  70
BRANCH  58  81
ATOM     81  C   UNL A   1      46.433  32.384  28.684  1.00  0.00     0.023 A 
ATOM     82  C   UNL A   1      47.018  32.646  29.939  1.00  0.00     0.012 A 
ATOM     83  C   UNL A   1      46.433  33.391  27.698  1.00  0.00     0.148 A 
ATOM     84  C   UNL A   1      47.562  33.899  30.219  1.00  0.00     0.002 A 
ATOM     85  C   UNL A   1      47.025  34.620  27.966  1.00  0.00     0.091 A 
ATOM     86  F   UNL A   1      45.856  33.129  26.516  1.00  0.00    -0.205 F 
ATOM     87  C   UNL A   1      47.577  34.880  29.230  1.00  0.00     0.022 A 
BRANCH  85  88
ATOM     88  S   UNL A   1      47.181  35.906  26.723  1.00  0.00     0.127 S 
ATOM     89  O   UNL A   1      48.109  36.833  27.367  1.00  0.00    -0.237 OA
ATOM     90  O   UNL A   1      47.742  35.173  25.588  1.00  0.00    -0.237 OA
ATOM     91  O   UNL A   1      45.836  36.421  26.504  1.00  0.00    -0.744 OA
ENDBRANCH  85  88
ENDBRANCH  58  81
ENDBRANCH  32  33
ENDBRANCH  24  27
ENDBRANCH  22  23
ENDBRANCH  21  22
ENDBRANCH   1  21
TORSDOF 19
ENDMDL
