MODEL 1
REMARK VINA RESULT:     -10.8      0.000      0.000
REMARK SMILES N#Cc1ccc(C[N@H+]2CCCC[C@H]2C(=O)NCCCCCCNC(=O)c2ccc(-c3c4nc(c(-c5cccc(S(=O)(=O)[O-])c5F)c5ccc([nH]5)c(-c5cccc(S(=O)(=O)[O-])c5F)c5nc(c(-c6cccc(S(=O)(=O)[O-])c6F)c6ccc3[nH]6)C=C5)C=C4)cc2)c(F)c1
REMARK SMILES IDX 19 1 18 2 17 3 16 4 14 5 15 6 13 8 8 9 9 10 10 12 12 13
REMARK SMILES IDX 11 14 7 15 6 16 3 17 4 18 91 19 5 20 89 21 90 22 2 23 1 24
REMARK SMILES IDX 20 25 21 26 22 27 23 28 24 29 25 31 26 32 27 33 88 34 28 35
REMARK SMILES IDX 87 36 29 37 30 38 31 39 81 40 32 41 86 42 80 43 82 44 33 45
REMARK SMILES IDX 85 46 79 47 78 48 34 50 66 51 46 52 65 53 47 54 50 55 64 56
REMARK SMILES IDX 83 57 48 58 49 59 63 61 84 62 51 63 35 64 36 65 44 66 37 67
REMARK SMILES IDX 39 68 45 69 38 70 40 71 41 72 42 73 43 74 67 75 68 76 76 77
REMARK SMILES IDX 69 78 71 79 77 80 70 81 72 82 73 83 74 84 75 85 52 86 53 87
REMARK SMILES IDX 61 88 54 89 56 90 62 91 55 92 57 93 58 94 59 95 60 96
REMARK H PARENT 16 7 8 11 23 30 82 49 50 60
REMARK Flexibility Score: inf
ROOT
ATOM      1  C   UNL A   1      38.147  22.516  25.400  1.00  0.00     0.002 C 
ENDROOT
BRANCH   1   2
ATOM      2  C   UNL A   1      37.152  23.666  25.642  1.00  0.00     0.021 C 
BRANCH   2   3
ATOM      3  C   UNL A   1      35.949  23.623  24.695  1.00  0.00     0.116 C 
BRANCH   3   4
ATOM      4  N   UNL A   1      34.969  24.574  25.169  1.00  0.00    -0.351 N 
ATOM      5  C   UNL A   1      33.899  25.068  24.489  1.00  0.00     0.278 C 
ATOM      6  O   UNL A   1      33.583  26.233  24.735  1.00  0.00    -0.268 OA
ATOM      7  H   UNL A   1      35.089  24.901  26.090  1.00  0.00     0.163 HD
BRANCH   5   8
ATOM      8  C   UNL A   1      33.132  24.125  23.524  1.00  0.00     0.274 C 
ATOM      9  N   UNL A   1      31.979  23.437  24.160  1.00  0.00    -0.321 N 
ATOM     10  C   UNL A   1      30.911  24.343  24.581  1.00  0.00     0.263 C 
ATOM     11  H   UNL A   1      31.563  22.902  23.399  1.00  0.00     0.349 HD
ATOM     12  C   UNL A   1      30.449  25.270  23.443  1.00  0.00     0.062 C 
ATOM     13  C   UNL A   1      32.641  24.900  22.296  1.00  0.00     0.076 C 
ATOM     14  C   UNL A   1      31.593  25.932  22.683  1.00  0.00     0.012 C 
BRANCH   9  15
ATOM     15  C   UNL A   1      32.320  22.363  25.113  1.00  0.00     0.302 C 
BRANCH  15  16
ATOM     16  C   UNL A   1      32.855  21.065  24.552  1.00  0.00     0.042 A 
ATOM     17  C   UNL A   1      33.603  18.450  23.841  1.00  0.00     0.055 A 
ATOM     18  C   UNL A   1      32.591  19.110  23.135  1.00  0.00     0.020 A 
ATOM     19  C   UNL A   1      34.315  19.131  24.827  1.00  0.00     0.059 A 
ATOM     20  C   UNL A   1      32.214  20.409  23.493  1.00  0.00     0.014 A 
ATOM     21  C   UNL A   1      33.958  20.438  25.145  1.00  0.00     0.133 A 
ATOM     22  F   UNL A   1      34.632  21.063  26.123  1.00  0.00    -0.206 F 
BRANCH  17  23
ATOM     23  C   UNL A   1      33.875  17.064  23.584  1.00  0.00     0.099 C 
ATOM     24  N   UNL A   1      34.092  15.944  23.393  1.00  0.00    -0.192 NA
ENDBRANCH  17  23
ENDBRANCH  15  16
ENDBRANCH   9  15
ENDBRANCH   5   8
ENDBRANCH   3   4
ENDBRANCH   2   3
ENDBRANCH   1   2
BRANCH   1  25
ATOM     25  C   UNL A   1      37.549  21.322  24.649  1.00  0.00     0.002 C 
BRANCH  25  26
ATOM     26  C   UNL A   1      38.193  19.985  25.009  1.00  0.00     0.021 C 
BRANCH  26  27
ATOM     27  C   UNL A   1      39.105  20.061  26.225  1.00  0.00     0.116 C 
BRANCH  27  28
ATOM     28  N   UNL A   1      40.311  19.271  26.037  1.00  0.00    -0.352 N 
ATOM     29  C   UNL A   1      41.612  19.695  25.980  1.00  0.00     0.251 C 
ATOM     30  H   UNL A   1      40.173  18.301  25.936  1.00  0.00     0.163 HD
ATOM     31  O   UNL A   1      42.489  18.937  25.578  1.00  0.00    -0.269 OA
BRANCH  29  32
ATOM     32  C   UNL A   1      41.944  21.071  26.400  1.00  0.00     0.039 A 
ATOM     33  C   UNL A   1      42.019  22.073  25.432  1.00  0.00     0.014 A 
ATOM     34  C   UNL A   1      42.193  21.368  27.744  1.00  0.00     0.014 A 
ATOM     35  C   UNL A   1      42.329  23.377  25.818  1.00  0.00     0.010 A 
ATOM     36  C   UNL A   1      42.395  22.684  28.139  1.00  0.00     0.010 A 
ATOM     37  C   UNL A   1      42.506  23.696  27.176  1.00  0.00    -0.014 A 
BRANCH  37  38
ATOM     38  C   UNL A   1      42.858  25.076  27.594  1.00  0.00     0.031 A 
ATOM     39  C   UNL A   1      44.274  25.570  27.451  1.00  0.00     0.074 A 
ATOM     40  C   UNL A   1      41.913  25.873  28.127  1.00  0.00     0.049 A 
ATOM     41  N   UNL A   1      44.769  26.746  27.737  1.00  0.00    -0.248 NA
ATOM     42  C   UNL A   1      45.272  24.612  26.945  1.00  0.00     0.031 C 
ATOM     43  C   UNL A   1      40.522  25.488  28.377  1.00  0.00     0.029 A 
ATOM     44  N   UNL A   1      41.981  27.171  28.563  1.00  0.00    -0.354 N 
ATOM     45  C   UNL A   1      46.131  26.660  27.472  1.00  0.00     0.074 A 
ATOM     46  C   UNL A   1      46.395  25.300  27.061  1.00  0.00     0.031 C 
ATOM     47  C   UNL A   1      39.860  26.538  28.886  1.00  0.00     0.029 A 
ATOM     48  C   UNL A   1      40.785  27.656  29.038  1.00  0.00     0.049 A 
ATOM     49  H   UNL A   1      42.807  27.707  28.537  1.00  0.00     0.167 HD
ATOM     50  C   UNL A   1      47.074  27.630  27.532  1.00  0.00     0.034 A 
ATOM     51  C   UNL A   1      40.473  28.866  29.538  1.00  0.00     0.034 A 
ATOM     52  C   UNL A   1      46.802  28.985  27.930  1.00  0.00     0.049 A 
ATOM     53  C   UNL A   1      41.538  29.926  29.602  1.00  0.00     0.074 A 
ATOM     54  C   UNL A   1      47.670  30.061  27.970  1.00  0.00     0.029 A 
ATOM     55  N   UNL A   1      45.573  29.445  28.377  1.00  0.00    -0.354 N 
ATOM     56  N   UNL A   1      42.792  29.863  29.224  1.00  0.00    -0.248 NA
ATOM     57  C   UNL A   1      41.133  31.239  30.124  1.00  0.00     0.031 C 
ATOM     58  C   UNL A   1      46.978  31.159  28.489  1.00  0.00     0.029 A 
ATOM     59  C   UNL A   1      45.662  30.786  28.709  1.00  0.00     0.049 A 
ATOM     60  H   UNL A   1      44.757  28.899  28.446  1.00  0.00     0.167 HD
ATOM     61  C   UNL A   1      43.311  31.140  29.413  1.00  0.00     0.074 A 
ATOM     62  C   UNL A   1      42.229  31.955  29.926  1.00  0.00     0.031 C 
ATOM     63  C   UNL A   1      44.568  31.595  29.182  1.00  0.00     0.034 A 
BRANCH  50  64
ATOM     64  C   UNL A   1      48.481  27.257  27.137  1.00  0.00     0.023 A 
ATOM     65  C   UNL A   1      49.336  26.635  28.073  1.00  0.00     0.012 A 
ATOM     66  C   UNL A   1      48.954  27.502  25.833  1.00  0.00     0.148 A 
ATOM     67  C   UNL A   1      50.651  26.316  27.737  1.00  0.00     0.002 A 
ATOM     68  C   UNL A   1      50.249  27.131  25.489  1.00  0.00     0.091 A 
ATOM     69  F   UNL A   1      48.138  28.109  24.961  1.00  0.00    -0.205 F 
ATOM     70  C   UNL A   1      51.104  26.557  26.443  1.00  0.00     0.022 A 
BRANCH  68  71
ATOM     71  S   UNL A   1      50.899  27.319  23.826  1.00  0.00     0.127 S 
ATOM     72  O   UNL A   1      51.001  28.773  23.712  1.00  0.00    -0.237 OA
ATOM     73  O   UNL A   1      52.183  26.623  23.920  1.00  0.00    -0.237 OA
ATOM     74  O   UNL A   1      49.930  26.690  22.939  1.00  0.00    -0.744 OA
ENDBRANCH  68  71
ENDBRANCH  50  64
BRANCH  51  75
ATOM     75  C   UNL A   1      39.075  29.165  29.958  1.00  0.00     0.023 A 
ATOM     76  C   UNL A   1      38.656  28.840  31.263  1.00  0.00     0.012 A 
ATOM     77  C   UNL A   1      38.161  29.774  29.076  1.00  0.00     0.148 A 
ATOM     78  C   UNL A   1      37.343  29.074  31.669  1.00  0.00     0.002 A 
ATOM     79  C   UNL A   1      36.871  30.057  29.504  1.00  0.00     0.091 A 
ATOM     80  F   UNL A   1      38.580  30.075  27.838  1.00  0.00    -0.205 F 
ATOM     81  C   UNL A   1      36.452  29.690  30.793  1.00  0.00     0.022 A 
BRANCH  79  82
ATOM     82  S   UNL A   1      35.690  30.952  28.489  1.00  0.00     0.127 S 
ATOM     83  O   UNL A   1      36.558  31.891  27.780  1.00  0.00    -0.237 OA
ATOM     84  O   UNL A   1      35.135  29.880  27.663  1.00  0.00    -0.237 OA
ATOM     85  O   UNL A   1      34.743  31.553  29.417  1.00  0.00    -0.744 OA
ENDBRANCH  79  82
ENDBRANCH  51  75
BRANCH  63  86
ATOM     86  C   UNL A   1      44.830  33.062  29.413  1.00  0.00     0.023 A 
ATOM     87  C   UNL A   1      45.266  33.525  30.670  1.00  0.00     0.012 A 
ATOM     88  C   UNL A   1      44.683  33.980  28.353  1.00  0.00     0.148 A 
ATOM     89  C   UNL A   1      45.499  34.884  30.882  1.00  0.00     0.002 A 
ATOM     90  C   UNL A   1      44.978  35.321  28.554  1.00  0.00     0.091 A 
ATOM     91  F   UNL A   1      44.253  33.524  27.167  1.00  0.00    -0.205 F 
ATOM     92  C   UNL A   1      45.367  35.780  29.823  1.00  0.00     0.022 A 
BRANCH  90  93
ATOM     93  S   UNL A   1      44.936  36.526  27.224  1.00  0.00     0.127 S 
ATOM     94  O   UNL A   1      43.537  36.462  26.807  1.00  0.00    -0.237 OA
ATOM     95  O   UNL A   1      45.313  37.760  27.915  1.00  0.00    -0.237 OA
ATOM     96  O   UNL A   1      45.903  36.069  26.234  1.00  0.00    -0.744 OA
ENDBRANCH  90  93
ENDBRANCH  63  86
ENDBRANCH  37  38
ENDBRANCH  29  32
ENDBRANCH  27  28
ENDBRANCH  26  27
ENDBRANCH  25  26
ENDBRANCH   1  25
TORSDOF 19
ENDMDL
MODEL 2
REMARK VINA RESULT:     -10.1      1.443      1.854
REMARK SMILES N#Cc1ccc(C[N@H+]2CCCC[C@H]2C(=O)NCCCCCCNC(=O)c2ccc(-c3c4nc(c(-c5cccc(S(=O)(=O)[O-])c5F)c5ccc([nH]5)c(-c5cccc(S(=O)(=O)[O-])c5F)c5nc(c(-c6cccc(S(=O)(=O)[O-])c6F)c6ccc3[nH]6)C=C5)C=C4)cc2)c(F)c1
REMARK SMILES IDX 19 1 18 2 17 3 16 4 14 5 15 6 13 8 8 9 9 10 10 12 12 13
REMARK SMILES IDX 11 14 7 15 6 16 3 17 4 18 91 19 5 20 89 21 90 22 2 23 1 24
REMARK SMILES IDX 20 25 21 26 22 27 23 28 24 29 25 31 26 32 27 33 88 34 28 35
REMARK SMILES IDX 87 36 29 37 30 38 31 39 81 40 32 41 86 42 80 43 82 44 33 45
REMARK SMILES IDX 85 46 79 47 78 48 34 50 66 51 46 52 65 53 47 54 50 55 64 56
REMARK SMILES IDX 83 57 48 58 49 59 63 61 84 62 51 63 35 64 36 65 44 66 37 67
REMARK SMILES IDX 39 68 45 69 38 70 40 71 41 72 42 73 43 74 67 75 68 76 76 77
REMARK SMILES IDX 69 78 71 79 77 80 70 81 72 82 73 83 74 84 75 85 52 86 53 87
REMARK SMILES IDX 61 88 54 89 56 90 62 91 55 92 57 93 58 94 59 95 60 96
REMARK H PARENT 16 7 8 11 23 30 82 49 50 60
REMARK Flexibility Score: inf
ROOT
ATOM      1  C   UNL A   1      38.124  22.369  25.749  1.00  0.00     0.002 C 
ENDROOT
BRANCH   1   2
ATOM      2  C   UNL A   1      36.987  23.385  25.956  1.00  0.00     0.021 C 
BRANCH   2   3
ATOM      3  C   UNL A   1      36.269  23.750  24.652  1.00  0.00     0.116 C 
BRANCH   3   4
ATOM      4  N   UNL A   1      35.356  24.836  24.931  1.00  0.00    -0.351 N 
ATOM      5  C   UNL A   1      34.212  25.146  24.261  1.00  0.00     0.278 C 
ATOM      6  O   UNL A   1      33.932  26.344  24.183  1.00  0.00    -0.268 OA
ATOM      7  H   UNL A   1      35.588  25.416  25.691  1.00  0.00     0.163 HD
BRANCH   5   8
ATOM      8  C   UNL A   1      33.332  23.991  23.718  1.00  0.00     0.274 C 
ATOM      9  N   UNL A   1      32.504  23.334  24.763  1.00  0.00    -0.321 N 
ATOM     10  C   UNL A   1      31.492  24.211  25.350  1.00  0.00     0.263 C 
ATOM     11  H   UNL A   1      31.963  22.642  24.247  1.00  0.00     0.349 HD
ATOM     12  C   UNL A   1      30.611  24.884  24.283  1.00  0.00     0.062 C 
ATOM     13  C   UNL A   1      32.418  24.497  22.596  1.00  0.00     0.076 C 
ATOM     14  C   UNL A   1      31.398  25.493  23.127  1.00  0.00     0.012 C 
BRANCH   9  15
ATOM     15  C   UNL A   1      33.236  22.474  25.713  1.00  0.00     0.302 C 
BRANCH  15  16
ATOM     16  C   UNL A   1      33.420  21.018  25.351  1.00  0.00     0.042 A 
ATOM     17  C   UNL A   1      33.724  18.453  24.242  1.00  0.00     0.055 A 
ATOM     18  C   UNL A   1      34.847  19.182  24.650  1.00  0.00     0.020 A 
ATOM     19  C   UNL A   1      32.447  18.955  24.487  1.00  0.00     0.059 A 
ATOM     20  C   UNL A   1      34.696  20.462  25.195  1.00  0.00     0.014 A 
ATOM     21  C   UNL A   1      32.310  20.212  25.069  1.00  0.00     0.133 A 
ATOM     22  F   UNL A   1      31.072  20.693  25.263  1.00  0.00    -0.206 F 
BRANCH  17  23
ATOM     23  C   UNL A   1      33.887  17.216  23.532  1.00  0.00     0.099 C 
ATOM     24  N   UNL A   1      34.031  16.215  22.969  1.00  0.00    -0.192 NA
ENDBRANCH  17  23
ENDBRANCH  15  16
ENDBRANCH   9  15
ENDBRANCH   5   8
ENDBRANCH   3   4
ENDBRANCH   2   3
ENDBRANCH   1   2
BRANCH   1  25
ATOM     25  C   UNL A   1      37.795  21.261  24.744  1.00  0.00     0.002 C 
BRANCH  25  26
ATOM     26  C   UNL A   1      38.499  19.937  25.036  1.00  0.00     0.021 C 
BRANCH  26  27
ATOM     27  C   UNL A   1      39.427  19.999  26.241  1.00  0.00     0.116 C 
BRANCH  27  28
ATOM     28  N   UNL A   1      40.589  19.144  26.063  1.00  0.00    -0.352 N 
ATOM     29  C   UNL A   1      41.909  19.501  25.972  1.00  0.00     0.251 C 
ATOM     30  H   UNL A   1      40.402  18.179  25.999  1.00  0.00     0.163 HD
ATOM     31  O   UNL A   1      42.741  18.686  25.584  1.00  0.00    -0.269 OA
BRANCH  29  32
ATOM     32  C   UNL A   1      42.315  20.872  26.337  1.00  0.00     0.039 A 
ATOM     33  C   UNL A   1      42.624  21.153  27.669  1.00  0.00     0.014 A 
ATOM     34  C   UNL A   1      42.378  21.882  25.371  1.00  0.00     0.014 A 
ATOM     35  C   UNL A   1      43.012  22.444  28.025  1.00  0.00     0.010 A 
ATOM     36  C   UNL A   1      42.866  23.137  25.708  1.00  0.00     0.010 A 
ATOM     37  C   UNL A   1      43.149  23.444  27.047  1.00  0.00    -0.014 A 
BRANCH  37  38
ATOM     38  C   UNL A   1      43.540  24.826  27.419  1.00  0.00     0.031 A 
ATOM     39  C   UNL A   1      44.983  25.251  27.330  1.00  0.00     0.074 A 
ATOM     40  C   UNL A   1      42.607  25.687  27.865  1.00  0.00     0.049 A 
ATOM     41  N   UNL A   1      45.516  26.417  27.589  1.00  0.00    -0.248 NA
ATOM     42  C   UNL A   1      45.961  24.228  26.924  1.00  0.00     0.031 C 
ATOM     43  C   UNL A   1      41.189  25.374  28.056  1.00  0.00     0.029 A 
ATOM     44  N   UNL A   1      42.711  27.000  28.243  1.00  0.00    -0.354 N 
ATOM     45  C   UNL A   1      46.884  26.261  27.402  1.00  0.00     0.074 A 
ATOM     46  C   UNL A   1      47.107  24.872  27.068  1.00  0.00     0.031 C 
ATOM     47  C   UNL A   1      40.549  26.475  28.480  1.00  0.00     0.029 A 
ATOM     48  C   UNL A   1      41.515  27.558  28.630  1.00  0.00     0.049 A 
ATOM     49  H   UNL A   1      43.560  27.498  28.237  1.00  0.00     0.167 HD
ATOM     50  C   UNL A   1      47.865  27.191  27.469  1.00  0.00     0.034 A 
ATOM     51  C   UNL A   1      41.232  28.803  29.058  1.00  0.00     0.034 A 
ATOM     52  C   UNL A   1      47.635  28.574  27.788  1.00  0.00     0.049 A 
ATOM     53  C   UNL A   1      42.339  29.818  29.130  1.00  0.00     0.074 A 
ATOM     54  C   UNL A   1      48.547  29.612  27.826  1.00  0.00     0.029 A 
ATOM     55  N   UNL A   1      46.406  29.107  28.147  1.00  0.00    -0.354 N 
ATOM     56  N   UNL A   1      43.607  29.684  28.823  1.00  0.00    -0.248 NA
ATOM     57  C   UNL A   1      41.967  31.171  29.568  1.00  0.00     0.031 C 
ATOM     58  C   UNL A   1      47.879  30.763  28.257  1.00  0.00     0.029 A 
ATOM     59  C   UNL A   1      46.538  30.457  28.422  1.00  0.00     0.049 A 
ATOM     60  H   UNL A   1      45.564  28.600  28.197  1.00  0.00     0.167 HD
ATOM     61  C   UNL A   1      44.173  30.945  28.981  1.00  0.00     0.074 A 
ATOM     62  C   UNL A   1      43.104  31.830  29.398  1.00  0.00     0.031 C 
ATOM     63  C   UNL A   1      45.459  31.334  28.798  1.00  0.00     0.034 A 
BRANCH  50  64
ATOM     64  C   UNL A   1      49.273  26.739  27.167  1.00  0.00     0.023 A 
ATOM     65  C   UNL A   1      49.988  25.976  28.115  1.00  0.00     0.012 A 
ATOM     66  C   UNL A   1      49.884  27.052  25.937  1.00  0.00     0.148 A 
ATOM     67  C   UNL A   1      51.303  25.582  27.869  1.00  0.00     0.002 A 
ATOM     68  C   UNL A   1      51.175  26.607  25.676  1.00  0.00     0.091 A 
ATOM     69  F   UNL A   1      49.200  27.792  25.054  1.00  0.00    -0.205 F 
ATOM     70  C   UNL A   1      51.892  25.890  26.647  1.00  0.00     0.022 A 
BRANCH  68  71
ATOM     71  S   UNL A   1      51.991  26.878  24.100  1.00  0.00     0.127 S 
ATOM     72  O   UNL A   1      50.874  26.765  23.165  1.00  0.00    -0.237 OA
ATOM     73  O   UNL A   1      52.519  28.234  24.259  1.00  0.00    -0.237 OA
ATOM     74  O   UNL A   1      53.007  25.840  23.988  1.00  0.00    -0.744 OA
ENDBRANCH  68  71
ENDBRANCH  50  64
BRANCH  51  75
ATOM     75  C   UNL A   1      39.829  29.181  29.387  1.00  0.00     0.023 A 
ATOM     76  C   UNL A   1      38.921  29.460  28.346  1.00  0.00     0.012 A 
ATOM     77  C   UNL A   1      39.387  29.259  30.722  1.00  0.00     0.148 A 
ATOM     78  C   UNL A   1      37.613  29.853  28.628  1.00  0.00     0.002 A 
ATOM     79  C   UNL A   1      38.068  29.595  30.995  1.00  0.00     0.091 A 
ATOM     80  F   UNL A   1      40.267  28.990  31.697  1.00  0.00    -0.205 F 
ATOM     81  C   UNL A   1      37.184  29.912  29.951  1.00  0.00     0.022 A 
BRANCH  79  82
ATOM     82  S   UNL A   1      37.393  29.585  32.659  1.00  0.00     0.127 S 
ATOM     83  O   UNL A   1      38.311  30.480  33.359  1.00  0.00    -0.237 OA
ATOM     84  O   UNL A   1      36.051  30.124  32.440  1.00  0.00    -0.237 OA
ATOM     85  O   UNL A   1      37.422  28.194  33.091  1.00  0.00    -0.744 OA
ENDBRANCH  79  82
ENDBRANCH  51  75
BRANCH  63  86
ATOM     86  C   UNL A   1      45.775  32.798  28.975  1.00  0.00     0.023 A 
ATOM     87  C   UNL A   1      46.264  33.284  30.204  1.00  0.00     0.012 A 
ATOM     88  C   UNL A   1      45.625  33.688  27.892  1.00  0.00     0.148 A 
ATOM     89  C   UNL A   1      46.547  34.641  30.367  1.00  0.00     0.002 A 
ATOM     90  C   UNL A   1      45.969  35.024  28.043  1.00  0.00     0.091 A 
ATOM     91  F   UNL A   1      45.144  33.211  26.734  1.00  0.00    -0.205 F 
ATOM     92  C   UNL A   1      46.411  35.508  29.284  1.00  0.00     0.022 A 
BRANCH  90  93
ATOM     93  S   UNL A   1      45.925  36.189  26.677  1.00  0.00     0.127 S 
ATOM     94  O   UNL A   1      47.056  35.743  25.867  1.00  0.00    -0.237 OA
ATOM     95  O   UNL A   1      44.610  35.925  26.090  1.00  0.00    -0.237 OA
ATOM     96  O   UNL A   1      46.066  37.513  27.270  1.00  0.00    -0.744 OA
ENDBRANCH  90  93
ENDBRANCH  63  86
ENDBRANCH  37  38
ENDBRANCH  29  32
ENDBRANCH  27  28
ENDBRANCH  26  27
ENDBRANCH  25  26
ENDBRANCH   1  25
TORSDOF 19
ENDMDL
MODEL 3
REMARK VINA RESULT:     -10.0      2.530      4.080
REMARK SMILES N#Cc1ccc(C[N@H+]2CCCC[C@H]2C(=O)NCCCCCCNC(=O)c2ccc(-c3c4nc(c(-c5cccc(S(=O)(=O)[O-])c5F)c5ccc([nH]5)c(-c5cccc(S(=O)(=O)[O-])c5F)c5nc(c(-c6cccc(S(=O)(=O)[O-])c6F)c6ccc3[nH]6)C=C5)C=C4)cc2)c(F)c1
REMARK SMILES IDX 19 1 18 2 17 3 16 4 14 5 15 6 13 8 8 9 9 10 10 12 12 13
REMARK SMILES IDX 11 14 7 15 6 16 3 17 4 18 91 19 5 20 89 21 90 22 2 23 1 24
REMARK SMILES IDX 20 25 21 26 22 27 23 28 24 29 25 31 26 32 27 33 88 34 28 35
REMARK SMILES IDX 87 36 29 37 30 38 31 39 81 40 32 41 86 42 80 43 82 44 33 45
REMARK SMILES IDX 85 46 79 47 78 48 34 50 66 51 46 52 65 53 47 54 50 55 64 56
REMARK SMILES IDX 83 57 48 58 49 59 63 61 84 62 51 63 35 64 36 65 44 66 37 67
REMARK SMILES IDX 39 68 45 69 38 70 40 71 41 72 42 73 43 74 67 75 68 76 76 77
REMARK SMILES IDX 69 78 71 79 77 80 70 81 72 82 73 83 74 84 75 85 52 86 53 87
REMARK SMILES IDX 61 88 54 89 56 90 62 91 55 92 57 93 58 94 59 95 60 96
REMARK H PARENT 16 7 8 11 23 30 82 49 50 60
REMARK Flexibility Score: inf
ROOT
ATOM      1  C   UNL A   1      41.016  22.202  27.217  1.00  0.00     0.002 C 
ENDROOT
BRANCH   1   2
ATOM      2  C   UNL A   1      39.791  22.998  26.734  1.00  0.00     0.021 C 
BRANCH   2   3
ATOM      3  C   UNL A   1      38.701  22.107  26.128  1.00  0.00     0.116 C 
BRANCH   3   4
ATOM      4  N   UNL A   1      38.128  22.802  24.999  1.00  0.00    -0.351 N 
ATOM      5  C   UNL A   1      36.830  22.784  24.589  1.00  0.00     0.278 C 
ATOM      6  O   UNL A   1      36.638  22.859  23.373  1.00  0.00    -0.268 OA
ATOM      7  H   UNL A   1      38.745  23.353  24.466  1.00  0.00     0.163 HD
BRANCH   5   8
ATOM      8  C   UNL A   1      35.712  22.739  25.663  1.00  0.00     0.274 C 
ATOM      9  N   UNL A   1      34.446  23.386  25.229  1.00  0.00    -0.321 N 
ATOM     10  C   UNL A   1      33.792  22.710  24.109  1.00  0.00     0.263 C 
ATOM     11  H   UNL A   1      33.812  23.235  26.013  1.00  0.00     0.349 HD
ATOM     12  C   UNL A   1      33.589  21.207  24.372  1.00  0.00     0.062 C 
ATOM     13  C   UNL A   1      35.421  21.290  26.073  1.00  0.00     0.076 C 
ATOM     14  C   UNL A   1      34.826  20.502  24.915  1.00  0.00     0.012 C 
BRANCH   9  15
ATOM     15  C   UNL A   1      34.471  24.859  25.162  1.00  0.00     0.302 C 
BRANCH  15  16
ATOM     16  C   UNL A   1      33.161  25.578  24.932  1.00  0.00     0.042 A 
ATOM     17  C   UNL A   1      30.595  26.530  24.290  1.00  0.00     0.055 A 
ATOM     18  C   UNL A   1      30.861  26.029  25.569  1.00  0.00     0.020 A 
ATOM     19  C   UNL A   1      31.632  26.658  23.368  1.00  0.00     0.059 A 
ATOM     20  C   UNL A   1      32.136  25.549  25.887  1.00  0.00     0.014 A 
ATOM     21  C   UNL A   1      32.907  26.215  23.711  1.00  0.00     0.133 A 
ATOM     22  F   UNL A   1      33.884  26.314  22.796  1.00  0.00    -0.206 F 
BRANCH  17  23
ATOM     23  C   UNL A   1      29.251  26.866  23.912  1.00  0.00     0.099 C 
ATOM     24  N   UNL A   1      28.162  27.128  23.621  1.00  0.00    -0.192 NA
ENDBRANCH  17  23
ENDBRANCH  15  16
ENDBRANCH   9  15
ENDBRANCH   5   8
ENDBRANCH   3   4
ENDBRANCH   2   3
ENDBRANCH   1   2
BRANCH   1  25
ATOM     25  C   UNL A   1      40.790  20.688  27.281  1.00  0.00     0.002 C 
BRANCH  25  26
ATOM     26  C   UNL A   1      41.425  19.923  26.121  1.00  0.00     0.021 C 
BRANCH  26  27
ATOM     27  C   UNL A   1      42.793  19.346  26.453  1.00  0.00     0.116 C 
BRANCH  27  28
ATOM     28  N   UNL A   1      43.597  19.157  25.257  1.00  0.00    -0.352 N 
ATOM     29  C   UNL A   1      44.247  20.099  24.504  1.00  0.00     0.251 C 
ATOM     30  H   UNL A   1      43.685  18.226  24.945  1.00  0.00     0.163 HD
ATOM     31  O   UNL A   1      44.681  19.807  23.393  1.00  0.00    -0.269 OA
BRANCH  29  32
ATOM     32  C   UNL A   1      44.414  21.465  25.040  1.00  0.00     0.039 A 
ATOM     33  C   UNL A   1      45.135  21.644  26.221  1.00  0.00     0.014 A 
ATOM     34  C   UNL A   1      43.849  22.564  24.384  1.00  0.00     0.014 A 
ATOM     35  C   UNL A   1      45.301  22.930  26.735  1.00  0.00     0.010 A 
ATOM     36  C   UNL A   1      44.106  23.850  24.839  1.00  0.00     0.010 A 
ATOM     37  C   UNL A   1      44.800  24.045  26.041  1.00  0.00    -0.014 A 
BRANCH  37  38
ATOM     38  C   UNL A   1      44.953  25.415  26.591  1.00  0.00     0.031 A 
ATOM     39  C   UNL A   1      46.300  26.090  26.569  1.00  0.00     0.074 A 
ATOM     40  C   UNL A   1      43.892  26.039  27.134  1.00  0.00     0.049 A 
ATOM     41  N   UNL A   1      46.628  27.288  26.979  1.00  0.00    -0.248 NA
ATOM     42  C   UNL A   1      47.434  25.310  26.044  1.00  0.00     0.031 C 
ATOM     43  C   UNL A   1      42.551  25.465  27.271  1.00  0.00     0.029 A 
ATOM     44  N   UNL A   1      43.774  27.292  27.678  1.00  0.00    -0.354 N 
ATOM     45  C   UNL A   1      48.000  27.393  26.785  1.00  0.00     0.074 A 
ATOM     46  C   UNL A   1      48.454  26.118  26.279  1.00  0.00     0.031 C 
ATOM     47  C   UNL A   1      41.738  26.377  27.827  1.00  0.00     0.029 A 
ATOM     48  C   UNL A   1      42.505  27.582  28.123  1.00  0.00     0.049 A 
ATOM     49  H   UNL A   1      44.525  27.925  27.743  1.00  0.00     0.167 HD
ATOM     50  C   UNL A   1      48.808  28.462  26.978  1.00  0.00     0.034 A 
ATOM     51  C   UNL A   1      42.019  28.696  28.703  1.00  0.00     0.034 A 
ATOM     52  C   UNL A   1      48.349  29.733  27.470  1.00  0.00     0.049 A 
ATOM     53  C   UNL A   1      42.937  29.868  28.914  1.00  0.00     0.074 A 
ATOM     54  C   UNL A   1      49.070  30.900  27.648  1.00  0.00     0.029 A 
ATOM     55  N   UNL A   1      47.052  29.997  27.883  1.00  0.00    -0.354 N 
ATOM     56  N   UNL A   1      44.205  29.994  28.603  1.00  0.00    -0.248 NA
ATOM     57  C   UNL A   1      42.344  31.070  29.518  1.00  0.00     0.031 C 
ATOM     58  C   UNL A   1      48.220  31.854  28.216  1.00  0.00     0.029 A 
ATOM     59  C   UNL A   1      46.954  31.304  28.330  1.00  0.00     0.049 A 
ATOM     60  H   UNL A   1      46.309  29.351  27.861  1.00  0.00     0.167 HD
ATOM     61  C   UNL A   1      44.548  31.303  28.926  1.00  0.00     0.074 A 
ATOM     62  C   UNL A   1      43.349  31.930  29.443  1.00  0.00     0.031 C 
ATOM     63  C   UNL A   1      45.746  31.928  28.805  1.00  0.00     0.034 A 
BRANCH  50  64
ATOM     64  C   UNL A   1      50.269  28.302  26.634  1.00  0.00     0.023 A 
ATOM     65  C   UNL A   1      50.715  28.550  25.319  1.00  0.00     0.012 A 
ATOM     66  C   UNL A   1      51.204  27.924  27.617  1.00  0.00     0.148 A 
ATOM     67  C   UNL A   1      52.055  28.371  24.974  1.00  0.00     0.002 A 
ATOM     68  C   UNL A   1      52.548  27.803  27.279  1.00  0.00     0.091 A 
ATOM     69  F   UNL A   1      50.763  27.675  28.858  1.00  0.00    -0.205 F 
ATOM     70  C   UNL A   1      52.971  28.006  25.956  1.00  0.00     0.022 A 
BRANCH  68  71
ATOM     71  S   UNL A   1      53.819  27.420  28.488  1.00  0.00     0.127 S 
ATOM     72  O   UNL A   1      53.155  26.405  29.303  1.00  0.00    -0.237 OA
ATOM     73  O   UNL A   1      54.900  26.914  27.643  1.00  0.00    -0.237 OA
ATOM     74  O   UNL A   1      54.116  28.672  29.171  1.00  0.00    -0.744 OA
ENDBRANCH  68  71
ENDBRANCH  50  64
BRANCH  51  75
ATOM     75  C   UNL A   1      40.576  28.782  29.066  1.00  0.00     0.023 A 
ATOM     76  C   UNL A   1      39.611  28.915  28.049  1.00  0.00     0.012 A 
ATOM     77  C   UNL A   1      40.156  28.726  30.408  1.00  0.00     0.148 A 
ATOM     78  C   UNL A   1      38.257  29.036  28.364  1.00  0.00     0.002 A 
ATOM     79  C   UNL A   1      38.802  28.789  30.712  1.00  0.00     0.091 A 
ATOM     80  F   UNL A   1      41.091  28.598  31.361  1.00  0.00    -0.205 F 
ATOM     81  C   UNL A   1      37.852  28.964  29.694  1.00  0.00     0.022 A 
BRANCH  79  82
ATOM     82  S   UNL A   1      38.177  28.589  32.384  1.00  0.00     0.127 S 
ATOM     83  O   UNL A   1      39.038  29.499  33.136  1.00  0.00    -0.237 OA
ATOM     84  O   UNL A   1      36.790  29.029  32.238  1.00  0.00    -0.237 OA
ATOM     85  O   UNL A   1      38.332  27.176  32.700  1.00  0.00    -0.744 OA
ENDBRANCH  79  82
ENDBRANCH  51  75
BRANCH  63  86
ATOM     86  C   UNL A   1      45.808  33.389  29.170  1.00  0.00     0.023 A 
ATOM     87  C   UNL A   1      46.245  33.793  30.448  1.00  0.00     0.012 A 
ATOM     88  C   UNL A   1      45.470  34.370  28.216  1.00  0.00     0.148 A 
ATOM     89  C   UNL A   1      46.293  35.146  30.785  1.00  0.00     0.002 A 
ATOM     90  C   UNL A   1      45.581  35.716  28.538  1.00  0.00     0.091 A 
ATOM     91  F   UNL A   1      45.042  33.968  27.010  1.00  0.00    -0.205 F 
ATOM     92  C   UNL A   1      45.973  36.106  29.827  1.00  0.00     0.022 A 
BRANCH  90  93
ATOM     93  S   UNL A   1      45.290  37.019  27.338  1.00  0.00     0.127 S 
ATOM     94  O   UNL A   1      45.514  38.219  28.141  1.00  0.00    -0.237 OA
ATOM     95  O   UNL A   1      46.324  36.752  26.337  1.00  0.00    -0.237 OA
ATOM     96  O   UNL A   1      43.926  36.834  26.862  1.00  0.00    -0.744 OA
ENDBRANCH  90  93
ENDBRANCH  63  86
ENDBRANCH  37  38
ENDBRANCH  29  32
ENDBRANCH  27  28
ENDBRANCH  26  27
ENDBRANCH  25  26
ENDBRANCH   1  25
TORSDOF 19
ENDMDL
