MODEL 1
REMARK VINA RESULT:     -12.9      0.000      0.000
REMARK SMILES Cc1ccc(-c2c(C(=O)NCCCCCCNC(=O)c3ccc(-c4c5nc(c(-c6cccc(S(=O)(=O)[O-])c6F)c6ccc([nH]6)c(-c6cccc(S(=O)(=O)[O-])c6F)c6nc(c(-c7cccc(S(=O)(=O)[O-])c7F)c7ccc4[nH]7)C=C6)C=C5)cc3)nnn2Cc2c(F)cccc2Cl)cc1
REMARK SMILES IDX 14 1 13 2 12 3 11 4 10 5 8 6 9 7 7 9 6 10 85 11 83 12 84 13
REMARK SMILES IDX 5 14 1 15 2 16 3 17 96 18 4 19 95 20 86 21 87 22 88 23 93 24
REMARK SMILES IDX 89 25 90 26 92 27 94 28 91 29 15 30 16 31 17 32 18 33 19 35
REMARK SMILES IDX 20 36 21 37 82 38 22 39 81 40 23 41 24 42 25 43 75 44 26 45
REMARK SMILES IDX 80 46 74 47 76 48 27 49 79 50 73 51 72 52 28 54 60 55 40 56
REMARK SMILES IDX 59 57 41 58 44 59 58 60 77 61 42 62 43 63 57 65 78 66 45 67
REMARK SMILES IDX 29 68 30 69 38 70 31 71 33 72 39 73 32 74 34 75 35 76 36 77
REMARK SMILES IDX 37 78 61 79 62 80 70 81 63 82 65 83 71 84 64 85 66 86 67 87
REMARK SMILES IDX 68 88 69 89 46 90 47 91 55 92 48 93 50 94 56 95 49 96 51 97
REMARK SMILES IDX 52 98 53 99 54 100
REMARK H PARENT 10 8 17 34 76 53 44 64
REMARK Flexibility Score: inf
ROOT
ATOM      1  C   UNL A   1      31.803  29.069  27.621  1.00  0.00     0.002 C 
ENDROOT
BRANCH   1   2
ATOM      2  C   UNL A   1      31.667  27.974  26.555  1.00  0.00     0.002 C 
BRANCH   2   3
ATOM      3  C   UNL A   1      32.072  28.268  25.113  1.00  0.00     0.021 C 
BRANCH   3   4
ATOM      4  C   UNL A   1      33.532  28.128  24.711  1.00  0.00     0.116 C 
BRANCH   4   5
ATOM      5  N   UNL A   1      33.821  28.095  23.308  1.00  0.00    -0.351 N 
ATOM      6  C   UNL A   1      33.549  27.119  22.373  1.00  0.00     0.274 C 
ATOM      7  O   UNL A   1      33.858  27.429  21.216  1.00  0.00    -0.267 OA
ATOM      8  H   UNL A   1      34.285  28.889  22.958  1.00  0.00     0.163 HD
BRANCH   6   9
ATOM      9  C   UNL A   1      32.957  25.793  22.652  1.00  0.00     0.178 A 
ATOM     10  C   UNL A   1      33.361  24.597  23.261  1.00  0.00     0.102 A 
ATOM     11  N   UNL A   1      32.203  23.833  23.263  1.00  0.00    -0.239 N 
ATOM     12  N   UNL A   1      31.638  25.627  22.242  1.00  0.00    -0.124 NA
ATOM     13  N   UNL A   1      31.215  24.428  22.582  1.00  0.00    -0.066 NA
BRANCH  10  14
ATOM     14  C   UNL A   1      34.587  24.101  23.881  1.00  0.00     0.002 A 
ATOM     15  C   UNL A   1      38.278  22.706  25.635  1.00  0.00     0.044 C 
ATOM     16  C   UNL A   1      36.996  23.184  25.019  1.00  0.00    -0.051 A 
ATOM     17  C   UNL A   1      36.175  24.078  25.716  1.00  0.00     0.004 A 
ATOM     18  C   UNL A   1      36.591  22.729  23.761  1.00  0.00     0.004 A 
ATOM     19  C   UNL A   1      34.981  24.537  25.151  1.00  0.00     0.011 A 
ATOM     20  C   UNL A   1      35.393  23.178  23.199  1.00  0.00     0.011 A 
ENDBRANCH  10  14
BRANCH  11  21
ATOM     21  C   UNL A   1      31.936  22.517  23.837  1.00  0.00     0.187 C 
BRANCH  21  22
ATOM     22  C   UNL A   1      32.472  22.260  25.225  1.00  0.00     0.028 A 
ATOM     23  C   UNL A   1      33.408  21.221  25.353  1.00  0.00     0.129 A 
ATOM     24  C   UNL A   1      32.089  22.914  26.405  1.00  0.00     0.049 A 
ATOM     25  F   UNL A   1      33.721  20.480  24.279  1.00  0.00    -0.207 F 
ATOM     26  C   UNL A   1      34.017  20.906  26.565  1.00  0.00     0.040 A 
ATOM     27  C   UNL A   1      32.732  22.635  27.621  1.00  0.00     0.021 A 
ATOM     28  Cl  UNL A   1      30.801  24.062  26.479  1.00  0.00    -0.084 Cl
ATOM     29  C   UNL A   1      33.703  21.640  27.701  1.00  0.00     0.005 A 
ENDBRANCH  21  22
ENDBRANCH  11  21
ENDBRANCH   6   9
ENDBRANCH   4   5
ENDBRANCH   3   4
ENDBRANCH   2   3
ENDBRANCH   1   2
BRANCH   1  30
ATOM     30  C   UNL A   1      32.359  30.434  27.221  1.00  0.00     0.021 C 
BRANCH  30  31
ATOM     31  C   UNL A   1      33.875  30.539  27.117  1.00  0.00     0.116 C 
BRANCH  31  32
ATOM     32  N   UNL A   1      34.450  31.532  28.016  1.00  0.00    -0.352 N 
ATOM     33  C   UNL A   1      35.536  31.423  28.866  1.00  0.00     0.251 C 
ATOM     34  H   UNL A   1      34.002  32.409  28.016  1.00  0.00     0.163 HD
ATOM     35  O   UNL A   1      35.789  32.340  29.647  1.00  0.00    -0.269 OA
BRANCH  33  36
ATOM     36  C   UNL A   1      36.440  30.258  28.741  1.00  0.00     0.039 A 
ATOM     37  C   UNL A   1      36.715  29.512  29.892  1.00  0.00     0.014 A 
ATOM     38  C   UNL A   1      37.186  30.061  27.584  1.00  0.00     0.014 A 
ATOM     39  C   UNL A   1      37.899  28.785  29.969  1.00  0.00     0.010 A 
ATOM     40  C   UNL A   1      38.394  29.410  27.676  1.00  0.00     0.010 A 
ATOM     41  C   UNL A   1      38.781  28.849  28.896  1.00  0.00    -0.014 A 
BRANCH  41  42
ATOM     42  C   UNL A   1      40.162  28.408  28.942  1.00  0.00     0.031 A 
ATOM     43  C   UNL A   1      40.489  26.985  28.793  1.00  0.00     0.074 A 
ATOM     44  C   UNL A   1      41.126  29.354  28.934  1.00  0.00     0.049 A 
ATOM     45  N   UNL A   1      41.648  26.484  29.049  1.00  0.00    -0.248 NA
ATOM     46  C   UNL A   1      39.496  25.995  28.396  1.00  0.00     0.031 C 
ATOM     47  C   UNL A   1      42.521  29.204  28.548  1.00  0.00     0.029 A 
ATOM     48  N   UNL A   1      41.059  30.632  29.501  1.00  0.00    -0.354 N 
ATOM     49  C   UNL A   1      41.648  25.205  28.540  1.00  0.00     0.074 A 
ATOM     50  C   UNL A   1      40.257  24.899  28.322  1.00  0.00     0.031 C 
ATOM     51  C   UNL A   1      43.230  30.193  29.114  1.00  0.00     0.029 A 
ATOM     52  C   UNL A   1      42.337  30.881  30.032  1.00  0.00     0.049 A 
ATOM     53  H   UNL A   1      40.280  31.232  29.524  1.00  0.00     0.167 HD
ATOM     54  C   UNL A   1      42.841  24.649  28.191  1.00  0.00     0.034 A 
ATOM     55  C   UNL A   1      42.575  31.088  31.362  1.00  0.00     0.034 A 
ATOM     56  C   UNL A   1      43.959  25.450  28.722  1.00  0.00     0.049 A 
ATOM     57  C   UNL A   1      43.560  30.094  31.952  1.00  0.00     0.074 A 
ATOM     58  C   UNL A   1      44.846  26.346  28.148  1.00  0.00     0.029 A 
ATOM     59  N   UNL A   1      44.101  25.592  30.100  1.00  0.00    -0.354 N 
ATOM     60  N   UNL A   1      44.014  29.048  31.317  1.00  0.00    -0.248 NA
ATOM     61  C   UNL A   1      44.093  30.181  33.309  1.00  0.00     0.031 C 
ATOM     62  C   UNL A   1      45.436  27.109  29.195  1.00  0.00     0.029 A 
ATOM     63  C   UNL A   1      44.947  26.647  30.405  1.00  0.00     0.049 A 
ATOM     64  H   UNL A   1      43.658  25.019  30.768  1.00  0.00     0.167 HD
ATOM     65  C   UNL A   1      44.761  28.270  32.161  1.00  0.00     0.074 A 
ATOM     66  C   UNL A   1      44.849  29.069  33.373  1.00  0.00     0.031 C 
ATOM     67  C   UNL A   1      45.184  27.015  31.801  1.00  0.00     0.034 A 
BRANCH  54  68
ATOM     68  C   UNL A   1      43.041  23.540  27.159  1.00  0.00     0.023 A 
ATOM     69  C   UNL A   1      43.699  23.893  25.958  1.00  0.00     0.012 A 
ATOM     70  C   UNL A   1      42.542  22.212  27.209  1.00  0.00     0.148 A 
ATOM     71  C   UNL A   1      43.810  23.017  24.869  1.00  0.00     0.002 A 
ATOM     72  C   UNL A   1      42.676  21.326  26.136  1.00  0.00     0.091 A 
ATOM     73  F   UNL A   1      41.881  21.778  28.277  1.00  0.00    -0.205 F 
ATOM     74  C   UNL A   1      43.297  21.731  24.955  1.00  0.00     0.022 A 
BRANCH  72  75
ATOM     75  S   UNL A   1      42.044  19.636  26.190  1.00  0.00     0.127 S 
ATOM     76  O   UNL A   1      40.599  19.847  26.100  1.00  0.00    -0.237 OA
ATOM     77  O   UNL A   1      42.649  19.038  25.001  1.00  0.00    -0.237 OA
ATOM     78  O   UNL A   1      42.496  19.061  27.452  1.00  0.00    -0.744 OA
ENDBRANCH  72  75
ENDBRANCH  54  68
BRANCH  55  79
ATOM     79  C   UNL A   1      41.415  31.699  32.080  1.00  0.00     0.023 A 
ATOM     80  C   UNL A   1      41.012  32.988  31.647  1.00  0.00     0.012 A 
ATOM     81  C   UNL A   1      40.503  30.912  32.803  1.00  0.00     0.148 A 
ATOM     82  C   UNL A   1      39.687  33.406  31.780  1.00  0.00     0.002 A 
ATOM     83  C   UNL A   1      39.184  31.344  32.942  1.00  0.00     0.091 A 
ATOM     84  F   UNL A   1      40.906  29.722  33.267  1.00  0.00    -0.205 F 
ATOM     85  C   UNL A   1      38.764  32.566  32.392  1.00  0.00     0.022 A 
BRANCH  83  86
ATOM     86  S   UNL A   1      37.940  30.296  33.711  1.00  0.00     0.127 S 
ATOM     87  O   UNL A   1      36.706  30.875  33.194  1.00  0.00    -0.237 OA
ATOM     88  O   UNL A   1      38.267  28.972  33.182  1.00  0.00    -0.237 OA
ATOM     89  O   UNL A   1      38.176  30.438  35.141  1.00  0.00    -0.744 OA
ENDBRANCH  83  86
ENDBRANCH  55  79
BRANCH  67  90
ATOM     90  C   UNL A   1      45.836  25.994  32.723  1.00  0.00     0.023 A 
ATOM     91  C   UNL A   1      47.228  25.912  32.908  1.00  0.00     0.012 A 
ATOM     92  C   UNL A   1      45.040  25.162  33.558  1.00  0.00     0.148 A 
ATOM     93  C   UNL A   1      47.808  25.022  33.822  1.00  0.00     0.002 A 
ATOM     94  C   UNL A   1      45.615  24.365  34.546  1.00  0.00     0.091 A 
ATOM     95  F   UNL A   1      43.711  25.116  33.387  1.00  0.00    -0.205 F 
ATOM     96  C   UNL A   1      47.001  24.266  34.660  1.00  0.00     0.022 A 
BRANCH  94  97
ATOM     97  S   UNL A   1      44.598  23.574  35.803  1.00  0.00     0.127 S 
ATOM     98  O   UNL A   1      43.913  22.539  35.034  1.00  0.00    -0.237 OA
ATOM     99  O   UNL A   1      45.599  23.069  36.746  1.00  0.00    -0.237 OA
ATOM    100  O   UNL A   1      43.762  24.640  36.338  1.00  0.00    -0.744 OA
ENDBRANCH  94  97
ENDBRANCH  67  90
ENDBRANCH  41  42
ENDBRANCH  33  36
ENDBRANCH  31  32
ENDBRANCH  30  31
ENDBRANCH   1  30
TORSDOF 19
ENDMDL
MODEL 2
REMARK VINA RESULT:     -11.9      1.706      2.149
REMARK SMILES Cc1ccc(-c2c(C(=O)NCCCCCCNC(=O)c3ccc(-c4c5nc(c(-c6cccc(S(=O)(=O)[O-])c6F)c6ccc([nH]6)c(-c6cccc(S(=O)(=O)[O-])c6F)c6nc(c(-c7cccc(S(=O)(=O)[O-])c7F)c7ccc4[nH]7)C=C6)C=C5)cc3)nnn2Cc2c(F)cccc2Cl)cc1
REMARK SMILES IDX 14 1 13 2 12 3 11 4 10 5 8 6 9 7 7 9 6 10 85 11 83 12 84 13
REMARK SMILES IDX 5 14 1 15 2 16 3 17 96 18 4 19 95 20 86 21 87 22 88 23 93 24
REMARK SMILES IDX 89 25 90 26 92 27 94 28 91 29 15 30 16 31 17 32 18 33 19 35
REMARK SMILES IDX 20 36 21 37 82 38 22 39 81 40 23 41 24 42 25 43 75 44 26 45
REMARK SMILES IDX 80 46 74 47 76 48 27 49 79 50 73 51 72 52 28 54 60 55 40 56
REMARK SMILES IDX 59 57 41 58 44 59 58 60 77 61 42 62 43 63 57 65 78 66 45 67
REMARK SMILES IDX 29 68 30 69 38 70 31 71 33 72 39 73 32 74 34 75 35 76 36 77
REMARK SMILES IDX 37 78 61 79 62 80 70 81 63 82 65 83 71 84 64 85 66 86 67 87
REMARK SMILES IDX 68 88 69 89 46 90 47 91 55 92 48 93 50 94 56 95 49 96 51 97
REMARK SMILES IDX 52 98 53 99 54 100
REMARK H PARENT 10 8 17 34 76 53 44 64
REMARK Flexibility Score: inf
ROOT
ATOM      1  C   UNL A   1      31.568  28.199  26.758  1.00  0.00     0.002 C 
ENDROOT
BRANCH   1   2
ATOM      2  C   UNL A   1      31.743  27.387  25.469  1.00  0.00     0.002 C 
BRANCH   2   3
ATOM      3  C   UNL A   1      31.883  28.110  24.132  1.00  0.00     0.021 C 
BRANCH   3   4
ATOM      4  C   UNL A   1      33.261  28.240  23.500  1.00  0.00     0.116 C 
BRANCH   4   5
ATOM      5  N   UNL A   1      33.442  27.649  22.208  1.00  0.00    -0.351 N 
ATOM      6  C   UNL A   1      33.070  26.405  21.745  1.00  0.00     0.274 C 
ATOM      7  O   UNL A   1      33.302  26.224  20.544  1.00  0.00    -0.267 OA
ATOM      8  H   UNL A   1      33.904  28.218  21.550  1.00  0.00     0.163 HD
BRANCH   6   9
ATOM      9  C   UNL A   1      32.460  25.327  22.552  1.00  0.00     0.178 A 
ATOM     10  C   UNL A   1      32.894  24.364  23.474  1.00  0.00     0.102 A 
ATOM     11  N   UNL A   1      31.711  23.787  23.912  1.00  0.00    -0.239 N 
ATOM     12  N   UNL A   1      31.082  25.191  22.425  1.00  0.00    -0.124 NA
ATOM     13  N   UNL A   1      30.654  24.233  23.220  1.00  0.00    -0.066 NA
BRANCH  10  14
ATOM     14  C   UNL A   1      34.179  23.963  24.040  1.00  0.00     0.002 A 
ATOM     15  C   UNL A   1      38.036  22.849  25.631  1.00  0.00     0.044 C 
ATOM     16  C   UNL A   1      36.697  23.229  25.071  1.00  0.00    -0.051 A 
ATOM     17  C   UNL A   1      35.845  24.069  25.800  1.00  0.00     0.004 A 
ATOM     18  C   UNL A   1      36.269  22.736  23.836  1.00  0.00     0.004 A 
ATOM     19  C   UNL A   1      34.598  24.436  25.288  1.00  0.00     0.011 A 
ATOM     20  C   UNL A   1      35.018  23.094  23.326  1.00  0.00     0.011 A 
ENDBRANCH  10  14
BRANCH  11  21
ATOM     21  C   UNL A   1      31.473  22.779  24.941  1.00  0.00     0.187 C 
BRANCH  21  22
ATOM     22  C   UNL A   1      32.254  21.492  24.826  1.00  0.00     0.028 A 
ATOM     23  C   UNL A   1      33.018  21.119  25.944  1.00  0.00     0.129 A 
ATOM     24  C   UNL A   1      32.340  20.662  23.698  1.00  0.00     0.049 A 
ATOM     25  F   UNL A   1      33.071  21.936  27.007  1.00  0.00    -0.207 F 
ATOM     26  C   UNL A   1      33.749  19.935  25.992  1.00  0.00     0.040 A 
ATOM     27  C   UNL A   1      33.035  19.445  23.754  1.00  0.00     0.021 A 
ATOM     28  Cl  UNL A   1      31.650  21.068  22.167  1.00  0.00    -0.084 Cl
ATOM     29  C   UNL A   1      33.731  19.075  24.903  1.00  0.00     0.005 A 
ENDBRANCH  21  22
ENDBRANCH  11  21
ENDBRANCH   6   9
ENDBRANCH   4   5
ENDBRANCH   3   4
ENDBRANCH   2   3
ENDBRANCH   1   2
BRANCH   1  30
ATOM     30  C   UNL A   1      32.265  29.552  26.888  1.00  0.00     0.021 C 
BRANCH  30  31
ATOM     31  C   UNL A   1      33.725  29.517  27.318  1.00  0.00     0.116 C 
BRANCH  31  32
ATOM     32  N   UNL A   1      34.179  30.760  27.931  1.00  0.00    -0.352 N 
ATOM     33  C   UNL A   1      35.342  31.021  28.632  1.00  0.00     0.251 C 
ATOM     34  H   UNL A   1      33.569  31.527  27.829  1.00  0.00     0.163 HD
ATOM     35  O   UNL A   1      35.485  32.109  29.187  1.00  0.00    -0.269 OA
BRANCH  33  36
ATOM     36  C   UNL A   1      36.442  30.031  28.604  1.00  0.00     0.039 A 
ATOM     37  C   UNL A   1      36.685  29.285  29.762  1.00  0.00     0.014 A 
ATOM     38  C   UNL A   1      37.358  30.017  27.558  1.00  0.00     0.014 A 
ATOM     39  C   UNL A   1      37.955  28.762  29.985  1.00  0.00     0.010 A 
ATOM     40  C   UNL A   1      38.636  29.573  27.801  1.00  0.00     0.010 A 
ATOM     41  C   UNL A   1      38.949  29.025  29.048  1.00  0.00    -0.014 A 
BRANCH  41  42
ATOM     42  C   UNL A   1      40.366  28.818  29.275  1.00  0.00     0.031 A 
ATOM     43  C   UNL A   1      40.999  27.551  28.893  1.00  0.00     0.074 A 
ATOM     44  C   UNL A   1      41.103  29.882  29.663  1.00  0.00     0.049 A 
ATOM     45  N   UNL A   1      42.182  27.198  29.263  1.00  0.00    -0.248 NA
ATOM     46  C   UNL A   1      40.306  26.541  28.103  1.00  0.00     0.031 C 
ATOM     47  C   UNL A   1      42.542  30.063  29.542  1.00  0.00     0.029 A 
ATOM     48  N   UNL A   1      40.686  30.950  30.465  1.00  0.00    -0.354 N 
ATOM     49  C   UNL A   1      42.525  26.103  28.503  1.00  0.00     0.074 A 
ATOM     50  C   UNL A   1      41.279  25.638  27.950  1.00  0.00     0.031 C 
ATOM     51  C   UNL A   1      42.935  30.983  30.437  1.00  0.00     0.029 A 
ATOM     52  C   UNL A   1      41.786  31.265  31.282  1.00  0.00     0.049 A 
ATOM     53  H   UNL A   1      39.806  31.390  30.458  1.00  0.00     0.167 HD
ATOM     54  C   UNL A   1      43.847  25.855  28.290  1.00  0.00     0.034 A 
ATOM     55  C   UNL A   1      41.765  31.172  32.645  1.00  0.00     0.034 A 
ATOM     56  C   UNL A   1      44.678  26.671  29.193  1.00  0.00     0.049 A 
ATOM     57  C   UNL A   1      42.829  30.238  33.195  1.00  0.00     0.074 A 
ATOM     58  C   UNL A   1      45.440  27.814  29.014  1.00  0.00     0.029 A 
ATOM     59  N   UNL A   1      44.570  26.488  30.569  1.00  0.00    -0.354 N 
ATOM     60  N   UNL A   1      43.582  29.471  32.455  1.00  0.00    -0.248 NA
ATOM     61  C   UNL A   1      43.113  30.071  34.617  1.00  0.00     0.031 C 
ATOM     62  C   UNL A   1      45.689  28.379  30.297  1.00  0.00     0.029 A 
ATOM     63  C   UNL A   1      45.122  27.558  31.256  1.00  0.00     0.049 A 
ATOM     64  H   UNL A   1      44.156  25.703  30.997  1.00  0.00     0.167 HD
ATOM     65  C   UNL A   1      44.333  28.641  33.245  1.00  0.00     0.074 A 
ATOM     66  C   UNL A   1      44.063  29.118  34.593  1.00  0.00     0.031 C 
ATOM     67  C   UNL A   1      45.056  27.602  32.718  1.00  0.00     0.034 A 
BRANCH  54  68
ATOM     68  C   UNL A   1      44.430  25.085  27.106  1.00  0.00     0.023 A 
ATOM     69  C   UNL A   1      45.098  25.842  26.116  1.00  0.00     0.012 A 
ATOM     70  C   UNL A   1      44.285  23.703  26.817  1.00  0.00     0.148 A 
ATOM     71  C   UNL A   1      45.542  25.285  24.908  1.00  0.00     0.002 A 
ATOM     72  C   UNL A   1      44.753  23.138  25.627  1.00  0.00     0.091 A 
ATOM     73  F   UNL A   1      43.650  22.898  27.663  1.00  0.00    -0.205 F 
ATOM     74  C   UNL A   1      45.369  23.931  24.660  1.00  0.00     0.022 A 
BRANCH  72  75
ATOM     75  S   UNL A   1      44.572  21.381  25.251  1.00  0.00     0.127 S 
ATOM     76  O   UNL A   1      44.409  21.395  23.797  1.00  0.00    -0.237 OA
ATOM     77  O   UNL A   1      45.845  20.830  25.717  1.00  0.00    -0.237 OA
ATOM     78  O   UNL A   1      43.405  20.914  25.990  1.00  0.00    -0.744 OA
ENDBRANCH  72  75
ENDBRANCH  54  68
BRANCH  55  79
ATOM     79  C   UNL A   1      40.406  31.388  33.230  1.00  0.00     0.023 A 
ATOM     80  C   UNL A   1      39.702  30.227  33.639  1.00  0.00     0.012 A 
ATOM     81  C   UNL A   1      40.025  32.632  33.760  1.00  0.00     0.148 A 
ATOM     82  C   UNL A   1      38.767  30.283  34.673  1.00  0.00     0.002 A 
ATOM     83  C   UNL A   1      39.080  32.681  34.785  1.00  0.00     0.091 A 
ATOM     84  F   UNL A   1      40.647  33.735  33.324  1.00  0.00    -0.205 F 
ATOM     85  C   UNL A   1      38.486  31.505  35.274  1.00  0.00     0.022 A 
BRANCH  83  86
ATOM     86  S   UNL A   1      38.685  34.229  35.610  1.00  0.00     0.127 S 
ATOM     87  O   UNL A   1      38.030  34.974  34.541  1.00  0.00    -0.237 OA
ATOM     88  O   UNL A   1      37.798  33.798  36.691  1.00  0.00    -0.237 OA
ATOM     89  O   UNL A   1      39.970  34.739  36.065  1.00  0.00    -0.744 OA
ENDBRANCH  83  86
ENDBRANCH  55  79
BRANCH  67  90
ATOM     90  C   UNL A   1      45.752  26.505  33.512  1.00  0.00     0.023 A 
ATOM     91  C   UNL A   1      47.119  26.552  33.842  1.00  0.00     0.012 A 
ATOM     92  C   UNL A   1      45.003  25.440  34.082  1.00  0.00     0.148 A 
ATOM     93  C   UNL A   1      47.726  25.576  34.643  1.00  0.00     0.002 A 
ATOM     94  C   UNL A   1      45.586  24.539  34.972  1.00  0.00     0.091 A 
ATOM     95  F   UNL A   1      43.715  25.272  33.750  1.00  0.00    -0.205 F 
ATOM     96  C   UNL A   1      46.955  24.583  35.230  1.00  0.00     0.022 A 
BRANCH  94  97
ATOM     97  S   UNL A   1      44.573  23.406  35.936  1.00  0.00     0.127 S 
ATOM     98  O   UNL A   1      43.607  24.309  36.554  1.00  0.00    -0.237 OA
ATOM     99  O   UNL A   1      44.014  22.527  34.907  1.00  0.00    -0.237 OA
ATOM    100  O   UNL A   1      45.505  22.743  36.839  1.00  0.00    -0.744 OA
ENDBRANCH  94  97
ENDBRANCH  67  90
ENDBRANCH  41  42
ENDBRANCH  33  36
ENDBRANCH  31  32
ENDBRANCH  30  31
ENDBRANCH   1  30
TORSDOF 19
ENDMDL
MODEL 3
REMARK VINA RESULT:     -11.7      4.206      9.482
REMARK SMILES Cc1ccc(-c2c(C(=O)NCCCCCCNC(=O)c3ccc(-c4c5nc(c(-c6cccc(S(=O)(=O)[O-])c6F)c6ccc([nH]6)c(-c6cccc(S(=O)(=O)[O-])c6F)c6nc(c(-c7cccc(S(=O)(=O)[O-])c7F)c7ccc4[nH]7)C=C6)C=C5)cc3)nnn2Cc2c(F)cccc2Cl)cc1
REMARK SMILES IDX 14 1 13 2 12 3 11 4 10 5 8 6 9 7 7 9 6 10 85 11 83 12 84 13
REMARK SMILES IDX 5 14 1 15 2 16 3 17 96 18 4 19 95 20 86 21 87 22 88 23 93 24
REMARK SMILES IDX 89 25 90 26 92 27 94 28 91 29 15 30 16 31 17 32 18 33 19 35
REMARK SMILES IDX 20 36 21 37 82 38 22 39 81 40 23 41 24 42 25 43 75 44 26 45
REMARK SMILES IDX 80 46 74 47 76 48 27 49 79 50 73 51 72 52 28 54 60 55 40 56
REMARK SMILES IDX 59 57 41 58 44 59 58 60 77 61 42 62 43 63 57 65 78 66 45 67
REMARK SMILES IDX 29 68 30 69 38 70 31 71 33 72 39 73 32 74 34 75 35 76 36 77
REMARK SMILES IDX 37 78 61 79 62 80 70 81 63 82 65 83 71 84 64 85 66 86 67 87
REMARK SMILES IDX 68 88 69 89 46 90 47 91 55 92 48 93 50 94 56 95 49 96 51 97
REMARK SMILES IDX 52 98 53 99 54 100
REMARK H PARENT 10 8 17 34 76 53 44 64
REMARK Flexibility Score: inf
ROOT
ATOM      1  C   UNL A   1      37.765  21.463  25.061  1.00  0.00     0.002 C 
ENDROOT
BRANCH   1   2
ATOM      2  C   UNL A   1      36.352  20.872  25.140  1.00  0.00     0.002 C 
BRANCH   2   3
ATOM      3  C   UNL A   1      35.212  21.712  25.707  1.00  0.00     0.021 C 
BRANCH   3   4
ATOM      4  C   UNL A   1      33.863  21.056  25.961  1.00  0.00     0.116 C 
BRANCH   4   5
ATOM      5  N   UNL A   1      32.996  21.694  26.907  1.00  0.00    -0.351 N 
ATOM      6  C   UNL A   1      32.081  22.708  26.723  1.00  0.00     0.274 C 
ATOM      7  O   UNL A   1      31.425  22.985  27.734  1.00  0.00    -0.267 OA
ATOM      8  H   UNL A   1      33.065  21.357  27.829  1.00  0.00     0.163 HD
BRANCH   6   9
ATOM      9  C   UNL A   1      31.857  23.455  25.467  1.00  0.00     0.178 A 
ATOM     10  C   UNL A   1      31.984  24.780  25.023  1.00  0.00     0.102 A 
ATOM     11  N   UNL A   1      31.710  24.688  23.667  1.00  0.00    -0.239 N 
ATOM     12  N   UNL A   1      31.421  22.694  24.387  1.00  0.00    -0.124 NA
ATOM     13  N   UNL A   1      31.299  23.460  23.323  1.00  0.00    -0.066 NA
BRANCH  10  14
ATOM     14  C   UNL A   1      32.373  26.051  25.627  1.00  0.00     0.002 A 
ATOM     15  C   UNL A   1      33.529  29.862  27.297  1.00  0.00     0.044 C 
ATOM     16  C   UNL A   1      33.136  28.535  26.715  1.00  0.00    -0.051 A 
ATOM     17  C   UNL A   1      31.832  28.054  26.884  1.00  0.00     0.004 A 
ATOM     18  C   UNL A   1      34.065  27.753  26.023  1.00  0.00     0.004 A 
ATOM     19  C   UNL A   1      31.452  26.824  26.342  1.00  0.00     0.011 A 
ATOM     20  C   UNL A   1      33.689  26.517  25.488  1.00  0.00     0.011 A 
ENDBRANCH  10  14
BRANCH  11  21
ATOM     21  C   UNL A   1      31.763  25.704  22.619  1.00  0.00     0.187 C 
BRANCH  21  22
ATOM     22  C   UNL A   1      31.078  27.018  22.911  1.00  0.00     0.028 A 
ATOM     23  C   UNL A   1      31.875  28.172  22.833  1.00  0.00     0.129 A 
ATOM     24  C   UNL A   1      29.744  27.197  23.306  1.00  0.00     0.049 A 
ATOM     25  F   UNL A   1      33.186  28.051  22.580  1.00  0.00    -0.207 F 
ATOM     26  C   UNL A   1      31.362  29.451  23.033  1.00  0.00     0.040 A 
ATOM     27  C   UNL A   1      29.209  28.484  23.462  1.00  0.00     0.021 A 
ATOM     28  Cl  UNL A   1      28.677  25.887  23.665  1.00  0.00    -0.084 Cl
ATOM     29  C   UNL A   1      30.013  29.612  23.316  1.00  0.00     0.005 A 
ENDBRANCH  21  22
ENDBRANCH  11  21
ENDBRANCH   6   9
ENDBRANCH   4   5
ENDBRANCH   3   4
ENDBRANCH   2   3
ENDBRANCH   1   2
BRANCH   1  30
ATOM     30  C   UNL A   1      38.105  22.698  25.892  1.00  0.00     0.021 C 
BRANCH  30  31
ATOM     31  C   UNL A   1      39.484  22.717  26.537  1.00  0.00     0.116 C 
BRANCH  31  32
ATOM     32  N   UNL A   1      40.305  21.565  26.183  1.00  0.00    -0.352 N 
ATOM     33  C   UNL A   1      41.682  21.433  26.187  1.00  0.00     0.251 C 
ATOM     34  H   UNL A   1      39.806  20.763  25.903  1.00  0.00     0.163 HD
ATOM     35  O   UNL A   1      42.195  20.413  25.727  1.00  0.00    -0.269 OA
BRANCH  33  36
ATOM     36  C   UNL A   1      42.507  22.467  26.848  1.00  0.00     0.039 A 
ATOM     37  C   UNL A   1      42.512  22.510  28.247  1.00  0.00     0.014 A 
ATOM     38  C   UNL A   1      43.056  23.513  26.115  1.00  0.00     0.014 A 
ATOM     39  C   UNL A   1      42.805  23.707  28.894  1.00  0.00     0.010 A 
ATOM     40  C   UNL A   1      43.272  24.720  26.738  1.00  0.00     0.010 A 
ATOM     41  C   UNL A   1      43.061  24.830  28.115  1.00  0.00    -0.014 A 
BRANCH  41  42
ATOM     42  C   UNL A   1      43.080  26.190  28.619  1.00  0.00     0.031 A 
ATOM     43  C   UNL A   1      41.884  27.034  28.516  1.00  0.00     0.074 A 
ATOM     44  C   UNL A   1      44.153  26.578  29.343  1.00  0.00     0.049 A 
ATOM     45  N   UNL A   1      41.883  28.306  28.722  1.00  0.00    -0.248 NA
ATOM     46  C   UNL A   1      40.591  26.504  28.105  1.00  0.00     0.031 C 
ATOM     47  C   UNL A   1      44.239  27.676  30.293  1.00  0.00     0.029 A 
ATOM     48  N   UNL A   1      45.477  26.155  29.182  1.00  0.00    -0.354 N 
ATOM     49  C   UNL A   1      40.564  28.693  28.802  1.00  0.00     0.074 A 
ATOM     50  C   UNL A   1      39.827  27.592  28.235  1.00  0.00     0.031 C 
ATOM     51  C   UNL A   1      45.527  28.027  30.427  1.00  0.00     0.029 A 
ATOM     52  C   UNL A   1      46.271  27.291  29.418  1.00  0.00     0.049 A 
ATOM     53  H   UNL A   1      45.789  25.250  28.952  1.00  0.00     0.167 HD
ATOM     54  C   UNL A   1      40.262  29.813  29.515  1.00  0.00     0.034 A 
ATOM     55  C   UNL A   1      47.092  27.847  28.477  1.00  0.00     0.034 A 
ATOM     56  C   UNL A   1      41.486  30.574  29.823  1.00  0.00     0.049 A 
ATOM     57  C   UNL A   1      46.765  29.302  28.188  1.00  0.00     0.074 A 
ATOM     58  C   UNL A   1      42.249  30.729  30.969  1.00  0.00     0.029 A 
ATOM     59  N   UNL A   1      42.246  31.095  28.779  1.00  0.00    -0.354 N 
ATOM     60  N   UNL A   1      45.716  29.923  28.652  1.00  0.00    -0.248 NA
ATOM     61  C   UNL A   1      47.574  30.166  27.333  1.00  0.00     0.031 C 
ATOM     62  C   UNL A   1      43.520  31.241  30.583  1.00  0.00     0.029 A 
ATOM     63  C   UNL A   1      43.515  31.442  29.213  1.00  0.00     0.049 A 
ATOM     64  H   UNL A   1      41.923  31.201  27.854  1.00  0.00     0.167 HD
ATOM     65  C   UNL A   1      45.619  31.171  28.096  1.00  0.00     0.074 A 
ATOM     66  C   UNL A   1      46.856  31.304  27.341  1.00  0.00     0.031 C 
ATOM     67  C   UNL A   1      44.502  31.950  28.260  1.00  0.00     0.034 A 
BRANCH  54  68
ATOM     68  C   UNL A   1      38.917  30.116  30.173  1.00  0.00     0.023 A 
ATOM     69  C   UNL A   1      38.419  29.156  31.084  1.00  0.00     0.012 A 
ATOM     70  C   UNL A   1      38.043  31.199  29.895  1.00  0.00     0.148 A 
ATOM     71  C   UNL A   1      37.133  29.233  31.638  1.00  0.00     0.002 A 
ATOM     72  C   UNL A   1      36.771  31.295  30.469  1.00  0.00     0.091 A 
ATOM     73  F   UNL A   1      38.394  32.147  29.033  1.00  0.00    -0.205 F 
ATOM     74  C   UNL A   1      36.305  30.302  31.330  1.00  0.00     0.022 A 
BRANCH  72  75
ATOM     75  S   UNL A   1      35.653  32.668  30.121  1.00  0.00     0.127 S 
ATOM     76  O   UNL A   1      35.399  32.501  28.690  1.00  0.00    -0.237 OA
ATOM     77  O   UNL A   1      34.510  32.367  30.983  1.00  0.00    -0.237 OA
ATOM     78  O   UNL A   1      36.368  33.890  30.472  1.00  0.00    -0.744 OA
ENDBRANCH  72  75
ENDBRANCH  54  68
BRANCH  55  79
ATOM     79  C   UNL A   1      47.611  26.855  27.487  1.00  0.00     0.023 A 
ATOM     80  C   UNL A   1      46.765  26.557  26.388  1.00  0.00     0.012 A 
ATOM     81  C   UNL A   1      48.983  26.576  27.379  1.00  0.00     0.148 A 
ATOM     82  C   UNL A   1      47.298  26.157  25.162  1.00  0.00     0.002 A 
ATOM     83  C   UNL A   1      49.506  26.164  26.153  1.00  0.00     0.091 A 
ATOM     84  F   UNL A   1      49.770  26.797  28.440  1.00  0.00    -0.205 F 
ATOM     85  C   UNL A   1      48.673  26.000  25.034  1.00  0.00     0.022 A 
BRANCH  83  86
ATOM     86  S   UNL A   1      51.278  25.958  25.921  1.00  0.00     0.127 S 
ATOM     87  O   UNL A   1      51.371  25.818  24.473  1.00  0.00    -0.237 OA
ATOM     88  O   UNL A   1      51.817  27.209  26.453  1.00  0.00    -0.237 OA
ATOM     89  O   UNL A   1      51.615  24.783  26.711  1.00  0.00    -0.744 OA
ENDBRANCH  83  86
ENDBRANCH  55  79
BRANCH  67  90
ATOM     90  C   UNL A   1      44.205  33.251  27.526  1.00  0.00     0.023 A 
ATOM     91  C   UNL A   1      43.846  33.296  26.167  1.00  0.00     0.012 A 
ATOM     92  C   UNL A   1      44.140  34.482  28.236  1.00  0.00     0.148 A 
ATOM     93  C   UNL A   1      43.497  34.493  25.528  1.00  0.00     0.002 A 
ATOM     94  C   UNL A   1      43.679  35.646  27.626  1.00  0.00     0.091 A 
ATOM     95  F   UNL A   1      44.548  34.543  29.512  1.00  0.00    -0.205 F 
ATOM     96  C   UNL A   1      43.388  35.664  26.262  1.00  0.00     0.022 A 
BRANCH  94  97
ATOM     97  S   UNL A   1      43.289  37.109  28.599  1.00  0.00     0.127 S 
ATOM     98  O   UNL A   1      44.472  37.939  28.391  1.00  0.00    -0.237 OA
ATOM     99  O   UNL A   1      42.075  37.606  27.949  1.00  0.00    -0.237 OA
ATOM    100  O   UNL A   1      43.077  36.615  29.954  1.00  0.00    -0.744 OA
ENDBRANCH  94  97
ENDBRANCH  67  90
ENDBRANCH  41  42
ENDBRANCH  33  36
ENDBRANCH  31  32
ENDBRANCH  30  31
ENDBRANCH   1  30
TORSDOF 19
ENDMDL
