MODEL 1
REMARK VINA RESULT:     -12.5      0.000      0.000
REMARK SMILES Cc1noc(C[N@H+]2CCC[C@@H](c3ccc(C(=O)NCCCCCCNC(=O)c4ccc(-c5c6nc(c(-c7cccc(S(=O)(=O)[O-])c7F)c7ccc([nH]7)c(-c7cccc(S(=O)(=O)[O-])c7F)c7nc(c(-c8cccc(S(=O)(=O)[O-])c8F)c8ccc5[nH]8)C=C7)C=C6)cc4)cc3)C2)n1
REMARK SMILES IDX 21 1 20 2 19 3 18 4 16 5 17 6 15 8 12 9 13 10 92 11 14 12
REMARK SMILES IDX 91 13 11 14 7 15 8 16 93 17 9 19 10 20 6 21 5 22 1 23 2 24
REMARK SMILES IDX 3 25 94 26 4 27 22 28 23 29 24 30 25 31 26 32 27 34 28 35
REMARK SMILES IDX 29 36 90 37 30 38 89 39 31 40 32 41 33 42 83 43 34 44 88 45
REMARK SMILES IDX 82 46 84 47 35 48 87 49 81 50 80 51 36 53 68 54 48 55 67 56
REMARK SMILES IDX 49 57 52 58 66 59 85 60 50 61 51 62 65 64 86 65 53 66 37 67
REMARK SMILES IDX 38 68 46 69 39 70 41 71 47 72 40 73 42 74 43 75 44 76 45 77
REMARK SMILES IDX 69 78 70 79 78 80 71 81 73 82 79 83 72 84 74 85 75 86 76 87
REMARK SMILES IDX 77 88 54 89 55 90 63 91 56 92 58 93 64 94 57 95 59 96 60 97
REMARK SMILES IDX 61 98 62 99
REMARK H PARENT 18 7 7 18 25 33 84 52 52 63
REMARK Flexibility Score: inf
ROOT
ATOM      1  C   UNL A   1      32.797  28.380  24.584  1.00  0.00     0.002 C 
ENDROOT
BRANCH   1   2
ATOM      2  C   UNL A   1      32.337  29.009  23.263  1.00  0.00     0.021 C 
BRANCH   2   3
ATOM      3  C   UNL A   1      31.544  28.036  22.389  1.00  0.00     0.116 C 
BRANCH   3   4
ATOM      4  N   UNL A   1      30.146  28.081  22.768  1.00  0.00    -0.352 N 
ATOM      5  C   UNL A   1      29.349  27.174  23.414  1.00  0.00     0.251 C 
ATOM      6  O   UNL A   1      28.160  27.459  23.565  1.00  0.00    -0.269 OA
ATOM      7  H   UNL A   1      29.686  28.914  22.517  1.00  0.00     0.163 HD
BRANCH   5   8
ATOM      8  C   UNL A   1      29.877  25.914  24.005  1.00  0.00     0.039 A 
ATOM      9  C   UNL A   1      31.010  23.684  25.317  1.00  0.00    -0.039 A 
ATOM     10  C   UNL A   1      30.469  24.753  26.050  1.00  0.00     0.005 A 
ATOM     11  C   UNL A   1      30.900  23.711  23.924  1.00  0.00     0.005 A 
ATOM     12  C   UNL A   1      29.925  25.860  25.401  1.00  0.00     0.014 A 
ATOM     13  C   UNL A   1      30.307  24.802  23.277  1.00  0.00     0.014 A 
BRANCH   9  14
ATOM     14  C   UNL A   1      31.676  22.501  26.005  1.00  0.00     0.074 C 
ATOM     15  N   UNL A   1      33.126  20.458  25.584  1.00  0.00    -0.327 N 
ATOM     16  C   UNL A   1      34.134  20.993  26.508  1.00  0.00     0.262 C 
ATOM     17  C   UNL A   1      32.313  21.533  24.983  1.00  0.00     0.270 C 
ATOM     18  H   UNL A   1      32.502  19.869  26.134  1.00  0.00     0.348 HD
ATOM     19  C   UNL A   1      33.490  21.833  27.610  1.00  0.00     0.062 C 
ATOM     20  C   UNL A   1      32.711  23.001  27.019  1.00  0.00     0.020 C 
BRANCH  15  21
ATOM     21  C   UNL A   1      33.746  19.606  24.530  1.00  0.00     0.364 C 
BRANCH  21  22
ATOM     22  C   UNL A   1      33.714  18.131  24.800  1.00  0.00     0.281 A 
ATOM     23  C   UNL A   1      32.310  15.046  25.679  1.00  0.00     0.093 C 
ATOM     24  C   UNL A   1      33.150  16.161  25.203  1.00  0.00     0.169 A 
ATOM     25  N   UNL A   1      34.108  16.015  24.278  1.00  0.00    -0.063 NA
ATOM     26  N   UNL A   1      32.918  17.448  25.596  1.00  0.00    -0.191 NA
ATOM     27  O   UNL A   1      34.491  17.334  24.006  1.00  0.00    -0.333 OA
ENDBRANCH  21  22
ENDBRANCH  15  21
ENDBRANCH   9  14
ENDBRANCH   5   8
ENDBRANCH   3   4
ENDBRANCH   2   3
ENDBRANCH   1   2
BRANCH   1  28
ATOM     28  C   UNL A   1      31.962  28.789  25.803  1.00  0.00     0.002 C 
BRANCH  28  29
ATOM     29  C   UNL A   1      31.837  30.301  26.007  1.00  0.00     0.021 C 
BRANCH  29  30
ATOM     30  C   UNL A   1      32.584  30.820  27.230  1.00  0.00     0.116 C 
BRANCH  30  31
ATOM     31  N   UNL A   1      32.797  32.257  27.148  1.00  0.00    -0.352 N 
ATOM     32  C   UNL A   1      33.786  33.015  27.725  1.00  0.00     0.251 C 
ATOM     33  H   UNL A   1      32.143  32.753  26.605  1.00  0.00     0.163 HD
ATOM     34  O   UNL A   1      33.678  34.235  27.779  1.00  0.00    -0.269 OA
BRANCH  32  35
ATOM     35  C   UNL A   1      34.978  32.344  28.280  1.00  0.00     0.039 A 
ATOM     36  C   UNL A   1      36.207  33.006  28.257  1.00  0.00     0.014 A 
ATOM     37  C   UNL A   1      34.876  31.060  28.824  1.00  0.00     0.014 A 
ATOM     38  C   UNL A   1      37.327  32.396  28.824  1.00  0.00     0.010 A 
ATOM     39  C   UNL A   1      35.972  30.489  29.457  1.00  0.00     0.010 A 
ATOM     40  C   UNL A   1      37.212  31.144  29.453  1.00  0.00    -0.014 A 
BRANCH  40  41
ATOM     41  C   UNL A   1      38.375  30.501  30.111  1.00  0.00     0.031 A 
ATOM     42  C   UNL A   1      38.777  30.913  31.502  1.00  0.00     0.074 A 
ATOM     43  C   UNL A   1      39.118  29.610  29.427  1.00  0.00     0.049 A 
ATOM     44  N   UNL A   1      39.794  30.511  32.220  1.00  0.00    -0.248 NA
ATOM     45  C   UNL A   1      37.942  31.930  32.163  1.00  0.00     0.031 C 
ATOM     46  C   UNL A   1      38.870  29.182  28.049  1.00  0.00     0.029 A 
ATOM     47  N   UNL A   1      40.248  28.921  29.789  1.00  0.00    -0.354 N 
ATOM     48  C   UNL A   1      39.740  31.246  33.398  1.00  0.00     0.074 A 
ATOM     49  C   UNL A   1      38.616  32.149  33.282  1.00  0.00     0.031 C 
ATOM     50  C   UNL A   1      39.810  28.294  27.687  1.00  0.00     0.029 A 
ATOM     51  C   UNL A   1      40.747  28.117  28.791  1.00  0.00     0.049 A 
ATOM     52  H   UNL A   1      40.662  28.994  30.680  1.00  0.00     0.167 HD
ATOM     53  C   UNL A   1      40.534  31.155  34.492  1.00  0.00     0.034 A 
ATOM     54  C   UNL A   1      41.840  27.330  28.768  1.00  0.00     0.034 A 
ATOM     55  C   UNL A   1      41.630  30.234  34.613  1.00  0.00     0.049 A 
ATOM     56  C   UNL A   1      42.700  27.240  29.999  1.00  0.00     0.074 A 
ATOM     57  C   UNL A   1      42.450  30.010  35.705  1.00  0.00     0.029 A 
ATOM     58  N   UNL A   1      42.068  29.389  33.605  1.00  0.00    -0.354 N 
ATOM     59  N   UNL A   1      42.548  27.834  31.158  1.00  0.00    -0.248 NA
ATOM     60  C   UNL A   1      43.863  26.344  29.932  1.00  0.00     0.031 C 
ATOM     61  C   UNL A   1      43.402  29.051  35.346  1.00  0.00     0.029 A 
ATOM     62  C   UNL A   1      43.153  28.650  34.043  1.00  0.00     0.049 A 
ATOM     63  H   UNL A   1      41.665  29.322  32.709  1.00  0.00     0.167 HD
ATOM     64  C   UNL A   1      43.569  27.353  31.970  1.00  0.00     0.074 A 
ATOM     65  C   UNL A   1      44.323  26.406  31.174  1.00  0.00     0.031 C 
ATOM     66  C   UNL A   1      43.862  27.674  33.255  1.00  0.00     0.034 A 
BRANCH  53  67
ATOM     67  C   UNL A   1      40.212  32.051  35.662  1.00  0.00     0.023 A 
ATOM     68  C   UNL A   1      40.982  33.212  35.884  1.00  0.00     0.012 A 
ATOM     69  C   UNL A   1      39.130  31.768  36.519  1.00  0.00     0.148 A 
ATOM     70  C   UNL A   1      40.710  34.052  36.963  1.00  0.00     0.002 A 
ATOM     71  C   UNL A   1      38.835  32.636  37.564  1.00  0.00     0.091 A 
ATOM     72  F   UNL A   1      38.421  30.650  36.308  1.00  0.00    -0.205 F 
ATOM     73  C   UNL A   1      39.631  33.769  37.796  1.00  0.00     0.022 A 
BRANCH  71  74
ATOM     74  S   UNL A   1      37.418  32.406  38.643  1.00  0.00     0.127 S 
ATOM     75  O   UNL A   1      36.333  32.950  37.827  1.00  0.00    -0.237 OA
ATOM     76  O   UNL A   1      37.387  30.951  38.805  1.00  0.00    -0.237 OA
ATOM     77  O   UNL A   1      37.716  33.146  39.861  1.00  0.00    -0.744 OA
ENDBRANCH  71  74
ENDBRANCH  53  67
BRANCH  54  78
ATOM     78  C   UNL A   1      42.145  26.512  27.560  1.00  0.00     0.023 A 
ATOM     79  C   UNL A   1      42.768  27.123  26.454  1.00  0.00     0.012 A 
ATOM     80  C   UNL A   1      41.847  25.136  27.508  1.00  0.00     0.148 A 
ATOM     81  C   UNL A   1      43.058  26.388  25.304  1.00  0.00     0.002 A 
ATOM     82  C   UNL A   1      42.189  24.398  26.379  1.00  0.00     0.091 A 
ATOM     83  F   UNL A   1      41.249  24.575  28.566  1.00  0.00    -0.205 F 
ATOM     84  C   UNL A   1      42.777  25.025  25.270  1.00  0.00     0.022 A 
BRANCH  82  85
ATOM     85  S   UNL A   1      41.982  22.616  26.293  1.00  0.00     0.127 S 
ATOM     86  O   UNL A   1      40.528  22.482  26.306  1.00  0.00    -0.237 OA
ATOM     87  O   UNL A   1      42.621  22.301  25.016  1.00  0.00    -0.237 OA
ATOM     88  O   UNL A   1      42.674  22.082  27.459  1.00  0.00    -0.744 OA
ENDBRANCH  82  85
ENDBRANCH  54  78
BRANCH  66  89
ATOM     89  C   UNL A   1      45.022  26.964  33.905  1.00  0.00     0.023 A 
ATOM     90  C   UNL A   1      46.331  27.460  33.746  1.00  0.00     0.012 A 
ATOM     91  C   UNL A   1      44.800  25.847  34.736  1.00  0.00     0.148 A 
ATOM     92  C   UNL A   1      47.406  26.835  34.377  1.00  0.00     0.002 A 
ATOM     93  C   UNL A   1      45.869  25.263  35.404  1.00  0.00     0.091 A 
ATOM     94  F   UNL A   1      43.550  25.380  34.860  1.00  0.00    -0.205 F 
ATOM     95  C   UNL A   1      47.174  25.746  35.214  1.00  0.00     0.022 A 
BRANCH  93  96
ATOM     96  S   UNL A   1      45.655  23.922  36.579  1.00  0.00     0.127 S 
ATOM     97  O   UNL A   1      45.179  22.842  35.715  1.00  0.00    -0.237 OA
ATOM     98  O   UNL A   1      47.014  23.739  37.091  1.00  0.00    -0.237 OA
ATOM     99  O   UNL A   1      44.696  24.400  37.565  1.00  0.00    -0.744 OA
ENDBRANCH  93  96
ENDBRANCH  66  89
ENDBRANCH  40  41
ENDBRANCH  32  35
ENDBRANCH  30  31
ENDBRANCH  29  30
ENDBRANCH  28  29
ENDBRANCH   1  28
TORSDOF 19
ENDMDL
MODEL 2
REMARK VINA RESULT:     -12.4      2.002      2.633
REMARK SMILES Cc1noc(C[N@H+]2CCC[C@@H](c3ccc(C(=O)NCCCCCCNC(=O)c4ccc(-c5c6nc(c(-c7cccc(S(=O)(=O)[O-])c7F)c7ccc([nH]7)c(-c7cccc(S(=O)(=O)[O-])c7F)c7nc(c(-c8cccc(S(=O)(=O)[O-])c8F)c8ccc5[nH]8)C=C7)C=C6)cc4)cc3)C2)n1
REMARK SMILES IDX 21 1 20 2 19 3 18 4 16 5 17 6 15 8 12 9 13 10 92 11 14 12
REMARK SMILES IDX 91 13 11 14 7 15 8 16 93 17 9 19 10 20 6 21 5 22 1 23 2 24
REMARK SMILES IDX 3 25 94 26 4 27 22 28 23 29 24 30 25 31 26 32 27 34 28 35
REMARK SMILES IDX 29 36 90 37 30 38 89 39 31 40 32 41 33 42 83 43 34 44 88 45
REMARK SMILES IDX 82 46 84 47 35 48 87 49 81 50 80 51 36 53 68 54 48 55 67 56
REMARK SMILES IDX 49 57 52 58 66 59 85 60 50 61 51 62 65 64 86 65 53 66 37 67
REMARK SMILES IDX 38 68 46 69 39 70 41 71 47 72 40 73 42 74 43 75 44 76 45 77
REMARK SMILES IDX 69 78 70 79 78 80 71 81 73 82 79 83 72 84 74 85 75 86 76 87
REMARK SMILES IDX 77 88 54 89 55 90 63 91 56 92 58 93 64 94 57 95 59 96 60 97
REMARK SMILES IDX 61 98 62 99
REMARK H PARENT 18 7 7 18 25 33 84 52 52 63
REMARK Flexibility Score: inf
ROOT
ATOM      1  C   UNL A   1      32.942  27.757  24.222  1.00  0.00     0.002 C 
ENDROOT
BRANCH   1   2
ATOM      2  C   UNL A   1      31.830  28.784  23.972  1.00  0.00     0.021 C 
BRANCH   2   3
ATOM      3  C   UNL A   1      31.051  28.509  22.685  1.00  0.00     0.116 C 
BRANCH   3   4
ATOM      4  N   UNL A   1      29.649  28.323  23.002  1.00  0.00    -0.352 N 
ATOM      5  C   UNL A   1      28.973  27.263  23.544  1.00  0.00     0.251 C 
ATOM      6  O   UNL A   1      27.750  27.361  23.661  1.00  0.00    -0.269 OA
ATOM      7  H   UNL A   1      29.081  29.098  22.791  1.00  0.00     0.163 HD
BRANCH   5   8
ATOM      8  C   UNL A   1      29.659  26.050  24.066  1.00  0.00     0.039 A 
ATOM      9  C   UNL A   1      31.070  23.913  25.258  1.00  0.00    -0.039 A 
ATOM     10  C   UNL A   1      30.386  24.854  26.046  1.00  0.00     0.005 A 
ATOM     11  C   UNL A   1      30.967  24.011  23.868  1.00  0.00     0.005 A 
ATOM     12  C   UNL A   1      29.704  25.917  25.456  1.00  0.00     0.014 A 
ATOM     13  C   UNL A   1      30.239  25.051  23.279  1.00  0.00     0.014 A 
BRANCH   9  14
ATOM     14  C   UNL A   1      31.882  22.788  25.883  1.00  0.00     0.074 C 
ATOM     15  N   UNL A   1      32.983  20.554  25.380  1.00  0.00    -0.327 N 
ATOM     16  C   UNL A   1      34.282  21.113  25.778  1.00  0.00     0.262 C 
ATOM     17  C   UNL A   1      32.059  21.603  24.907  1.00  0.00     0.270 C 
ATOM     18  H   UNL A   1      32.573  20.134  26.213  1.00  0.00     0.348 HD
ATOM     19  C   UNL A   1      34.120  22.186  26.855  1.00  0.00     0.062 C 
ATOM     20  C   UNL A   1      33.236  23.324  26.360  1.00  0.00     0.020 C 
BRANCH  15  21
ATOM     21  C   UNL A   1      33.138  19.480  24.358  1.00  0.00     0.364 C 
BRANCH  21  22
ATOM     22  C   UNL A   1      33.251  18.089  24.907  1.00  0.00     0.281 A 
ATOM     23  C   UNL A   1      32.196  14.853  25.728  1.00  0.00     0.093 C 
ATOM     24  C   UNL A   1      32.939  16.094  25.442  1.00  0.00     0.169 A 
ATOM     25  N   UNL A   1      34.234  16.113  25.102  1.00  0.00    -0.063 NA
ATOM     26  N   UNL A   1      32.311  17.307  25.392  1.00  0.00    -0.191 NA
ATOM     27  O   UNL A   1      34.449  17.450  24.743  1.00  0.00    -0.333 OA
ENDBRANCH  21  22
ENDBRANCH  15  21
ENDBRANCH   9  14
ENDBRANCH   5   8
ENDBRANCH   3   4
ENDBRANCH   2   3
ENDBRANCH   1   2
BRANCH   1  28
ATOM     28  C   UNL A   1      32.997  27.224  25.658  1.00  0.00     0.002 C 
BRANCH  28  29
ATOM     29  C   UNL A   1      33.219  28.297  26.726  1.00  0.00     0.021 C 
BRANCH  29  30
ATOM     30  C   UNL A   1      34.280  29.326  26.352  1.00  0.00     0.116 C 
BRANCH  30  31
ATOM     31  N   UNL A   1      34.092  30.569  27.086  1.00  0.00    -0.352 N 
ATOM     32  C   UNL A   1      34.793  31.047  28.164  1.00  0.00     0.251 C 
ATOM     33  H   UNL A   1      33.361  31.145  26.764  1.00  0.00     0.163 HD
ATOM     34  O   UNL A   1      34.349  31.976  28.828  1.00  0.00    -0.269 OA
BRANCH  32  35
ATOM     35  C   UNL A   1      36.087  30.429  28.515  1.00  0.00     0.039 A 
ATOM     36  C   UNL A   1      37.222  30.750  27.769  1.00  0.00     0.014 A 
ATOM     37  C   UNL A   1      36.173  29.531  29.584  1.00  0.00     0.014 A 
ATOM     38  C   UNL A   1      38.456  30.205  28.126  1.00  0.00     0.010 A 
ATOM     39  C   UNL A   1      37.414  29.054  29.986  1.00  0.00     0.010 A 
ATOM     40  C   UNL A   1      38.567  29.374  29.254  1.00  0.00    -0.014 A 
BRANCH  40  41
ATOM     41  C   UNL A   1      39.876  28.829  29.687  1.00  0.00     0.031 A 
ATOM     42  C   UNL A   1      40.643  29.498  30.796  1.00  0.00     0.074 A 
ATOM     43  C   UNL A   1      40.412  27.784  29.027  1.00  0.00     0.049 A 
ATOM     44  N   UNL A   1      41.825  29.207  31.274  1.00  0.00    -0.248 NA
ATOM     45  C   UNL A   1      40.009  30.665  31.433  1.00  0.00     0.031 C 
ATOM     46  C   UNL A   1      39.797  27.095  27.891  1.00  0.00     0.029 A 
ATOM     47  N   UNL A   1      41.608  27.134  29.200  1.00  0.00    -0.354 N 
ATOM     48  C   UNL A   1      42.090  30.169  32.241  1.00  0.00     0.074 A 
ATOM     49  C   UNL A   1      40.965  31.079  32.252  1.00  0.00     0.031 C 
ATOM     50  C   UNL A   1      40.612  26.110  27.479  1.00  0.00     0.029 A 
ATOM     51  C   UNL A   1      41.822  26.122  28.294  1.00  0.00     0.049 A 
ATOM     52  H   UNL A   1      42.252  27.370  29.907  1.00  0.00     0.167 HD
ATOM     53  C   UNL A   1      43.158  30.270  33.068  1.00  0.00     0.034 A 
ATOM     54  C   UNL A   1      42.877  25.299  28.136  1.00  0.00     0.034 A 
ATOM     55  C   UNL A   1      44.258  29.345  33.073  1.00  0.00     0.049 A 
ATOM     56  C   UNL A   1      44.047  25.425  29.075  1.00  0.00     0.074 A 
ATOM     57  C   UNL A   1      45.352  29.313  33.919  1.00  0.00     0.029 A 
ATOM     58  N   UNL A   1      44.410  28.292  32.183  1.00  0.00    -0.354 N 
ATOM     59  N   UNL A   1      44.214  26.250  30.080  1.00  0.00    -0.248 NA
ATOM     60  C   UNL A   1      45.158  24.483  28.879  1.00  0.00     0.031 C 
ATOM     61  C   UNL A   1      46.181  28.259  33.520  1.00  0.00     0.029 A 
ATOM     62  C   UNL A   1      45.586  27.612  32.450  1.00  0.00     0.049 A 
ATOM     63  H   UNL A   1      43.775  28.062  31.467  1.00  0.00     0.167 HD
ATOM     64  C   UNL A   1      45.428  25.901  30.662  1.00  0.00     0.074 A 
ATOM     65  C   UNL A   1      45.944  24.778  29.905  1.00  0.00     0.031 C 
ATOM     66  C   UNL A   1      46.062  26.465  31.720  1.00  0.00     0.034 A 
BRANCH  53  67
ATOM     67  C   UNL A   1      43.161  31.399  34.068  1.00  0.00     0.023 A 
ATOM     68  C   UNL A   1      43.794  32.617  33.741  1.00  0.00     0.012 A 
ATOM     69  C   UNL A   1      42.510  31.273  35.310  1.00  0.00     0.148 A 
ATOM     70  C   UNL A   1      43.818  33.674  34.650  1.00  0.00     0.002 A 
ATOM     71  C   UNL A   1      42.496  32.348  36.192  1.00  0.00     0.091 A 
ATOM     72  F   UNL A   1      41.931  30.103  35.614  1.00  0.00    -0.205 F 
ATOM     73  C   UNL A   1      43.161  33.542  35.870  1.00  0.00     0.022 A 
BRANCH  71  74
ATOM     74  S   UNL A   1      41.609  32.309  37.753  1.00  0.00     0.127 S 
ATOM     75  O   UNL A   1      42.432  31.389  38.537  1.00  0.00    -0.237 OA
ATOM     76  O   UNL A   1      41.680  33.706  38.182  1.00  0.00    -0.237 OA
ATOM     77  O   UNL A   1      40.267  31.836  37.441  1.00  0.00    -0.744 OA
ENDBRANCH  71  74
ENDBRANCH  53  67
BRANCH  54  78
ATOM     78  C   UNL A   1      42.845  24.238  27.091  1.00  0.00     0.023 A 
ATOM     79  C   UNL A   1      43.528  24.449  25.876  1.00  0.00     0.012 A 
ATOM     80  C   UNL A   1      42.171  23.019  27.297  1.00  0.00     0.148 A 
ATOM     81  C   UNL A   1      43.511  23.481  24.872  1.00  0.00     0.002 A 
ATOM     82  C   UNL A   1      42.204  22.036  26.313  1.00  0.00     0.091 A 
ATOM     83  F   UNL A   1      41.523  22.840  28.455  1.00  0.00    -0.205 F 
ATOM     84  C   UNL A   1      42.857  22.271  25.094  1.00  0.00     0.022 A 
BRANCH  82  85
ATOM     85  S   UNL A   1      41.500  20.402  26.559  1.00  0.00     0.127 S 
ATOM     86  O   UNL A   1      42.100  20.006  27.830  1.00  0.00    -0.237 OA
ATOM     87  O   UNL A   1      40.068  20.697  26.616  1.00  0.00    -0.237 OA
ATOM     88  O   UNL A   1      41.906  19.619  25.399  1.00  0.00    -0.744 OA
ENDBRANCH  82  85
ENDBRANCH  54  78
BRANCH  66  89
ATOM     89  C   UNL A   1      47.367  25.852  32.159  1.00  0.00     0.023 A 
ATOM     90  C   UNL A   1      48.564  26.194  31.499  1.00  0.00     0.012 A 
ATOM     91  C   UNL A   1      47.412  24.995  33.277  1.00  0.00     0.148 A 
ATOM     92  C   UNL A   1      49.782  25.665  31.924  1.00  0.00     0.002 A 
ATOM     93  C   UNL A   1      48.636  24.514  33.727  1.00  0.00     0.091 A 
ATOM     94  F   UNL A   1      46.261  24.668  33.879  1.00  0.00    -0.205 F 
ATOM     95  C   UNL A   1      49.820  24.836  33.044  1.00  0.00     0.022 A 
BRANCH  93  96
ATOM     96  S   UNL A   1      48.794  23.525  35.217  1.00  0.00     0.127 S 
ATOM     97  O   UNL A   1      48.286  22.229  34.770  1.00  0.00    -0.237 OA
ATOM     98  O   UNL A   1      50.236  23.564  35.463  1.00  0.00    -0.237 OA
ATOM     99  O   UNL A   1      47.990  24.192  36.232  1.00  0.00    -0.744 OA
ENDBRANCH  93  96
ENDBRANCH  66  89
ENDBRANCH  40  41
ENDBRANCH  32  35
ENDBRANCH  30  31
ENDBRANCH  29  30
ENDBRANCH  28  29
ENDBRANCH   1  28
TORSDOF 19
ENDMDL
MODEL 3
REMARK VINA RESULT:     -12.0      5.835      9.824
REMARK SMILES Cc1noc(C[N@H+]2CCC[C@@H](c3ccc(C(=O)NCCCCCCNC(=O)c4ccc(-c5c6nc(c(-c7cccc(S(=O)(=O)[O-])c7F)c7ccc([nH]7)c(-c7cccc(S(=O)(=O)[O-])c7F)c7nc(c(-c8cccc(S(=O)(=O)[O-])c8F)c8ccc5[nH]8)C=C7)C=C6)cc4)cc3)C2)n1
REMARK SMILES IDX 21 1 20 2 19 3 18 4 16 5 17 6 15 8 12 9 13 10 92 11 14 12
REMARK SMILES IDX 91 13 11 14 7 15 8 16 93 17 9 19 10 20 6 21 5 22 1 23 2 24
REMARK SMILES IDX 3 25 94 26 4 27 22 28 23 29 24 30 25 31 26 32 27 34 28 35
REMARK SMILES IDX 29 36 90 37 30 38 89 39 31 40 32 41 33 42 83 43 34 44 88 45
REMARK SMILES IDX 82 46 84 47 35 48 87 49 81 50 80 51 36 53 68 54 48 55 67 56
REMARK SMILES IDX 49 57 52 58 66 59 85 60 50 61 51 62 65 64 86 65 53 66 37 67
REMARK SMILES IDX 38 68 46 69 39 70 41 71 47 72 40 73 42 74 43 75 44 76 45 77
REMARK SMILES IDX 69 78 70 79 78 80 71 81 73 82 79 83 72 84 74 85 75 86 76 87
REMARK SMILES IDX 77 88 54 89 55 90 63 91 56 92 58 93 64 94 57 95 59 96 60 97
REMARK SMILES IDX 61 98 62 99
REMARK H PARENT 18 7 7 18 25 33 84 52 52 63
REMARK Flexibility Score: inf
ROOT
ATOM      1  C   UNL A   1      37.130  22.245  25.101  1.00  0.00     0.002 C 
ENDROOT
BRANCH   1   2
ATOM      2  C   UNL A   1      36.000  21.438  25.752  1.00  0.00     0.021 C 
BRANCH   2   3
ATOM      3  C   UNL A   1      35.600  20.212  24.930  1.00  0.00     0.116 C 
BRANCH   3   4
ATOM      4  N   UNL A   1      34.211  19.891  25.192  1.00  0.00    -0.352 N 
ATOM      5  C   UNL A   1      33.062  20.611  25.009  1.00  0.00     0.251 C 
ATOM      6  O   UNL A   1      32.000  20.100  25.371  1.00  0.00    -0.269 OA
ATOM      7  H   UNL A   1      34.069  18.993  25.568  1.00  0.00     0.163 HD
BRANCH   5   8
ATOM      8  C   UNL A   1      33.037  21.931  24.323  1.00  0.00     0.039 A 
ATOM      9  C   UNL A   1      32.786  24.511  23.201  1.00  0.00    -0.039 A 
ATOM     10  C   UNL A   1      32.770  24.326  24.593  1.00  0.00     0.005 A 
ATOM     11  C   UNL A   1      33.013  23.399  22.385  1.00  0.00     0.005 A 
ATOM     12  C   UNL A   1      32.877  23.050  25.144  1.00  0.00     0.014 A 
ATOM     13  C   UNL A   1      33.171  22.126  22.946  1.00  0.00     0.014 A 
BRANCH   9  14
ATOM     14  C   UNL A   1      32.596  25.886  22.576  1.00  0.00     0.074 C 
ATOM     15  N   UNL A   1      30.971  27.831  22.397  1.00  0.00    -0.327 N 
ATOM     16  C   UNL A   1      31.986  28.722  22.972  1.00  0.00     0.262 C 
ATOM     17  C   UNL A   1      31.171  26.431  22.821  1.00  0.00     0.270 C 
ATOM     18  H   UNL A   1      31.083  27.866  21.385  1.00  0.00     0.348 HD
ATOM     19  C   UNL A   1      33.399  28.267  22.606  1.00  0.00     0.062 C 
ATOM     20  C   UNL A   1      33.661  26.852  23.106  1.00  0.00     0.020 C 
BRANCH  15  21
ATOM     21  C   UNL A   1      29.590  28.292  22.719  1.00  0.00     0.364 C 
BRANCH  21  22
ATOM     22  C   UNL A   1      29.299  29.722  22.374  1.00  0.00     0.281 A 
ATOM     23  C   UNL A   1      27.971  32.386  20.530  1.00  0.00     0.093 C 
ATOM     24  C   UNL A   1      28.577  31.493  21.536  1.00  0.00     0.169 A 
ATOM     25  N   UNL A   1      28.588  31.766  22.847  1.00  0.00    -0.063 NA
ATOM     26  N   UNL A   1      29.064  30.263  21.197  1.00  0.00    -0.191 NA
ATOM     27  O   UNL A   1      29.074  30.581  23.414  1.00  0.00    -0.333 OA
ENDBRANCH  21  22
ENDBRANCH  15  21
ENDBRANCH   9  14
ENDBRANCH   5   8
ENDBRANCH   3   4
ENDBRANCH   2   3
ENDBRANCH   1   2
BRANCH   1  28
ATOM     28  C   UNL A   1      38.510  22.021  25.729  1.00  0.00     0.002 C 
BRANCH  28  29
ATOM     29  C   UNL A   1      39.178  20.700  25.339  1.00  0.00     0.021 C 
BRANCH  29  30
ATOM     30  C   UNL A   1      39.684  19.893  26.529  1.00  0.00     0.116 C 
BRANCH  30  31
ATOM     31  N   UNL A   1      40.851  19.101  26.172  1.00  0.00    -0.352 N 
ATOM     32  C   UNL A   1      42.124  19.525  25.881  1.00  0.00     0.251 C 
ATOM     33  H   UNL A   1      40.708  18.128  26.133  1.00  0.00     0.163 HD
ATOM     34  O   UNL A   1      42.922  18.764  25.346  1.00  0.00    -0.269 OA
BRANCH  32  35
ATOM     35  C   UNL A   1      42.519  20.907  26.220  1.00  0.00     0.039 A 
ATOM     36  C   UNL A   1      42.744  21.245  27.556  1.00  0.00     0.014 A 
ATOM     37  C   UNL A   1      42.666  21.865  25.212  1.00  0.00     0.014 A 
ATOM     38  C   UNL A   1      43.164  22.536  27.876  1.00  0.00     0.010 A 
ATOM     39  C   UNL A   1      43.160  23.125  25.525  1.00  0.00     0.010 A 
ATOM     40  C   UNL A   1      43.401  23.479  26.861  1.00  0.00    -0.014 A 
BRANCH  40  41
ATOM     41  C   UNL A   1      43.902  24.840  27.172  1.00  0.00     0.031 A 
ATOM     42  C   UNL A   1      42.967  25.877  27.737  1.00  0.00     0.074 A 
ATOM     43  C   UNL A   1      45.173  25.167  26.868  1.00  0.00     0.049 A 
ATOM     44  N   UNL A   1      43.201  27.132  28.017  1.00  0.00    -0.248 NA
ATOM     45  C   UNL A   1      41.581  25.453  27.994  1.00  0.00     0.031 C 
ATOM     46  C   UNL A   1      46.153  24.270  26.254  1.00  0.00     0.029 A 
ATOM     47  N   UNL A   1      45.852  26.351  27.013  1.00  0.00    -0.354 N 
ATOM     48  C   UNL A   1      41.990  27.655  28.452  1.00  0.00     0.074 A 
ATOM     49  C   UNL A   1      41.012  26.593  28.356  1.00  0.00     0.031 C 
ATOM     50  C   UNL A   1      47.311  24.930  26.088  1.00  0.00     0.029 A 
ATOM     51  C   UNL A   1      47.145  26.305  26.547  1.00  0.00     0.049 A 
ATOM     52  H   UNL A   1      45.450  27.157  27.413  1.00  0.00     0.167 HD
ATOM     53  C   UNL A   1      41.720  28.898  28.919  1.00  0.00     0.034 A 
ATOM     54  C   UNL A   1      48.089  27.265  26.493  1.00  0.00     0.034 A 
ATOM     55  C   UNL A   1      42.703  29.940  29.040  1.00  0.00     0.049 A 
ATOM     56  C   UNL A   1      47.767  28.635  27.027  1.00  0.00     0.074 A 
ATOM     57  C   UNL A   1      42.551  31.209  29.569  1.00  0.00     0.029 A 
ATOM     58  N   UNL A   1      44.020  29.837  28.618  1.00  0.00    -0.354 N 
ATOM     59  N   UNL A   1      46.655  29.068  27.571  1.00  0.00    -0.248 NA
ATOM     60  C   UNL A   1      48.840  29.636  26.974  1.00  0.00     0.031 C 
ATOM     61  C   UNL A   1      43.769  31.884  29.439  1.00  0.00     0.029 A 
ATOM     62  C   UNL A   1      44.689  31.023  28.862  1.00  0.00     0.049 A 
ATOM     63  H   UNL A   1      44.420  29.038  28.206  1.00  0.00     0.167 HD
ATOM     64  C   UNL A   1      46.908  30.380  27.960  1.00  0.00     0.074 A 
ATOM     65  C   UNL A   1      48.284  30.661  27.605  1.00  0.00     0.031 C 
ATOM     66  C   UNL A   1      46.074  31.272  28.549  1.00  0.00     0.034 A 
BRANCH  53  67
ATOM     67  C   UNL A   1      40.310  29.180  29.375  1.00  0.00     0.023 A 
ATOM     68  C   UNL A   1      39.351  29.626  28.441  1.00  0.00     0.012 A 
ATOM     69  C   UNL A   1      39.923  28.971  30.713  1.00  0.00     0.148 A 
ATOM     70  C   UNL A   1      38.044  29.902  28.838  1.00  0.00     0.002 A 
ATOM     71  C   UNL A   1      38.605  29.201  31.091  1.00  0.00     0.091 A 
ATOM     72  F   UNL A   1      40.850  28.567  31.593  1.00  0.00    -0.205 F 
ATOM     73  C   UNL A   1      37.669  29.680  30.160  1.00  0.00     0.022 A 
BRANCH  71  74
ATOM     74  S   UNL A   1      38.001  28.868  32.750  1.00  0.00     0.127 S 
ATOM     75  O   UNL A   1      36.616  29.326  32.657  1.00  0.00    -0.237 OA
ATOM     76  O   UNL A   1      38.158  27.416  32.849  1.00  0.00    -0.237 OA
ATOM     77  O   UNL A   1      38.854  29.633  33.649  1.00  0.00    -0.744 OA
ENDBRANCH  71  74
ENDBRANCH  53  67
BRANCH  54  78
ATOM     78  C   UNL A   1      49.449  26.946  25.975  1.00  0.00     0.023 A 
ATOM     79  C   UNL A   1      50.364  26.275  26.812  1.00  0.00     0.012 A 
ATOM     80  C   UNL A   1      49.834  27.276  24.662  1.00  0.00     0.148 A 
ATOM     81  C   UNL A   1      51.648  25.970  26.362  1.00  0.00     0.002 A 
ATOM     82  C   UNL A   1      51.097  26.920  24.202  1.00  0.00     0.091 A 
ATOM     83  F   UNL A   1      48.952  27.919  23.885  1.00  0.00    -0.205 F 
ATOM     84  C   UNL A   1      52.012  26.284  25.055  1.00  0.00     0.022 A 
BRANCH  82  85
ATOM     85  S   UNL A   1      51.609  27.169  22.498  1.00  0.00     0.127 S 
ATOM     86  O   UNL A   1      52.780  26.301  22.408  1.00  0.00    -0.237 OA
ATOM     87  O   UNL A   1      50.435  26.702  21.761  1.00  0.00    -0.237 OA
ATOM     88  O   UNL A   1      51.871  28.596  22.369  1.00  0.00    -0.744 OA
ENDBRANCH  82  85
ENDBRANCH  54  78
BRANCH  66  89
ATOM     89  C   UNL A   1      46.633  32.629  28.894  1.00  0.00     0.023 A 
ATOM     90  C   UNL A   1      47.315  32.822  30.111  1.00  0.00     0.012 A 
ATOM     91  C   UNL A   1      46.545  33.692  27.973  1.00  0.00     0.148 A 
ATOM     92  C   UNL A   1      47.871  34.062  30.421  1.00  0.00     0.002 A 
ATOM     93  C   UNL A   1      47.149  34.909  28.266  1.00  0.00     0.091 A 
ATOM     94  F   UNL A   1      45.877  33.493  26.828  1.00  0.00    -0.205 F 
ATOM     95  C   UNL A   1      47.799  35.100  29.495  1.00  0.00     0.022 A 
BRANCH  93  96
ATOM     96  S   UNL A   1      47.195  36.269  27.094  1.00  0.00     0.127 S 
ATOM     97  O   UNL A   1      47.959  37.273  27.833  1.00  0.00    -0.237 OA
ATOM     98  O   UNL A   1      47.904  35.676  25.960  1.00  0.00    -0.237 OA
ATOM     99  O   UNL A   1      45.806  36.617  26.825  1.00  0.00    -0.744 OA
ENDBRANCH  93  96
ENDBRANCH  66  89
ENDBRANCH  40  41
ENDBRANCH  32  35
ENDBRANCH  30  31
ENDBRANCH  29  30
ENDBRANCH  28  29
ENDBRANCH   1  28
TORSDOF 19
ENDMDL
