MODEL 1
REMARK VINA RESULT:      -8.9      0.000      0.000
REMARK SMILES CC[NH+](CC)CCS[C@H](F)C(=O)NCCCCCCNC(=O)c1ccc(-c2c3nc(c(-c4cccc(S(=O)(=O)[O-])c4F)c4ccc([nH]4)c(-c4cccc(S(=O)(=O)[O-])c4F)c4nc(c(-c5cccc(S(=O)(=O)[O-])c5F)c5ccc2[nH]5)C=C4)C=C3)cc1
REMARK SMILES IDX 15 1 14 2 13 3 11 4 12 5 9 7 10 8 8 9 7 10 6 11 3 12 2 14
REMARK SMILES IDX 1 15 4 16 5 17 16 18 17 19 18 20 19 21 20 22 21 23 22 25
REMARK SMILES IDX 23 26 24 27 85 28 25 29 84 30 26 31 27 32 28 33 78 34 29 35
REMARK SMILES IDX 83 36 77 37 79 38 30 39 82 40 76 41 75 42 31 44 63 45 43 46
REMARK SMILES IDX 62 47 44 48 47 49 61 50 80 51 45 52 46 53 60 55 81 56 48 57
REMARK SMILES IDX 32 58 33 59 41 60 34 61 36 62 42 63 35 64 37 65 38 66 39 67
REMARK SMILES IDX 40 68 64 69 65 70 73 71 66 72 68 73 74 74 67 75 69 76 70 77
REMARK SMILES IDX 71 78 72 79 49 80 50 81 58 82 51 83 53 84 59 85 52 86 54 87
REMARK SMILES IDX 55 88 56 89 57 90
REMARK H PARENT 13 6 3 13 20 24 79 43 47 54
REMARK Flexibility Score: inf
ROOT
ATOM      1  C   UNL A   1      36.772  22.174  24.910  1.00  0.00     0.021 C 
ENDROOT
BRANCH   1   2
ATOM      2  C   UNL A   1      36.043  23.451  24.512  1.00  0.00     0.116 C 
BRANCH   2   3
ATOM      3  N   UNL A   1      35.209  23.287  23.339  1.00  0.00    -0.353 N 
ATOM      4  C   UNL A   1      33.848  23.163  23.265  1.00  0.00     0.265 C 
ATOM      5  O   UNL A   1      33.358  23.036  22.136  1.00  0.00    -0.271 OA
ATOM      6  H   UNL A   1      35.686  23.261  22.478  1.00  0.00     0.163 HD
BRANCH   4   7
ATOM      7  C   UNL A   1      32.965  23.206  24.518  1.00  0.00     0.313 C 
ATOM      8  F   UNL A   1      32.775  22.003  25.126  1.00  0.00    -0.225 F 
BRANCH   7   9
ATOM      9  S   UNL A   1      33.548  24.416  25.742  1.00  0.00    -0.110 SA
BRANCH   9  10
ATOM     10  C   UNL A   1      32.297  25.738  25.569  1.00  0.00     0.134 C 
BRANCH  10  11
ATOM     11  C   UNL A   1      31.930  26.197  24.134  1.00  0.00     0.273 C 
BRANCH  11  12
ATOM     12  N   UNL A   1      31.655  27.603  23.803  1.00  0.00    -0.335 N 
ATOM     13  H   UNL A   1      30.978  27.832  24.531  1.00  0.00     0.348 HD
BRANCH  12  14
ATOM     14  C   UNL A   1      32.731  28.562  24.045  1.00  0.00     0.258 C 
ATOM     15  C   UNL A   1      33.582  28.824  22.806  1.00  0.00     0.071 C 
ENDBRANCH  12  14
BRANCH  12  16
ATOM     16  C   UNL A   1      30.949  27.822  22.537  1.00  0.00     0.258 C 
ATOM     17  C   UNL A   1      29.860  28.885  22.523  1.00  0.00     0.071 C 
ENDBRANCH  12  16
ENDBRANCH  11  12
ENDBRANCH  10  11
ENDBRANCH   9  10
ENDBRANCH   7   9
ENDBRANCH   4   7
ENDBRANCH   2   3
ENDBRANCH   1   2
BRANCH   1  18
ATOM     18  C   UNL A   1      35.954  20.880  24.837  1.00  0.00     0.002 C 
BRANCH  18  19
ATOM     19  C   UNL A   1      36.726  19.560  24.914  1.00  0.00     0.002 C 
BRANCH  19  20
ATOM     20  C   UNL A   1      38.246  19.642  24.762  1.00  0.00     0.021 C 
BRANCH  20  21
ATOM     21  C   UNL A   1      39.052  19.661  26.055  1.00  0.00     0.116 C 
BRANCH  21  22
ATOM     22  N   UNL A   1      40.289  18.904  25.986  1.00  0.00    -0.352 N 
ATOM     23  C   UNL A   1      41.581  19.349  26.134  1.00  0.00     0.251 C 
ATOM     24  H   UNL A   1      40.189  17.941  25.808  1.00  0.00     0.163 HD
ATOM     25  O   UNL A   1      42.519  18.572  25.973  1.00  0.00    -0.269 OA
BRANCH  23  26
ATOM     26  C   UNL A   1      41.844  20.773  26.447  1.00  0.00     0.039 A 
ATOM     27  C   UNL A   1      42.175  21.119  27.760  1.00  0.00     0.014 A 
ATOM     28  C   UNL A   1      41.784  21.761  25.459  1.00  0.00     0.014 A 
ATOM     29  C   UNL A   1      42.507  22.441  28.069  1.00  0.00     0.010 A 
ATOM     30  C   UNL A   1      42.189  23.061  25.752  1.00  0.00     0.010 A 
ATOM     31  C   UNL A   1      42.553  23.417  27.060  1.00  0.00    -0.014 A 
BRANCH  31  32
ATOM     32  C   UNL A   1      42.992  24.807  27.354  1.00  0.00     0.031 A 
ATOM     33  C   UNL A   1      42.041  25.789  27.985  1.00  0.00     0.074 A 
ATOM     34  C   UNL A   1      44.222  25.210  26.977  1.00  0.00     0.049 A 
ATOM     35  N   UNL A   1      42.229  27.051  28.270  1.00  0.00    -0.248 NA
ATOM     36  C   UNL A   1      40.694  25.296  28.316  1.00  0.00     0.031 C 
ATOM     37  C   UNL A   1      45.210  24.379  26.286  1.00  0.00     0.029 A 
ATOM     38  N   UNL A   1      44.842  26.430  27.099  1.00  0.00    -0.354 N 
ATOM     39  C   UNL A   1      41.021  27.511  28.779  1.00  0.00     0.074 A 
ATOM     40  C   UNL A   1      40.094  26.402  28.732  1.00  0.00     0.031 C 
ATOM     41  C   UNL A   1      46.311  25.109  26.050  1.00  0.00     0.029 A 
ATOM     42  C   UNL A   1      46.099  26.467  26.541  1.00  0.00     0.049 A 
ATOM     43  H   UNL A   1      44.427  27.204  27.542  1.00  0.00     0.167 HD
ATOM     44  C   UNL A   1      40.715  28.737  29.268  1.00  0.00     0.034 A 
ATOM     45  C   UNL A   1      46.980  27.482  26.429  1.00  0.00     0.034 A 
ATOM     46  C   UNL A   1      41.650  29.828  29.351  1.00  0.00     0.049 A 
ATOM     47  C   UNL A   1      46.629  28.824  27.012  1.00  0.00     0.074 A 
ATOM     48  C   UNL A   1      41.463  31.079  29.910  1.00  0.00     0.029 A 
ATOM     49  N   UNL A   1      42.942  29.803  28.849  1.00  0.00    -0.354 N 
ATOM     50  N   UNL A   1      45.535  29.192  27.634  1.00  0.00    -0.248 NA
ATOM     51  C   UNL A   1      47.646  29.880  26.911  1.00  0.00     0.031 C 
ATOM     52  C   UNL A   1      42.632  31.822  29.721  1.00  0.00     0.029 A 
ATOM     53  C   UNL A   1      43.561  31.021  29.075  1.00  0.00     0.049 A 
ATOM     54  H   UNL A   1      43.359  29.033  28.400  1.00  0.00     0.167 HD
ATOM     55  C   UNL A   1      45.747  30.508  28.031  1.00  0.00     0.074 A 
ATOM     56  C   UNL A   1      47.083  30.864  27.597  1.00  0.00     0.031 C 
ATOM     57  C   UNL A   1      44.908  31.348  28.685  1.00  0.00     0.034 A 
BRANCH  44  58
ATOM     58  C   UNL A   1      39.321  28.954  29.800  1.00  0.00     0.023 A 
ATOM     59  C   UNL A   1      38.997  28.522  31.103  1.00  0.00     0.012 A 
ATOM     60  C   UNL A   1      38.353  29.636  29.038  1.00  0.00     0.148 A 
ATOM     61  C   UNL A   1      37.721  28.732  31.624  1.00  0.00     0.002 A 
ATOM     62  C   UNL A   1      37.098  29.884  29.583  1.00  0.00     0.091 A 
ATOM     63  F   UNL A   1      38.672  30.022  27.794  1.00  0.00    -0.205 F 
ATOM     64  C   UNL A   1      36.777  29.423  30.870  1.00  0.00     0.022 A 
BRANCH  62  65
ATOM     65  S   UNL A   1      35.838  30.835  28.725  1.00  0.00     0.127 S 
ATOM     66  O   UNL A   1      35.180  29.799  27.929  1.00  0.00    -0.237 OA
ATOM     67  O   UNL A   1      35.038  31.354  29.833  1.00  0.00    -0.237 OA
ATOM     68  O   UNL A   1      36.551  31.849  27.961  1.00  0.00    -0.744 OA
ENDBRANCH  62  65
ENDBRANCH  44  58
BRANCH  45  69
ATOM     69  C   UNL A   1      48.306  27.252  25.787  1.00  0.00     0.023 A 
ATOM     70  C   UNL A   1      49.377  26.764  26.562  1.00  0.00     0.012 A 
ATOM     71  C   UNL A   1      48.505  27.490  24.414  1.00  0.00     0.148 A 
ATOM     72  C   UNL A   1      50.632  26.554  25.989  1.00  0.00     0.002 A 
ATOM     73  C   UNL A   1      49.742  27.225  23.837  1.00  0.00     0.091 A 
ATOM     74  F   UNL A   1      47.477  27.964  23.695  1.00  0.00    -0.205 F 
ATOM     75  C   UNL A   1      50.812  26.775  24.626  1.00  0.00     0.022 A 
BRANCH  73  76
ATOM     76  S   UNL A   1      50.027  27.353  22.068  1.00  0.00     0.127 S 
ATOM     77  O   UNL A   1      49.465  28.667  21.768  1.00  0.00    -0.237 OA
ATOM     78  O   UNL A   1      51.486  27.273  21.991  1.00  0.00    -0.237 OA
ATOM     79  O   UNL A   1      49.334  26.217  21.475  1.00  0.00    -0.744 OA
ENDBRANCH  73  76
ENDBRANCH  45  69
BRANCH  57  80
ATOM     80  C   UNL A   1      45.416  32.728  29.015  1.00  0.00     0.023 A 
ATOM     81  C   UNL A   1      46.066  32.966  30.243  1.00  0.00     0.012 A 
ATOM     82  C   UNL A   1      45.312  33.772  28.075  1.00  0.00     0.148 A 
ATOM     83  C   UNL A   1      46.573  34.230  30.543  1.00  0.00     0.002 A 
ATOM     84  C   UNL A   1      45.866  35.015  28.358  1.00  0.00     0.091 A 
ATOM     85  F   UNL A   1      44.675  33.531  26.919  1.00  0.00    -0.205 F 
ATOM     86  C   UNL A   1      46.484  35.249  29.598  1.00  0.00     0.022 A 
BRANCH  84  87
ATOM     87  S   UNL A   1      45.888  36.356  27.164  1.00  0.00     0.127 S 
ATOM     88  O   UNL A   1      44.504  36.358  26.693  1.00  0.00    -0.237 OA
ATOM     89  O   UNL A   1      46.250  37.505  27.995  1.00  0.00    -0.237 OA
ATOM     90  O   UNL A   1      46.886  35.992  26.169  1.00  0.00    -0.744 OA
ENDBRANCH  84  87
ENDBRANCH  57  80
ENDBRANCH  31  32
ENDBRANCH  23  26
ENDBRANCH  21  22
ENDBRANCH  20  21
ENDBRANCH  19  20
ENDBRANCH  18  19
ENDBRANCH   1  18
TORSDOF 22
ENDMDL
MODEL 2
REMARK VINA RESULT:      -8.9      1.517      2.045
REMARK SMILES CC[NH+](CC)CCS[C@H](F)C(=O)NCCCCCCNC(=O)c1ccc(-c2c3nc(c(-c4cccc(S(=O)(=O)[O-])c4F)c4ccc([nH]4)c(-c4cccc(S(=O)(=O)[O-])c4F)c4nc(c(-c5cccc(S(=O)(=O)[O-])c5F)c5ccc2[nH]5)C=C4)C=C3)cc1
REMARK SMILES IDX 15 1 14 2 13 3 11 4 12 5 9 7 10 8 8 9 7 10 6 11 3 12 2 14
REMARK SMILES IDX 1 15 4 16 5 17 16 18 17 19 18 20 19 21 20 22 21 23 22 25
REMARK SMILES IDX 23 26 24 27 85 28 25 29 84 30 26 31 27 32 28 33 78 34 29 35
REMARK SMILES IDX 83 36 77 37 79 38 30 39 82 40 76 41 75 42 31 44 63 45 43 46
REMARK SMILES IDX 62 47 44 48 47 49 61 50 80 51 45 52 46 53 60 55 81 56 48 57
REMARK SMILES IDX 32 58 33 59 41 60 34 61 36 62 42 63 35 64 37 65 38 66 39 67
REMARK SMILES IDX 40 68 64 69 65 70 73 71 66 72 68 73 74 74 67 75 69 76 70 77
REMARK SMILES IDX 71 78 72 79 49 80 50 81 58 82 51 83 53 84 59 85 52 86 54 87
REMARK SMILES IDX 55 88 56 89 57 90
REMARK H PARENT 13 6 3 13 20 24 79 43 47 54
REMARK Flexibility Score: inf
ROOT
ATOM      1  C   UNL A   1      36.046  22.232  25.203  1.00  0.00     0.021 C 
ENDROOT
BRANCH   1   2
ATOM      2  C   UNL A   1      34.843  23.167  25.206  1.00  0.00     0.116 C 
BRANCH   2   3
ATOM      3  N   UNL A   1      33.947  22.943  24.090  1.00  0.00    -0.353 N 
ATOM      4  C   UNL A   1      32.673  22.445  24.100  1.00  0.00     0.265 C 
ATOM      5  O   UNL A   1      32.101  22.348  23.007  1.00  0.00    -0.271 OA
ATOM      6  H   UNL A   1      34.304  23.182  23.204  1.00  0.00     0.163 HD
BRANCH   4   7
ATOM      7  C   UNL A   1      31.972  22.046  25.404  1.00  0.00     0.313 C 
ATOM      8  F   UNL A   1      32.709  21.257  26.233  1.00  0.00    -0.225 F 
BRANCH   7   9
ATOM      9  S   UNL A   1      31.354  23.483  26.331  1.00  0.00    -0.110 SA
BRANCH   9  10
ATOM     10  C   UNL A   1      31.360  24.777  25.038  1.00  0.00     0.134 C 
BRANCH  10  11
ATOM     11  C   UNL A   1      32.239  26.030  25.280  1.00  0.00     0.273 C 
BRANCH  11  12
ATOM     12  N   UNL A   1      32.194  27.205  24.397  1.00  0.00    -0.335 N 
ATOM     13  H   UNL A   1      31.634  26.835  23.629  1.00  0.00     0.348 HD
BRANCH  12  14
ATOM     14  C   UNL A   1      31.406  28.348  24.855  1.00  0.00     0.258 C 
ATOM     15  C   UNL A   1      31.836  28.853  26.229  1.00  0.00     0.071 C 
ENDBRANCH  12  14
BRANCH  12  16
ATOM     16  C   UNL A   1      33.475  27.583  23.791  1.00  0.00     0.258 C 
ATOM     17  C   UNL A   1      33.516  28.888  23.009  1.00  0.00     0.071 C 
ENDBRANCH  12  16
ENDBRANCH  11  12
ENDBRANCH  10  11
ENDBRANCH   9  10
ENDBRANCH   7   9
ENDBRANCH   4   7
ENDBRANCH   2   3
ENDBRANCH   1   2
BRANCH   1  18
ATOM     18  C   UNL A   1      35.741  20.740  25.036  1.00  0.00     0.002 C 
BRANCH  18  19
ATOM     19  C   UNL A   1      36.935  19.783  24.995  1.00  0.00     0.002 C 
BRANCH  19  20
ATOM     20  C   UNL A   1      38.323  20.417  24.904  1.00  0.00     0.021 C 
BRANCH  20  21
ATOM     21  C   UNL A   1      39.209  20.279  26.136  1.00  0.00     0.116 C 
BRANCH  21  22
ATOM     22  N   UNL A   1      40.201  19.223  26.029  1.00  0.00    -0.352 N 
ATOM     23  C   UNL A   1      41.569  19.313  26.125  1.00  0.00     0.251 C 
ATOM     24  H   UNL A   1      39.844  18.320  25.866  1.00  0.00     0.163 HD
ATOM     25  O   UNL A   1      42.263  18.316  25.938  1.00  0.00    -0.269 OA
BRANCH  23  26
ATOM     26  C   UNL A   1      42.209  20.618  26.413  1.00  0.00     0.039 A 
ATOM     27  C   UNL A   1      42.632  21.407  25.339  1.00  0.00     0.014 A 
ATOM     28  C   UNL A   1      42.379  21.074  27.723  1.00  0.00     0.014 A 
ATOM     29  C   UNL A   1      43.165  22.677  25.577  1.00  0.00     0.010 A 
ATOM     30  C   UNL A   1      42.838  22.369  27.954  1.00  0.00     0.010 A 
ATOM     31  C   UNL A   1      43.239  23.184  26.885  1.00  0.00    -0.014 A 
BRANCH  31  32
ATOM     32  C   UNL A   1      43.719  24.566  27.147  1.00  0.00     0.031 A 
ATOM     33  C   UNL A   1      42.767  25.624  27.638  1.00  0.00     0.074 A 
ATOM     34  C   UNL A   1      44.997  24.891  26.865  1.00  0.00     0.049 A 
ATOM     35  N   UNL A   1      42.994  26.890  27.875  1.00  0.00    -0.248 NA
ATOM     36  C   UNL A   1      41.373  25.213  27.868  1.00  0.00     0.031 C 
ATOM     37  C   UNL A   1      45.999  23.978  26.311  1.00  0.00     0.029 A 
ATOM     38  N   UNL A   1      45.666  26.085  26.982  1.00  0.00    -0.354 N 
ATOM     39  C   UNL A   1      41.770  27.433  28.247  1.00  0.00     0.074 A 
ATOM     40  C   UNL A   1      40.796  26.366  28.171  1.00  0.00     0.031 C 
ATOM     41  C   UNL A   1      47.154  24.642  26.140  1.00  0.00     0.029 A 
ATOM     42  C   UNL A   1      46.968  26.033  26.541  1.00  0.00     0.049 A 
ATOM     43  H   UNL A   1      45.252  26.901  27.345  1.00  0.00     0.167 HD
ATOM     44  C   UNL A   1      41.485  28.697  28.644  1.00  0.00     0.034 A 
ATOM     45  C   UNL A   1      47.906  26.999  26.459  1.00  0.00     0.034 A 
ATOM     46  C   UNL A   1      42.463  29.746  28.756  1.00  0.00     0.049 A 
ATOM     47  C   UNL A   1      47.573  28.386  26.939  1.00  0.00     0.074 A 
ATOM     48  C   UNL A   1      42.291  31.033  29.232  1.00  0.00     0.029 A 
ATOM     49  N   UNL A   1      43.792  29.634  28.378  1.00  0.00    -0.354 N 
ATOM     50  N   UNL A   1      46.448  28.838  27.438  1.00  0.00    -0.248 NA
ATOM     51  C   UNL A   1      48.648  29.387  26.878  1.00  0.00     0.031 C 
ATOM     52  C   UNL A   1      43.509  31.710  29.114  1.00  0.00     0.029 A 
ATOM     53  C   UNL A   1      44.449  30.833  28.597  1.00  0.00     0.049 A 
ATOM     54  H   UNL A   1      44.207  28.821  28.008  1.00  0.00     0.167 HD
ATOM     55  C   UNL A   1      46.691  30.162  27.786  1.00  0.00     0.074 A 
ATOM     56  C   UNL A   1      48.076  30.432  27.459  1.00  0.00     0.031 C 
ATOM     57  C   UNL A   1      45.841  31.075  28.317  1.00  0.00     0.034 A 
BRANCH  44  58
ATOM     58  C   UNL A   1      40.061  29.006  29.033  1.00  0.00     0.023 A 
ATOM     59  C   UNL A   1      39.090  29.201  28.029  1.00  0.00     0.012 A 
ATOM     60  C   UNL A   1      39.673  29.043  30.386  1.00  0.00     0.148 A 
ATOM     61  C   UNL A   1      37.763  29.465  28.366  1.00  0.00     0.002 A 
ATOM     62  C   UNL A   1      38.338  29.259  30.713  1.00  0.00     0.091 A 
ATOM     63  F   UNL A   1      40.612  28.875  31.328  1.00  0.00    -0.205 F 
ATOM     64  C   UNL A   1      37.386  29.483  29.706  1.00  0.00     0.022 A 
BRANCH  62  65
ATOM     65  S   UNL A   1      37.735  29.221  32.405  1.00  0.00     0.127 S 
ATOM     66  O   UNL A   1      38.599  30.211  33.047  1.00  0.00    -0.237 OA
ATOM     67  O   UNL A   1      36.343  29.638  32.244  1.00  0.00    -0.237 OA
ATOM     68  O   UNL A   1      37.911  27.850  32.863  1.00  0.00    -0.744 OA
ENDBRANCH  62  65
ENDBRANCH  44  58
BRANCH  45  69
ATOM     69  C   UNL A   1      49.271  26.673  25.954  1.00  0.00     0.023 A 
ATOM     70  C   UNL A   1      50.130  25.880  26.740  1.00  0.00     0.012 A 
ATOM     71  C   UNL A   1      49.711  27.122  24.694  1.00  0.00     0.148 A 
ATOM     72  C   UNL A   1      51.417  25.573  26.297  1.00  0.00     0.002 A 
ATOM     73  C   UNL A   1      50.973  26.765  24.235  1.00  0.00     0.091 A 
ATOM     74  F   UNL A   1      48.883  27.884  23.966  1.00  0.00    -0.205 F 
ATOM     75  C   UNL A   1      51.835  26.006  25.042  1.00  0.00     0.022 A 
BRANCH  73  76
ATOM     76  S   UNL A   1      51.544  27.165  22.579  1.00  0.00     0.127 S 
ATOM     77  O   UNL A   1      52.880  26.574  22.572  1.00  0.00    -0.237 OA
ATOM     78  O   UNL A   1      50.559  26.475  21.745  1.00  0.00    -0.237 OA
ATOM     79  O   UNL A   1      51.493  28.618  22.486  1.00  0.00    -0.744 OA
ENDBRANCH  73  76
ENDBRANCH  45  69
BRANCH  57  80
ATOM     80  C   UNL A   1      46.387  32.446  28.622  1.00  0.00     0.023 A 
ATOM     81  C   UNL A   1      46.972  32.709  29.877  1.00  0.00     0.012 A 
ATOM     82  C   UNL A   1      46.384  33.453  27.637  1.00  0.00     0.148 A 
ATOM     83  C   UNL A   1      47.515  33.963  30.157  1.00  0.00     0.002 A 
ATOM     84  C   UNL A   1      46.973  34.683  27.904  1.00  0.00     0.091 A 
ATOM     85  F   UNL A   1      45.806  33.189  26.455  1.00  0.00    -0.205 F 
ATOM     86  C   UNL A   1      47.526  34.944  29.168  1.00  0.00     0.022 A 
BRANCH  84  87
ATOM     87  S   UNL A   1      47.123  35.971  26.661  1.00  0.00     0.127 S 
ATOM     88  O   UNL A   1      48.424  35.664  26.071  1.00  0.00    -0.237 OA
ATOM     89  O   UNL A   1      45.979  35.697  25.791  1.00  0.00    -0.237 OA
ATOM     90  O   UNL A   1      47.045  37.234  27.381  1.00  0.00    -0.744 OA
ENDBRANCH  84  87
ENDBRANCH  57  80
ENDBRANCH  31  32
ENDBRANCH  23  26
ENDBRANCH  21  22
ENDBRANCH  20  21
ENDBRANCH  19  20
ENDBRANCH  18  19
ENDBRANCH   1  18
TORSDOF 22
ENDMDL
MODEL 3
REMARK VINA RESULT:      -8.8      1.285      7.798
REMARK SMILES CC[NH+](CC)CCS[C@H](F)C(=O)NCCCCCCNC(=O)c1ccc(-c2c3nc(c(-c4cccc(S(=O)(=O)[O-])c4F)c4ccc([nH]4)c(-c4cccc(S(=O)(=O)[O-])c4F)c4nc(c(-c5cccc(S(=O)(=O)[O-])c5F)c5ccc2[nH]5)C=C4)C=C3)cc1
REMARK SMILES IDX 15 1 14 2 13 3 11 4 12 5 9 7 10 8 8 9 7 10 6 11 3 12 2 14
REMARK SMILES IDX 1 15 4 16 5 17 16 18 17 19 18 20 19 21 20 22 21 23 22 25
REMARK SMILES IDX 23 26 24 27 85 28 25 29 84 30 26 31 27 32 28 33 78 34 29 35
REMARK SMILES IDX 83 36 77 37 79 38 30 39 82 40 76 41 75 42 31 44 63 45 43 46
REMARK SMILES IDX 62 47 44 48 47 49 61 50 80 51 45 52 46 53 60 55 81 56 48 57
REMARK SMILES IDX 32 58 33 59 41 60 34 61 36 62 42 63 35 64 37 65 38 66 39 67
REMARK SMILES IDX 40 68 64 69 65 70 73 71 66 72 68 73 74 74 67 75 69 76 70 77
REMARK SMILES IDX 71 78 72 79 49 80 50 81 58 82 51 83 53 84 59 85 52 86 54 87
REMARK SMILES IDX 55 88 56 89 57 90
REMARK H PARENT 13 6 3 13 20 24 79 43 47 54
REMARK Flexibility Score: inf
ROOT
ATOM      1  C   UNL A   1      36.116  22.641  25.857  1.00  0.00     0.021 C 
ENDROOT
BRANCH   1   2
ATOM      2  C   UNL A   1      35.821  23.985  25.201  1.00  0.00     0.116 C 
BRANCH   2   3
ATOM      3  N   UNL A   1      35.279  23.857  23.864  1.00  0.00    -0.353 N 
ATOM      4  C   UNL A   1      34.066  24.274  23.387  1.00  0.00     0.265 C 
ATOM      5  O   UNL A   1      33.828  24.052  22.193  1.00  0.00    -0.271 OA
ATOM      6  H   UNL A   1      35.864  23.411  23.209  1.00  0.00     0.163 HD
BRANCH   4   7
ATOM      7  C   UNL A   1      33.055  25.003  24.280  1.00  0.00     0.313 C 
ATOM      8  F   UNL A   1      32.792  24.390  25.467  1.00  0.00    -0.225 F 
BRANCH   7   9
ATOM      9  S   UNL A   1      33.515  26.736  24.583  1.00  0.00    -0.110 SA
BRANCH   9  10
ATOM     10  C   UNL A   1      32.341  27.617  23.493  1.00  0.00     0.134 C 
BRANCH  10  11
ATOM     11  C   UNL A   1      31.440  28.704  24.134  1.00  0.00     0.273 C 
BRANCH  11  12
ATOM     12  N   UNL A   1      30.483  29.496  23.350  1.00  0.00    -0.335 N 
ATOM     13  H   UNL A   1      31.110  29.908  22.659  1.00  0.00     0.348 HD
BRANCH  12  14
ATOM     14  C   UNL A   1      29.529  28.756  22.525  1.00  0.00     0.258 C 
ATOM     15  C   UNL A   1      28.652  27.808  23.338  1.00  0.00     0.071 C 
ENDBRANCH  12  14
BRANCH  12  16
ATOM     16  C   UNL A   1      29.885  30.634  24.055  1.00  0.00     0.258 C 
ATOM     17  C   UNL A   1      28.860  31.463  23.294  1.00  0.00     0.071 C 
ENDBRANCH  12  16
ENDBRANCH  11  12
ENDBRANCH  10  11
ENDBRANCH   9  10
ENDBRANCH   7   9
ENDBRANCH   4   7
ENDBRANCH   2   3
ENDBRANCH   1   2
BRANCH   1  18
ATOM     18  C   UNL A   1      36.008  21.410  24.951  1.00  0.00     0.002 C 
BRANCH  18  19
ATOM     19  C   UNL A   1      37.231  20.492  24.871  1.00  0.00     0.002 C 
BRANCH  19  20
ATOM     20  C   UNL A   1      38.571  21.092  25.300  1.00  0.00     0.021 C 
BRANCH  20  21
ATOM     21  C   UNL A   1      39.274  20.406  26.465  1.00  0.00     0.116 C 
BRANCH  21  22
ATOM     22  N   UNL A   1      40.392  19.570  26.065  1.00  0.00    -0.352 N 
ATOM     23  C   UNL A   1      41.726  19.892  25.992  1.00  0.00     0.251 C 
ATOM     24  H   UNL A   1      40.163  18.646  25.811  1.00  0.00     0.163 HD
ATOM     25  O   UNL A   1      42.532  19.070  25.561  1.00  0.00    -0.269 OA
BRANCH  23  26
ATOM     26  C   UNL A   1      42.187  21.242  26.393  1.00  0.00     0.039 A 
ATOM     27  C   UNL A   1      42.347  22.215  25.403  1.00  0.00     0.014 A 
ATOM     28  C   UNL A   1      42.446  21.557  27.730  1.00  0.00     0.014 A 
ATOM     29  C   UNL A   1      42.702  23.519  25.760  1.00  0.00     0.010 A 
ATOM     30  C   UNL A   1      42.725  22.873  28.091  1.00  0.00     0.010 A 
ATOM     31  C   UNL A   1      42.859  23.869  27.111  1.00  0.00    -0.014 A 
BRANCH  31  32
ATOM     32  C   UNL A   1      43.148  25.270  27.514  1.00  0.00     0.031 A 
ATOM     33  C   UNL A   1      44.560  25.793  27.493  1.00  0.00     0.074 A 
ATOM     34  C   UNL A   1      42.150  26.048  27.978  1.00  0.00     0.049 A 
ATOM     35  N   UNL A   1      45.009  26.967  27.854  1.00  0.00    -0.248 NA
ATOM     36  C   UNL A   1      45.608  24.868  27.032  1.00  0.00     0.031 C 
ATOM     37  C   UNL A   1      40.753  25.636  28.122  1.00  0.00     0.029 A 
ATOM     38  N   UNL A   1      42.162  27.343  28.438  1.00  0.00    -0.354 N 
ATOM     39  C   UNL A   1      46.388  26.912  27.697  1.00  0.00     0.074 A 
ATOM     40  C   UNL A   1      46.707  25.577  27.241  1.00  0.00     0.031 C 
ATOM     41  C   UNL A   1      40.042  26.655  28.630  1.00  0.00     0.029 A 
ATOM     42  C   UNL A   1      40.935  27.783  28.878  1.00  0.00     0.049 A 
ATOM     43  H   UNL A   1      42.972  27.903  28.452  1.00  0.00     0.167 HD
ATOM     44  C   UNL A   1      47.306  27.891  27.888  1.00  0.00     0.034 A 
ATOM     45  C   UNL A   1      40.570  28.958  29.429  1.00  0.00     0.034 A 
ATOM     46  C   UNL A   1      46.982  29.230  28.303  1.00  0.00     0.049 A 
ATOM     47  C   UNL A   1      41.602  30.040  29.596  1.00  0.00     0.074 A 
ATOM     48  C   UNL A   1      47.828  30.316  28.439  1.00  0.00     0.029 A 
ATOM     49  N   UNL A   1      45.715  29.662  28.662  1.00  0.00    -0.354 N 
ATOM     50  N   UNL A   1      42.877  30.019  29.291  1.00  0.00    -0.248 NA
ATOM     51  C   UNL A   1      41.140  31.321  30.151  1.00  0.00     0.031 C 
ATOM     52  C   UNL A   1      47.078  31.398  28.909  1.00  0.00     0.029 A 
ATOM     53  C   UNL A   1      45.757  30.996  29.032  1.00  0.00     0.049 A 
ATOM     54  H   UNL A   1      44.904  29.104  28.655  1.00  0.00     0.167 HD
ATOM     55  C   UNL A   1      43.360  31.290  29.579  1.00  0.00     0.074 A 
ATOM     56  C   UNL A   1      42.235  32.063  30.064  1.00  0.00     0.031 C 
ATOM     57  C   UNL A   1      44.622  31.770  29.463  1.00  0.00     0.034 A 
BRANCH  44  58
ATOM     58  C   UNL A   1      48.750  27.565  27.601  1.00  0.00     0.023 A 
ATOM     59  C   UNL A   1      49.541  26.964  28.602  1.00  0.00     0.012 A 
ATOM     60  C   UNL A   1      49.305  27.796  26.328  1.00  0.00     0.148 A 
ATOM     61  C   UNL A   1      50.872  26.631  28.352  1.00  0.00     0.002 A 
ATOM     62  C   UNL A   1      50.619  27.418  26.072  1.00  0.00     0.091 A 
ATOM     63  F   UNL A   1      48.545  28.386  25.394  1.00  0.00    -0.205 F 
ATOM     64  C   UNL A   1      51.406  26.848  27.085  1.00  0.00     0.022 A 
BRANCH  62  65
ATOM     65  S   UNL A   1      51.376  27.579  24.451  1.00  0.00     0.127 S 
ATOM     66  O   UNL A   1      51.271  29.020  24.219  1.00  0.00    -0.237 OA
ATOM     67  O   UNL A   1      52.735  27.099  24.699  1.00  0.00    -0.237 OA
ATOM     68  O   UNL A   1      50.589  26.745  23.554  1.00  0.00    -0.744 OA
ENDBRANCH  62  65
ENDBRANCH  44  58
BRANCH  45  69
ATOM     69  C   UNL A   1      39.147  29.195  29.808  1.00  0.00     0.023 A 
ATOM     70  C   UNL A   1      38.683  28.759  31.065  1.00  0.00     0.012 A 
ATOM     71  C   UNL A   1      38.262  29.867  28.944  1.00  0.00     0.148 A 
ATOM     72  C   UNL A   1      37.352  28.956  31.438  1.00  0.00     0.002 A 
ATOM     73  C   UNL A   1      36.954  30.110  29.345  1.00  0.00     0.091 A 
ATOM     74  F   UNL A   1      38.720  30.265  27.748  1.00  0.00    -0.205 F 
ATOM     75  C   UNL A   1      36.491  29.639  30.584  1.00  0.00     0.022 A 
BRANCH  73  76
ATOM     76  S   UNL A   1      35.814  31.097  28.369  1.00  0.00     0.127 S 
ATOM     77  O   UNL A   1      36.606  32.295  28.105  1.00  0.00    -0.237 OA
ATOM     78  O   UNL A   1      35.591  30.237  27.205  1.00  0.00    -0.237 OA
ATOM     79  O   UNL A   1      34.638  31.286  29.207  1.00  0.00    -0.744 OA
ENDBRANCH  73  76
ENDBRANCH  45  69
BRANCH  57  80
ATOM     80  C   UNL A   1      44.858  33.214  29.827  1.00  0.00     0.023 A 
ATOM     81  C   UNL A   1      45.242  33.558  31.139  1.00  0.00     0.012 A 
ATOM     82  C   UNL A   1      44.771  34.222  28.846  1.00  0.00     0.148 A 
ATOM     83  C   UNL A   1      45.499  34.886  31.477  1.00  0.00     0.002 A 
ATOM     84  C   UNL A   1      45.080  35.536  29.177  1.00  0.00     0.091 A 
ATOM     85  F   UNL A   1      44.387  33.878  27.608  1.00  0.00    -0.205 F 
ATOM     86  C   UNL A   1      45.431  35.871  30.495  1.00  0.00     0.022 A 
BRANCH  84  87
ATOM     87  S   UNL A   1      45.115  36.854  27.958  1.00  0.00     0.127 S 
ATOM     88  O   UNL A   1      46.045  36.318  26.966  1.00  0.00    -0.237 OA
ATOM     89  O   UNL A   1      43.720  36.908  27.519  1.00  0.00    -0.237 OA
ATOM     90  O   UNL A   1      45.572  38.043  28.665  1.00  0.00    -0.744 OA
ENDBRANCH  84  87
ENDBRANCH  57  80
ENDBRANCH  31  32
ENDBRANCH  23  26
ENDBRANCH  21  22
ENDBRANCH  20  21
ENDBRANCH  19  20
ENDBRANCH  18  19
ENDBRANCH   1  18
TORSDOF 22
ENDMDL
