MODEL 1
REMARK VINA RESULT:      -9.8      0.000      0.000
REMARK SMILES COc1ccc(/C=C/C(=O)NCCCCCCNC(=O)c2ccc(-c3c4nc(c(-c5cccc(S(=O)(=O)[O-])c5F)c5ccc([nH]5)c(-c5cccc(S(=O)(=O)[O-])c5F)c5nc(c(-c6cccc(S(=O)(=O)[O-])c6F)c6ccc3[nH]6)C=C5)C=C4)cc2)cc1OC[C@@H](C)C(N)=O
REMARK SMILES IDX 13 1 12 2 11 3 9 4 10 5 8 7 7 8 6 9 3 10 4 11 85 12 5 13
REMARK SMILES IDX 84 14 2 15 1 16 86 17 87 18 88 19 89 20 90 21 91 22 92 23
REMARK SMILES IDX 14 26 15 27 16 28 17 29 18 30 19 31 20 33 21 34 22 35 83 36
REMARK SMILES IDX 23 37 82 38 24 39 25 40 26 41 76 42 27 43 81 44 75 45 77 46
REMARK SMILES IDX 28 47 80 48 74 49 73 50 29 52 61 53 41 54 60 55 42 56 45 57
REMARK SMILES IDX 59 58 78 59 43 60 44 61 58 63 79 64 46 65 30 66 31 67 39 68
REMARK SMILES IDX 32 69 34 70 40 71 33 72 35 73 36 74 37 75 38 76 62 77 63 78
REMARK SMILES IDX 71 79 64 80 66 81 72 82 65 83 67 84 68 85 69 86 70 87 47 88
REMARK SMILES IDX 48 89 56 90 49 91 51 92 57 93 50 94 52 95 53 96 54 97 55 98
REMARK H PARENT 11 6 91 24 91 25 18 32 77 51 45 62
REMARK Flexibility Score: inf
ROOT
ATOM      1  C   UNL A   1      35.068  24.829  25.507  1.00  0.00     0.021 C 
ENDROOT
BRANCH   1   2
ATOM      2  C   UNL A   1      34.974  24.657  23.989  1.00  0.00     0.116 C 
BRANCH   2   3
ATOM      3  N   UNL A   1      34.516  23.316  23.657  1.00  0.00    -0.353 N 
ATOM      4  C   UNL A   1      33.288  22.818  23.362  1.00  0.00     0.243 C 
ATOM      5  O   UNL A   1      33.188  21.632  23.047  1.00  0.00    -0.270 OA
ATOM      6  H   UNL A   1      35.234  22.643  23.643  1.00  0.00     0.163 HD
BRANCH   4   7
ATOM      7  C   UNL A   1      32.071  23.665  23.331  1.00  0.00     0.072 C 
ATOM      8  C   UNL A   1      32.006  24.903  22.822  1.00  0.00     0.014 C 
BRANCH   8   9
ATOM      9  C   UNL A   1      30.823  25.771  22.829  1.00  0.00    -0.022 A 
ATOM     10  C   UNL A   1      28.838  27.699  23.312  1.00  0.00     0.160 A 
ATOM     11  C   UNL A   1      28.637  26.367  23.693  1.00  0.00     0.051 A 
ATOM     12  C   UNL A   1      29.960  28.039  22.548  1.00  0.00     0.161 A 
ATOM     13  C   UNL A   1      29.618  25.400  23.433  1.00  0.00     0.012 A 
ATOM     14  C   UNL A   1      30.962  27.080  22.353  1.00  0.00     0.058 A 
BRANCH  10  15
ATOM     15  O   UNL A   1      28.096  28.699  23.878  1.00  0.00    -0.493 OA
ATOM     16  C   UNL A   1      26.695  28.645  23.655  1.00  0.00     0.278 C 
ENDBRANCH  10  15
BRANCH  12  17
ATOM     17  O   UNL A   1      30.239  29.240  21.953  1.00  0.00    -0.489 OA
BRANCH  17  18
ATOM     18  C   UNL A   1      29.199  29.961  21.289  1.00  0.00     0.243 C 
BRANCH  18  19
ATOM     19  C   UNL A   1      29.129  31.464  21.617  1.00  0.00     0.113 C 
ATOM     20  C   UNL A   1      28.200  32.317  20.754  1.00  0.00     0.022 C 
BRANCH  19  21
ATOM     21  C   UNL A   1      28.703  31.639  23.066  1.00  0.00     0.223 C 
ATOM     22  N   UNL A   1      29.641  31.288  23.992  1.00  0.00    -0.369 N 
ATOM     23  O   UNL A   1      27.638  32.128  23.424  1.00  0.00    -0.275 OA
ATOM     24  H   UNL A   1      30.495  30.895  23.703  1.00  0.00     0.159 HD
ATOM     25  H   UNL A   1      29.463  31.429  24.951  1.00  0.00     0.159 HD
ENDBRANCH  19  21
ENDBRANCH  18  19
ENDBRANCH  17  18
ENDBRANCH  12  17
ENDBRANCH   8   9
ENDBRANCH   4   7
ENDBRANCH   2   3
ENDBRANCH   1   2
BRANCH   1  26
ATOM     26  C   UNL A   1      33.747  25.259  26.163  1.00  0.00     0.002 C 
BRANCH  26  27
ATOM     27  C   UNL A   1      33.175  26.591  25.659  1.00  0.00     0.002 C 
BRANCH  27  28
ATOM     28  C   UNL A   1      33.397  27.786  26.590  1.00  0.00     0.021 C 
BRANCH  28  29
ATOM     29  C   UNL A   1      34.244  28.905  25.990  1.00  0.00     0.116 C 
BRANCH  29  30
ATOM     30  N   UNL A   1      33.891  30.204  26.546  1.00  0.00    -0.352 N 
ATOM     31  C   UNL A   1      34.441  30.866  27.612  1.00  0.00     0.251 C 
ATOM     32  H   UNL A   1      33.154  30.672  26.092  1.00  0.00     0.163 HD
ATOM     33  O   UNL A   1      33.868  31.849  28.087  1.00  0.00    -0.269 OA
BRANCH  31  34
ATOM     34  C   UNL A   1      35.715  30.399  28.195  1.00  0.00     0.039 A 
ATOM     35  C   UNL A   1      35.701  29.748  29.431  1.00  0.00     0.014 A 
ATOM     36  C   UNL A   1      36.924  30.612  27.524  1.00  0.00     0.014 A 
ATOM     37  C   UNL A   1      36.895  29.267  29.973  1.00  0.00     0.010 A 
ATOM     38  C   UNL A   1      38.100  30.067  28.030  1.00  0.00     0.010 A 
ATOM     39  C   UNL A   1      38.101  29.399  29.263  1.00  0.00    -0.014 A 
BRANCH  39  40
ATOM     40  C   UNL A   1      39.371  28.837  29.790  1.00  0.00     0.031 A 
ATOM     41  C   UNL A   1      40.100  29.525  30.911  1.00  0.00     0.074 A 
ATOM     42  C   UNL A   1      39.918  27.760  29.191  1.00  0.00     0.049 A 
ATOM     43  N   UNL A   1      41.246  29.217  31.460  1.00  0.00    -0.248 NA
ATOM     44  C   UNL A   1      39.475  30.737  31.468  1.00  0.00     0.031 C 
ATOM     45  C   UNL A   1      39.354  27.060  28.036  1.00  0.00     0.029 A 
ATOM     46  N   UNL A   1      41.087  27.090  29.448  1.00  0.00    -0.354 N 
ATOM     47  C   UNL A   1      41.502  30.216  32.391  1.00  0.00     0.074 A 
ATOM     48  C   UNL A   1      40.404  31.156  32.314  1.00  0.00     0.031 C 
ATOM     49  C   UNL A   1      40.180  26.064  27.679  1.00  0.00     0.029 A 
ATOM     50  C   UNL A   1      41.345  26.073  28.558  1.00  0.00     0.049 A 
ATOM     51  H   UNL A   1      41.685  27.315  30.196  1.00  0.00     0.167 HD
ATOM     52  C   UNL A   1      42.543  30.330  33.250  1.00  0.00     0.034 A 
ATOM     53  C   UNL A   1      42.407  25.250  28.450  1.00  0.00     0.034 A 
ATOM     54  C   UNL A   1      43.608  29.370  33.353  1.00  0.00     0.049 A 
ATOM     55  C   UNL A   1      43.520  25.358  29.454  1.00  0.00     0.074 A 
ATOM     56  C   UNL A   1      44.646  29.330  34.267  1.00  0.00     0.029 A 
ATOM     57  N   UNL A   1      43.784  28.289  32.502  1.00  0.00    -0.354 N 
ATOM     58  N   UNL A   1      43.654  26.200  30.450  1.00  0.00    -0.248 NA
ATOM     59  C   UNL A   1      44.611  24.378  29.348  1.00  0.00     0.031 C 
ATOM     60  C   UNL A   1      45.469  28.247  33.946  1.00  0.00     0.029 A 
ATOM     61  C   UNL A   1      44.924  27.588  32.856  1.00  0.00     0.049 A 
ATOM     62  H   UNL A   1      43.187  28.055  31.755  1.00  0.00     0.167 HD
ATOM     63  C   UNL A   1      44.825  25.836  31.105  1.00  0.00     0.074 A 
ATOM     64  C   UNL A   1      45.350  24.681  30.407  1.00  0.00     0.031 C 
ATOM     65  C   UNL A   1      45.415  26.414  32.180  1.00  0.00     0.034 A 
BRANCH  52  66
ATOM     66  C   UNL A   1      42.561  31.519  34.177  1.00  0.00     0.023 A 
ATOM     67  C   UNL A   1      43.189  32.714  33.773  1.00  0.00     0.012 A 
ATOM     68  C   UNL A   1      41.913  31.469  35.426  1.00  0.00     0.148 A 
ATOM     69  C   UNL A   1      43.210  33.827  34.612  1.00  0.00     0.002 A 
ATOM     70  C   UNL A   1      41.895  32.598  36.238  1.00  0.00     0.091 A 
ATOM     71  F   UNL A   1      41.339  30.319  35.806  1.00  0.00    -0.205 F 
ATOM     72  C   UNL A   1      42.554  33.772  35.840  1.00  0.00     0.022 A 
BRANCH  70  73
ATOM     73  S   UNL A   1      41.005  32.654  37.798  1.00  0.00     0.127 S 
ATOM     74  O   UNL A   1      40.994  34.090  38.078  1.00  0.00    -0.237 OA
ATOM     75  O   UNL A   1      39.704  32.095  37.430  1.00  0.00    -0.237 OA
ATOM     76  O   UNL A   1      41.774  31.839  38.727  1.00  0.00    -0.744 OA
ENDBRANCH  70  73
ENDBRANCH  52  66
BRANCH  53  77
ATOM     77  C   UNL A   1      42.431  24.217  27.376  1.00  0.00     0.023 A 
ATOM     78  C   UNL A   1      43.107  24.482  26.170  1.00  0.00     0.012 A 
ATOM     79  C   UNL A   1      41.828  22.957  27.566  1.00  0.00     0.148 A 
ATOM     80  C   UNL A   1      43.161  23.520  25.161  1.00  0.00     0.002 A 
ATOM     81  C   UNL A   1      41.934  21.984  26.579  1.00  0.00     0.091 A 
ATOM     82  F   UNL A   1      41.183  22.729  28.718  1.00  0.00    -0.205 F 
ATOM     83  C   UNL A   1      42.585  22.269  25.368  1.00  0.00     0.022 A 
BRANCH  81  84
ATOM     84  S   UNL A   1      41.344  20.304  26.813  1.00  0.00     0.127 S 
ATOM     85  O   UNL A   1      42.556  19.524  26.574  1.00  0.00    -0.237 OA
ATOM     86  O   UNL A   1      40.896  20.333  28.206  1.00  0.00    -0.237 OA
ATOM     87  O   UNL A   1      40.274  20.119  25.843  1.00  0.00    -0.744 OA
ENDBRANCH  81  84
ENDBRANCH  53  77
BRANCH  65  88
ATOM     88  C   UNL A   1      46.688  25.793  32.698  1.00  0.00     0.023 A 
ATOM     89  C   UNL A   1      46.639  24.878  33.767  1.00  0.00     0.012 A 
ATOM     90  C   UNL A   1      47.921  26.057  32.069  1.00  0.00     0.148 A 
ATOM     91  C   UNL A   1      47.803  24.260  34.225  1.00  0.00     0.002 A 
ATOM     92  C   UNL A   1      49.067  25.399  32.495  1.00  0.00     0.091 A 
ATOM     93  F   UNL A   1      47.949  26.945  31.065  1.00  0.00    -0.205 F 
ATOM     94  C   UNL A   1      49.013  24.510  33.581  1.00  0.00     0.022 A 
BRANCH  92  95
ATOM     95  S   UNL A   1      50.650  25.583  31.664  1.00  0.00     0.127 S 
ATOM     96  O   UNL A   1      51.588  25.437  32.776  1.00  0.00    -0.237 OA
ATOM     97  O   UNL A   1      50.637  24.462  30.724  1.00  0.00    -0.237 OA
ATOM     98  O   UNL A   1      50.625  26.898  31.038  1.00  0.00    -0.744 OA
ENDBRANCH  92  95
ENDBRANCH  65  88
ENDBRANCH  39  40
ENDBRANCH  31  34
ENDBRANCH  29  30
ENDBRANCH  28  29
ENDBRANCH  27  28
ENDBRANCH  26  27
ENDBRANCH   1  26
TORSDOF 22
ENDMDL
MODEL 2
REMARK VINA RESULT:      -9.5      5.603     10.043
REMARK SMILES COc1ccc(/C=C/C(=O)NCCCCCCNC(=O)c2ccc(-c3c4nc(c(-c5cccc(S(=O)(=O)[O-])c5F)c5ccc([nH]5)c(-c5cccc(S(=O)(=O)[O-])c5F)c5nc(c(-c6cccc(S(=O)(=O)[O-])c6F)c6ccc3[nH]6)C=C5)C=C4)cc2)cc1OC[C@@H](C)C(N)=O
REMARK SMILES IDX 13 1 12 2 11 3 9 4 10 5 8 7 7 8 6 9 3 10 4 11 85 12 5 13
REMARK SMILES IDX 84 14 2 15 1 16 86 17 87 18 88 19 89 20 90 21 91 22 92 23
REMARK SMILES IDX 14 26 15 27 16 28 17 29 18 30 19 31 20 33 21 34 22 35 83 36
REMARK SMILES IDX 23 37 82 38 24 39 25 40 26 41 76 42 27 43 81 44 75 45 77 46
REMARK SMILES IDX 28 47 80 48 74 49 73 50 29 52 61 53 41 54 60 55 42 56 45 57
REMARK SMILES IDX 59 58 78 59 43 60 44 61 58 63 79 64 46 65 30 66 31 67 39 68
REMARK SMILES IDX 32 69 34 70 40 71 33 72 35 73 36 74 37 75 38 76 62 77 63 78
REMARK SMILES IDX 71 79 64 80 66 81 72 82 65 83 67 84 68 85 69 86 70 87 47 88
REMARK SMILES IDX 48 89 56 90 49 91 51 92 57 93 50 94 52 95 53 96 54 97 55 98
REMARK H PARENT 11 6 91 24 91 25 18 32 77 51 45 62
REMARK Flexibility Score: inf
ROOT
ATOM      1  C   UNL A   1      39.182  28.054  29.436  1.00  0.00     0.021 C 
ENDROOT
BRANCH   1   2
ATOM      2  C   UNL A   1      37.751  28.594  29.494  1.00  0.00     0.116 C 
BRANCH   2   3
ATOM      3  N   UNL A   1      37.732  30.017  29.191  1.00  0.00    -0.353 N 
ATOM      4  C   UNL A   1      36.768  30.830  28.687  1.00  0.00     0.243 C 
ATOM      5  O   UNL A   1      36.999  32.036  28.590  1.00  0.00    -0.270 OA
ATOM      6  H   UNL A   1      38.578  30.478  29.390  1.00  0.00     0.163 HD
BRANCH   4   7
ATOM      7  C   UNL A   1      35.420  30.334  28.317  1.00  0.00     0.072 C 
ATOM      8  C   UNL A   1      35.091  29.808  27.130  1.00  0.00     0.014 C 
BRANCH   8   9
ATOM      9  C   UNL A   1      33.751  29.358  26.734  1.00  0.00    -0.022 A 
ATOM     10  C   UNL A   1      31.482  28.245  25.509  1.00  0.00     0.160 A 
ATOM     11  C   UNL A   1      31.732  29.620  25.417  1.00  0.00     0.051 A 
ATOM     12  C   UNL A   1      32.276  27.451  26.343  1.00  0.00     0.161 A 
ATOM     13  C   UNL A   1      32.853  30.180  26.046  1.00  0.00     0.012 A 
ATOM     14  C   UNL A   1      33.428  28.008  26.912  1.00  0.00     0.058 A 
BRANCH  10  15
ATOM     15  O   UNL A   1      30.645  27.634  24.616  1.00  0.00    -0.493 OA
ATOM     16  C   UNL A   1      31.189  27.350  23.336  1.00  0.00     0.278 C 
ENDBRANCH  10  15
BRANCH  12  17
ATOM     17  O   UNL A   1      32.087  26.138  26.683  1.00  0.00    -0.489 OA
BRANCH  17  18
ATOM     18  C   UNL A   1      32.704  25.110  25.906  1.00  0.00     0.243 C 
BRANCH  18  19
ATOM     19  C   UNL A   1      31.835  23.862  25.659  1.00  0.00     0.113 C 
ATOM     20  C   UNL A   1      32.444  22.511  26.029  1.00  0.00     0.022 C 
BRANCH  19  21
ATOM     21  C   UNL A   1      30.528  24.006  26.425  1.00  0.00     0.223 C 
ATOM     22  N   UNL A   1      29.666  24.939  25.930  1.00  0.00    -0.369 N 
ATOM     23  O   UNL A   1      30.198  23.303  27.373  1.00  0.00    -0.275 OA
ATOM     24  H   UNL A   1      29.933  25.502  25.169  1.00  0.00     0.159 HD
ATOM     25  H   UNL A   1      28.774  25.048  26.335  1.00  0.00     0.159 HD
ENDBRANCH  19  21
ENDBRANCH  18  19
ENDBRANCH  17  18
ENDBRANCH  12  17
ENDBRANCH   8   9
ENDBRANCH   4   7
ENDBRANCH   2   3
ENDBRANCH   1   2
BRANCH   1  26
ATOM     26  C   UNL A   1      39.459  27.167  28.213  1.00  0.00     0.002 C 
BRANCH  26  27
ATOM     27  C   UNL A   1      39.358  25.657  28.470  1.00  0.00     0.002 C 
BRANCH  27  28
ATOM     28  C   UNL A   1      39.989  24.772  27.392  1.00  0.00     0.021 C 
BRANCH  28  29
ATOM     29  C   UNL A   1      40.346  25.505  26.102  1.00  0.00     0.116 C 
BRANCH  29  30
ATOM     30  N   UNL A   1      41.639  25.083  25.582  1.00  0.00    -0.352 N 
ATOM     31  C   UNL A   1      42.826  25.767  25.560  1.00  0.00     0.251 C 
ATOM     32  H   UNL A   1      41.664  24.180  25.191  1.00  0.00     0.163 HD
ATOM     33  O   UNL A   1      43.763  25.352  24.874  1.00  0.00    -0.269 OA
BRANCH  31  34
ATOM     34  C   UNL A   1      42.981  27.005  26.350  1.00  0.00     0.039 A 
ATOM     35  C   UNL A   1      43.743  26.974  27.521  1.00  0.00     0.014 A 
ATOM     36  C   UNL A   1      42.366  28.192  25.940  1.00  0.00     0.014 A 
ATOM     37  C   UNL A   1      43.930  28.149  28.255  1.00  0.00     0.010 A 
ATOM     38  C   UNL A   1      42.614  29.373  26.632  1.00  0.00     0.010 A 
ATOM     39  C   UNL A   1      43.389  29.363  27.801  1.00  0.00    -0.014 A 
BRANCH  39  40
ATOM     40  C   UNL A   1      43.630  30.634  28.531  1.00  0.00     0.031 A 
ATOM     41  C   UNL A   1      42.703  31.065  29.635  1.00  0.00     0.074 A 
ATOM     42  C   UNL A   1      44.626  31.449  28.132  1.00  0.00     0.049 A 
ATOM     43  N   UNL A   1      42.719  32.165  30.341  1.00  0.00    -0.248 NA
ATOM     44  C   UNL A   1      41.594  30.155  29.968  1.00  0.00     0.031 C 
ATOM     45  C   UNL A   1      45.535  31.186  27.014  1.00  0.00     0.029 A 
ATOM     46  N   UNL A   1      45.019  32.679  28.596  1.00  0.00    -0.354 N 
ATOM     47  C   UNL A   1      41.604  32.102  31.168  1.00  0.00     0.074 A 
ATOM     48  C   UNL A   1      40.916  30.867  30.855  1.00  0.00     0.031 C 
ATOM     49  C   UNL A   1      46.373  32.225  26.875  1.00  0.00     0.029 A 
ATOM     50  C   UNL A   1      46.044  33.240  27.871  1.00  0.00     0.049 A 
ATOM     51  H   UNL A   1      44.607  33.118  29.375  1.00  0.00     0.167 HD
ATOM     52  C   UNL A   1      41.200  32.979  32.117  1.00  0.00     0.034 A 
ATOM     53  C   UNL A   1      46.643  34.442  27.982  1.00  0.00     0.034 A 
ATOM     54  C   UNL A   1      41.911  34.183  32.454  1.00  0.00     0.049 A 
ATOM     55  C   UNL A   1      46.216  35.371  29.084  1.00  0.00     0.074 A 
ATOM     56  C   UNL A   1      41.651  35.078  33.476  1.00  0.00     0.029 A 
ATOM     57  N   UNL A   1      43.010  34.670  31.765  1.00  0.00    -0.354 N 
ATOM     58  N   UNL A   1      45.272  35.210  29.979  1.00  0.00    -0.248 NA
ATOM     59  C   UNL A   1      46.962  36.631  29.220  1.00  0.00     0.031 C 
ATOM     60  C   UNL A   1      42.573  36.126  33.383  1.00  0.00     0.029 A 
ATOM     61  C   UNL A   1      43.430  35.864  32.327  1.00  0.00     0.049 A 
ATOM     62  H   UNL A   1      43.431  34.233  30.990  1.00  0.00     0.167 HD
ATOM     63  C   UNL A   1      45.327  36.330  30.801  1.00  0.00     0.074 A 
ATOM     64  C   UNL A   1      46.414  37.152  30.310  1.00  0.00     0.031 C 
ATOM     65  C   UNL A   1      44.541  36.653  31.857  1.00  0.00     0.034 A 
BRANCH  52  66
ATOM     66  C   UNL A   1      39.948  32.650  32.890  1.00  0.00     0.023 A 
ATOM     67  C   UNL A   1      40.014  31.776  33.994  1.00  0.00     0.012 A 
ATOM     68  C   UNL A   1      38.716  33.244  32.554  1.00  0.00     0.148 A 
ATOM     69  C   UNL A   1      38.869  31.466  34.726  1.00  0.00     0.002 A 
ATOM     70  C   UNL A   1      37.587  32.969  33.318  1.00  0.00     0.091 A 
ATOM     71  F   UNL A   1      38.665  34.056  31.488  1.00  0.00    -0.205 F 
ATOM     72  C   UNL A   1      37.658  32.070  34.394  1.00  0.00     0.022 A 
BRANCH  70  73
ATOM     73  S   UNL A   1      36.002  33.762  33.024  1.00  0.00     0.127 S 
ATOM     74  O   UNL A   1      35.661  33.254  31.695  1.00  0.00    -0.237 OA
ATOM     75  O   UNL A   1      35.183  33.225  34.110  1.00  0.00    -0.237 OA
ATOM     76  O   UNL A   1      36.250  35.194  33.103  1.00  0.00    -0.744 OA
ENDBRANCH  70  73
ENDBRANCH  52  66
BRANCH  53  77
ATOM     77  C   UNL A   1      47.749  34.803  27.051  1.00  0.00     0.023 A 
ATOM     78  C   UNL A   1      47.464  35.532  25.882  1.00  0.00     0.012 A 
ATOM     79  C   UNL A   1      49.085  34.468  27.346  1.00  0.00     0.148 A 
ATOM     80  C   UNL A   1      48.487  35.900  25.007  1.00  0.00     0.002 A 
ATOM     81  C   UNL A   1      50.106  34.886  26.499  1.00  0.00     0.091 A 
ATOM     82  F   UNL A   1      49.334  33.767  28.461  1.00  0.00    -0.205 F 
ATOM     83  C   UNL A   1      49.808  35.588  25.320  1.00  0.00     0.022 A 
BRANCH  81  84
ATOM     84  S   UNL A   1      51.843  34.649  26.892  1.00  0.00     0.127 S 
ATOM     85  O   UNL A   1      51.950  35.309  28.191  1.00  0.00    -0.237 OA
ATOM     86  O   UNL A   1      51.947  33.190  26.931  1.00  0.00    -0.237 OA
ATOM     87  O   UNL A   1      52.585  35.274  25.805  1.00  0.00    -0.744 OA
ENDBRANCH  81  84
ENDBRANCH  53  77
BRANCH  65  88
ATOM     88  C   UNL A   1      44.839  37.940  32.585  1.00  0.00     0.023 A 
ATOM     89  C   UNL A   1      45.836  37.969  33.580  1.00  0.00     0.012 A 
ATOM     90  C   UNL A   1      44.186  39.134  32.224  1.00  0.00     0.148 A 
ATOM     91  C   UNL A   1      46.155  39.163  34.227  1.00  0.00     0.002 A 
ATOM     92  C   UNL A   1      44.546  40.329  32.836  1.00  0.00     0.091 A 
ATOM     93  F   UNL A   1      43.228  39.082  31.287  1.00  0.00    -0.205 F 
ATOM     94  C   UNL A   1      45.521  40.343  33.846  1.00  0.00     0.022 A 
BRANCH  92  95
ATOM     95  S   UNL A   1      43.853  41.911  32.341  1.00  0.00     0.127 S 
ATOM     96  O   UNL A   1      44.563  42.835  33.225  1.00  0.00    -0.237 OA
ATOM     97  O   UNL A   1      44.242  41.992  30.933  1.00  0.00    -0.237 OA
ATOM     98  O   UNL A   1      42.418  41.811  32.567  1.00  0.00    -0.744 OA
ENDBRANCH  92  95
ENDBRANCH  65  88
ENDBRANCH  39  40
ENDBRANCH  31  34
ENDBRANCH  29  30
ENDBRANCH  28  29
ENDBRANCH  27  28
ENDBRANCH  26  27
ENDBRANCH   1  26
TORSDOF 22
ENDMDL
MODEL 3
REMARK VINA RESULT:      -9.4      5.401     10.649
REMARK SMILES COc1ccc(/C=C/C(=O)NCCCCCCNC(=O)c2ccc(-c3c4nc(c(-c5cccc(S(=O)(=O)[O-])c5F)c5ccc([nH]5)c(-c5cccc(S(=O)(=O)[O-])c5F)c5nc(c(-c6cccc(S(=O)(=O)[O-])c6F)c6ccc3[nH]6)C=C5)C=C4)cc2)cc1OC[C@@H](C)C(N)=O
REMARK SMILES IDX 13 1 12 2 11 3 9 4 10 5 8 7 7 8 6 9 3 10 4 11 85 12 5 13
REMARK SMILES IDX 84 14 2 15 1 16 86 17 87 18 88 19 89 20 90 21 91 22 92 23
REMARK SMILES IDX 14 26 15 27 16 28 17 29 18 30 19 31 20 33 21 34 22 35 83 36
REMARK SMILES IDX 23 37 82 38 24 39 25 40 26 41 76 42 27 43 81 44 75 45 77 46
REMARK SMILES IDX 28 47 80 48 74 49 73 50 29 52 61 53 41 54 60 55 42 56 45 57
REMARK SMILES IDX 59 58 78 59 43 60 44 61 58 63 79 64 46 65 30 66 31 67 39 68
REMARK SMILES IDX 32 69 34 70 40 71 33 72 35 73 36 74 37 75 38 76 62 77 63 78
REMARK SMILES IDX 71 79 64 80 66 81 72 82 65 83 67 84 68 85 69 86 70 87 47 88
REMARK SMILES IDX 48 89 56 90 49 91 51 92 57 93 50 94 52 95 53 96 54 97 55 98
REMARK H PARENT 11 6 91 24 91 25 18 32 77 51 45 62
REMARK Flexibility Score: inf
ROOT
ATOM      1  C   UNL A   1      38.819  27.926  29.387  1.00  0.00     0.021 C 
ENDROOT
BRANCH   1   2
ATOM      2  C   UNL A   1      38.515  28.889  28.236  1.00  0.00     0.116 C 
BRANCH   2   3
ATOM      3  N   UNL A   1      37.775  30.044  28.721  1.00  0.00    -0.353 N 
ATOM      4  C   UNL A   1      36.475  30.414  28.595  1.00  0.00     0.243 C 
ATOM      5  O   UNL A   1      36.087  31.430  29.173  1.00  0.00    -0.270 OA
ATOM      6  H   UNL A   1      38.321  30.677  29.240  1.00  0.00     0.163 HD
BRANCH   4   7
ATOM      7  C   UNL A   1      35.484  29.600  27.849  1.00  0.00     0.072 C 
ATOM      8  C   UNL A   1      34.483  30.094  27.109  1.00  0.00     0.014 C 
BRANCH   8   9
ATOM      9  C   UNL A   1      33.466  29.302  26.405  1.00  0.00    -0.022 A 
ATOM     10  C   UNL A   1      31.835  27.945  24.565  1.00  0.00     0.160 A 
ATOM     11  C   UNL A   1      31.402  29.146  25.142  1.00  0.00     0.051 A 
ATOM     12  C   UNL A   1      33.009  27.340  25.025  1.00  0.00     0.161 A 
ATOM     13  C   UNL A   1      32.207  29.813  26.077  1.00  0.00     0.012 A 
ATOM     14  C   UNL A   1      33.834  28.047  25.908  1.00  0.00     0.058 A 
BRANCH  10  15
ATOM     15  O   UNL A   1      31.267  27.493  23.406  1.00  0.00    -0.493 OA
ATOM     16  C   UNL A   1      30.408  28.399  22.731  1.00  0.00     0.278 C 
ENDBRANCH  10  15
BRANCH  12  17
ATOM     17  O   UNL A   1      33.499  26.103  24.702  1.00  0.00    -0.489 OA
BRANCH  17  18
ATOM     18  C   UNL A   1      33.759  25.152  25.737  1.00  0.00     0.243 C 
BRANCH  18  19
ATOM     19  C   UNL A   1      32.741  24.000  25.842  1.00  0.00     0.113 C 
ATOM     20  C   UNL A   1      31.384  24.330  26.462  1.00  0.00     0.022 C 
BRANCH  19  21
ATOM     21  C   UNL A   1      32.489  23.431  24.454  1.00  0.00     0.223 C 
ATOM     22  N   UNL A   1      33.599  23.294  23.673  1.00  0.00    -0.369 N 
ATOM     23  O   UNL A   1      31.400  23.036  24.052  1.00  0.00    -0.275 OA
ATOM     24  H   UNL A   1      34.471  23.611  23.998  1.00  0.00     0.159 HD
ATOM     25  H   UNL A   1      33.526  22.876  22.784  1.00  0.00     0.159 HD
ENDBRANCH  19  21
ENDBRANCH  18  19
ENDBRANCH  17  18
ENDBRANCH  12  17
ENDBRANCH   8   9
ENDBRANCH   4   7
ENDBRANCH   2   3
ENDBRANCH   1   2
BRANCH   1  26
ATOM     26  C   UNL A   1      39.712  26.743  28.982  1.00  0.00     0.002 C 
BRANCH  26  27
ATOM     27  C   UNL A   1      39.179  25.895  27.820  1.00  0.00     0.002 C 
BRANCH  27  28
ATOM     28  C   UNL A   1      39.790  24.496  27.704  1.00  0.00     0.021 C 
BRANCH  28  29
ATOM     29  C   UNL A   1      41.313  24.463  27.789  1.00  0.00     0.116 C 
BRANCH  29  30
ATOM     30  N   UNL A   1      41.929  24.583  26.475  1.00  0.00    -0.352 N 
ATOM     31  C   UNL A   1      42.374  25.707  25.830  1.00  0.00     0.251 C 
ATOM     32  H   UNL A   1      42.041  23.739  25.982  1.00  0.00     0.163 HD
ATOM     33  O   UNL A   1      42.655  25.657  24.630  1.00  0.00    -0.269 OA
BRANCH  31  34
ATOM     34  C   UNL A   1      42.510  26.979  26.568  1.00  0.00     0.039 A 
ATOM     35  C   UNL A   1      43.377  27.042  27.662  1.00  0.00     0.014 A 
ATOM     36  C   UNL A   1      41.776  28.105  26.185  1.00  0.00     0.014 A 
ATOM     37  C   UNL A   1      43.544  28.250  28.343  1.00  0.00     0.010 A 
ATOM     38  C   UNL A   1      42.000  29.324  26.817  1.00  0.00     0.010 A 
ATOM     39  C   UNL A   1      42.877  29.408  27.909  1.00  0.00    -0.014 A 
BRANCH  39  40
ATOM     40  C   UNL A   1      43.091  30.717  28.577  1.00  0.00     0.031 A 
ATOM     41  C   UNL A   1      44.213  31.619  28.139  1.00  0.00     0.074 A 
ATOM     42  C   UNL A   1      42.337  31.049  29.642  1.00  0.00     0.049 A 
ATOM     43  N   UNL A   1      44.590  32.767  28.639  1.00  0.00    -0.248 NA
ATOM     44  C   UNL A   1      45.040  31.156  27.012  1.00  0.00     0.031 C 
ATOM     45  C   UNL A   1      41.279  30.217  30.220  1.00  0.00     0.029 A 
ATOM     46  N   UNL A   1      42.368  32.157  30.453  1.00  0.00    -0.354 N 
ATOM     47  C   UNL A   1      45.719  33.142  27.922  1.00  0.00     0.074 A 
ATOM     48  C   UNL A   1      45.984  32.085  26.969  1.00  0.00     0.031 C 
ATOM     49  C   UNL A   1      40.768  30.839  31.294  1.00  0.00     0.029 A 
ATOM     50  C   UNL A   1      41.478  32.097  31.500  1.00  0.00     0.049 A 
ATOM     51  H   UNL A   1      42.968  32.921  30.299  1.00  0.00     0.167 HD
ATOM     52  C   UNL A   1      46.457  34.272  28.029  1.00  0.00     0.034 A 
ATOM     53  C   UNL A   1      41.268  32.950  32.522  1.00  0.00     0.034 A 
ATOM     54  C   UNL A   1      46.163  35.339  28.948  1.00  0.00     0.049 A 
ATOM     55  C   UNL A   1      42.058  34.227  32.582  1.00  0.00     0.074 A 
ATOM     56  C   UNL A   1      46.776  36.575  29.055  1.00  0.00     0.029 A 
ATOM     57  N   UNL A   1      45.186  35.291  29.929  1.00  0.00    -0.354 N 
ATOM     58  N   UNL A   1      43.004  34.651  31.779  1.00  0.00    -0.248 NA
ATOM     59  C   UNL A   1      41.727  35.165  33.665  1.00  0.00     0.031 C 
ATOM     60  C   UNL A   1      46.193  37.260  30.126  1.00  0.00     0.029 A 
ATOM     61  C   UNL A   1      45.191  36.466  30.661  1.00  0.00     0.049 A 
ATOM     62  H   UNL A   1      44.578  34.532  30.085  1.00  0.00     0.167 HD
ATOM     63  C   UNL A   1      43.361  35.913  32.239  1.00  0.00     0.074 A 
ATOM     64  C   UNL A   1      42.513  36.195  33.378  1.00  0.00     0.031 C 
ATOM     65  C   UNL A   1      44.313  36.755  31.767  1.00  0.00     0.034 A 
BRANCH  52  66
ATOM     66  C   UNL A   1      47.634  34.433  27.101  1.00  0.00     0.023 A 
ATOM     67  C   UNL A   1      47.471  35.101  25.870  1.00  0.00     0.012 A 
ATOM     68  C   UNL A   1      48.912  33.969  27.469  1.00  0.00     0.148 A 
ATOM     69  C   UNL A   1      48.549  35.267  25.001  1.00  0.00     0.002 A 
ATOM     70  C   UNL A   1      49.992  34.181  26.620  1.00  0.00     0.091 A 
ATOM     71  F   UNL A   1      49.046  33.318  28.633  1.00  0.00    -0.205 F 
ATOM     72  C   UNL A   1      49.810  34.816  25.381  1.00  0.00     0.022 A 
BRANCH  70  73
ATOM     73  S   UNL A   1      51.672  33.715  27.057  1.00  0.00     0.127 S 
ATOM     74  O   UNL A   1      51.629  32.263  26.882  1.00  0.00    -0.237 OA
ATOM     75  O   UNL A   1      52.460  34.426  26.051  1.00  0.00    -0.237 OA
ATOM     76  O   UNL A   1      51.873  34.177  28.423  1.00  0.00    -0.744 OA
ENDBRANCH  70  73
ENDBRANCH  52  66
BRANCH  53  77
ATOM     77  C   UNL A   1      40.222  32.638  33.537  1.00  0.00     0.023 A 
ATOM     78  C   UNL A   1      40.566  31.902  34.687  1.00  0.00     0.012 A 
ATOM     79  C   UNL A   1      38.903  33.111  33.391  1.00  0.00     0.148 A 
ATOM     80  C   UNL A   1      39.608  31.618  35.661  1.00  0.00     0.002 A 
ATOM     81  C   UNL A   1      37.968  32.873  34.392  1.00  0.00     0.091 A 
ATOM     82  F   UNL A   1      38.596  33.804  32.286  1.00  0.00    -0.205 F 
ATOM     83  C   UNL A   1      38.314  32.112  35.520  1.00  0.00     0.022 A 
BRANCH  81  84
ATOM     84  S   UNL A   1      36.320  33.586  34.361  1.00  0.00     0.127 S 
ATOM     85  O   UNL A   1      35.622  32.692  33.440  1.00  0.00    -0.237 OA
ATOM     86  O   UNL A   1      35.914  33.468  35.762  1.00  0.00    -0.237 OA
ATOM     87  O   UNL A   1      36.488  34.958  33.900  1.00  0.00    -0.744 OA
ENDBRANCH  81  84
ENDBRANCH  53  77
BRANCH  65  88
ATOM     88  C   UNL A   1      44.477  38.085  32.458  1.00  0.00     0.023 A 
ATOM     89  C   UNL A   1      45.266  38.179  33.622  1.00  0.00     0.012 A 
ATOM     90  C   UNL A   1      43.915  39.252  31.907  1.00  0.00     0.148 A 
ATOM     91  C   UNL A   1      45.466  39.411  34.244  1.00  0.00     0.002 A 
ATOM     92  C   UNL A   1      44.161  40.484  32.502  1.00  0.00     0.091 A 
ATOM     93  F   UNL A   1      43.153  39.139  30.810  1.00  0.00    -0.205 F 
ATOM     94  C   UNL A   1      44.925  40.563  33.678  1.00  0.00     0.022 A 
BRANCH  92  95
ATOM     95  S   UNL A   1      43.589  42.030  31.789  1.00  0.00     0.127 S 
ATOM     96  O   UNL A   1      44.283  42.039  30.503  1.00  0.00    -0.237 OA
ATOM     97  O   UNL A   1      42.144  41.814  31.702  1.00  0.00    -0.237 OA
ATOM     98  O   UNL A   1      43.988  43.075  32.721  1.00  0.00    -0.744 OA
ENDBRANCH  92  95
ENDBRANCH  65  88
ENDBRANCH  39  40
ENDBRANCH  31  34
ENDBRANCH  29  30
ENDBRANCH  28  29
ENDBRANCH  27  28
ENDBRANCH  26  27
ENDBRANCH   1  26
TORSDOF 22
ENDMDL
