MODEL 1
REMARK VINA RESULT:     -11.8      0.000      0.000
REMARK SMILES O=C(NCCCCCCNC(=O)c1ccccc1Nc1cccc(C(F)(F)F)c1)c1ccc(-c2c3nc(c(-c4cccc(S(=O)(=O)[O-])c4F)c4ccc([nH]4)c(-c4cccc(S(=O)(=O)[O-])c4F)c4nc(c(-c5cccc(S(=O)(=O)[O-])c5F)c5ccc2[nH]5)C=C4)C=C3)cc1
REMARK SMILES IDX 6 1 5 2 4 3 3 4 1 5 2 6 30 8 31 9 92 10 32 11 91 12 33 13
REMARK SMILES IDX 34 14 35 15 85 16 36 17 90 18 84 19 86 20 37 21 89 22 83 23
REMARK SMILES IDX 82 24 38 26 70 27 50 28 69 29 51 30 54 31 68 32 87 33 52 34
REMARK SMILES IDX 53 35 67 37 88 38 55 39 39 40 40 41 48 42 41 43 43 44 49 45
REMARK SMILES IDX 42 46 44 47 45 48 46 49 47 50 71 51 72 52 80 53 73 54 75 55
REMARK SMILES IDX 81 56 74 57 76 58 77 59 78 60 79 61 56 62 57 63 65 64 58 65
REMARK SMILES IDX 60 66 66 67 59 68 61 69 62 70 63 71 64 72 7 73 8 74 9 75
REMARK SMILES IDX 10 76 11 77 12 79 13 80 14 81 18 82 15 83 17 84 16 85 19 86
REMARK SMILES IDX 20 88 21 89 29 90 22 91 24 92 23 93 25 94 26 95 27 96 28 97
REMARK H PARENT 3 7 86 25 54 36 10 78 19 87
REMARK Flexibility Score: inf
ROOT
ATOM      1  C   UNL A   1      35.404  23.443  23.739  1.00  0.00     0.002 C 
ENDROOT
BRANCH   1   2
ATOM      2  C   UNL A   1      36.690  22.689  24.076  1.00  0.00     0.021 C 
BRANCH   2   3
ATOM      3  C   UNL A   1      36.970  22.500  25.562  1.00  0.00     0.116 C 
BRANCH   3   4
ATOM      4  N   UNL A   1      37.875  21.397  25.832  1.00  0.00    -0.352 N 
ATOM      5  O   UNL A   1      39.836  20.403  26.322  1.00  0.00    -0.269 OA
ATOM      6  C   UNL A   1      39.174  21.437  26.281  1.00  0.00     0.251 C 
ATOM      7  H   UNL A   1      37.509  20.498  25.672  1.00  0.00     0.163 HD
BRANCH   6   8
ATOM      8  C   UNL A   1      39.777  22.729  26.681  1.00  0.00     0.039 A 
ATOM      9  C   UNL A   1      40.708  22.794  27.723  1.00  0.00     0.014 A 
ATOM     10  C   UNL A   1      39.411  23.894  25.999  1.00  0.00     0.014 A 
ATOM     11  C   UNL A   1      41.167  24.030  28.166  1.00  0.00     0.010 A 
ATOM     12  C   UNL A   1      39.937  25.127  26.395  1.00  0.00     0.010 A 
ATOM     13  C   UNL A   1      40.798  25.210  27.499  1.00  0.00    -0.014 A 
BRANCH  13  14
ATOM     14  C   UNL A   1      41.400  26.502  27.920  1.00  0.00     0.031 A 
ATOM     15  C   UNL A   1      42.834  26.839  27.620  1.00  0.00     0.074 A 
ATOM     16  C   UNL A   1      40.623  27.381  28.585  1.00  0.00     0.049 A 
ATOM     17  N   UNL A   1      43.490  27.939  27.888  1.00  0.00    -0.248 NA
ATOM     18  C   UNL A   1      43.641  25.811  26.943  1.00  0.00     0.031 C 
ATOM     19  C   UNL A   1      39.233  27.141  28.981  1.00  0.00     0.029 A 
ATOM     20  N   UNL A   1      40.886  28.645  29.047  1.00  0.00    -0.354 N 
ATOM     21  C   UNL A   1      44.790  27.729  27.446  1.00  0.00     0.074 A 
ATOM     22  C   UNL A   1      44.835  26.390  26.897  1.00  0.00     0.031 C 
ATOM     23  C   UNL A   1      38.757  28.230  29.601  1.00  0.00     0.029 A 
ATOM     24  C   UNL A   1      39.818  29.226  29.688  1.00  0.00     0.049 A 
ATOM     25  H   UNL A   1      41.755  29.092  28.932  1.00  0.00     0.167 HD
ATOM     26  C   UNL A   1      45.843  28.581  27.477  1.00  0.00     0.034 A 
ATOM     27  C   UNL A   1      39.702  30.426  30.289  1.00  0.00     0.034 A 
ATOM     28  C   UNL A   1      45.783  29.926  27.988  1.00  0.00     0.049 A 
ATOM     29  C   UNL A   1      40.877  31.361  30.275  1.00  0.00     0.074 A 
ATOM     30  C   UNL A   1      46.779  30.887  28.001  1.00  0.00     0.029 A 
ATOM     31  N   UNL A   1      44.669  30.500  28.582  1.00  0.00    -0.354 N 
ATOM     32  N   UNL A   1      42.055  31.194  29.725  1.00  0.00    -0.248 NA
ATOM     33  C   UNL A   1      40.698  32.660  30.938  1.00  0.00     0.031 C 
ATOM     34  C   UNL A   1      46.271  32.038  28.614  1.00  0.00     0.029 A 
ATOM     35  C   UNL A   1      44.954  31.798  28.972  1.00  0.00     0.049 A 
ATOM     36  H   UNL A   1      43.802  30.050  28.708  1.00  0.00     0.167 HD
ATOM     37  C   UNL A   1      42.753  32.371  29.960  1.00  0.00     0.074 A 
ATOM     38  C   UNL A   1      41.853  33.256  30.671  1.00  0.00     0.031 C 
ATOM     39  C   UNL A   1      44.033  32.683  29.638  1.00  0.00     0.034 A 
BRANCH  26  40
ATOM     40  C   UNL A   1      47.151  28.110  26.893  1.00  0.00     0.023 A 
ATOM     41  C   UNL A   1      48.178  27.681  27.758  1.00  0.00     0.012 A 
ATOM     42  C   UNL A   1      47.334  28.007  25.500  1.00  0.00     0.148 A 
ATOM     43  C   UNL A   1      49.375  27.178  27.248  1.00  0.00     0.002 A 
ATOM     44  C   UNL A   1      48.516  27.472  24.998  1.00  0.00     0.091 A 
ATOM     45  F   UNL A   1      46.354  28.437  24.692  1.00  0.00    -0.205 F 
ATOM     46  C   UNL A   1      49.539  27.063  25.870  1.00  0.00     0.022 A 
BRANCH  44  47
ATOM     47  S   UNL A   1      48.795  27.216  23.241  1.00  0.00     0.127 S 
ATOM     48  O   UNL A   1      50.256  27.227  23.171  1.00  0.00    -0.237 OA
ATOM     49  O   UNL A   1      48.185  25.905  23.016  1.00  0.00    -0.237 OA
ATOM     50  O   UNL A   1      48.127  28.319  22.566  1.00  0.00    -0.744 OA
ENDBRANCH  44  47
ENDBRANCH  26  40
BRANCH  27  51
ATOM     51  C   UNL A   1      38.403  30.821  30.901  1.00  0.00     0.023 A 
ATOM     52  C   UNL A   1      38.172  30.564  32.265  1.00  0.00     0.012 A 
ATOM     53  C   UNL A   1      37.421  31.501  30.154  1.00  0.00     0.148 A 
ATOM     54  C   UNL A   1      36.979  30.958  32.870  1.00  0.00     0.002 A 
ATOM     55  C   UNL A   1      36.261  31.943  30.778  1.00  0.00     0.091 A 
ATOM     56  F   UNL A   1      37.648  31.719  28.850  1.00  0.00    -0.205 F 
ATOM     57  C   UNL A   1      36.030  31.659  32.131  1.00  0.00     0.022 A 
BRANCH  55  58
ATOM     58  S   UNL A   1      35.067  32.984  29.927  1.00  0.00     0.127 S 
ATOM     59  O   UNL A   1      34.059  33.189  30.961  1.00  0.00    -0.237 OA
ATOM     60  O   UNL A   1      35.866  34.167  29.602  1.00  0.00    -0.237 OA
ATOM     61  O   UNL A   1      34.648  32.214  28.765  1.00  0.00    -0.744 OA
ENDBRANCH  55  58
ENDBRANCH  27  51
BRANCH  39  62
ATOM     62  C   UNL A   1      44.534  34.042  30.045  1.00  0.00     0.023 A 
ATOM     63  C   UNL A   1      45.324  34.168  31.206  1.00  0.00     0.012 A 
ATOM     64  C   UNL A   1      44.272  35.179  29.259  1.00  0.00     0.148 A 
ATOM     65  C   UNL A   1      45.819  35.412  31.594  1.00  0.00     0.002 A 
ATOM     66  C   UNL A   1      44.804  36.409  29.629  1.00  0.00     0.091 A 
ATOM     67  F   UNL A   1      43.498  35.043  28.172  1.00  0.00    -0.205 F 
ATOM     68  C   UNL A   1      45.569  36.529  30.801  1.00  0.00     0.022 A 
BRANCH  66  69
ATOM     69  S   UNL A   1      44.601  37.880  28.618  1.00  0.00     0.127 S 
ATOM     70  O   UNL A   1      45.370  38.868  29.372  1.00  0.00    -0.237 OA
ATOM     71  O   UNL A   1      45.208  37.475  27.348  1.00  0.00    -0.237 OA
ATOM     72  O   UNL A   1      43.166  38.118  28.549  1.00  0.00    -0.744 OA
ENDBRANCH  66  69
ENDBRANCH  39  62
ENDBRANCH  13  14
ENDBRANCH   6   8
ENDBRANCH   3   4
ENDBRANCH   2   3
ENDBRANCH   1   2
BRANCH   1  73
ATOM     73  C   UNL A   1      35.063  24.626  24.650  1.00  0.00     0.002 C 
BRANCH  73  74
ATOM     74  C   UNL A   1      33.949  25.559  24.161  1.00  0.00     0.021 C 
BRANCH  74  75
ATOM     75  C   UNL A   1      33.935  26.955  24.781  1.00  0.00     0.116 C 
BRANCH  75  76
ATOM     76  N   UNL A   1      33.237  26.990  26.054  1.00  0.00    -0.352 N 
ATOM     77  C   UNL A   1      31.907  27.210  26.298  1.00  0.00     0.253 C 
ATOM     78  H   UNL A   1      33.796  26.836  26.850  1.00  0.00     0.163 HD
ATOM     79  O   UNL A   1      31.492  27.268  27.452  1.00  0.00    -0.269 OA
BRANCH  77  80
ATOM     80  C   UNL A   1      30.964  27.401  25.176  1.00  0.00     0.063 A 
ATOM     81  C   UNL A   1      30.984  28.661  24.559  1.00  0.00     0.016 A 
ATOM     82  C   UNL A   1      30.054  26.402  24.771  1.00  0.00     0.051 A 
ATOM     83  C   UNL A   1      30.127  28.933  23.496  1.00  0.00     0.001 A 
ATOM     84  C   UNL A   1      29.215  26.699  23.684  1.00  0.00     0.027 A 
ATOM     85  C   UNL A   1      29.248  27.949  23.054  1.00  0.00     0.002 A 
BRANCH  82  86
ATOM     86  N   UNL A   1      29.998  25.147  25.411  1.00  0.00    -0.355 N 
ATOM     87  H   UNL A   1      29.211  25.024  25.990  1.00  0.00     0.167 HD
BRANCH  86  88
ATOM     88  C   UNL A   1      30.863  24.040  25.373  1.00  0.00     0.039 A 
ATOM     89  C   UNL A   1      30.964  23.298  24.190  1.00  0.00     0.026 A 
ATOM     90  C   UNL A   1      31.679  23.683  26.453  1.00  0.00     0.039 A 
ATOM     91  C   UNL A   1      31.856  22.228  24.085  1.00  0.00     0.003 A 
ATOM     92  C   UNL A   1      32.572  22.599  26.370  1.00  0.00     0.058 A 
ATOM     93  C   UNL A   1      32.658  21.882  25.170  1.00  0.00     0.013 A 
BRANCH  92  94
ATOM     94  C   UNL A   1      33.448  22.224  27.539  1.00  0.00     0.416 C 
ATOM     95  F   UNL A   1      33.971  20.973  27.423  1.00  0.00    -0.166 F 
ATOM     96  F   UNL A   1      34.509  23.066  27.678  1.00  0.00    -0.166 F 
ATOM     97  F   UNL A   1      32.794  22.248  28.734  1.00  0.00    -0.166 F 
ENDBRANCH  92  94
ENDBRANCH  86  88
ENDBRANCH  82  86
ENDBRANCH  77  80
ENDBRANCH  75  76
ENDBRANCH  74  75
ENDBRANCH  73  74
ENDBRANCH   1  73
TORSDOF 19
ENDMDL
MODEL 2
REMARK VINA RESULT:     -11.7      4.887      9.451
REMARK SMILES O=C(NCCCCCCNC(=O)c1ccccc1Nc1cccc(C(F)(F)F)c1)c1ccc(-c2c3nc(c(-c4cccc(S(=O)(=O)[O-])c4F)c4ccc([nH]4)c(-c4cccc(S(=O)(=O)[O-])c4F)c4nc(c(-c5cccc(S(=O)(=O)[O-])c5F)c5ccc2[nH]5)C=C4)C=C3)cc1
REMARK SMILES IDX 6 1 5 2 4 3 3 4 1 5 2 6 30 8 31 9 92 10 32 11 91 12 33 13
REMARK SMILES IDX 34 14 35 15 85 16 36 17 90 18 84 19 86 20 37 21 89 22 83 23
REMARK SMILES IDX 82 24 38 26 70 27 50 28 69 29 51 30 54 31 68 32 87 33 52 34
REMARK SMILES IDX 53 35 67 37 88 38 55 39 39 40 40 41 48 42 41 43 43 44 49 45
REMARK SMILES IDX 42 46 44 47 45 48 46 49 47 50 71 51 72 52 80 53 73 54 75 55
REMARK SMILES IDX 81 56 74 57 76 58 77 59 78 60 79 61 56 62 57 63 65 64 58 65
REMARK SMILES IDX 60 66 66 67 59 68 61 69 62 70 63 71 64 72 7 73 8 74 9 75
REMARK SMILES IDX 10 76 11 77 12 79 13 80 14 81 18 82 15 83 17 84 16 85 19 86
REMARK SMILES IDX 20 88 21 89 29 90 22 91 24 92 23 93 25 94 26 95 27 96 28 97
REMARK H PARENT 3 7 86 25 54 36 10 78 19 87
REMARK Flexibility Score: inf
ROOT
ATOM      1  C   UNL A   1      31.879  28.560  24.883  1.00  0.00     0.002 C 
ENDROOT
BRANCH   1   2
ATOM      2  C   UNL A   1      33.352  28.171  25.017  1.00  0.00     0.021 C 
BRANCH   2   3
ATOM      3  C   UNL A   1      34.021  28.577  26.324  1.00  0.00     0.116 C 
BRANCH   3   4
ATOM      4  N   UNL A   1      33.795  29.969  26.667  1.00  0.00    -0.352 N 
ATOM      5  O   UNL A   1      34.115  31.905  27.774  1.00  0.00    -0.269 OA
ATOM      6  C   UNL A   1      34.535  30.787  27.489  1.00  0.00     0.251 C 
ATOM      7  H   UNL A   1      33.005  30.386  26.256  1.00  0.00     0.163 HD
BRANCH   6   8
ATOM      8  C   UNL A   1      35.817  30.303  28.051  1.00  0.00     0.039 A 
ATOM      9  C   UNL A   1      37.014  30.460  27.346  1.00  0.00     0.014 A 
ATOM     10  C   UNL A   1      35.822  29.688  29.308  1.00  0.00     0.014 A 
ATOM     11  C   UNL A   1      38.185  29.889  27.832  1.00  0.00     0.010 A 
ATOM     12  C   UNL A   1      37.018  29.185  29.831  1.00  0.00     0.010 A 
ATOM     13  C   UNL A   1      38.204  29.257  29.087  1.00  0.00    -0.014 A 
BRANCH  13  14
ATOM     14  C   UNL A   1      39.495  28.763  29.633  1.00  0.00     0.031 A 
ATOM     15  C   UNL A   1      40.110  29.364  30.866  1.00  0.00     0.074 A 
ATOM     16  C   UNL A   1      40.113  27.750  28.994  1.00  0.00     0.049 A 
ATOM     17  N   UNL A   1      41.210  29.017  31.485  1.00  0.00    -0.248 NA
ATOM     18  C   UNL A   1      39.413  30.505  31.481  1.00  0.00     0.031 C 
ATOM     19  C   UNL A   1      39.638  27.124  27.757  1.00  0.00     0.029 A 
ATOM     20  N   UNL A   1      41.266  27.069  29.288  1.00  0.00    -0.354 N 
ATOM     21  C   UNL A   1      41.357  29.911  32.539  1.00  0.00     0.074 A 
ATOM     22  C   UNL A   1      40.237  30.825  32.472  1.00  0.00     0.031 C 
ATOM     23  C   UNL A   1      40.476  26.136  27.413  1.00  0.00     0.029 A 
ATOM     24  C   UNL A   1      41.570  26.087  28.376  1.00  0.00     0.049 A 
ATOM     25  H   UNL A   1      41.824  27.266  30.076  1.00  0.00     0.167 HD
ATOM     26  C   UNL A   1      42.326  29.953  33.484  1.00  0.00     0.034 A 
ATOM     27  C   UNL A   1      42.617  25.242  28.312  1.00  0.00     0.034 A 
ATOM     28  C   UNL A   1      43.418  29.017  33.568  1.00  0.00     0.049 A 
ATOM     29  C   UNL A   1      43.656  25.290  29.395  1.00  0.00     0.074 A 
ATOM     30  C   UNL A   1      44.412  28.938  34.529  1.00  0.00     0.029 A 
ATOM     31  N   UNL A   1      43.665  28.001  32.657  1.00  0.00    -0.354 N 
ATOM     32  N   UNL A   1      43.699  26.053  30.461  1.00  0.00    -0.248 NA
ATOM     33  C   UNL A   1      44.774  24.345  29.284  1.00  0.00     0.031 C 
ATOM     34  C   UNL A   1      45.266  27.882  34.191  1.00  0.00     0.029 A 
ATOM     35  C   UNL A   1      44.798  27.295  33.027  1.00  0.00     0.049 A 
ATOM     36  H   UNL A   1      43.114  27.810  31.863  1.00  0.00     0.167 HD
ATOM     37  C   UNL A   1      44.837  25.669  31.156  1.00  0.00     0.074 A 
ATOM     38  C   UNL A   1      45.436  24.582  30.408  1.00  0.00     0.031 C 
ATOM     39  C   UNL A   1      45.355  26.186  32.298  1.00  0.00     0.034 A 
BRANCH  26  40
ATOM     40  C   UNL A   1      42.231  31.017  34.548  1.00  0.00     0.023 A 
ATOM     41  C   UNL A   1      41.614  30.711  35.777  1.00  0.00     0.012 A 
ATOM     42  C   UNL A   1      42.825  32.283  34.369  1.00  0.00     0.148 A 
ATOM     43  C   UNL A   1      41.568  31.653  36.805  1.00  0.00     0.002 A 
ATOM     44  C   UNL A   1      42.807  33.205  35.411  1.00  0.00     0.091 A 
ATOM     45  F   UNL A   1      43.391  32.563  33.187  1.00  0.00    -0.205 F 
ATOM     46  C   UNL A   1      42.175  32.893  36.626  1.00  0.00     0.022 A 
BRANCH  44  47
ATOM     47  S   UNL A   1      43.622  34.804  35.305  1.00  0.00     0.127 S 
ATOM     48  O   UNL A   1      43.191  35.435  36.551  1.00  0.00    -0.237 OA
ATOM     49  O   UNL A   1      45.036  34.431  35.267  1.00  0.00    -0.237 OA
ATOM     50  O   UNL A   1      43.126  35.423  34.084  1.00  0.00    -0.744 OA
ENDBRANCH  44  47
ENDBRANCH  26  40
BRANCH  27  51
ATOM     51  C   UNL A   1      42.693  24.245  27.208  1.00  0.00     0.023 A 
ATOM     52  C   UNL A   1      43.477  24.526  26.074  1.00  0.00     0.012 A 
ATOM     53  C   UNL A   1      42.042  23.000  27.302  1.00  0.00     0.148 A 
ATOM     54  C   UNL A   1      43.595  23.593  25.043  1.00  0.00     0.002 A 
ATOM     55  C   UNL A   1      42.211  22.053  26.300  1.00  0.00     0.091 A 
ATOM     56  F   UNL A   1      41.280  22.758  28.380  1.00  0.00    -0.205 F 
ATOM     57  C   UNL A   1      42.974  22.352  25.162  1.00  0.00     0.022 A 
BRANCH  55  58
ATOM     58  S   UNL A   1      41.568  20.382  26.459  1.00  0.00     0.127 S 
ATOM     59  O   UNL A   1      42.022  20.013  27.795  1.00  0.00    -0.237 OA
ATOM     60  O   UNL A   1      40.125  20.593  26.334  1.00  0.00    -0.237 OA
ATOM     61  O   UNL A   1      42.156  19.640  25.352  1.00  0.00    -0.744 OA
ENDBRANCH  55  58
ENDBRANCH  27  51
BRANCH  39  62
ATOM     62  C   UNL A   1      46.631  25.576  32.814  1.00  0.00     0.023 A 
ATOM     63  C   UNL A   1      47.868  26.111  32.405  1.00  0.00     0.012 A 
ATOM     64  C   UNL A   1      46.607  24.514  33.738  1.00  0.00     0.148 A 
ATOM     65  C   UNL A   1      49.064  25.579  32.885  1.00  0.00     0.002 A 
ATOM     66  C   UNL A   1      47.801  24.016  34.245  1.00  0.00     0.091 A 
ATOM     67  F   UNL A   1      45.419  24.002  34.095  1.00  0.00    -0.205 F 
ATOM     68  C   UNL A   1      49.030  24.540  33.812  1.00  0.00     0.022 A 
BRANCH  66  69
ATOM     69  S   UNL A   1      47.844  22.738  35.506  1.00  0.00     0.127 S 
ATOM     70  O   UNL A   1      49.252  22.755  35.900  1.00  0.00    -0.237 OA
ATOM     71  O   UNL A   1      46.922  23.261  36.516  1.00  0.00    -0.237 OA
ATOM     72  O   UNL A   1      47.388  21.519  34.851  1.00  0.00    -0.744 OA
ENDBRANCH  66  69
ENDBRANCH  39  62
ENDBRANCH  13  14
ENDBRANCH   6   8
ENDBRANCH   3   4
ENDBRANCH   2   3
ENDBRANCH   1   2
BRANCH   1  73
ATOM     73  C   UNL A   1      30.889  27.398  24.766  1.00  0.00     0.002 C 
BRANCH  73  74
ATOM     74  C   UNL A   1      30.765  26.487  25.994  1.00  0.00     0.021 C 
BRANCH  74  75
ATOM     75  C   UNL A   1      30.565  25.001  25.698  1.00  0.00     0.116 C 
BRANCH  75  76
ATOM     76  N   UNL A   1      30.954  24.156  26.814  1.00  0.00    -0.352 N 
ATOM     77  C   UNL A   1      32.103  23.429  26.979  1.00  0.00     0.253 C 
ATOM     78  H   UNL A   1      30.303  24.097  27.551  1.00  0.00     0.163 HD
ATOM     79  O   UNL A   1      32.245  22.712  27.966  1.00  0.00    -0.269 OA
BRANCH  77  80
ATOM     80  C   UNL A   1      33.174  23.483  25.962  1.00  0.00     0.063 A 
ATOM     81  C   UNL A   1      33.968  24.641  25.960  1.00  0.00     0.016 A 
ATOM     82  C   UNL A   1      33.367  22.462  25.007  1.00  0.00     0.051 A 
ATOM     83  C   UNL A   1      34.998  24.780  25.035  1.00  0.00     0.001 A 
ATOM     84  C   UNL A   1      34.426  22.623  24.098  1.00  0.00     0.027 A 
ATOM     85  C   UNL A   1      35.231  23.768  24.108  1.00  0.00     0.002 A 
BRANCH  82  86
ATOM     86  N   UNL A   1      32.549  21.314  24.975  1.00  0.00    -0.355 N 
ATOM     87  H   UNL A   1      31.723  21.393  25.506  1.00  0.00     0.167 HD
BRANCH  86  88
ATOM     88  C   UNL A   1      32.699  20.078  24.324  1.00  0.00     0.039 A 
ATOM     89  C   UNL A   1      32.123  19.903  23.060  1.00  0.00     0.026 A 
ATOM     90  C   UNL A   1      33.457  19.030  24.860  1.00  0.00     0.039 A 
ATOM     91  C   UNL A   1      32.298  18.714  22.347  1.00  0.00     0.003 A 
ATOM     92  C   UNL A   1      33.631  17.820  24.164  1.00  0.00     0.058 A 
ATOM     93  C   UNL A   1      33.051  17.678  22.896  1.00  0.00     0.013 A 
BRANCH  92  94
ATOM     94  C   UNL A   1      34.450  16.698  24.750  1.00  0.00     0.416 C 
ATOM     95  F   UNL A   1      33.979  16.278  25.955  1.00  0.00    -0.166 F 
ATOM     96  F   UNL A   1      34.466  15.599  23.946  1.00  0.00    -0.166 F 
ATOM     97  F   UNL A   1      35.756  17.030  24.952  1.00  0.00    -0.166 F 
ENDBRANCH  92  94
ENDBRANCH  86  88
ENDBRANCH  82  86
ENDBRANCH  77  80
ENDBRANCH  75  76
ENDBRANCH  74  75
ENDBRANCH  73  74
ENDBRANCH   1  73
TORSDOF 19
ENDMDL
MODEL 3
REMARK VINA RESULT:     -11.7      2.243      2.739
REMARK SMILES O=C(NCCCCCCNC(=O)c1ccccc1Nc1cccc(C(F)(F)F)c1)c1ccc(-c2c3nc(c(-c4cccc(S(=O)(=O)[O-])c4F)c4ccc([nH]4)c(-c4cccc(S(=O)(=O)[O-])c4F)c4nc(c(-c5cccc(S(=O)(=O)[O-])c5F)c5ccc2[nH]5)C=C4)C=C3)cc1
REMARK SMILES IDX 6 1 5 2 4 3 3 4 1 5 2 6 30 8 31 9 92 10 32 11 91 12 33 13
REMARK SMILES IDX 34 14 35 15 85 16 36 17 90 18 84 19 86 20 37 21 89 22 83 23
REMARK SMILES IDX 82 24 38 26 70 27 50 28 69 29 51 30 54 31 68 32 87 33 52 34
REMARK SMILES IDX 53 35 67 37 88 38 55 39 39 40 40 41 48 42 41 43 43 44 49 45
REMARK SMILES IDX 42 46 44 47 45 48 46 49 47 50 71 51 72 52 80 53 73 54 75 55
REMARK SMILES IDX 81 56 74 57 76 58 77 59 78 60 79 61 56 62 57 63 65 64 58 65
REMARK SMILES IDX 60 66 66 67 59 68 61 69 62 70 63 71 64 72 7 73 8 74 9 75
REMARK SMILES IDX 10 76 11 77 12 79 13 80 14 81 18 82 15 83 17 84 16 85 19 86
REMARK SMILES IDX 20 88 21 89 29 90 22 91 24 92 23 93 25 94 26 95 27 96 28 97
REMARK H PARENT 3 7 86 25 54 36 10 78 19 87
REMARK Flexibility Score: inf
ROOT
ATOM      1  C   UNL A   1      34.901  23.943  23.590  1.00  0.00     0.002 C 
ENDROOT
BRANCH   1   2
ATOM      2  C   UNL A   1      35.651  23.461  24.833  1.00  0.00     0.021 C 
BRANCH   2   3
ATOM      3  C   UNL A   1      37.156  23.699  24.824  1.00  0.00     0.116 C 
BRANCH   3   4
ATOM      4  N   UNL A   1      37.906  22.594  25.395  1.00  0.00    -0.352 N 
ATOM      5  O   UNL A   1      39.598  21.592  26.493  1.00  0.00    -0.269 OA
ATOM      6  C   UNL A   1      39.008  22.633  26.217  1.00  0.00     0.251 C 
ATOM      7  H   UNL A   1      37.582  21.695  25.163  1.00  0.00     0.163 HD
BRANCH   6   8
ATOM      8  C   UNL A   1      39.495  23.931  26.737  1.00  0.00     0.039 A 
ATOM      9  C   UNL A   1      39.314  24.279  28.079  1.00  0.00     0.014 A 
ATOM     10  C   UNL A   1      40.150  24.811  25.870  1.00  0.00     0.014 A 
ATOM     11  C   UNL A   1      39.666  25.551  28.519  1.00  0.00     0.010 A 
ATOM     12  C   UNL A   1      40.575  26.059  26.335  1.00  0.00     0.010 A 
ATOM     13  C   UNL A   1      40.313  26.451  27.656  1.00  0.00    -0.014 A 
BRANCH  13  14
ATOM     14  C   UNL A   1      40.785  27.756  28.187  1.00  0.00     0.031 A 
ATOM     15  C   UNL A   1      42.243  28.122  28.200  1.00  0.00     0.074 A 
ATOM     16  C   UNL A   1      39.867  28.621  28.664  1.00  0.00     0.049 A 
ATOM     17  N   UNL A   1      42.805  29.236  28.595  1.00  0.00    -0.248 NA
ATOM     18  C   UNL A   1      43.197  27.109  27.718  1.00  0.00     0.031 C 
ATOM     19  C   UNL A   1      38.429  28.353  28.753  1.00  0.00     0.029 A 
ATOM     20  N   UNL A   1      39.999  29.892  29.162  1.00  0.00    -0.354 N 
ATOM     21  C   UNL A   1      44.174  29.052  28.443  1.00  0.00     0.074 A 
ATOM     22  C   UNL A   1      44.361  27.712  27.926  1.00  0.00     0.031 C 
ATOM     23  C   UNL A   1      37.810  29.434  29.249  1.00  0.00     0.029 A 
ATOM     24  C   UNL A   1      38.807  30.452  29.555  1.00  0.00     0.049 A 
ATOM     25  H   UNL A   1      40.864  30.356  29.233  1.00  0.00     0.167 HD
ATOM     26  C   UNL A   1      45.178  29.925  28.693  1.00  0.00     0.034 A 
ATOM     27  C   UNL A   1      38.541  31.651  30.109  1.00  0.00     0.034 A 
ATOM     28  C   UNL A   1      44.983  31.271  29.170  1.00  0.00     0.049 A 
ATOM     29  C   UNL A   1      39.673  32.610  30.340  1.00  0.00     0.074 A 
ATOM     30  C   UNL A   1      45.935  32.252  29.390  1.00  0.00     0.029 A 
ATOM     31  N   UNL A   1      43.757  31.823  29.507  1.00  0.00    -0.354 N 
ATOM     32  N   UNL A   1      40.945  32.466  30.057  1.00  0.00    -0.248 NA
ATOM     33  C   UNL A   1      39.331  33.907  30.941  1.00  0.00     0.031 C 
ATOM     34  C   UNL A   1      45.284  33.394  29.871  1.00  0.00     0.029 A 
ATOM     35  C   UNL A   1      43.927  33.128  29.940  1.00  0.00     0.049 A 
ATOM     36  H   UNL A   1      42.892  31.355  29.447  1.00  0.00     0.167 HD
ATOM     37  C   UNL A   1      41.554  33.658  30.428  1.00  0.00     0.074 A 
ATOM     38  C   UNL A   1      40.505  34.525  30.923  1.00  0.00     0.031 C 
ATOM     39  C   UNL A   1      42.867  33.995  30.386  1.00  0.00     0.034 A 
BRANCH  26  40
ATOM     40  C   UNL A   1      46.590  29.480  28.407  1.00  0.00     0.023 A 
ATOM     41  C   UNL A   1      47.162  29.764  27.150  1.00  0.00     0.012 A 
ATOM     42  C   UNL A   1      47.377  28.865  29.401  1.00  0.00     0.148 A 
ATOM     43  C   UNL A   1      48.487  29.424  26.879  1.00  0.00     0.002 A 
ATOM     44  C   UNL A   1      48.709  28.560  29.135  1.00  0.00     0.091 A 
ATOM     45  F   UNL A   1      46.810  28.585  30.584  1.00  0.00    -0.205 F 
ATOM     46  C   UNL A   1      49.262  28.834  27.873  1.00  0.00     0.022 A 
BRANCH  44  47
ATOM     47  S   UNL A   1      49.809  27.863  30.373  1.00  0.00     0.127 S 
ATOM     48  O   UNL A   1      49.182  26.567  30.626  1.00  0.00    -0.237 OA
ATOM     49  O   UNL A   1      51.082  27.794  29.654  1.00  0.00    -0.237 OA
ATOM     50  O   UNL A   1      49.795  28.797  31.491  1.00  0.00    -0.744 OA
ENDBRANCH  44  47
ENDBRANCH  26  40
BRANCH  27  51
ATOM     51  C   UNL A   1      37.134  32.021  30.425  1.00  0.00     0.023 A 
ATOM     52  C   UNL A   1      36.643  31.830  31.730  1.00  0.00     0.012 A 
ATOM     53  C   UNL A   1      36.300  32.614  29.457  1.00  0.00     0.148 A 
ATOM     54  C   UNL A   1      35.341  32.203  32.060  1.00  0.00     0.002 A 
ATOM     55  C   UNL A   1      35.024  33.037  29.809  1.00  0.00     0.091 A 
ATOM     56  F   UNL A   1      36.776  32.769  28.212  1.00  0.00    -0.205 F 
ATOM     57  C   UNL A   1      34.536  32.819  31.105  1.00  0.00     0.022 A 
BRANCH  55  58
ATOM     58  S   UNL A   1      33.992  33.974  28.674  1.00  0.00     0.127 S 
ATOM     59  O   UNL A   1      33.529  32.934  27.762  1.00  0.00    -0.237 OA
ATOM     60  O   UNL A   1      32.964  34.514  29.566  1.00  0.00    -0.237 OA
ATOM     61  O   UNL A   1      34.871  34.985  28.103  1.00  0.00    -0.744 OA
ENDBRANCH  55  58
ENDBRANCH  27  51
BRANCH  39  62
ATOM     62  C   UNL A   1      43.242  35.365  30.882  1.00  0.00     0.023 A 
ATOM     63  C   UNL A   1      43.531  35.551  32.249  1.00  0.00     0.012 A 
ATOM     64  C   UNL A   1      43.360  36.452  29.996  1.00  0.00     0.148 A 
ATOM     65  C   UNL A   1      43.903  36.805  32.731  1.00  0.00     0.002 A 
ATOM     66  C   UNL A   1      43.772  37.690  30.476  1.00  0.00     0.091 A 
ATOM     67  F   UNL A   1      43.056  36.261  28.703  1.00  0.00    -0.205 F 
ATOM     68  C   UNL A   1      44.034  37.870  31.844  1.00  0.00     0.022 A 
BRANCH  66  69
ATOM     69  S   UNL A   1      44.048  39.092  29.388  1.00  0.00     0.127 S 
ATOM     70  O   UNL A   1      45.037  38.555  28.455  1.00  0.00    -0.237 OA
ATOM     71  O   UNL A   1      42.720  39.309  28.811  1.00  0.00    -0.237 OA
ATOM     72  O   UNL A   1      44.514  40.174  30.246  1.00  0.00    -0.744 OA
ENDBRANCH  66  69
ENDBRANCH  39  62
ENDBRANCH  13  14
ENDBRANCH   6   8
ENDBRANCH   3   4
ENDBRANCH   2   3
ENDBRANCH   1   2
BRANCH   1  73
ATOM     73  C   UNL A   1      34.090  25.231  23.756  1.00  0.00     0.002 C 
BRANCH  73  74
ATOM     74  C   UNL A   1      33.308  25.702  22.523  1.00  0.00     0.021 C 
BRANCH  74  75
ATOM     75  C   UNL A   1      32.858  27.162  22.543  1.00  0.00     0.116 C 
BRANCH  75  76
ATOM     76  N   UNL A   1      31.412  27.297  22.501  1.00  0.00    -0.352 N 
ATOM     77  C   UNL A   1      30.558  27.698  23.495  1.00  0.00     0.253 C 
ATOM     78  H   UNL A   1      30.988  27.069  21.642  1.00  0.00     0.163 HD
ATOM     79  O   UNL A   1      29.346  27.697  23.306  1.00  0.00    -0.269 OA
BRANCH  77  80
ATOM     80  C   UNL A   1      31.088  28.115  24.811  1.00  0.00     0.063 A 
ATOM     81  C   UNL A   1      31.707  29.374  24.858  1.00  0.00     0.016 A 
ATOM     82  C   UNL A   1      31.029  27.286  25.951  1.00  0.00     0.051 A 
ATOM     83  C   UNL A   1      32.238  29.847  26.054  1.00  0.00     0.001 A 
ATOM     84  C   UNL A   1      31.557  27.799  27.147  1.00  0.00     0.027 A 
ATOM     85  C   UNL A   1      32.157  29.062  27.200  1.00  0.00     0.002 A 
BRANCH  82  86
ATOM     86  N   UNL A   1      30.445  26.003  25.904  1.00  0.00    -0.355 N 
ATOM     87  H   UNL A   1      29.465  26.002  26.003  1.00  0.00     0.167 HD
BRANCH  86  88
ATOM     88  C   UNL A   1      31.008  24.726  25.742  1.00  0.00     0.039 A 
ATOM     89  C   UNL A   1      30.778  24.029  24.549  1.00  0.00     0.026 A 
ATOM     90  C   UNL A   1      31.845  24.143  26.700  1.00  0.00     0.039 A 
ATOM     91  C   UNL A   1      31.367  22.784  24.317  1.00  0.00     0.003 A 
ATOM     92  C   UNL A   1      32.435  22.884  26.491  1.00  0.00     0.058 A 
ATOM     93  C   UNL A   1      32.194  22.215  25.283  1.00  0.00     0.013 A 
BRANCH  92  94
ATOM     94  C   UNL A   1      33.337  22.266  27.530  1.00  0.00     0.416 C 
ATOM     95  F   UNL A   1      34.497  22.956  27.696  1.00  0.00    -0.166 F 
ATOM     96  F   UNL A   1      32.748  22.215  28.757  1.00  0.00    -0.166 F 
ATOM     97  F   UNL A   1      33.700  20.985  27.238  1.00  0.00    -0.166 F 
ENDBRANCH  92  94
ENDBRANCH  86  88
ENDBRANCH  82  86
ENDBRANCH  77  80
ENDBRANCH  75  76
ENDBRANCH  74  75
ENDBRANCH  73  74
ENDBRANCH   1  73
TORSDOF 19
ENDMDL
