MODEL 1
REMARK VINA RESULT:     -11.6      0.000      0.000
REMARK SMILES C/C=C/c1cncc(-c2ccc([C@@H](C)C(=O)NCCCCCCNC(=O)c3ccc(-c4c5nc(c(-c6cccc(S(=O)(=O)[O-])c6F)c6ccc([nH]6)c(-c6cccc(S(=O)(=O)[O-])c6F)c6nc(c(-c7cccc(S(=O)(=O)[O-])c7F)c7ccc4[nH]7)C=C6)C=C5)cc3)cc2)c1
REMARK SMILES IDX 20 1 19 2 18 3 17 4 15 5 16 6 13 8 14 9 12 10 9 11 10 12
REMARK SMILES IDX 91 13 11 14 90 15 8 16 4 17 5 18 92 19 6 20 7 21 3 22 1 23
REMARK SMILES IDX 2 24 21 25 22 26 23 27 24 28 25 29 26 31 27 32 28 33 89 34
REMARK SMILES IDX 29 35 88 36 30 37 31 38 32 39 82 40 33 41 87 42 81 43 83 44
REMARK SMILES IDX 34 45 86 46 80 47 79 48 35 50 67 51 47 52 66 53 48 54 51 55
REMARK SMILES IDX 65 56 84 57 49 58 50 59 64 61 85 62 52 63 36 64 37 65 45 66
REMARK SMILES IDX 38 67 40 68 46 69 39 70 41 71 42 72 43 73 44 74 68 75 69 76
REMARK SMILES IDX 77 77 70 78 72 79 78 80 71 81 73 82 74 83 75 84 76 85 53 86
REMARK SMILES IDX 54 87 62 88 55 89 57 90 63 91 56 92 58 93 59 94 60 95 61 96
REMARK H PARENT 17 7 24 30 83 49 51 60
REMARK Flexibility Score: inf
ROOT
ATOM      1  C   UNL A   1      35.371  24.351  24.512  1.00  0.00     0.002 C 
ENDROOT
BRANCH   1   2
ATOM      2  C   UNL A   1      34.495  24.736  25.708  1.00  0.00     0.021 C 
BRANCH   2   3
ATOM      3  C   UNL A   1      33.927  26.154  25.625  1.00  0.00     0.116 C 
BRANCH   3   4
ATOM      4  N   UNL A   1      32.712  26.288  26.401  1.00  0.00    -0.356 N 
ATOM      5  C   UNL A   1      31.403  26.205  26.042  1.00  0.00     0.227 C 
ATOM      6  O   UNL A   1      30.572  26.471  26.921  1.00  0.00    -0.274 OA
ATOM      7  H   UNL A   1      32.860  26.472  27.357  1.00  0.00     0.163 HD
BRANCH   5   8
ATOM      8  C   UNL A   1      30.928  25.791  24.640  1.00  0.00     0.105 C 
ATOM      9  C   UNL A   1      29.549  26.332  24.266  1.00  0.00     0.023 C 
BRANCH   8  10
ATOM     10  C   UNL A   1      31.186  24.324  24.322  1.00  0.00    -0.036 A 
ATOM     11  C   UNL A   1      31.871  21.626  23.686  1.00  0.00    -0.017 A 
ATOM     12  C   UNL A   1      31.413  21.985  24.960  1.00  0.00     0.009 A 
ATOM     13  C   UNL A   1      31.935  22.640  22.719  1.00  0.00     0.009 A 
ATOM     14  C   UNL A   1      31.047  23.302  25.264  1.00  0.00     0.005 A 
ATOM     15  C   UNL A   1      31.616  23.967  23.035  1.00  0.00     0.005 A 
BRANCH  11  16
ATOM     16  C   UNL A   1      32.278  20.240  23.389  1.00  0.00     0.001 A 
ATOM     17  C   UNL A   1      33.285  18.113  24.036  1.00  0.00    -0.007 A 
ATOM     18  C   UNL A   1      32.949  17.633  22.774  1.00  0.00     0.119 A 
ATOM     19  C   UNL A   1      32.947  19.440  24.329  1.00  0.00     0.020 A 
ATOM     20  N   UNL A   1      32.317  18.363  21.829  1.00  0.00    -0.263 NA
ATOM     21  C   UNL A   1      31.996  19.635  22.161  1.00  0.00     0.119 A 
BRANCH  17  22
ATOM     22  C   UNL A   1      34.002  17.249  24.979  1.00  0.00     0.005 C 
ATOM     23  C   UNL A   1      35.959  15.873  25.701  1.00  0.00     0.035 C 
ATOM     24  C   UNL A   1      35.210  16.724  24.727  1.00  0.00    -0.030 C 
ENDBRANCH  17  22
ENDBRANCH  11  16
ENDBRANCH   8  10
ENDBRANCH   5   8
ENDBRANCH   3   4
ENDBRANCH   2   3
ENDBRANCH   1   2
BRANCH   1  25
ATOM     25  C   UNL A   1      35.169  22.922  23.992  1.00  0.00     0.002 C 
BRANCH  25  26
ATOM     26  C   UNL A   1      36.321  21.952  24.271  1.00  0.00     0.021 C 
BRANCH  26  27
ATOM     27  C   UNL A   1      36.743  21.871  25.735  1.00  0.00     0.116 C 
BRANCH  27  28
ATOM     28  N   UNL A   1      37.780  20.871  25.940  1.00  0.00    -0.352 N 
ATOM     29  C   UNL A   1      39.120  21.040  26.187  1.00  0.00     0.251 C 
ATOM     30  H   UNL A   1      37.476  19.935  25.896  1.00  0.00     0.163 HD
ATOM     31  O   UNL A   1      39.886  20.087  26.089  1.00  0.00    -0.269 OA
BRANCH  29  32
ATOM     32  C   UNL A   1      39.637  22.372  26.568  1.00  0.00     0.039 A 
ATOM     33  C   UNL A   1      40.600  22.464  27.577  1.00  0.00     0.014 A 
ATOM     34  C   UNL A   1      39.151  23.527  25.950  1.00  0.00     0.014 A 
ATOM     35  C   UNL A   1      41.112  23.715  27.930  1.00  0.00     0.010 A 
ATOM     36  C   UNL A   1      39.716  24.763  26.252  1.00  0.00     0.010 A 
ATOM     37  C   UNL A   1      40.693  24.872  27.253  1.00  0.00    -0.014 A 
BRANCH  37  38
ATOM     38  C   UNL A   1      41.269  26.203  27.570  1.00  0.00     0.031 A 
ATOM     39  C   UNL A   1      42.686  26.528  27.186  1.00  0.00     0.074 A 
ATOM     40  C   UNL A   1      40.547  27.083  28.290  1.00  0.00     0.049 A 
ATOM     41  N   UNL A   1      43.378  27.611  27.427  1.00  0.00    -0.248 NA
ATOM     42  C   UNL A   1      43.435  25.488  26.462  1.00  0.00     0.031 C 
ATOM     43  C   UNL A   1      39.195  26.849  28.799  1.00  0.00     0.029 A 
ATOM     44  N   UNL A   1      40.863  28.339  28.745  1.00  0.00    -0.354 N 
ATOM     45  C   UNL A   1      44.649  27.371  26.919  1.00  0.00     0.074 A 
ATOM     46  C   UNL A   1      44.644  26.024  26.392  1.00  0.00     0.031 C 
ATOM     47  C   UNL A   1      38.799  27.922  29.501  1.00  0.00     0.029 A 
ATOM     48  C   UNL A   1      39.876  28.908  29.515  1.00  0.00     0.049 A 
ATOM     49  H   UNL A   1      41.714  28.790  28.541  1.00  0.00     0.167 HD
ATOM     50  C   UNL A   1      45.716  28.205  26.867  1.00  0.00     0.034 A 
ATOM     51  C   UNL A   1      39.843  30.085  30.169  1.00  0.00     0.034 A 
ATOM     52  C   UNL A   1      45.705  29.556  27.362  1.00  0.00     0.049 A 
ATOM     53  C   UNL A   1      41.019  31.015  30.059  1.00  0.00     0.074 A 
ATOM     54  C   UNL A   1      46.699  30.513  27.274  1.00  0.00     0.029 A 
ATOM     55  N   UNL A   1      44.651  30.135  28.053  1.00  0.00    -0.354 N 
ATOM     56  N   UNL A   1      42.154  30.838  29.426  1.00  0.00    -0.248 NA
ATOM     57  C   UNL A   1      40.897  32.324  30.717  1.00  0.00     0.031 C 
ATOM     58  C   UNL A   1      46.255  31.665  27.935  1.00  0.00     0.029 A 
ATOM     59  C   UNL A   1      44.973  31.434  28.409  1.00  0.00     0.049 A 
ATOM     60  H   UNL A   1      43.799  29.689  28.261  1.00  0.00     0.167 HD
ATOM     61  C   UNL A   1      42.869  32.019  29.584  1.00  0.00     0.074 A 
ATOM     62  C   UNL A   1      42.029  32.914  30.355  1.00  0.00     0.031 C 
ATOM     63  C   UNL A   1      44.113  32.330  29.142  1.00  0.00     0.034 A 
BRANCH  50  64
ATOM     64  C   UNL A   1      46.969  27.688  26.207  1.00  0.00     0.023 A 
ATOM     65  C   UNL A   1      47.910  26.964  26.970  1.00  0.00     0.012 A 
ATOM     66  C   UNL A   1      47.208  27.891  24.833  1.00  0.00     0.148 A 
ATOM     67  C   UNL A   1      49.090  26.497  26.391  1.00  0.00     0.002 A 
ATOM     68  C   UNL A   1      48.364  27.379  24.252  1.00  0.00     0.091 A 
ATOM     69  F   UNL A   1      46.316  28.597  24.125  1.00  0.00    -0.205 F 
ATOM     70  C   UNL A   1      49.312  26.697  25.032  1.00  0.00     0.022 A 
BRANCH  68  71
ATOM     71  S   UNL A   1      48.699  27.512  22.493  1.00  0.00     0.127 S 
ATOM     72  O   UNL A   1      48.720  26.107  22.088  1.00  0.00    -0.237 OA
ATOM     73  O   UNL A   1      47.541  28.267  22.013  1.00  0.00    -0.237 OA
ATOM     74  O   UNL A   1      49.968  28.219  22.381  1.00  0.00    -0.744 OA
ENDBRANCH  68  71
ENDBRANCH  50  64
BRANCH  51  75
ATOM     75  C   UNL A   1      38.620  30.466  30.930  1.00  0.00     0.023 A 
ATOM     76  C   UNL A   1      38.543  30.178  32.306  1.00  0.00     0.012 A 
ATOM     77  C   UNL A   1      37.569  31.173  30.314  1.00  0.00     0.148 A 
ATOM     78  C   UNL A   1      37.430  30.569  33.051  1.00  0.00     0.002 A 
ATOM     79  C   UNL A   1      36.491  31.608  31.073  1.00  0.00     0.091 A 
ATOM     80  F   UNL A   1      37.663  31.432  29.002  1.00  0.00    -0.205 F 
ATOM     81  C   UNL A   1      36.411  31.294  32.438  1.00  0.00     0.022 A 
BRANCH  79  82
ATOM     82  S   UNL A   1      35.201  32.666  30.404  1.00  0.00     0.127 S 
ATOM     83  O   UNL A   1      35.964  33.837  29.980  1.00  0.00    -0.237 OA
ATOM     84  O   UNL A   1      34.676  31.844  29.314  1.00  0.00    -0.237 OA
ATOM     85  O   UNL A   1      34.263  32.886  31.497  1.00  0.00    -0.744 OA
ENDBRANCH  79  82
ENDBRANCH  51  75
BRANCH  63  86
ATOM     86  C   UNL A   1      44.643  33.705  29.454  1.00  0.00     0.023 A 
ATOM     87  C   UNL A   1      45.311  33.940  30.672  1.00  0.00     0.012 A 
ATOM     88  C   UNL A   1      44.543  34.746  28.509  1.00  0.00     0.148 A 
ATOM     89  C   UNL A   1      45.846  35.196  30.957  1.00  0.00     0.002 A 
ATOM     90  C   UNL A   1      45.122  35.980  28.778  1.00  0.00     0.091 A 
ATOM     91  F   UNL A   1      43.887  34.508  27.364  1.00  0.00    -0.205 F 
ATOM     92  C   UNL A   1      45.763  36.211  30.006  1.00  0.00     0.022 A 
BRANCH  90  93
ATOM     93  S   UNL A   1      45.148  37.314  27.575  1.00  0.00     0.127 S 
ATOM     94  O   UNL A   1      45.810  38.380  28.327  1.00  0.00    -0.237 OA
ATOM     95  O   UNL A   1      45.952  36.741  26.495  1.00  0.00    -0.237 OA
ATOM     96  O   UNL A   1      43.758  37.568  27.226  1.00  0.00    -0.744 OA
ENDBRANCH  90  93
ENDBRANCH  63  86
ENDBRANCH  37  38
ENDBRANCH  29  32
ENDBRANCH  27  28
ENDBRANCH  26  27
ENDBRANCH  25  26
ENDBRANCH   1  25
TORSDOF 19
ENDMDL
MODEL 2
REMARK VINA RESULT:     -11.5      4.122      7.860
REMARK SMILES C/C=C/c1cncc(-c2ccc([C@@H](C)C(=O)NCCCCCCNC(=O)c3ccc(-c4c5nc(c(-c6cccc(S(=O)(=O)[O-])c6F)c6ccc([nH]6)c(-c6cccc(S(=O)(=O)[O-])c6F)c6nc(c(-c7cccc(S(=O)(=O)[O-])c7F)c7ccc4[nH]7)C=C6)C=C5)cc3)cc2)c1
REMARK SMILES IDX 20 1 19 2 18 3 17 4 15 5 16 6 13 8 14 9 12 10 9 11 10 12
REMARK SMILES IDX 91 13 11 14 90 15 8 16 4 17 5 18 92 19 6 20 7 21 3 22 1 23
REMARK SMILES IDX 2 24 21 25 22 26 23 27 24 28 25 29 26 31 27 32 28 33 89 34
REMARK SMILES IDX 29 35 88 36 30 37 31 38 32 39 82 40 33 41 87 42 81 43 83 44
REMARK SMILES IDX 34 45 86 46 80 47 79 48 35 50 67 51 47 52 66 53 48 54 51 55
REMARK SMILES IDX 65 56 84 57 49 58 50 59 64 61 85 62 52 63 36 64 37 65 45 66
REMARK SMILES IDX 38 67 40 68 46 69 39 70 41 71 42 72 43 73 44 74 68 75 69 76
REMARK SMILES IDX 77 77 70 78 72 79 78 80 71 81 73 82 74 83 75 84 76 85 53 86
REMARK SMILES IDX 54 87 62 88 55 89 57 90 63 91 56 92 58 93 59 94 60 95 61 96
REMARK H PARENT 17 7 24 30 83 49 51 60
REMARK Flexibility Score: inf
ROOT
ATOM      1  C   UNL A   1      43.458  18.751  25.829  1.00  0.00     0.002 C 
ENDROOT
BRANCH   1   2
ATOM      2  C   UNL A   1      44.296  19.672  24.937  1.00  0.00     0.021 C 
BRANCH   2   3
ATOM      3  C   UNL A   1      45.658  20.033  25.532  1.00  0.00     0.116 C 
BRANCH   3   4
ATOM      4  N   UNL A   1      46.095  21.345  25.102  1.00  0.00    -0.356 N 
ATOM      5  C   UNL A   1      45.460  22.548  25.100  1.00  0.00     0.227 C 
ATOM      6  O   UNL A   1      46.063  23.489  24.567  1.00  0.00    -0.274 OA
ATOM      7  H   UNL A   1      47.014  21.371  24.749  1.00  0.00     0.163 HD
BRANCH   5   8
ATOM      8  C   UNL A   1      44.077  22.783  25.728  1.00  0.00     0.105 C 
ATOM      9  C   UNL A   1      43.150  23.655  24.881  1.00  0.00     0.023 C 
BRANCH   8  10
ATOM     10  C   UNL A   1      44.133  23.105  27.215  1.00  0.00    -0.036 A 
ATOM     11  C   UNL A   1      44.276  23.908  29.951  1.00  0.00    -0.017 A 
ATOM     12  C   UNL A   1      43.102  23.374  29.404  1.00  0.00     0.009 A 
ATOM     13  C   UNL A   1      45.396  23.989  29.110  1.00  0.00     0.009 A 
ATOM     14  C   UNL A   1      43.040  22.951  28.071  1.00  0.00     0.005 A 
ATOM     15  C   UNL A   1      45.322  23.611  27.763  1.00  0.00     0.005 A 
BRANCH  11  16
ATOM     16  C   UNL A   1      44.318  24.374  31.349  1.00  0.00     0.001 A 
ATOM     17  C   UNL A   1      44.272  26.151  33.022  1.00  0.00    -0.007 A 
ATOM     18  C   UNL A   1      44.337  25.160  33.996  1.00  0.00     0.119 A 
ATOM     19  C   UNL A   1      44.274  25.737  31.685  1.00  0.00     0.020 A 
ATOM     20  N   UNL A   1      44.394  23.837  33.730  1.00  0.00    -0.263 NA
ATOM     21  C   UNL A   1      44.377  23.482  32.424  1.00  0.00     0.119 A 
BRANCH  17  22
ATOM     22  C   UNL A   1      44.248  27.562  33.417  1.00  0.00     0.005 C 
ATOM     23  C   UNL A   1      44.834  29.974  33.121  1.00  0.00     0.035 C 
ATOM     24  C   UNL A   1      44.887  28.529  32.742  1.00  0.00    -0.030 C 
ENDBRANCH  17  22
ENDBRANCH  11  16
ENDBRANCH   8  10
ENDBRANCH   5   8
ENDBRANCH   3   4
ENDBRANCH   2   3
ENDBRANCH   1   2
BRANCH   1  25
ATOM     25  C   UNL A   1      42.452  19.468  26.740  1.00  0.00     0.002 C 
BRANCH  25  26
ATOM     26  C   UNL A   1      41.144  19.894  26.065  1.00  0.00     0.021 C 
BRANCH  26  27
ATOM     27  C   UNL A   1      40.644  21.279  26.466  1.00  0.00     0.116 C 
BRANCH  27  28
ATOM     28  N   UNL A   1      39.303  21.532  25.961  1.00  0.00    -0.352 N 
ATOM     29  C   UNL A   1      38.500  22.632  26.130  1.00  0.00     0.251 C 
ATOM     30  H   UNL A   1      38.914  20.808  25.418  1.00  0.00     0.163 HD
ATOM     31  O   UNL A   1      37.309  22.571  25.840  1.00  0.00    -0.269 OA
BRANCH  29  32
ATOM     32  C   UNL A   1      39.071  23.887  26.664  1.00  0.00     0.039 A 
ATOM     33  C   UNL A   1      39.744  24.750  25.795  1.00  0.00     0.014 A 
ATOM     34  C   UNL A   1      38.966  24.196  28.022  1.00  0.00     0.014 A 
ATOM     35  C   UNL A   1      40.268  25.950  26.283  1.00  0.00     0.010 A 
ATOM     36  C   UNL A   1      39.424  25.424  28.490  1.00  0.00     0.010 A 
ATOM     37  C   UNL A   1      40.091  26.308  27.629  1.00  0.00    -0.014 A 
BRANCH  37  38
ATOM     38  C   UNL A   1      40.587  27.605  28.154  1.00  0.00     0.031 A 
ATOM     39  C   UNL A   1      42.063  27.847  28.310  1.00  0.00     0.074 A 
ATOM     40  C   UNL A   1      39.704  28.529  28.581  1.00  0.00     0.049 A 
ATOM     41  N   UNL A   1      42.680  28.890  28.801  1.00  0.00    -0.248 NA
ATOM     42  C   UNL A   1      42.964  26.763  27.886  1.00  0.00     0.031 C 
ATOM     43  C   UNL A   1      38.249  28.374  28.567  1.00  0.00     0.029 A 
ATOM     44  N   UNL A   1      39.903  29.766  29.140  1.00  0.00    -0.354 N 
ATOM     45  C   UNL A   1      44.034  28.575  28.780  1.00  0.00     0.074 A 
ATOM     46  C   UNL A   1      44.144  27.228  28.265  1.00  0.00     0.031 C 
ATOM     47  C   UNL A   1      37.686  29.471  29.097  1.00  0.00     0.029 A 
ATOM     48  C   UNL A   1      38.738  30.394  29.513  1.00  0.00     0.049 A 
ATOM     49  H   UNL A   1      40.794  30.166  29.263  1.00  0.00     0.167 HD
ATOM     50  C   UNL A   1      45.092  29.346  29.128  1.00  0.00     0.034 A 
ATOM     51  C   UNL A   1      38.538  31.575  30.131  1.00  0.00     0.034 A 
ATOM     52  C   UNL A   1      44.978  30.698  29.609  1.00  0.00     0.049 A 
ATOM     53  C   UNL A   1      39.724  32.435  30.466  1.00  0.00     0.074 A 
ATOM     54  C   UNL A   1      45.988  31.596  29.899  1.00  0.00     0.029 A 
ATOM     55  N   UNL A   1      43.779  31.340  29.885  1.00  0.00    -0.354 N 
ATOM     56  N   UNL A   1      40.999  32.190  30.280  1.00  0.00    -0.248 NA
ATOM     57  C   UNL A   1      39.445  33.751  31.058  1.00  0.00     0.031 C 
ATOM     58  C   UNL A   1      45.401  32.775  30.376  1.00  0.00     0.029 A 
ATOM     59  C   UNL A   1      44.023  32.620  30.354  1.00  0.00     0.049 A 
ATOM     60  H   UNL A   1      42.887  30.943  29.765  1.00  0.00     0.167 HD
ATOM     61  C   UNL A   1      41.672  33.329  30.704  1.00  0.00     0.074 A 
ATOM     62  C   UNL A   1      40.662  34.274  31.136  1.00  0.00     0.031 C 
ATOM     63  C   UNL A   1      43.008  33.566  30.744  1.00  0.00     0.034 A 
BRANCH  50  64
ATOM     64  C   UNL A   1      46.468  28.755  28.954  1.00  0.00     0.023 A 
ATOM     65  C   UNL A   1      47.029  27.980  29.991  1.00  0.00     0.012 A 
ATOM     66  C   UNL A   1      47.197  28.941  27.763  1.00  0.00     0.148 A 
ATOM     67  C   UNL A   1      48.311  27.443  29.867  1.00  0.00     0.002 A 
ATOM     68  C   UNL A   1      48.454  28.361  27.628  1.00  0.00     0.091 A 
ATOM     69  F   UNL A   1      46.661  29.697  26.794  1.00  0.00    -0.205 F 
ATOM     70  C   UNL A   1      49.018  27.627  28.683  1.00  0.00     0.022 A 
BRANCH  68  71
ATOM     71  S   UNL A   1      49.409  28.470  26.110  1.00  0.00     0.127 S 
ATOM     72  O   UNL A   1      48.384  28.220  25.097  1.00  0.00    -0.237 OA
ATOM     73  O   UNL A   1      49.900  29.849  26.151  1.00  0.00    -0.237 OA
ATOM     74  O   UNL A   1      50.449  27.456  26.219  1.00  0.00    -0.744 OA
ENDBRANCH  68  71
ENDBRANCH  50  64
BRANCH  51  75
ATOM     75  C   UNL A   1      37.146  32.028  30.408  1.00  0.00     0.023 A 
ATOM     76  C   UNL A   1      36.613  31.876  31.702  1.00  0.00     0.012 A 
ATOM     77  C   UNL A   1      36.378  32.671  29.417  1.00  0.00     0.148 A 
ATOM     78  C   UNL A   1      35.330  32.338  31.999  1.00  0.00     0.002 A 
ATOM     79  C   UNL A   1      35.125  33.178  29.735  1.00  0.00     0.091 A 
ATOM     80  F   UNL A   1      36.905  32.800  28.192  1.00  0.00    -0.205 F 
ATOM     81  C   UNL A   1      34.592  32.999  31.021  1.00  0.00     0.022 A 
BRANCH  79  82
ATOM     82  S   UNL A   1      34.161  34.166  28.584  1.00  0.00     0.127 S 
ATOM     83  O   UNL A   1      34.045  33.265  27.441  1.00  0.00    -0.237 OA
ATOM     84  O   UNL A   1      32.922  34.374  29.334  1.00  0.00    -0.237 OA
ATOM     85  O   UNL A   1      34.936  35.378  28.356  1.00  0.00    -0.744 OA
ENDBRANCH  79  82
ENDBRANCH  51  75
BRANCH  63  86
ATOM     86  C   UNL A   1      43.464  34.910  31.248  1.00  0.00     0.023 A 
ATOM     87  C   UNL A   1      43.815  35.069  32.603  1.00  0.00     0.012 A 
ATOM     88  C   UNL A   1      43.617  35.996  30.363  1.00  0.00     0.148 A 
ATOM     89  C   UNL A   1      44.282  36.295  33.076  1.00  0.00     0.002 A 
ATOM     90  C   UNL A   1      44.130  37.200  30.830  1.00  0.00     0.091 A 
ATOM     91  F   UNL A   1      43.260  35.831  29.081  1.00  0.00    -0.205 F 
ATOM     92  C   UNL A   1      44.451  37.356  32.188  1.00  0.00     0.022 A 
BRANCH  90  93
ATOM     93  S   UNL A   1      44.472  38.588  29.742  1.00  0.00     0.127 S 
ATOM     94  O   UNL A   1      45.129  39.526  30.653  1.00  0.00    -0.237 OA
ATOM     95  O   UNL A   1      45.357  37.988  28.743  1.00  0.00    -0.237 OA
ATOM     96  O   UNL A   1      43.182  39.021  29.224  1.00  0.00    -0.744 OA
ENDBRANCH  90  93
ENDBRANCH  63  86
ENDBRANCH  37  38
ENDBRANCH  29  32
ENDBRANCH  27  28
ENDBRANCH  26  27
ENDBRANCH  25  26
ENDBRANCH   1  25
TORSDOF 19
ENDMDL
MODEL 3
REMARK VINA RESULT:     -11.5      1.492      1.795
REMARK SMILES C/C=C/c1cncc(-c2ccc([C@@H](C)C(=O)NCCCCCCNC(=O)c3ccc(-c4c5nc(c(-c6cccc(S(=O)(=O)[O-])c6F)c6ccc([nH]6)c(-c6cccc(S(=O)(=O)[O-])c6F)c6nc(c(-c7cccc(S(=O)(=O)[O-])c7F)c7ccc4[nH]7)C=C6)C=C5)cc3)cc2)c1
REMARK SMILES IDX 20 1 19 2 18 3 17 4 15 5 16 6 13 8 14 9 12 10 9 11 10 12
REMARK SMILES IDX 91 13 11 14 90 15 8 16 4 17 5 18 92 19 6 20 7 21 3 22 1 23
REMARK SMILES IDX 2 24 21 25 22 26 23 27 24 28 25 29 26 31 27 32 28 33 89 34
REMARK SMILES IDX 29 35 88 36 30 37 31 38 32 39 82 40 33 41 87 42 81 43 83 44
REMARK SMILES IDX 34 45 86 46 80 47 79 48 35 50 67 51 47 52 66 53 48 54 51 55
REMARK SMILES IDX 65 56 84 57 49 58 50 59 64 61 85 62 52 63 36 64 37 65 45 66
REMARK SMILES IDX 38 67 40 68 46 69 39 70 41 71 42 72 43 73 44 74 68 75 69 76
REMARK SMILES IDX 77 77 70 78 72 79 78 80 71 81 73 82 74 83 75 84 76 85 53 86
REMARK SMILES IDX 54 87 62 88 55 89 57 90 63 91 56 92 58 93 59 94 60 95 61 96
REMARK H PARENT 17 7 24 30 83 49 51 60
REMARK Flexibility Score: inf
ROOT
ATOM      1  C   UNL A   1      34.935  23.780  26.161  1.00  0.00     0.002 C 
ENDROOT
BRANCH   1   2
ATOM      2  C   UNL A   1      34.788  24.542  24.841  1.00  0.00     0.021 C 
BRANCH   2   3
ATOM      3  C   UNL A   1      34.351  25.998  25.015  1.00  0.00     0.116 C 
BRANCH   3   4
ATOM      4  N   UNL A   1      33.380  26.139  26.079  1.00  0.00    -0.356 N 
ATOM      5  C   UNL A   1      32.025  26.006  26.083  1.00  0.00     0.227 C 
ATOM      6  O   UNL A   1      31.447  26.293  27.139  1.00  0.00    -0.274 OA
ATOM      7  H   UNL A   1      33.767  26.371  26.953  1.00  0.00     0.163 HD
BRANCH   5   8
ATOM      8  C   UNL A   1      31.214  25.514  24.874  1.00  0.00     0.105 C 
ATOM      9  C   UNL A   1      29.779  26.040  24.833  1.00  0.00     0.023 C 
BRANCH   8  10
ATOM     10  C   UNL A   1      31.396  24.030  24.585  1.00  0.00    -0.036 A 
ATOM     11  C   UNL A   1      31.936  21.292  23.983  1.00  0.00    -0.017 A 
ATOM     12  C   UNL A   1      31.615  21.708  25.283  1.00  0.00     0.009 A 
ATOM     13  C   UNL A   1      31.937  22.271  22.979  1.00  0.00     0.009 A 
ATOM     14  C   UNL A   1      31.319  23.045  25.572  1.00  0.00     0.005 A 
ATOM     15  C   UNL A   1      31.689  23.618  23.277  1.00  0.00     0.005 A 
BRANCH  11  16
ATOM     16  C   UNL A   1      32.272  19.885  23.699  1.00  0.00     0.001 A 
ATOM     17  C   UNL A   1      32.711  17.594  24.419  1.00  0.00    -0.007 A 
ATOM     18  C   UNL A   1      32.837  17.255  23.076  1.00  0.00     0.119 A 
ATOM     19  C   UNL A   1      32.434  18.933  24.719  1.00  0.00     0.020 A 
ATOM     20  N   UNL A   1      32.703  18.130  22.057  1.00  0.00    -0.263 NA
ATOM     21  C   UNL A   1      32.420  19.411  22.392  1.00  0.00     0.119 A 
BRANCH  17  22
ATOM     22  C   UNL A   1      32.909  16.573  25.452  1.00  0.00     0.005 C 
ATOM     23  C   UNL A   1      32.650  14.274  26.399  1.00  0.00     0.035 C 
ATOM     24  C   UNL A   1      32.418  15.328  25.364  1.00  0.00    -0.030 C 
ENDBRANCH  17  22
ENDBRANCH  11  16
ENDBRANCH   8  10
ENDBRANCH   5   8
ENDBRANCH   3   4
ENDBRANCH   2   3
ENDBRANCH   1   2
BRANCH   1  25
ATOM     25  C   UNL A   1      35.136  22.266  26.018  1.00  0.00     0.002 C 
BRANCH  25  26
ATOM     26  C   UNL A   1      35.528  21.786  24.617  1.00  0.00     0.021 C 
BRANCH  26  27
ATOM     27  C   UNL A   1      37.026  21.818  24.330  1.00  0.00     0.116 C 
BRANCH  27  28
ATOM     28  N   UNL A   1      37.723  20.726  24.995  1.00  0.00    -0.352 N 
ATOM     29  C   UNL A   1      38.890  20.748  25.718  1.00  0.00     0.251 C 
ATOM     30  H   UNL A   1      37.295  19.843  24.915  1.00  0.00     0.163 HD
ATOM     31  O   UNL A   1      39.457  19.696  25.997  1.00  0.00    -0.269 OA
BRANCH  29  32
ATOM     32  C   UNL A   1      39.462  22.039  26.157  1.00  0.00     0.039 A 
ATOM     33  C   UNL A   1      40.742  22.060  26.716  1.00  0.00     0.014 A 
ATOM     34  C   UNL A   1      38.725  23.220  26.040  1.00  0.00     0.014 A 
ATOM     35  C   UNL A   1      41.303  23.277  27.113  1.00  0.00     0.010 A 
ATOM     36  C   UNL A   1      39.313  24.438  26.368  1.00  0.00     0.010 A 
ATOM     37  C   UNL A   1      40.602  24.478  26.919  1.00  0.00    -0.014 A 
BRANCH  37  38
ATOM     38  C   UNL A   1      41.204  25.788  27.278  1.00  0.00     0.031 A 
ATOM     39  C   UNL A   1      42.638  26.084  26.936  1.00  0.00     0.074 A 
ATOM     40  C   UNL A   1      40.486  26.672  27.996  1.00  0.00     0.049 A 
ATOM     41  N   UNL A   1      43.351  27.144  27.217  1.00  0.00    -0.248 NA
ATOM     42  C   UNL A   1      43.379  25.039  26.211  1.00  0.00     0.031 C 
ATOM     43  C   UNL A   1      39.115  26.463  28.465  1.00  0.00     0.029 A 
ATOM     44  N   UNL A   1      40.821  27.911  28.484  1.00  0.00    -0.354 N 
ATOM     45  C   UNL A   1      44.628  26.881  26.737  1.00  0.00     0.074 A 
ATOM     46  C   UNL A   1      44.603  25.544  26.184  1.00  0.00     0.031 C 
ATOM     47  C   UNL A   1      38.728  27.532  29.178  1.00  0.00     0.029 A 
ATOM     48  C   UNL A   1      39.829  28.490  29.239  1.00  0.00     0.049 A 
ATOM     49  H   UNL A   1      41.688  28.343  28.311  1.00  0.00     0.167 HD
ATOM     50  C   UNL A   1      45.716  27.687  26.729  1.00  0.00     0.034 A 
ATOM     51  C   UNL A   1      39.809  29.655  29.915  1.00  0.00     0.034 A 
ATOM     52  C   UNL A   1      45.727  29.028  27.251  1.00  0.00     0.049 A 
ATOM     53  C   UNL A   1      41.010  30.556  29.854  1.00  0.00     0.074 A 
ATOM     54  C   UNL A   1      46.747  29.962  27.207  1.00  0.00     0.029 A 
ATOM     55  N   UNL A   1      44.670  29.622  27.926  1.00  0.00    -0.354 N 
ATOM     56  N   UNL A   1      42.156  30.362  29.247  1.00  0.00    -0.248 NA
ATOM     57  C   UNL A   1      40.904  31.855  30.535  1.00  0.00     0.031 C 
ATOM     58  C   UNL A   1      46.315  31.112  27.879  1.00  0.00     0.029 A 
ATOM     59  C   UNL A   1      45.016  30.905  28.315  1.00  0.00     0.049 A 
ATOM     60  H   UNL A   1      43.802  29.193  28.102  1.00  0.00     0.167 HD
ATOM     61  C   UNL A   1      42.896  31.521  29.447  1.00  0.00     0.074 A 
ATOM     62  C   UNL A   1      42.060  32.422  30.214  1.00  0.00     0.031 C 
ATOM     63  C   UNL A   1      44.160  31.808  29.043  1.00  0.00     0.034 A 
BRANCH  50  64
ATOM     64  C   UNL A   1      46.973  27.151  26.091  1.00  0.00     0.023 A 
ATOM     65  C   UNL A   1      47.164  27.292  24.700  1.00  0.00     0.012 A 
ATOM     66  C   UNL A   1      47.976  26.531  26.863  1.00  0.00     0.148 A 
ATOM     67  C   UNL A   1      48.304  26.782  24.080  1.00  0.00     0.002 A 
ATOM     68  C   UNL A   1      49.134  26.069  26.244  1.00  0.00     0.091 A 
ATOM     69  F   UNL A   1      47.774  26.384  28.179  1.00  0.00    -0.205 F 
ATOM     70  C   UNL A   1      49.291  26.179  24.853  1.00  0.00     0.022 A 
BRANCH  68  71
ATOM     71  S   UNL A   1      50.499  25.353  27.165  1.00  0.00     0.127 S 
ATOM     72  O   UNL A   1      50.859  26.450  28.062  1.00  0.00    -0.237 OA
ATOM     73  O   UNL A   1      49.863  24.211  27.823  1.00  0.00    -0.237 OA
ATOM     74  O   UNL A   1      51.504  24.994  26.173  1.00  0.00    -0.744 OA
ENDBRANCH  68  71
ENDBRANCH  50  64
BRANCH  51  75
ATOM     75  C   UNL A   1      38.577  30.053  30.652  1.00  0.00     0.023 A 
ATOM     76  C   UNL A   1      38.419  29.668  31.997  1.00  0.00     0.012 A 
ATOM     77  C   UNL A   1      37.598  30.868  30.050  1.00  0.00     0.148 A 
ATOM     78  C   UNL A   1      37.298  30.069  32.723  1.00  0.00     0.002 A 
ATOM     79  C   UNL A   1      36.513  31.311  30.795  1.00  0.00     0.091 A 
ATOM     80  F   UNL A   1      37.767  31.218  28.767  1.00  0.00    -0.205 F 
ATOM     81  C   UNL A   1      36.352  30.900  32.127  1.00  0.00     0.022 A 
BRANCH  79  82
ATOM     82  S   UNL A   1      35.320  32.494  30.157  1.00  0.00     0.127 S 
ATOM     83  O   UNL A   1      34.806  31.797  28.982  1.00  0.00    -0.237 OA
ATOM     84  O   UNL A   1      34.379  32.600  31.273  1.00  0.00    -0.237 OA
ATOM     85  O   UNL A   1      36.074  33.711  29.889  1.00  0.00    -0.744 OA
ENDBRANCH  79  82
ENDBRANCH  51  75
BRANCH  63  86
ATOM     86  C   UNL A   1      44.715  33.163  29.397  1.00  0.00     0.023 A 
ATOM     87  C   UNL A   1      45.400  33.345  30.614  1.00  0.00     0.012 A 
ATOM     88  C   UNL A   1      44.624  34.237  28.488  1.00  0.00     0.148 A 
ATOM     89  C   UNL A   1      45.960  34.581  30.936  1.00  0.00     0.002 A 
ATOM     90  C   UNL A   1      45.226  35.451  28.793  1.00  0.00     0.091 A 
ATOM     91  F   UNL A   1      43.951  34.049  27.343  1.00  0.00    -0.205 F 
ATOM     92  C   UNL A   1      45.883  35.630  30.021  1.00  0.00     0.022 A 
BRANCH  90  93
ATOM     93  S   UNL A   1      45.261  36.825  27.636  1.00  0.00     0.127 S 
ATOM     94  O   UNL A   1      43.838  37.130  27.492  1.00  0.00    -0.237 OA
ATOM     95  O   UNL A   1      46.029  37.830  28.372  1.00  0.00    -0.237 OA
ATOM     96  O   UNL A   1      45.916  36.324  26.436  1.00  0.00    -0.744 OA
ENDBRANCH  90  93
ENDBRANCH  63  86
ENDBRANCH  37  38
ENDBRANCH  29  32
ENDBRANCH  27  28
ENDBRANCH  26  27
ENDBRANCH  25  26
ENDBRANCH   1  25
TORSDOF 19
ENDMDL
