MODEL 1
REMARK VINA RESULT:     -12.3      0.000      0.000
REMARK SMILES Cc1cc(NC(=O)COc2cc(C)c(Cl)c(C)c2)cc(C(=O)NCCCCCCNC(=O)c2ccc(-c3c4nc(c(-c5cccc(S(=O)(=O)[O-])c5F)c5ccc([nH]5)c(-c5cccc(S(=O)(=O)[O-])c5F)c5nc(c(-c6cccc(S(=O)(=O)[O-])c6F)c6ccc3[nH]6)C=C5)C=C4)cc2)c1O
REMARK SMILES IDX 26 1 25 2 24 3 23 4 21 5 22 6 20 8 1 9 2 10 3 11 96 12 4 13
REMARK SMILES IDX 19 14 97 15 5 17 6 18 7 20 8 21 9 22 10 23 11 24 18 25 12 26
REMARK SMILES IDX 16 27 13 28 14 29 17 30 15 31 27 32 28 33 29 34 30 35 31 36
REMARK SMILES IDX 32 38 33 39 34 40 95 41 35 42 94 43 36 44 37 45 38 46 88 47
REMARK SMILES IDX 39 48 93 49 87 50 89 51 40 52 92 53 86 54 85 55 41 57 73 58
REMARK SMILES IDX 53 59 72 60 54 61 57 62 71 63 90 64 55 65 56 66 70 68 91 69
REMARK SMILES IDX 58 70 42 71 43 72 51 73 44 74 46 75 52 76 45 77 47 78 48 79
REMARK SMILES IDX 49 80 50 81 74 82 75 83 83 84 76 85 78 86 84 87 77 88 79 89
REMARK SMILES IDX 80 90 81 91 82 92 59 93 60 94 68 95 61 96 63 97 69 98 62 99
REMARK SMILES IDX 64 100 65 101 66 102 67 103
REMARK H PARENT 23 7 97 16 5 19 30 37 89 56 57 67
REMARK Flexibility Score: inf
ROOT
ATOM      1  C   UNL A   1      32.241  29.920  27.250  1.00  0.00     0.002 C 
ENDROOT
BRANCH   1   2
ATOM      2  C   UNL A   1      32.639  28.533  26.747  1.00  0.00     0.021 C 
BRANCH   2   3
ATOM      3  C   UNL A   1      33.919  28.483  25.923  1.00  0.00     0.116 C 
BRANCH   3   4
ATOM      4  N   UNL A   1      33.705  28.653  24.499  1.00  0.00    -0.352 N 
ATOM      5  C   UNL A   1      33.114  27.931  23.486  1.00  0.00     0.255 C 
ATOM      6  O   UNL A   1      33.024  28.549  22.422  1.00  0.00    -0.269 OA
ATOM      7  H   UNL A   1      34.079  29.504  24.171  1.00  0.00     0.163 HD
BRANCH   5   8
ATOM      8  C   UNL A   1      32.599  26.513  23.588  1.00  0.00     0.083 A 
ATOM      9  C   UNL A   1      32.982  23.161  21.713  1.00  0.00     0.048 C 
ATOM     10  C   UNL A   1      32.567  24.207  22.710  1.00  0.00    -0.006 A 
ATOM     11  C   UNL A   1      31.630  23.864  23.690  1.00  0.00     0.033 A 
ATOM     12  C   UNL A   1      33.083  25.520  22.701  1.00  0.00     0.131 A 
ATOM     13  C   UNL A   1      31.178  24.804  24.614  1.00  0.00     0.042 A 
ATOM     14  C   UNL A   1      31.590  26.130  24.481  1.00  0.00     0.043 A 
BRANCH  12  15
ATOM     15  O   UNL A   1      34.087  25.825  21.820  1.00  0.00    -0.507 OA
ATOM     16  H   UNL A   1      33.898  25.909  20.905  1.00  0.00     0.293 HD
ENDBRANCH  12  15
BRANCH  13  17
ATOM     17  N   UNL A   1      30.289  24.341  25.594  1.00  0.00    -0.323 N 
ATOM     18  C   UNL A   1      30.443  23.591  26.723  1.00  0.00     0.262 C 
ATOM     19  H   UNL A   1      29.356  24.615  25.432  1.00  0.00     0.170 HD
ATOM     20  O   UNL A   1      29.425  23.395  27.397  1.00  0.00    -0.271 OA
BRANCH  18  21
ATOM     21  C   UNL A   1      31.771  22.959  27.146  1.00  0.00     0.329 C 
BRANCH  21  22
ATOM     22  O   UNL A   1      32.973  23.654  26.839  1.00  0.00    -0.484 OA
BRANCH  22  23
ATOM     23  C   UNL A   1      34.008  22.907  26.351  1.00  0.00     0.120 A 
ATOM     24  C   UNL A   1      33.881  21.623  25.831  1.00  0.00     0.051 A 
ATOM     25  C   UNL A   1      35.258  23.530  26.333  1.00  0.00     0.051 A 
ATOM     26  C   UNL A   1      34.995  20.947  25.303  1.00  0.00    -0.029 A 
ATOM     27  C   UNL A   1      36.398  22.871  25.845  1.00  0.00    -0.029 A 
ATOM     28  C   UNL A   1      34.799  19.570  24.728  1.00  0.00     0.046 C 
ATOM     29  C   UNL A   1      36.255  21.575  25.320  1.00  0.00     0.047 A 
ATOM     30  C   UNL A   1      37.731  23.568  25.905  1.00  0.00     0.046 C 
ATOM     31  Cl  UNL A   1      37.637  20.755  24.668  1.00  0.00    -0.084 Cl
ENDBRANCH  22  23
ENDBRANCH  21  22
ENDBRANCH  18  21
ENDBRANCH  13  17
ENDBRANCH   5   8
ENDBRANCH   3   4
ENDBRANCH   2   3
ENDBRANCH   1   2
BRANCH   1  32
ATOM     32  C   UNL A   1      31.427  30.776  26.269  1.00  0.00     0.002 C 
BRANCH  32  33
ATOM     33  C   UNL A   1      31.422  32.287  26.529  1.00  0.00     0.021 C 
BRANCH  33  34
ATOM     34  C   UNL A   1      32.695  32.849  27.160  1.00  0.00     0.116 C 
BRANCH  34  35
ATOM     35  N   UNL A   1      32.512  34.211  27.635  1.00  0.00    -0.352 N 
ATOM     36  C   UNL A   1      33.082  34.865  28.698  1.00  0.00     0.251 C 
ATOM     37  H   UNL A   1      31.877  34.750  27.110  1.00  0.00     0.163 HD
ATOM     38  O   UNL A   1      32.615  35.941  29.063  1.00  0.00    -0.269 OA
BRANCH  36  39
ATOM     39  C   UNL A   1      34.247  34.290  29.407  1.00  0.00     0.039 A 
ATOM     40  C   UNL A   1      34.023  33.513  30.548  1.00  0.00     0.014 A 
ATOM     41  C   UNL A   1      35.554  34.559  28.994  1.00  0.00     0.014 A 
ATOM     42  C   UNL A   1      35.106  32.965  31.244  1.00  0.00     0.010 A 
ATOM     43  C   UNL A   1      36.629  33.960  29.650  1.00  0.00     0.010 A 
ATOM     44  C   UNL A   1      36.418  33.164  30.785  1.00  0.00    -0.014 A 
BRANCH  44  45
ATOM     45  C   UNL A   1      37.579  32.540  31.474  1.00  0.00     0.031 A 
ATOM     46  C   UNL A   1      38.318  31.393  30.835  1.00  0.00     0.074 A 
ATOM     47  C   UNL A   1      37.913  32.947  32.714  1.00  0.00     0.049 A 
ATOM     48  N   UNL A   1      39.309  30.684  31.311  1.00  0.00    -0.248 NA
ATOM     49  C   UNL A   1      37.873  30.973  29.496  1.00  0.00     0.031 C 
ATOM     50  C   UNL A   1      37.226  33.997  33.472  1.00  0.00     0.029 A 
ATOM     51  N   UNL A   1      38.891  32.508  33.570  1.00  0.00    -0.354 N 
ATOM     52  C   UNL A   1      39.579  29.714  30.353  1.00  0.00     0.074 A 
ATOM     53  C   UNL A   1      38.631  29.908  29.278  1.00  0.00     0.031 C 
ATOM     54  C   UNL A   1      37.803  34.116  34.679  1.00  0.00     0.029 A 
ATOM     55  C   UNL A   1      38.878  33.137  34.794  1.00  0.00     0.049 A 
ATOM     56  H   UNL A   1      39.542  31.809  33.332  1.00  0.00     0.167 HD
ATOM     57  C   UNL A   1      40.545  28.763  30.356  1.00  0.00     0.034 A 
ATOM     58  C   UNL A   1      39.640  32.941  35.889  1.00  0.00     0.034 A 
ATOM     59  C   UNL A   1      41.517  28.604  31.404  1.00  0.00     0.049 A 
ATOM     60  C   UNL A   1      40.735  31.909  35.844  1.00  0.00     0.074 A 
ATOM     61  C   UNL A   1      42.591  27.734  31.454  1.00  0.00     0.029 A 
ATOM     62  N   UNL A   1      41.533  29.327  32.586  1.00  0.00    -0.354 N 
ATOM     63  N   UNL A   1      41.079  31.114  34.861  1.00  0.00    -0.248 NA
ATOM     64  C   UNL A   1      41.572  31.775  37.046  1.00  0.00     0.031 C 
ATOM     65  C   UNL A   1      43.246  27.916  32.677  1.00  0.00     0.029 A 
ATOM     66  C   UNL A   1      42.593  28.917  33.377  1.00  0.00     0.049 A 
ATOM     67  H   UNL A   1      40.885  30.028  32.829  1.00  0.00     0.167 HD
ATOM     68  C   UNL A   1      42.193  30.413  35.310  1.00  0.00     0.074 A 
ATOM     69  C   UNL A   1      42.479  30.895  36.645  1.00  0.00     0.031 C 
ATOM     70  C   UNL A   1      42.905  29.447  34.679  1.00  0.00     0.034 A 
BRANCH  57  71
ATOM     71  C   UNL A   1      40.641  27.852  29.161  1.00  0.00     0.023 A 
ATOM     72  C   UNL A   1      39.782  26.738  29.067  1.00  0.00     0.012 A 
ATOM     73  C   UNL A   1      41.518  28.139  28.095  1.00  0.00     0.148 A 
ATOM     74  C   UNL A   1      39.813  25.908  27.948  1.00  0.00     0.002 A 
ATOM     75  C   UNL A   1      41.513  27.332  26.963  1.00  0.00     0.091 A 
ATOM     76  F   UNL A   1      42.339  29.192  28.209  1.00  0.00    -0.205 F 
ATOM     77  C   UNL A   1      40.668  26.211  26.892  1.00  0.00     0.022 A 
BRANCH  75  78
ATOM     78  S   UNL A   1      42.517  27.681  25.515  1.00  0.00     0.127 S 
ATOM     79  O   UNL A   1      42.267  26.499  24.691  1.00  0.00    -0.237 OA
ATOM     80  O   UNL A   1      41.914  28.915  25.012  1.00  0.00    -0.237 OA
ATOM     81  O   UNL A   1      43.884  27.825  25.999  1.00  0.00    -0.744 OA
ENDBRANCH  75  78
ENDBRANCH  57  71
BRANCH  58  82
ATOM     82  C   UNL A   1      39.438  33.787  37.100  1.00  0.00     0.023 A 
ATOM     83  C   UNL A   1      39.908  35.115  37.101  1.00  0.00     0.012 A 
ATOM     84  C   UNL A   1      38.771  33.295  38.239  1.00  0.00     0.148 A 
ATOM     85  C   UNL A   1      39.751  35.925  38.226  1.00  0.00     0.002 A 
ATOM     86  C   UNL A   1      38.568  34.125  39.335  1.00  0.00     0.091 A 
ATOM     87  F   UNL A   1      38.342  32.024  38.226  1.00  0.00    -0.205 F 
ATOM     88  C   UNL A   1      39.073  35.434  39.338  1.00  0.00     0.022 A 
BRANCH  86  89
ATOM     89  S   UNL A   1      37.588  33.618  40.753  1.00  0.00     0.127 S 
ATOM     90  O   UNL A   1      38.456  32.625  41.377  1.00  0.00    -0.237 OA
ATOM     91  O   UNL A   1      37.451  34.872  41.493  1.00  0.00    -0.237 OA
ATOM     92  O   UNL A   1      36.336  33.115  40.199  1.00  0.00    -0.744 OA
ENDBRANCH  86  89
ENDBRANCH  58  82
BRANCH  70  93
ATOM     93  C   UNL A   1      44.093  28.868  35.402  1.00  0.00     0.023 A 
ATOM     94  C   UNL A   1      45.371  29.425  35.207  1.00  0.00     0.012 A 
ATOM     95  C   UNL A   1      43.927  27.823  36.332  1.00  0.00     0.148 A 
ATOM     96  C   UNL A   1      46.473  28.931  35.905  1.00  0.00     0.002 A 
ATOM     97  C   UNL A   1      45.021  27.368  37.059  1.00  0.00     0.091 A 
ATOM     98  F   UNL A   1      42.705  27.294  36.489  1.00  0.00    -0.205 F 
ATOM     99  C   UNL A   1      46.296  27.912  36.838  1.00  0.00     0.022 A 
BRANCH  97 100
ATOM    100  S   UNL A   1      44.869  26.128  38.351  1.00  0.00     0.127 S 
ATOM    101  O   UNL A   1      44.365  24.978  37.601  1.00  0.00    -0.237 OA
ATOM    102  O   UNL A   1      46.248  25.996  38.819  1.00  0.00    -0.237 OA
ATOM    103  O   UNL A   1      43.949  26.685  39.334  1.00  0.00    -0.744 OA
ENDBRANCH  97 100
ENDBRANCH  70  93
ENDBRANCH  44  45
ENDBRANCH  36  39
ENDBRANCH  34  35
ENDBRANCH  33  34
ENDBRANCH  32  33
ENDBRANCH   1  32
TORSDOF 21
ENDMDL
MODEL 2
REMARK VINA RESULT:     -12.3      4.946      8.645
REMARK SMILES Cc1cc(NC(=O)COc2cc(C)c(Cl)c(C)c2)cc(C(=O)NCCCCCCNC(=O)c2ccc(-c3c4nc(c(-c5cccc(S(=O)(=O)[O-])c5F)c5ccc([nH]5)c(-c5cccc(S(=O)(=O)[O-])c5F)c5nc(c(-c6cccc(S(=O)(=O)[O-])c6F)c6ccc3[nH]6)C=C5)C=C4)cc2)c1O
REMARK SMILES IDX 26 1 25 2 24 3 23 4 21 5 22 6 20 8 1 9 2 10 3 11 96 12 4 13
REMARK SMILES IDX 19 14 97 15 5 17 6 18 7 20 8 21 9 22 10 23 11 24 18 25 12 26
REMARK SMILES IDX 16 27 13 28 14 29 17 30 15 31 27 32 28 33 29 34 30 35 31 36
REMARK SMILES IDX 32 38 33 39 34 40 95 41 35 42 94 43 36 44 37 45 38 46 88 47
REMARK SMILES IDX 39 48 93 49 87 50 89 51 40 52 92 53 86 54 85 55 41 57 73 58
REMARK SMILES IDX 53 59 72 60 54 61 57 62 71 63 90 64 55 65 56 66 70 68 91 69
REMARK SMILES IDX 58 70 42 71 43 72 51 73 44 74 46 75 52 76 45 77 47 78 48 79
REMARK SMILES IDX 49 80 50 81 74 82 75 83 83 84 76 85 78 86 84 87 77 88 79 89
REMARK SMILES IDX 80 90 81 91 82 92 59 93 60 94 68 95 61 96 63 97 69 98 62 99
REMARK SMILES IDX 64 100 65 101 66 102 67 103
REMARK H PARENT 23 7 97 16 5 19 30 37 89 56 57 67
REMARK Flexibility Score: inf
ROOT
ATOM      1  C   UNL A   1      34.704  21.245  24.739  1.00  0.00     0.002 C 
ENDROOT
BRANCH   1   2
ATOM      2  C   UNL A   1      33.675  21.315  25.866  1.00  0.00     0.021 C 
BRANCH   2   3
ATOM      3  C   UNL A   1      32.220  21.360  25.418  1.00  0.00     0.116 C 
BRANCH   3   4
ATOM      4  N   UNL A   1      31.388  22.238  26.216  1.00  0.00    -0.352 N 
ATOM      5  C   UNL A   1      31.205  23.598  26.339  1.00  0.00     0.255 C 
ATOM      6  O   UNL A   1      30.250  23.908  27.056  1.00  0.00    -0.269 OA
ATOM      7  H   UNL A   1      30.803  21.734  26.827  1.00  0.00     0.163 HD
BRANCH   5   8
ATOM      8  C   UNL A   1      32.048  24.671  25.690  1.00  0.00     0.083 A 
ATOM      9  C   UNL A   1      33.183  25.701  22.146  1.00  0.00     0.048 C 
ATOM     10  C   UNL A   1      32.981  25.673  23.636  1.00  0.00    -0.006 A 
ATOM     11  C   UNL A   1      33.656  26.614  24.421  1.00  0.00     0.033 A 
ATOM     12  C   UNL A   1      32.140  24.740  24.277  1.00  0.00     0.131 A 
ATOM     13  C   UNL A   1      33.540  26.609  25.810  1.00  0.00     0.042 A 
ATOM     14  C   UNL A   1      32.826  25.580  26.421  1.00  0.00     0.043 A 
BRANCH  12  15
ATOM     15  O   UNL A   1      31.387  23.895  23.505  1.00  0.00    -0.507 OA
ATOM     16  H   UNL A   1      31.772  23.119  23.146  1.00  0.00     0.293 HD
ENDBRANCH  12  15
BRANCH  13  17
ATOM     17  N   UNL A   1      34.204  27.634  26.497  1.00  0.00    -0.323 N 
ATOM     18  C   UNL A   1      33.791  28.798  27.076  1.00  0.00     0.262 C 
ATOM     19  H   UNL A   1      35.174  27.482  26.578  1.00  0.00     0.170 HD
ATOM     20  O   UNL A   1      34.660  29.469  27.646  1.00  0.00    -0.271 OA
BRANCH  18  21
ATOM     21  C   UNL A   1      32.353  29.317  27.004  1.00  0.00     0.329 C 
BRANCH  21  22
ATOM     22  O   UNL A   1      32.072  30.394  26.118  1.00  0.00    -0.484 OA
BRANCH  22  23
ATOM     23  C   UNL A   1      31.179  30.147  25.113  1.00  0.00     0.120 A 
ATOM     24  C   UNL A   1      31.041  28.926  24.460  1.00  0.00     0.051 A 
ATOM     25  C   UNL A   1      30.322  31.198  24.783  1.00  0.00     0.051 A 
ATOM     26  C   UNL A   1      30.059  28.747  23.470  1.00  0.00    -0.029 A 
ATOM     27  C   UNL A   1      29.353  31.065  23.775  1.00  0.00    -0.029 A 
ATOM     28  C   UNL A   1      29.933  27.399  22.813  1.00  0.00     0.046 C 
ATOM     29  C   UNL A   1      29.222  29.825  23.126  1.00  0.00     0.047 A 
ATOM     30  C   UNL A   1      28.495  32.249  23.420  1.00  0.00     0.046 C 
ATOM     31  Cl  UNL A   1      28.004  29.617  21.909  1.00  0.00    -0.084 Cl
ENDBRANCH  22  23
ENDBRANCH  21  22
ENDBRANCH  18  21
ENDBRANCH  13  17
ENDBRANCH   5   8
ENDBRANCH   3   4
ENDBRANCH   2   3
ENDBRANCH   1   2
BRANCH   1  32
ATOM     32  C   UNL A   1      34.981  22.567  24.008  1.00  0.00     0.002 C 
BRANCH  32  33
ATOM     33  C   UNL A   1      36.337  23.227  24.288  1.00  0.00     0.021 C 
BRANCH  33  34
ATOM     34  C   UNL A   1      36.744  23.293  25.759  1.00  0.00     0.116 C 
BRANCH  34  35
ATOM     35  N   UNL A   1      37.841  22.389  26.062  1.00  0.00    -0.352 N 
ATOM     36  C   UNL A   1      39.134  22.655  26.439  1.00  0.00     0.251 C 
ATOM     37  H   UNL A   1      37.622  21.432  25.984  1.00  0.00     0.163 HD
ATOM     38  O   UNL A   1      39.964  21.750  26.420  1.00  0.00    -0.269 OA
BRANCH  36  39
ATOM     39  C   UNL A   1      39.536  24.015  26.863  1.00  0.00     0.039 A 
ATOM     40  C   UNL A   1      39.338  24.390  28.196  1.00  0.00     0.014 A 
ATOM     41  C   UNL A   1      40.048  24.938  25.948  1.00  0.00     0.014 A 
ATOM     42  C   UNL A   1      39.700  25.673  28.621  1.00  0.00     0.010 A 
ATOM     43  C   UNL A   1      40.468  26.194  26.387  1.00  0.00     0.010 A 
ATOM     44  C   UNL A   1      40.291  26.577  27.725  1.00  0.00    -0.014 A 
BRANCH  44  45
ATOM     45  C   UNL A   1      40.740  27.923  28.171  1.00  0.00     0.031 A 
ATOM     46  C   UNL A   1      42.207  28.263  28.211  1.00  0.00     0.074 A 
ATOM     47  C   UNL A   1      39.831  28.810  28.624  1.00  0.00     0.049 A 
ATOM     48  N   UNL A   1      42.787  29.358  28.631  1.00  0.00    -0.248 NA
ATOM     49  C   UNL A   1      43.146  27.232  27.740  1.00  0.00     0.031 C 
ATOM     50  C   UNL A   1      38.388  28.572  28.707  1.00  0.00     0.029 A 
ATOM     51  N   UNL A   1      39.987  30.076  29.129  1.00  0.00    -0.354 N 
ATOM     52  C   UNL A   1      44.154  29.135  28.512  1.00  0.00     0.074 A 
ATOM     53  C   UNL A   1      44.319  27.790  28.005  1.00  0.00     0.031 C 
ATOM     54  C   UNL A   1      37.794  29.654  29.235  1.00  0.00     0.029 A 
ATOM     55  C   UNL A   1      38.811  30.650  29.554  1.00  0.00     0.049 A 
ATOM     56  H   UNL A   1      40.859  30.531  29.184  1.00  0.00     0.167 HD
ATOM     57  C   UNL A   1      45.179  29.981  28.777  1.00  0.00     0.034 A 
ATOM     58  C   UNL A   1      38.579  31.841  30.142  1.00  0.00     0.034 A 
ATOM     59  C   UNL A   1      45.010  31.334  29.234  1.00  0.00     0.049 A 
ATOM     60  C   UNL A   1      39.733  32.777  30.381  1.00  0.00     0.074 A 
ATOM     61  C   UNL A   1      45.981  32.299  29.440  1.00  0.00     0.029 A 
ATOM     62  N   UNL A   1      43.795  31.914  29.560  1.00  0.00    -0.354 N 
ATOM     63  N   UNL A   1      41.003  32.607  30.106  1.00  0.00    -0.248 NA
ATOM     64  C   UNL A   1      39.417  34.085  30.974  1.00  0.00     0.031 C 
ATOM     65  C   UNL A   1      45.354  33.458  29.910  1.00  0.00     0.029 A 
ATOM     66  C   UNL A   1      43.991  33.222  29.973  1.00  0.00     0.049 A 
ATOM     67  H   UNL A   1      42.921  31.464  29.506  1.00  0.00     0.167 HD
ATOM     68  C   UNL A   1      41.631  33.797  30.457  1.00  0.00     0.074 A 
ATOM     69  C   UNL A   1      40.597  34.687  30.943  1.00  0.00     0.031 C 
ATOM     70  C   UNL A   1      42.947  34.119  30.396  1.00  0.00     0.034 A 
BRANCH  57  71
ATOM     71  C   UNL A   1      46.581  29.492  28.523  1.00  0.00     0.023 A 
ATOM     72  C   UNL A   1      47.180  29.722  27.268  1.00  0.00     0.012 A 
ATOM     73  C   UNL A   1      47.335  28.882  29.546  1.00  0.00     0.148 A 
ATOM     74  C   UNL A   1      48.494  29.328  27.023  1.00  0.00     0.002 A 
ATOM     75  C   UNL A   1      48.659  28.530  29.309  1.00  0.00     0.091 A 
ATOM     76  F   UNL A   1      46.744  28.656  30.728  1.00  0.00    -0.205 F 
ATOM     77  C   UNL A   1      49.236  28.743  28.046  1.00  0.00     0.022 A 
BRANCH  75  78
ATOM     78  S   UNL A   1      49.726  27.846  30.582  1.00  0.00     0.127 S 
ATOM     79  O   UNL A   1      48.940  26.702  31.043  1.00  0.00    -0.237 OA
ATOM     80  O   UNL A   1      50.925  27.495  29.822  1.00  0.00    -0.237 OA
ATOM     81  O   UNL A   1      49.916  28.907  31.561  1.00  0.00    -0.744 OA
ENDBRANCH  75  78
ENDBRANCH  57  71
BRANCH  58  82
ATOM     82  C   UNL A   1      37.185  32.244  30.487  1.00  0.00     0.023 A 
ATOM     83  C   UNL A   1      36.718  32.056  31.803  1.00  0.00     0.012 A 
ATOM     84  C   UNL A   1      36.330  32.826  29.532  1.00  0.00     0.148 A 
ATOM     85  C   UNL A   1      35.413  32.404  32.151  1.00  0.00     0.002 A 
ATOM     86  C   UNL A   1      35.049  33.223  29.900  1.00  0.00     0.091 A 
ATOM     87  F   UNL A   1      36.787  32.985  28.281  1.00  0.00    -0.205 F 
ATOM     88  C   UNL A   1      34.582  32.997  31.204  1.00  0.00     0.022 A 
BRANCH  86  89
ATOM     89  S   UNL A   1      33.964  34.116  28.780  1.00  0.00     0.127 S 
ATOM     90  O   UNL A   1      34.846  35.165  28.281  1.00  0.00    -0.237 OA
ATOM     91  O   UNL A   1      33.618  33.084  27.804  1.00  0.00    -0.237 OA
ATOM     92  O   UNL A   1      32.842  34.560  29.600  1.00  0.00    -0.744 OA
ENDBRANCH  86  89
ENDBRANCH  58  82
BRANCH  70  93
ATOM     93  C   UNL A   1      43.350  35.504  30.826  1.00  0.00     0.023 A 
ATOM     94  C   UNL A   1      43.514  36.518  29.862  1.00  0.00     0.012 A 
ATOM     95  C   UNL A   1      43.489  35.820  32.192  1.00  0.00     0.148 A 
ATOM     96  C   UNL A   1      43.840  37.818  30.248  1.00  0.00     0.002 A 
ATOM     97  C   UNL A   1      43.767  37.127  32.573  1.00  0.00     0.091 A 
ATOM     98  F   UNL A   1      43.348  34.837  33.094  1.00  0.00    -0.205 F 
ATOM     99  C   UNL A   1      43.955  38.124  31.603  1.00  0.00     0.022 A 
BRANCH  97 100
ATOM    100  S   UNL A   1      43.836  37.634  34.295  1.00  0.00     0.127 S 
ATOM    101  O   UNL A   1      44.177  39.051  34.176  1.00  0.00    -0.237 OA
ATOM    102  O   UNL A   1      42.472  37.370  34.752  1.00  0.00    -0.237 OA
ATOM    103  O   UNL A   1      44.853  36.796  34.919  1.00  0.00    -0.744 OA
ENDBRANCH  97 100
ENDBRANCH  70  93
ENDBRANCH  44  45
ENDBRANCH  36  39
ENDBRANCH  34  35
ENDBRANCH  33  34
ENDBRANCH  32  33
ENDBRANCH   1  32
TORSDOF 21
ENDMDL
MODEL 3
REMARK VINA RESULT:     -12.0      5.613      8.780
REMARK SMILES Cc1cc(NC(=O)COc2cc(C)c(Cl)c(C)c2)cc(C(=O)NCCCCCCNC(=O)c2ccc(-c3c4nc(c(-c5cccc(S(=O)(=O)[O-])c5F)c5ccc([nH]5)c(-c5cccc(S(=O)(=O)[O-])c5F)c5nc(c(-c6cccc(S(=O)(=O)[O-])c6F)c6ccc3[nH]6)C=C5)C=C4)cc2)c1O
REMARK SMILES IDX 26 1 25 2 24 3 23 4 21 5 22 6 20 8 1 9 2 10 3 11 96 12 4 13
REMARK SMILES IDX 19 14 97 15 5 17 6 18 7 20 8 21 9 22 10 23 11 24 18 25 12 26
REMARK SMILES IDX 16 27 13 28 14 29 17 30 15 31 27 32 28 33 29 34 30 35 31 36
REMARK SMILES IDX 32 38 33 39 34 40 95 41 35 42 94 43 36 44 37 45 38 46 88 47
REMARK SMILES IDX 39 48 93 49 87 50 89 51 40 52 92 53 86 54 85 55 41 57 73 58
REMARK SMILES IDX 53 59 72 60 54 61 57 62 71 63 90 64 55 65 56 66 70 68 91 69
REMARK SMILES IDX 58 70 42 71 43 72 51 73 44 74 46 75 52 76 45 77 47 78 48 79
REMARK SMILES IDX 49 80 50 81 74 82 75 83 83 84 76 85 78 86 84 87 77 88 79 89
REMARK SMILES IDX 80 90 81 91 82 92 59 93 60 94 68 95 61 96 63 97 69 98 62 99
REMARK SMILES IDX 64 100 65 101 66 102 67 103
REMARK H PARENT 23 7 97 16 5 19 30 37 89 56 57 67
REMARK Flexibility Score: inf
ROOT
ATOM      1  C   UNL A   1      34.979  23.490  25.540  1.00  0.00     0.002 C 
ENDROOT
BRANCH   1   2
ATOM      2  C   UNL A   1      34.064  23.656  26.752  1.00  0.00     0.021 C 
BRANCH   2   3
ATOM      3  C   UNL A   1      33.387  22.380  27.235  1.00  0.00     0.116 C 
BRANCH   3   4
ATOM      4  N   UNL A   1      32.006  22.566  27.636  1.00  0.00    -0.352 N 
ATOM      5  C   UNL A   1      30.848  23.019  27.043  1.00  0.00     0.255 C 
ATOM      6  O   UNL A   1      29.838  22.853  27.733  1.00  0.00    -0.269 OA
ATOM      7  H   UNL A   1      31.857  22.300  28.572  1.00  0.00     0.163 HD
BRANCH   5   8
ATOM      8  C   UNL A   1      30.741  23.667  25.682  1.00  0.00     0.083 A 
ATOM      9  C   UNL A   1      28.813  26.562  24.007  1.00  0.00     0.048 C 
ATOM     10  C   UNL A   1      29.745  25.405  24.241  1.00  0.00    -0.006 A 
ATOM     11  C   UNL A   1      30.453  24.886  23.152  1.00  0.00     0.033 A 
ATOM     12  C   UNL A   1      29.936  24.821  25.510  1.00  0.00     0.131 A 
ATOM     13  C   UNL A   1      31.298  23.788  23.301  1.00  0.00     0.042 A 
ATOM     14  C   UNL A   1      31.346  23.138  24.533  1.00  0.00     0.043 A 
BRANCH  12  15
ATOM     15  O   UNL A   1      29.337  25.400  26.597  1.00  0.00    -0.507 OA
ATOM     16  H   UNL A   1      28.883  26.216  26.504  1.00  0.00     0.293 HD
ENDBRANCH  12  15
BRANCH  13  17
ATOM     17  N   UNL A   1      32.011  23.388  22.162  1.00  0.00    -0.323 N 
ATOM     18  C   UNL A   1      33.191  23.785  21.605  1.00  0.00     0.262 C 
ATOM     19  H   UNL A   1      31.565  22.669  21.657  1.00  0.00     0.170 HD
ATOM     20  O   UNL A   1      33.554  23.177  20.591  1.00  0.00    -0.271 OA
BRANCH  18  21
ATOM     21  C   UNL A   1      34.030  24.949  22.137  1.00  0.00     0.329 C 
BRANCH  21  22
ATOM     22  O   UNL A   1      33.662  26.270  21.757  1.00  0.00    -0.484 OA
BRANCH  22  23
ATOM     23  C   UNL A   1      33.152  27.073  22.738  1.00  0.00     0.120 A 
ATOM     24  C   UNL A   1      32.147  28.015  22.546  1.00  0.00     0.051 A 
ATOM     25  C   UNL A   1      33.657  26.865  24.023  1.00  0.00     0.051 A 
ATOM     26  C   UNL A   1      31.646  28.762  23.627  1.00  0.00    -0.029 A 
ATOM     27  C   UNL A   1      33.205  27.619  25.118  1.00  0.00    -0.029 A 
ATOM     28  C   UNL A   1      30.539  29.749  23.371  1.00  0.00     0.046 C 
ATOM     29  C   UNL A   1      32.186  28.564  24.911  1.00  0.00     0.047 A 
ATOM     30  C   UNL A   1      33.826  27.395  26.471  1.00  0.00     0.046 C 
ATOM     31  Cl  UNL A   1      31.576  29.478  26.254  1.00  0.00    -0.084 Cl
ENDBRANCH  22  23
ENDBRANCH  21  22
ENDBRANCH  18  21
ENDBRANCH  13  17
ENDBRANCH   5   8
ENDBRANCH   3   4
ENDBRANCH   2   3
ENDBRANCH   1   2
BRANCH   1  32
ATOM     32  C   UNL A   1      34.892  22.136  24.820  1.00  0.00     0.002 C 
BRANCH  32  33
ATOM     33  C   UNL A   1      36.212  21.375  24.642  1.00  0.00     0.021 C 
BRANCH  33  34
ATOM     34  C   UNL A   1      37.446  22.054  25.233  1.00  0.00     0.116 C 
BRANCH  34  35
ATOM     35  N   UNL A   1      38.373  21.094  25.809  1.00  0.00    -0.352 N 
ATOM     36  C   UNL A   1      39.603  21.282  26.387  1.00  0.00     0.251 C 
ATOM     37  H   UNL A   1      38.068  20.157  25.779  1.00  0.00     0.163 HD
ATOM     38  O   UNL A   1      40.323  20.309  26.600  1.00  0.00    -0.269 OA
BRANCH  36  39
ATOM     39  C   UNL A   1      40.070  22.638  26.752  1.00  0.00     0.039 A 
ATOM     40  C   UNL A   1      41.013  22.772  27.777  1.00  0.00     0.014 A 
ATOM     41  C   UNL A   1      39.544  23.777  26.137  1.00  0.00     0.014 A 
ATOM     42  C   UNL A   1      41.464  24.042  28.149  1.00  0.00     0.010 A 
ATOM     43  C   UNL A   1      40.042  25.038  26.464  1.00  0.00     0.010 A 
ATOM     44  C   UNL A   1      41.000  25.185  27.478  1.00  0.00    -0.014 A 
BRANCH  44  45
ATOM     45  C   UNL A   1      41.513  26.539  27.816  1.00  0.00     0.031 A 
ATOM     46  C   UNL A   1      42.939  26.914  27.506  1.00  0.00     0.074 A 
ATOM     47  C   UNL A   1      40.721  27.403  28.482  1.00  0.00     0.049 A 
ATOM     48  N   UNL A   1      43.579  28.021  27.784  1.00  0.00    -0.248 NA
ATOM     49  C   UNL A   1      43.760  25.907  26.814  1.00  0.00     0.031 C 
ATOM     50  C   UNL A   1      39.345  27.131  28.906  1.00  0.00     0.029 A 
ATOM     51  N   UNL A   1      40.965  28.670  28.947  1.00  0.00    -0.354 N 
ATOM     52  C   UNL A   1      44.882  27.830  27.339  1.00  0.00     0.074 A 
ATOM     53  C   UNL A   1      44.950  26.492  26.794  1.00  0.00     0.031 C 
ATOM     54  C   UNL A   1      38.872  28.197  29.572  1.00  0.00     0.029 A 
ATOM     55  C   UNL A   1      39.914  29.215  29.646  1.00  0.00     0.049 A 
ATOM     56  H   UNL A   1      41.814  29.145  28.795  1.00  0.00     0.167 HD
ATOM     57  C   UNL A   1      45.922  28.699  27.357  1.00  0.00     0.034 A 
ATOM     58  C   UNL A   1      39.803  30.398  30.284  1.00  0.00     0.034 A 
ATOM     59  C   UNL A   1      45.838  30.046  27.854  1.00  0.00     0.049 A 
ATOM     60  C   UNL A   1      40.960  31.360  30.247  1.00  0.00     0.074 A 
ATOM     61  C   UNL A   1      46.808  31.033  27.830  1.00  0.00     0.029 A 
ATOM     62  N   UNL A   1      44.724  30.597  28.467  1.00  0.00    -0.354 N 
ATOM     63  N   UNL A   1      42.130  31.222  29.675  1.00  0.00    -0.248 NA
ATOM     64  C   UNL A   1      40.767  32.658  30.911  1.00  0.00     0.031 C 
ATOM     65  C   UNL A   1      46.287  32.175  28.447  1.00  0.00     0.029 A 
ATOM     66  C   UNL A   1      44.984  31.907  28.834  1.00  0.00     0.049 A 
ATOM     67  H   UNL A   1      43.873  30.126  28.621  1.00  0.00     0.167 HD
ATOM     68  C   UNL A   1      42.798  32.425  29.875  1.00  0.00     0.074 A 
ATOM     69  C   UNL A   1      41.892  33.288  30.603  1.00  0.00     0.031 C 
ATOM     70  C   UNL A   1      44.053  32.777  29.503  1.00  0.00     0.034 A 
BRANCH  57  71
ATOM     71  C   UNL A   1      47.232  28.244  26.770  1.00  0.00     0.023 A 
ATOM     72  C   UNL A   1      48.304  27.927  27.630  1.00  0.00     0.012 A 
ATOM     73  C   UNL A   1      47.380  28.051  25.382  1.00  0.00     0.148 A 
ATOM     74  C   UNL A   1      49.510  27.453  27.118  1.00  0.00     0.002 A 
ATOM     75  C   UNL A   1      48.571  27.538  24.882  1.00  0.00     0.091 A 
ATOM     76  F   UNL A   1      46.357  28.375  24.579  1.00  0.00    -0.205 F 
ATOM     77  C   UNL A   1      49.640  27.248  25.747  1.00  0.00     0.022 A 
BRANCH  75  78
ATOM     78  S   UNL A   1      48.813  27.161  23.142  1.00  0.00     0.127 S 
ATOM     79  O   UNL A   1      48.140  25.867  23.024  1.00  0.00    -0.237 OA
ATOM     80  O   UNL A   1      48.120  28.270  22.487  1.00  0.00    -0.237 OA
ATOM     81  O   UNL A   1      50.254  27.135  22.932  1.00  0.00    -0.744 OA
ENDBRANCH  75  78
ENDBRANCH  57  71
BRANCH  58  82
ATOM     82  C   UNL A   1      38.525  30.766  30.957  1.00  0.00     0.023 A 
ATOM     83  C   UNL A   1      38.350  30.461  32.322  1.00  0.00     0.012 A 
ATOM     84  C   UNL A   1      37.493  31.430  30.265  1.00  0.00     0.148 A 
ATOM     85  C   UNL A   1      37.157  30.776  32.974  1.00  0.00     0.002 A 
ATOM     86  C   UNL A   1      36.330  31.791  30.936  1.00  0.00     0.091 A 
ATOM     87  F   UNL A   1      37.672  31.701  28.964  1.00  0.00    -0.205 F 
ATOM     88  C   UNL A   1      36.152  31.449  32.285  1.00  0.00     0.022 A 
BRANCH  86  89
ATOM     89  S   UNL A   1      35.045  32.779  30.161  1.00  0.00     0.127 S 
ATOM     90  O   UNL A   1      34.137  33.018  31.277  1.00  0.00    -0.237 OA
ATOM     91  O   UNL A   1      35.792  33.953  29.709  1.00  0.00    -0.237 OA
ATOM     92  O   UNL A   1      34.522  31.954  29.077  1.00  0.00    -0.744 OA
ENDBRANCH  86  89
ENDBRANCH  58  82
BRANCH  70  93
ATOM     93  C   UNL A   1      44.517  34.170  29.837  1.00  0.00     0.023 A 
ATOM     94  C   UNL A   1      45.249  34.400  31.019  1.00  0.00     0.012 A 
ATOM     95  C   UNL A   1      44.297  35.235  28.941  1.00  0.00     0.148 A 
ATOM     96  C   UNL A   1      45.727  35.676  31.319  1.00  0.00     0.002 A 
ATOM     97  C   UNL A   1      44.817  36.493  29.223  1.00  0.00     0.091 A 
ATOM     98  F   UNL A   1      43.582  34.999  27.831  1.00  0.00    -0.205 F 
ATOM     99  C   UNL A   1      45.522  36.718  30.417  1.00  0.00     0.022 A 
BRANCH  97 100
ATOM    100  S   UNL A   1      44.686  37.868  28.075  1.00  0.00     0.127 S 
ATOM    101  O   UNL A   1      45.443  38.909  28.769  1.00  0.00    -0.237 OA
ATOM    102  O   UNL A   1      45.337  37.336  26.877  1.00  0.00    -0.237 OA
ATOM    103  O   UNL A   1      43.261  38.127  27.921  1.00  0.00    -0.744 OA
ENDBRANCH  97 100
ENDBRANCH  70  93
ENDBRANCH  44  45
ENDBRANCH  36  39
ENDBRANCH  34  35
ENDBRANCH  33  34
ENDBRANCH  32  33
ENDBRANCH   1  32
TORSDOF 21
ENDMDL
