MODEL 1
REMARK VINA RESULT:     -12.0      0.000      0.000
REMARK SMILES Cc1cccc(NC(=O)[C@H]2C=C[C@@H]([NH3+])C2)c1C(=O)NCCCCCCNC(=O)c1ccc(-c2c3nc(c(-c4cccc(S(=O)(=O)[O-])c4F)c4ccc([nH]4)c(-c4cccc(S(=O)(=O)[O-])c4F)c4nc(c(-c5cccc(S(=O)(=O)[O-])c5F)c5ccc2[nH]5)C=C4)C=C3)cc1
REMARK SMILES IDX 22 1 21 2 20 3 19 4 17 5 18 6 16 8 1 9 2 10 3 11 4 12 6 13
REMARK SMILES IDX 5 14 7 15 8 16 9 18 10 19 11 20 15 21 12 22 13 23 14 24
REMARK SMILES IDX 23 28 24 29 25 30 26 31 27 32 28 34 29 35 30 36 91 37 31 38
REMARK SMILES IDX 90 39 32 40 33 41 34 42 84 43 35 44 89 45 83 46 85 47 36 48
REMARK SMILES IDX 88 49 82 50 81 51 37 53 69 54 49 55 68 56 50 57 53 58 67 59
REMARK SMILES IDX 86 60 51 61 52 62 66 64 87 65 54 66 38 67 39 68 47 69 40 70
REMARK SMILES IDX 42 71 48 72 41 73 43 74 44 75 45 76 46 77 70 78 71 79 79 80
REMARK SMILES IDX 72 81 74 82 80 83 73 84 75 85 76 86 77 87 78 88 55 89 56 90
REMARK SMILES IDX 64 91 57 92 59 93 65 94 58 95 60 96 61 97 62 98 63 99
REMARK H PARENT 19 7 7 17 14 25 14 26 14 27 26 33 85 52 53 63
REMARK Flexibility Score: inf
ROOT
ATOM      1  C   UNL A   1      31.260  27.529  27.404  1.00  0.00     0.002 C 
ENDROOT
BRANCH   1   2
ATOM      2  C   UNL A   1      31.269  26.290  26.509  1.00  0.00     0.021 C 
BRANCH   2   3
ATOM      3  C   UNL A   1      29.890  25.689  26.200  1.00  0.00     0.116 C 
BRANCH   3   4
ATOM      4  N   UNL A   1      29.978  24.822  25.055  1.00  0.00    -0.352 N 
ATOM      5  C   UNL A   1      30.564  24.878  23.822  1.00  0.00     0.253 C 
ATOM      6  O   UNL A   1      30.274  23.902  23.117  1.00  0.00    -0.269 OA
ATOM      7  H   UNL A   1      29.495  23.976  25.195  1.00  0.00     0.163 HD
BRANCH   5   8
ATOM      8  C   UNL A   1      31.543  25.899  23.273  1.00  0.00     0.066 A 
ATOM      9  C   UNL A   1      30.066  28.067  23.194  1.00  0.00     0.045 C 
ATOM     10  C   UNL A   1      31.349  27.302  23.117  1.00  0.00    -0.036 A 
ATOM     11  C   UNL A   1      32.415  28.121  22.685  1.00  0.00     0.004 A 
ATOM     12  C   UNL A   1      33.523  27.564  22.100  1.00  0.00     0.002 A 
ATOM     13  C   UNL A   1      32.771  25.356  22.759  1.00  0.00     0.054 A 
ATOM     14  C   UNL A   1      33.618  26.188  22.049  1.00  0.00     0.027 A 
BRANCH  13  15
ATOM     15  N   UNL A   1      33.134  24.000  22.948  1.00  0.00    -0.325 N 
ATOM     16  C   UNL A   1      34.167  23.291  23.472  1.00  0.00     0.231 C 
ATOM     17  H   UNL A   1      32.437  23.399  22.600  1.00  0.00     0.169 HD
ATOM     18  O   UNL A   1      34.014  22.054  23.437  1.00  0.00    -0.274 OA
BRANCH  16  19
ATOM     19  C   UNL A   1      35.516  23.786  24.032  1.00  0.00     0.107 C 
ATOM     20  C   UNL A   1      35.397  24.185  25.474  1.00  0.00    -0.012 C 
ATOM     21  C   UNL A   1      36.835  23.003  23.957  1.00  0.00     0.087 C 
ATOM     22  C   UNL A   1      36.490  23.866  26.175  1.00  0.00     0.033 C 
ATOM     23  C   UNL A   1      37.529  23.198  25.335  1.00  0.00     0.205 C 
BRANCH  23  24
ATOM     24  N   UNL A   1      37.989  21.964  25.955  1.00  0.00    -0.352 N 
ATOM     25  H   UNL A   1      38.603  21.467  25.311  1.00  0.00     0.345 HD
ATOM     26  H   UNL A   1      37.186  21.376  26.180  1.00  0.00     0.345 HD
ATOM     27  H   UNL A   1      38.500  22.184  26.811  1.00  0.00     0.345 HD
ENDBRANCH  23  24
ENDBRANCH  16  19
ENDBRANCH  13  15
ENDBRANCH   5   8
ENDBRANCH   3   4
ENDBRANCH   2   3
ENDBRANCH   1   2
BRANCH   1  28
ATOM     28  C   UNL A   1      31.816  28.810  26.770  1.00  0.00     0.002 C 
BRANCH  28  29
ATOM     29  C   UNL A   1      33.054  29.399  27.448  1.00  0.00     0.021 C 
BRANCH  29  30
ATOM     30  C   UNL A   1      33.779  30.431  26.598  1.00  0.00     0.116 C 
BRANCH  30  31
ATOM     31  N   UNL A   1      34.346  31.499  27.395  1.00  0.00    -0.352 N 
ATOM     32  C   UNL A   1      35.313  31.462  28.386  1.00  0.00     0.251 C 
ATOM     33  H   UNL A   1      33.987  32.395  27.200  1.00  0.00     0.163 HD
ATOM     34  O   UNL A   1      35.428  32.416  29.121  1.00  0.00    -0.269 OA
BRANCH  32  35
ATOM     35  C   UNL A   1      36.280  30.330  28.420  1.00  0.00     0.039 A 
ATOM     36  C   UNL A   1      36.403  29.638  29.633  1.00  0.00     0.014 A 
ATOM     37  C   UNL A   1      37.194  30.105  27.397  1.00  0.00     0.014 A 
ATOM     38  C   UNL A   1      37.574  28.935  29.910  1.00  0.00     0.010 A 
ATOM     39  C   UNL A   1      38.384  29.478  27.692  1.00  0.00     0.010 A 
ATOM     40  C   UNL A   1      38.601  28.967  28.973  1.00  0.00    -0.014 A 
BRANCH  40  41
ATOM     41  C   UNL A   1      39.952  28.483  29.202  1.00  0.00     0.031 A 
ATOM     42  C   UNL A   1      40.285  27.092  28.853  1.00  0.00     0.074 A 
ATOM     43  C   UNL A   1      40.909  29.374  29.541  1.00  0.00     0.049 A 
ATOM     44  N   UNL A   1      41.402  26.523  29.142  1.00  0.00    -0.248 NA
ATOM     45  C   UNL A   1      39.352  26.225  28.149  1.00  0.00     0.031 C 
ATOM     46  C   UNL A   1      42.355  29.202  29.474  1.00  0.00     0.029 A 
ATOM     47  N   UNL A   1      40.752  30.578  30.238  1.00  0.00    -0.354 N 
ATOM     48  C   UNL A   1      41.445  25.319  28.473  1.00  0.00     0.074 A 
ATOM     49  C   UNL A   1      40.120  25.154  27.926  1.00  0.00     0.031 C 
ATOM     50  C   UNL A   1      42.928  30.055  30.338  1.00  0.00     0.029 A 
ATOM     51  C   UNL A   1      41.852  30.640  31.118  1.00  0.00     0.049 A 
ATOM     52  H   UNL A   1      40.029  31.238  30.136  1.00  0.00     0.167 HD
ATOM     53  C   UNL A   1      42.645  24.678  28.379  1.00  0.00     0.034 A 
ATOM     54  C   UNL A   1      41.717  30.546  32.478  1.00  0.00     0.034 A 
ATOM     55  C   UNL A   1      43.646  25.329  29.241  1.00  0.00     0.049 A 
ATOM     56  C   UNL A   1      42.468  29.359  33.085  1.00  0.00     0.074 A 
ATOM     57  C   UNL A   1      44.649  26.267  29.051  1.00  0.00     0.029 A 
ATOM     58  N   UNL A   1      43.469  25.239  30.610  1.00  0.00    -0.354 N 
ATOM     59  N   UNL A   1      43.176  28.498  32.403  1.00  0.00    -0.248 NA
ATOM     60  C   UNL A   1      42.391  29.002  34.503  1.00  0.00     0.031 C 
ATOM     61  C   UNL A   1      45.003  26.797  30.333  1.00  0.00     0.029 A 
ATOM     62  C   UNL A   1      44.243  26.156  31.297  1.00  0.00     0.049 A 
ATOM     63  H   UNL A   1      42.862  24.595  31.044  1.00  0.00     0.167 HD
ATOM     64  C   UNL A   1      43.492  27.430  33.203  1.00  0.00     0.074 A 
ATOM     65  C   UNL A   1      43.013  27.812  34.521  1.00  0.00     0.031 C 
ATOM     66  C   UNL A   1      44.057  26.274  32.739  1.00  0.00     0.034 A 
BRANCH  53  67
ATOM     67  C   UNL A   1      43.004  23.588  27.381  1.00  0.00     0.023 A 
ATOM     68  C   UNL A   1      43.806  23.967  26.280  1.00  0.00     0.012 A 
ATOM     69  C   UNL A   1      42.570  22.241  27.385  1.00  0.00     0.148 A 
ATOM     70  C   UNL A   1      44.093  23.100  25.217  1.00  0.00     0.002 A 
ATOM     71  C   UNL A   1      42.808  21.389  26.301  1.00  0.00     0.091 A 
ATOM     72  F   UNL A   1      41.975  21.732  28.461  1.00  0.00    -0.205 F 
ATOM     73  C   UNL A   1      43.569  21.818  25.213  1.00  0.00     0.022 A 
BRANCH  71  74
ATOM     74  S   UNL A   1      42.101  19.732  26.196  1.00  0.00     0.127 S 
ATOM     75  O   UNL A   1      40.667  20.018  26.113  1.00  0.00    -0.237 OA
ATOM     76  O   UNL A   1      42.688  19.217  24.960  1.00  0.00    -0.237 OA
ATOM     77  O   UNL A   1      42.499  19.035  27.412  1.00  0.00    -0.744 OA
ENDBRANCH  71  74
ENDBRANCH  53  67
BRANCH  54  78
ATOM     78  C   UNL A   1      40.402  31.068  32.976  1.00  0.00     0.023 A 
ATOM     79  C   UNL A   1      39.370  30.119  33.186  1.00  0.00     0.012 A 
ATOM     80  C   UNL A   1      40.291  32.326  33.589  1.00  0.00     0.148 A 
ATOM     81  C   UNL A   1      38.371  30.348  34.134  1.00  0.00     0.002 A 
ATOM     82  C   UNL A   1      39.268  32.560  34.506  1.00  0.00     0.091 A 
ATOM     83  F   UNL A   1      41.213  33.261  33.331  1.00  0.00    -0.205 F 
ATOM     84  C   UNL A   1      38.345  31.553  34.825  1.00  0.00     0.022 A 
BRANCH  82  85
ATOM     85  S   UNL A   1      39.165  34.127  35.379  1.00  0.00     0.127 S 
ATOM     86  O   UNL A   1      40.428  34.137  36.109  1.00  0.00    -0.237 OA
ATOM     87  O   UNL A   1      39.076  35.098  34.289  1.00  0.00    -0.237 OA
ATOM     88  O   UNL A   1      37.952  34.017  36.177  1.00  0.00    -0.744 OA
ENDBRANCH  82  85
ENDBRANCH  54  78
BRANCH  66  89
ATOM     89  C   UNL A   1      44.479  25.148  33.659  1.00  0.00     0.023 A 
ATOM     90  C   UNL A   1      43.649  24.018  33.813  1.00  0.00     0.012 A 
ATOM     91  C   UNL A   1      45.611  25.236  34.505  1.00  0.00     0.148 A 
ATOM     92  C   UNL A   1      43.954  23.001  34.722  1.00  0.00     0.002 A 
ATOM     93  C   UNL A   1      45.849  24.277  35.484  1.00  0.00     0.091 A 
ATOM     94  F   UNL A   1      46.496  26.224  34.332  1.00  0.00    -0.205 F 
ATOM     95  C   UNL A   1      45.041  23.141  35.575  1.00  0.00     0.022 A 
BRANCH  93  96
ATOM     96  S   UNL A   1      47.095  24.507  36.761  1.00  0.00     0.127 S 
ATOM     97  O   UNL A   1      48.331  24.518  35.975  1.00  0.00    -0.237 OA
ATOM     98  O   UNL A   1      46.718  25.802  37.320  1.00  0.00    -0.237 OA
ATOM     99  O   UNL A   1      46.964  23.361  37.649  1.00  0.00    -0.744 OA
ENDBRANCH  93  96
ENDBRANCH  66  89
ENDBRANCH  40  41
ENDBRANCH  32  35
ENDBRANCH  30  31
ENDBRANCH  29  30
ENDBRANCH  28  29
ENDBRANCH   1  28
TORSDOF 19
ENDMDL
MODEL 2
REMARK VINA RESULT:     -11.7      1.868      2.295
REMARK SMILES Cc1cccc(NC(=O)[C@H]2C=C[C@@H]([NH3+])C2)c1C(=O)NCCCCCCNC(=O)c1ccc(-c2c3nc(c(-c4cccc(S(=O)(=O)[O-])c4F)c4ccc([nH]4)c(-c4cccc(S(=O)(=O)[O-])c4F)c4nc(c(-c5cccc(S(=O)(=O)[O-])c5F)c5ccc2[nH]5)C=C4)C=C3)cc1
REMARK SMILES IDX 22 1 21 2 20 3 19 4 17 5 18 6 16 8 1 9 2 10 3 11 4 12 6 13
REMARK SMILES IDX 5 14 7 15 8 16 9 18 10 19 11 20 15 21 12 22 13 23 14 24
REMARK SMILES IDX 23 28 24 29 25 30 26 31 27 32 28 34 29 35 30 36 91 37 31 38
REMARK SMILES IDX 90 39 32 40 33 41 34 42 84 43 35 44 89 45 83 46 85 47 36 48
REMARK SMILES IDX 88 49 82 50 81 51 37 53 69 54 49 55 68 56 50 57 53 58 67 59
REMARK SMILES IDX 86 60 51 61 52 62 66 64 87 65 54 66 38 67 39 68 47 69 40 70
REMARK SMILES IDX 42 71 48 72 41 73 43 74 44 75 45 76 46 77 70 78 71 79 79 80
REMARK SMILES IDX 72 81 74 82 80 83 73 84 75 85 76 86 77 87 78 88 55 89 56 90
REMARK SMILES IDX 64 91 57 92 59 93 65 94 58 95 60 96 61 97 62 98 63 99
REMARK H PARENT 19 7 7 17 14 25 14 26 14 27 26 33 85 52 53 63
REMARK Flexibility Score: inf
ROOT
ATOM      1  C   UNL A   1      31.469  27.493  27.595  1.00  0.00     0.002 C 
ENDROOT
BRANCH   1   2
ATOM      2  C   UNL A   1      31.329  26.302  26.648  1.00  0.00     0.021 C 
BRANCH   2   3
ATOM      3  C   UNL A   1      29.900  25.994  26.180  1.00  0.00     0.116 C 
BRANCH   3   4
ATOM      4  N   UNL A   1      29.936  25.238  24.956  1.00  0.00    -0.352 N 
ATOM      5  C   UNL A   1      30.541  25.368  23.738  1.00  0.00     0.253 C 
ATOM      6  O   UNL A   1      30.186  24.491  22.939  1.00  0.00    -0.269 OA
ATOM      7  H   UNL A   1      29.387  24.423  25.009  1.00  0.00     0.163 HD
BRANCH   5   8
ATOM      8  C   UNL A   1      31.604  26.358  23.298  1.00  0.00     0.066 A 
ATOM      9  C   UNL A   1      30.374  28.650  23.640  1.00  0.00     0.045 C 
ATOM     10  C   UNL A   1      31.561  27.779  23.372  1.00  0.00    -0.036 A 
ATOM     11  C   UNL A   1      32.692  28.543  23.012  1.00  0.00     0.004 A 
ATOM     12  C   UNL A   1      33.707  27.976  22.284  1.00  0.00     0.002 A 
ATOM     13  C   UNL A   1      32.743  25.780  22.636  1.00  0.00     0.054 A 
ATOM     14  C   UNL A   1      33.647  26.623  22.016  1.00  0.00     0.027 A 
BRANCH  13  15
ATOM     15  N   UNL A   1      32.960  24.381  22.591  1.00  0.00    -0.325 N 
ATOM     16  C   UNL A   1      33.499  23.414  23.378  1.00  0.00     0.231 C 
ATOM     17  H   UNL A   1      32.624  24.001  21.749  1.00  0.00     0.169 HD
ATOM     18  O   UNL A   1      33.432  22.264  22.902  1.00  0.00    -0.274 OA
BRANCH  16  19
ATOM     19  C   UNL A   1      34.237  23.540  24.727  1.00  0.00     0.107 C 
ATOM     20  C   UNL A   1      34.708  22.203  25.220  1.00  0.00    -0.012 C 
ATOM     21  C   UNL A   1      35.417  24.486  24.993  1.00  0.00     0.087 C 
ATOM     22  C   UNL A   1      35.895  22.283  25.831  1.00  0.00     0.033 C 
ATOM     23  C   UNL A   1      36.430  23.677  25.853  1.00  0.00     0.205 C 
BRANCH  23  24
ATOM     24  N   UNL A   1      37.800  23.719  25.364  1.00  0.00    -0.352 N 
ATOM     25  H   UNL A   1      37.840  24.269  24.507  1.00  0.00     0.345 HD
ATOM     26  H   UNL A   1      38.122  22.770  25.173  1.00  0.00     0.345 HD
ATOM     27  H   UNL A   1      38.401  24.145  26.070  1.00  0.00     0.345 HD
ENDBRANCH  23  24
ENDBRANCH  16  19
ENDBRANCH  13  15
ENDBRANCH   5   8
ENDBRANCH   3   4
ENDBRANCH   2   3
ENDBRANCH   1   2
BRANCH   1  28
ATOM     28  C   UNL A   1      32.011  28.782  26.965  1.00  0.00     0.002 C 
BRANCH  28  29
ATOM     29  C   UNL A   1      33.340  29.284  27.530  1.00  0.00     0.021 C 
BRANCH  29  30
ATOM     30  C   UNL A   1      33.793  30.607  26.932  1.00  0.00     0.116 C 
BRANCH  30  31
ATOM     31  N   UNL A   1      34.328  31.509  27.931  1.00  0.00    -0.352 N 
ATOM     32  C   UNL A   1      35.280  31.293  28.915  1.00  0.00     0.251 C 
ATOM     33  H   UNL A   1      33.956  32.420  27.907  1.00  0.00     0.163 HD
ATOM     34  O   UNL A   1      35.366  32.088  29.823  1.00  0.00    -0.269 OA
BRANCH  32  35
ATOM     35  C   UNL A   1      36.266  30.190  28.747  1.00  0.00     0.039 A 
ATOM     36  C   UNL A   1      36.613  29.470  29.899  1.00  0.00     0.014 A 
ATOM     37  C   UNL A   1      36.996  30.020  27.576  1.00  0.00     0.014 A 
ATOM     38  C   UNL A   1      37.831  28.795  29.950  1.00  0.00     0.010 A 
ATOM     39  C   UNL A   1      38.234  29.421  27.644  1.00  0.00     0.010 A 
ATOM     40  C   UNL A   1      38.680  28.883  28.852  1.00  0.00    -0.014 A 
BRANCH  40  41
ATOM     41  C   UNL A   1      40.062  28.434  28.831  1.00  0.00     0.031 A 
ATOM     42  C   UNL A   1      40.348  26.995  28.704  1.00  0.00     0.074 A 
ATOM     43  C   UNL A   1      41.041  29.360  28.732  1.00  0.00     0.049 A 
ATOM     44  N   UNL A   1      41.521  26.479  28.815  1.00  0.00    -0.248 NA
ATOM     45  C   UNL A   1      39.301  26.017  28.448  1.00  0.00     0.031 C 
ATOM     46  C   UNL A   1      42.431  29.152  28.343  1.00  0.00     0.029 A 
ATOM     47  N   UNL A   1      41.019  30.684  29.183  1.00  0.00    -0.354 N 
ATOM     48  C   UNL A   1      41.440  25.162  28.419  1.00  0.00     0.074 A 
ATOM     49  C   UNL A   1      40.027  24.910  28.265  1.00  0.00     0.031 C 
ATOM     50  C   UNL A   1      43.169  30.156  28.843  1.00  0.00     0.029 A 
ATOM     51  C   UNL A   1      42.299  30.908  29.729  1.00  0.00     0.049 A 
ATOM     52  H   UNL A   1      40.271  31.321  29.131  1.00  0.00     0.167 HD
ATOM     53  C   UNL A   1      42.601  24.494  28.162  1.00  0.00     0.034 A 
ATOM     54  C   UNL A   1      42.508  31.100  31.070  1.00  0.00     0.034 A 
ATOM     55  C   UNL A   1      43.761  25.293  28.595  1.00  0.00     0.049 A 
ATOM     56  C   UNL A   1      43.428  30.053  31.700  1.00  0.00     0.074 A 
ATOM     57  C   UNL A   1      44.651  26.154  27.973  1.00  0.00     0.029 A 
ATOM     58  N   UNL A   1      43.931  25.492  29.953  1.00  0.00    -0.354 N 
ATOM     59  N   UNL A   1      43.975  29.056  31.055  1.00  0.00    -0.248 NA
ATOM     60  C   UNL A   1      43.716  29.999  33.135  1.00  0.00     0.031 C 
ATOM     61  C   UNL A   1      45.292  26.932  28.990  1.00  0.00     0.029 A 
ATOM     62  C   UNL A   1      44.818  26.518  30.223  1.00  0.00     0.049 A 
ATOM     63  H   UNL A   1      43.473  24.963  30.647  1.00  0.00     0.167 HD
ATOM     64  C   UNL A   1      44.516  28.173  31.953  1.00  0.00     0.074 A 
ATOM     65  C   UNL A   1      44.365  28.828  33.241  1.00  0.00     0.031 C 
ATOM     66  C   UNL A   1      44.990  26.936  31.610  1.00  0.00     0.034 A 
BRANCH  53  67
ATOM     67  C   UNL A   1      42.741  23.215  27.352  1.00  0.00     0.023 A 
ATOM     68  C   UNL A   1      42.032  22.082  27.817  1.00  0.00     0.012 A 
ATOM     69  C   UNL A   1      43.557  23.001  26.216  1.00  0.00     0.148 A 
ATOM     70  C   UNL A   1      42.182  20.811  27.250  1.00  0.00     0.002 A 
ATOM     71  C   UNL A   1      43.751  21.722  25.681  1.00  0.00     0.091 A 
ATOM     72  F   UNL A   1      44.113  24.033  25.586  1.00  0.00    -0.205 F 
ATOM     73  C   UNL A   1      43.064  20.624  26.198  1.00  0.00     0.022 A 
BRANCH  71  74
ATOM     74  S   UNL A   1      44.935  21.393  24.359  1.00  0.00     0.127 S 
ATOM     75  O   UNL A   1      46.207  21.733  24.999  1.00  0.00    -0.237 OA
ATOM     76  O   UNL A   1      44.743  19.965  24.114  1.00  0.00    -0.237 OA
ATOM     77  O   UNL A   1      44.572  22.270  23.252  1.00  0.00    -0.744 OA
ENDBRANCH  71  74
ENDBRANCH  53  67
BRANCH  54  78
ATOM     78  C   UNL A   1      41.340  31.737  31.761  1.00  0.00     0.023 A 
ATOM     79  C   UNL A   1      40.962  33.033  31.325  1.00  0.00     0.012 A 
ATOM     80  C   UNL A   1      40.413  30.981  32.496  1.00  0.00     0.148 A 
ATOM     81  C   UNL A   1      39.642  33.471  31.446  1.00  0.00     0.002 A 
ATOM     82  C   UNL A   1      39.107  31.443  32.644  1.00  0.00     0.091 A 
ATOM     83  F   UNL A   1      40.785  29.792  32.986  1.00  0.00    -0.205 F 
ATOM     84  C   UNL A   1      38.704  32.656  32.068  1.00  0.00     0.022 A 
BRANCH  82  85
ATOM     85  S   UNL A   1      37.877  30.446  33.493  1.00  0.00     0.127 S 
ATOM     86  O   UNL A   1      38.282  29.097  33.111  1.00  0.00    -0.237 OA
ATOM     87  O   UNL A   1      38.104  30.782  34.898  1.00  0.00    -0.237 OA
ATOM     88  O   UNL A   1      36.603  30.917  32.967  1.00  0.00    -0.744 OA
ENDBRANCH  82  85
ENDBRANCH  54  78
BRANCH  66  89
ATOM     89  C   UNL A   1      45.666  26.019  32.606  1.00  0.00     0.023 A 
ATOM     90  C   UNL A   1      47.062  25.822  32.545  1.00  0.00     0.012 A 
ATOM     91  C   UNL A   1      44.941  25.213  33.518  1.00  0.00     0.148 A 
ATOM     92  C   UNL A   1      47.713  24.911  33.383  1.00  0.00     0.002 A 
ATOM     93  C   UNL A   1      45.580  24.232  34.269  1.00  0.00     0.091 A 
ATOM     94  F   UNL A   1      43.634  25.428  33.703  1.00  0.00    -0.205 F 
ATOM     95  C   UNL A   1      46.970  24.099  34.228  1.00  0.00     0.022 A 
BRANCH  93  96
ATOM     96  S   UNL A   1      44.660  23.001  35.207  1.00  0.00     0.127 S 
ATOM     97  O   UNL A   1      45.734  22.126  35.686  1.00  0.00    -0.237 OA
ATOM     98  O   UNL A   1      44.033  23.817  36.241  1.00  0.00    -0.237 OA
ATOM     99  O   UNL A   1      43.761  22.370  34.251  1.00  0.00    -0.744 OA
ENDBRANCH  93  96
ENDBRANCH  66  89
ENDBRANCH  40  41
ENDBRANCH  32  35
ENDBRANCH  30  31
ENDBRANCH  29  30
ENDBRANCH  28  29
ENDBRANCH   1  28
TORSDOF 19
ENDMDL
MODEL 3
REMARK VINA RESULT:     -11.4      4.323      9.811
REMARK SMILES Cc1cccc(NC(=O)[C@H]2C=C[C@@H]([NH3+])C2)c1C(=O)NCCCCCCNC(=O)c1ccc(-c2c3nc(c(-c4cccc(S(=O)(=O)[O-])c4F)c4ccc([nH]4)c(-c4cccc(S(=O)(=O)[O-])c4F)c4nc(c(-c5cccc(S(=O)(=O)[O-])c5F)c5ccc2[nH]5)C=C4)C=C3)cc1
REMARK SMILES IDX 22 1 21 2 20 3 19 4 17 5 18 6 16 8 1 9 2 10 3 11 4 12 6 13
REMARK SMILES IDX 5 14 7 15 8 16 9 18 10 19 11 20 15 21 12 22 13 23 14 24
REMARK SMILES IDX 23 28 24 29 25 30 26 31 27 32 28 34 29 35 30 36 91 37 31 38
REMARK SMILES IDX 90 39 32 40 33 41 34 42 84 43 35 44 89 45 83 46 85 47 36 48
REMARK SMILES IDX 88 49 82 50 81 51 37 53 69 54 49 55 68 56 50 57 53 58 67 59
REMARK SMILES IDX 86 60 51 61 52 62 66 64 87 65 54 66 38 67 39 68 47 69 40 70
REMARK SMILES IDX 42 71 48 72 41 73 43 74 44 75 45 76 46 77 70 78 71 79 79 80
REMARK SMILES IDX 72 81 74 82 80 83 73 84 75 85 76 86 77 87 78 88 55 89 56 90
REMARK SMILES IDX 64 91 57 92 59 93 65 94 58 95 60 96 61 97 62 98 63 99
REMARK H PARENT 19 7 7 17 14 25 14 26 14 27 26 33 85 52 53 63
REMARK Flexibility Score: inf
ROOT
ATOM      1  C   UNL A   1      35.841  24.325  25.122  1.00  0.00     0.002 C 
ENDROOT
BRANCH   1   2
ATOM      2  C   UNL A   1      34.556  25.057  24.735  1.00  0.00     0.021 C 
BRANCH   2   3
ATOM      3  C   UNL A   1      34.298  25.184  23.227  1.00  0.00     0.116 C 
BRANCH   3   4
ATOM      4  N   UNL A   1      33.644  23.998  22.740  1.00  0.00    -0.352 N 
ATOM      5  C   UNL A   1      32.832  23.036  23.269  1.00  0.00     0.253 C 
ATOM      6  O   UNL A   1      32.591  22.126  22.464  1.00  0.00    -0.269 OA
ATOM      7  H   UNL A   1      33.828  23.840  21.786  1.00  0.00     0.163 HD
BRANCH   5   8
ATOM      8  C   UNL A   1      32.158  22.993  24.628  1.00  0.00     0.066 A 
ATOM      9  C   UNL A   1      30.325  24.854  24.375  1.00  0.00     0.045 C 
ATOM     10  C   UNL A   1      30.999  23.702  25.054  1.00  0.00    -0.036 A 
ATOM     11  C   UNL A   1      30.446  23.459  26.329  1.00  0.00     0.004 A 
ATOM     12  C   UNL A   1      31.179  22.807  27.289  1.00  0.00     0.002 A 
ATOM     13  C   UNL A   1      32.842  22.216  25.628  1.00  0.00     0.054 A 
ATOM     14  C   UNL A   1      32.415  22.301  26.940  1.00  0.00     0.027 A 
BRANCH  13  15
ATOM     15  N   UNL A   1      33.941  21.380  25.312  1.00  0.00    -0.325 N 
ATOM     16  C   UNL A   1      34.156  20.112  24.877  1.00  0.00     0.231 C 
ATOM     17  H   UNL A   1      34.792  21.854  25.445  1.00  0.00     0.169 HD
ATOM     18  O   UNL A   1      35.356  19.821  24.707  1.00  0.00    -0.274 OA
BRANCH  16  19
ATOM     19  C   UNL A   1      33.147  18.970  24.634  1.00  0.00     0.107 C 
ATOM     20  C   UNL A   1      33.684  17.964  23.658  1.00  0.00    -0.012 C 
ATOM     21  C   UNL A   1      32.499  18.125  25.740  1.00  0.00     0.087 C 
ATOM     22  C   UNL A   1      33.325  16.716  23.976  1.00  0.00     0.033 C 
ATOM     23  C   UNL A   1      32.493  16.662  25.215  1.00  0.00     0.205 C 
BRANCH  23  24
ATOM     24  N   UNL A   1      33.019  15.684  26.156  1.00  0.00    -0.352 N 
ATOM     25  H   UNL A   1      32.359  15.559  26.923  1.00  0.00     0.345 HD
ATOM     26  H   UNL A   1      33.911  16.013  26.526  1.00  0.00     0.345 HD
ATOM     27  H   UNL A   1      33.158  14.793  25.679  1.00  0.00     0.345 HD
ENDBRANCH  23  24
ENDBRANCH  16  19
ENDBRANCH  13  15
ENDBRANCH   5   8
ENDBRANCH   3   4
ENDBRANCH   2   3
ENDBRANCH   1   2
BRANCH   1  28
ATOM     28  C   UNL A   1      36.400  23.363  24.067  1.00  0.00     0.002 C 
BRANCH  28  29
ATOM     29  C   UNL A   1      37.610  22.536  24.501  1.00  0.00     0.021 C 
BRANCH  29  30
ATOM     30  C   UNL A   1      37.702  22.339  26.007  1.00  0.00     0.116 C 
BRANCH  30  31
ATOM     31  N   UNL A   1      39.061  22.103  26.448  1.00  0.00    -0.352 N 
ATOM     32  C   UNL A   1      40.086  22.997  26.712  1.00  0.00     0.251 C 
ATOM     33  H   UNL A   1      39.294  21.155  26.583  1.00  0.00     0.163 HD
ATOM     34  O   UNL A   1      41.219  22.577  26.785  1.00  0.00    -0.269 OA
BRANCH  32  35
ATOM     35  C   UNL A   1      39.754  24.408  27.053  1.00  0.00     0.039 A 
ATOM     36  C   UNL A   1      40.339  25.406  26.261  1.00  0.00     0.014 A 
ATOM     37  C   UNL A   1      39.099  24.752  28.230  1.00  0.00     0.014 A 
ATOM     38  C   UNL A   1      40.496  26.691  26.775  1.00  0.00     0.010 A 
ATOM     39  C   UNL A   1      39.318  25.997  28.776  1.00  0.00     0.010 A 
ATOM     40  C   UNL A   1      40.084  26.934  28.081  1.00  0.00    -0.014 A 
BRANCH  40  41
ATOM     41  C   UNL A   1      40.379  28.140  28.836  1.00  0.00     0.031 A 
ATOM     42  C   UNL A   1      39.422  29.259  28.804  1.00  0.00     0.074 A 
ATOM     43  C   UNL A   1      41.420  28.127  29.696  1.00  0.00     0.049 A 
ATOM     44  N   UNL A   1      39.647  30.417  29.316  1.00  0.00    -0.248 NA
ATOM     45  C   UNL A   1      38.119  29.146  28.166  1.00  0.00     0.031 C 
ATOM     46  C   UNL A   1      41.688  29.054  30.789  1.00  0.00     0.029 A 
ATOM     47  N   UNL A   1      42.592  27.367  29.613  1.00  0.00    -0.354 N 
ATOM     48  C   UNL A   1      38.464  31.123  29.297  1.00  0.00     0.074 A 
ATOM     49  C   UNL A   1      37.565  30.312  28.511  1.00  0.00     0.031 C 
ATOM     50  C   UNL A   1      43.003  29.027  31.060  1.00  0.00     0.029 A 
ATOM     51  C   UNL A   1      43.626  28.239  30.011  1.00  0.00     0.049 A 
ATOM     52  H   UNL A   1      42.676  26.426  29.336  1.00  0.00     0.167 HD
ATOM     53  C   UNL A   1      38.376  32.254  30.054  1.00  0.00     0.034 A 
ATOM     54  C   UNL A   1      44.587  28.690  29.145  1.00  0.00     0.034 A 
ATOM     55  C   UNL A   1      39.699  32.621  30.587  1.00  0.00     0.049 A 
ATOM     56  C   UNL A   1      44.605  30.213  28.994  1.00  0.00     0.074 A 
ATOM     57  C   UNL A   1      40.370  32.419  31.783  1.00  0.00     0.029 A 
ATOM     58  N   UNL A   1      40.657  33.048  29.685  1.00  0.00    -0.354 N 
ATOM     59  N   UNL A   1      43.796  31.033  29.611  1.00  0.00    -0.248 NA
ATOM     60  C   UNL A   1      45.480  30.914  28.051  1.00  0.00     0.031 C 
ATOM     61  C   UNL A   1      41.763  32.652  31.550  1.00  0.00     0.029 A 
ATOM     62  C   UNL A   1      41.929  33.028  30.227  1.00  0.00     0.049 A 
ATOM     63  H   UNL A   1      40.455  33.334  28.764  1.00  0.00     0.167 HD
ATOM     64  C   UNL A   1      43.906  32.284  29.061  1.00  0.00     0.074 A 
ATOM     65  C   UNL A   1      45.003  32.168  28.115  1.00  0.00     0.031 C 
ATOM     66  C   UNL A   1      43.058  33.318  29.350  1.00  0.00     0.034 A 
BRANCH  53  67
ATOM     67  C   UNL A   1      37.093  32.942  30.494  1.00  0.00     0.023 A 
ATOM     68  C   UNL A   1      36.753  32.848  31.864  1.00  0.00     0.012 A 
ATOM     69  C   UNL A   1      36.153  33.613  29.677  1.00  0.00     0.148 A 
ATOM     70  C   UNL A   1      35.535  33.313  32.375  1.00  0.00     0.002 A 
ATOM     71  C   UNL A   1      34.912  34.030  30.172  1.00  0.00     0.091 A 
ATOM     72  F   UNL A   1      36.459  33.923  28.419  1.00  0.00    -0.205 F 
ATOM     73  C   UNL A   1      34.600  33.879  31.524  1.00  0.00     0.022 A 
BRANCH  71  74
ATOM     74  S   UNL A   1      33.622  34.710  29.110  1.00  0.00     0.127 S 
ATOM     75  O   UNL A   1      33.347  33.589  28.210  1.00  0.00    -0.237 OA
ATOM     76  O   UNL A   1      32.552  35.000  30.063  1.00  0.00    -0.237 OA
ATOM     77  O   UNL A   1      34.201  35.874  28.451  1.00  0.00    -0.744 OA
ENDBRANCH  71  74
ENDBRANCH  53  67
BRANCH  54  78
ATOM     78  C   UNL A   1      44.887  27.719  28.042  1.00  0.00     0.023 A 
ATOM     79  C   UNL A   1      44.170  27.881  26.830  1.00  0.00     0.012 A 
ATOM     80  C   UNL A   1      46.068  26.960  28.027  1.00  0.00     0.148 A 
ATOM     81  C   UNL A   1      44.720  27.470  25.614  1.00  0.00     0.002 A 
ATOM     82  C   UNL A   1      46.590  26.520  26.813  1.00  0.00     0.091 A 
ATOM     83  F   UNL A   1      46.708  26.727  29.179  1.00  0.00    -0.205 F 
ATOM     84  C   UNL A   1      45.952  26.826  25.602  1.00  0.00     0.022 A 
BRANCH  82  85
ATOM     85  S   UNL A   1      48.152  25.633  26.759  1.00  0.00     0.127 S 
ATOM     86  O   UNL A   1      48.424  25.609  25.325  1.00  0.00    -0.237 OA
ATOM     87  O   UNL A   1      49.039  26.496  27.539  1.00  0.00    -0.237 OA
ATOM     88  O   UNL A   1      47.864  24.352  27.389  1.00  0.00    -0.744 OA
ENDBRANCH  82  85
ENDBRANCH  54  78
BRANCH  66  89
ATOM     89  C   UNL A   1      43.258  34.713  28.798  1.00  0.00     0.023 A 
ATOM     90  C   UNL A   1      42.604  35.098  27.609  1.00  0.00     0.012 A 
ATOM     91  C   UNL A   1      44.202  35.621  29.337  1.00  0.00     0.148 A 
ATOM     92  C   UNL A   1      42.834  36.343  27.014  1.00  0.00     0.002 A 
ATOM     93  C   UNL A   1      44.508  36.808  28.680  1.00  0.00     0.091 A 
ATOM     94  F   UNL A   1      44.773  35.364  30.519  1.00  0.00    -0.205 F 
ATOM     95  C   UNL A   1      43.803  37.188  27.536  1.00  0.00     0.022 A 
BRANCH  93  96
ATOM     96  S   UNL A   1      45.902  37.836  29.170  1.00  0.00     0.127 S 
ATOM     97  O   UNL A   1      46.975  36.846  29.291  1.00  0.00    -0.237 OA
ATOM     98  O   UNL A   1      46.030  38.735  28.027  1.00  0.00    -0.237 OA
ATOM     99  O   UNL A   1      45.513  38.451  30.431  1.00  0.00    -0.744 OA
ENDBRANCH  93  96
ENDBRANCH  66  89
ENDBRANCH  40  41
ENDBRANCH  32  35
ENDBRANCH  30  31
ENDBRANCH  29  30
ENDBRANCH  28  29
ENDBRANCH   1  28
TORSDOF 19
ENDMDL
