MODEL 1
REMARK VINA RESULT:     -11.5      0.000      0.000
REMARK SMILES Cc1nsc(N(C)S(=O)(=O)c2cn[nH]c2C)c1C(=O)NCCCCCCNC(=O)c1ccc(-c2c3nc(c(-c4cccc(S(=O)(=O)[O-])c4F)c4ccc([nH]4)c(-c4cccc(S(=O)(=O)[O-])c4F)c4nc(c(-c5cccc(S(=O)(=O)[O-])c5F)c5ccc2[nH]5)C=C4)C=C3)cc1
REMARK SMILES IDX 23 1 22 2 21 3 20 4 18 5 19 6 17 8 1 9 2 10 3 11 4 12 5 13
REMARK SMILES IDX 6 14 7 15 8 16 9 17 10 18 11 19 12 20 15 21 13 22 14 23
REMARK SMILES IDX 16 24 24 26 25 27 26 28 27 29 28 30 29 32 30 33 31 34 92 35
REMARK SMILES IDX 32 36 91 37 33 38 34 39 35 40 85 41 36 42 90 43 84 44 86 45
REMARK SMILES IDX 37 46 89 47 83 48 82 49 38 51 70 52 50 53 69 54 51 55 54 56
REMARK SMILES IDX 68 57 87 58 52 59 53 60 67 62 88 63 55 64 39 65 40 66 48 67
REMARK SMILES IDX 41 68 43 69 49 70 42 71 44 72 45 73 46 74 47 75 71 76 72 77
REMARK SMILES IDX 80 78 73 79 75 80 81 81 74 82 76 83 77 84 78 85 79 86 56 87
REMARK SMILES IDX 57 88 65 89 58 90 60 91 66 92 59 93 61 94 62 95 63 96 64 97
REMARK H PARENT 20 7 14 25 27 31 86 50 54 61
REMARK Flexibility Score: inf
ROOT
ATOM      1  C   UNL A   1      32.899  30.260  26.533  1.00  0.00     0.002 C 
ENDROOT
BRANCH   1   2
ATOM      2  C   UNL A   1      33.119  28.917  27.242  1.00  0.00     0.021 C 
BRANCH   2   3
ATOM      3  C   UNL A   1      33.900  27.874  26.428  1.00  0.00     0.116 C 
BRANCH   3   4
ATOM      4  N   UNL A   1      33.217  26.601  26.295  1.00  0.00    -0.352 N 
ATOM      5  C   UNL A   1      31.973  26.421  25.724  1.00  0.00     0.256 C 
ATOM      6  O   UNL A   1      31.041  26.189  26.489  1.00  0.00    -0.269 OA
ATOM      7  H   UNL A   1      33.677  25.802  26.640  1.00  0.00     0.163 HD
BRANCH   5   8
ATOM      8  C   UNL A   1      31.849  26.328  24.266  1.00  0.00     0.098 A 
ATOM      9  C   UNL A   1      30.249  28.438  23.824  1.00  0.00     0.069 C 
ATOM     10  C   UNL A   1      31.099  27.277  23.428  1.00  0.00     0.066 A 
ATOM     11  N   UNL A   1      31.161  27.089  22.114  1.00  0.00    -0.195 NA
ATOM     12  S   UNL A   1      31.962  25.717  21.805  1.00  0.00    -0.017 S 
ATOM     13  C   UNL A   1      32.305  25.265  23.450  1.00  0.00     0.138 A 
BRANCH  13  14
ATOM     14  N   UNL A   1      33.023  23.982  23.665  1.00  0.00    -0.258 N 
ATOM     15  C   UNL A   1      33.523  23.266  22.471  1.00  0.00     0.165 C 
BRANCH  14  16
ATOM     16  S   UNL A   1      32.635  23.015  25.011  1.00  0.00     0.268 S 
ATOM     17  O   UNL A   1      33.392  23.469  26.123  1.00  0.00    -0.201 OA
ATOM     18  O   UNL A   1      31.189  22.807  25.015  1.00  0.00    -0.201 OA
BRANCH  16  19
ATOM     19  C   UNL A   1      33.134  21.345  24.886  1.00  0.00     0.128 A 
ATOM     20  C   UNL A   1      32.371  20.165  24.885  1.00  0.00     0.157 A 
ATOM     21  C   UNL A   1      34.445  20.892  24.968  1.00  0.00     0.053 A 
ATOM     22  N   UNL A   1      33.121  19.056  24.906  1.00  0.00    -0.183 NA
ATOM     23  N   UNL A   1      34.372  19.529  24.998  1.00  0.00    -0.281 N 
ATOM     24  C   UNL A   1      35.742  21.597  25.100  1.00  0.00     0.067 C 
ATOM     25  H   UNL A   1      35.163  18.949  25.079  1.00  0.00     0.190 HD
ENDBRANCH  16  19
ENDBRANCH  14  16
ENDBRANCH  13  14
ENDBRANCH   5   8
ENDBRANCH   3   4
ENDBRANCH   2   3
ENDBRANCH   1   2
BRANCH   1  26
ATOM     26  C   UNL A   1      31.464  30.811  26.544  1.00  0.00     0.002 C 
BRANCH  26  27
ATOM     27  C   UNL A   1      31.297  32.324  26.763  1.00  0.00     0.021 C 
BRANCH  27  28
ATOM     28  C   UNL A   1      32.597  33.064  27.032  1.00  0.00     0.116 C 
BRANCH  28  29
ATOM     29  N   UNL A   1      32.381  34.316  27.761  1.00  0.00    -0.352 N 
ATOM     30  C   UNL A   1      33.015  34.768  28.902  1.00  0.00     0.251 C 
ATOM     31  H   UNL A   1      31.694  34.914  27.390  1.00  0.00     0.163 HD
ATOM     32  O   UNL A   1      32.515  35.645  29.597  1.00  0.00    -0.269 OA
BRANCH  30  33
ATOM     33  C   UNL A   1      34.309  34.167  29.263  1.00  0.00     0.039 A 
ATOM     34  C   UNL A   1      34.440  33.295  30.349  1.00  0.00     0.014 A 
ATOM     35  C   UNL A   1      35.394  34.458  28.446  1.00  0.00     0.014 A 
ATOM     36  C   UNL A   1      35.661  32.658  30.553  1.00  0.00     0.010 A 
ATOM     37  C   UNL A   1      36.520  33.688  28.529  1.00  0.00     0.010 A 
ATOM     38  C   UNL A   1      36.695  32.850  29.626  1.00  0.00    -0.014 A 
BRANCH  38  39
ATOM     39  C   UNL A   1      37.979  32.180  29.761  1.00  0.00     0.031 A 
ATOM     40  C   UNL A   1      38.084  30.813  29.188  1.00  0.00     0.074 A 
ATOM     41  C   UNL A   1      39.081  32.845  30.171  1.00  0.00     0.049 A 
ATOM     42  N   UNL A   1      38.251  29.705  29.831  1.00  0.00    -0.248 NA
ATOM     43  C   UNL A   1      37.898  30.642  27.741  1.00  0.00     0.031 C 
ATOM     44  C   UNL A   1      39.222  34.278  30.475  1.00  0.00     0.029 A 
ATOM     45  N   UNL A   1      40.360  32.397  30.242  1.00  0.00    -0.354 N 
ATOM     46  C   UNL A   1      38.418  28.720  28.859  1.00  0.00     0.074 A 
ATOM     47  C   UNL A   1      38.009  29.317  27.612  1.00  0.00     0.031 C 
ATOM     48  C   UNL A   1      40.525  34.621  30.420  1.00  0.00     0.029 A 
ATOM     49  C   UNL A   1      41.307  33.410  30.289  1.00  0.00     0.049 A 
ATOM     50  H   UNL A   1      40.594  31.441  30.260  1.00  0.00     0.167 HD
ATOM     51  C   UNL A   1      39.096  27.566  29.119  1.00  0.00     0.034 A 
ATOM     52  C   UNL A   1      42.646  33.265  30.193  1.00  0.00     0.034 A 
ATOM     53  C   UNL A   1      39.340  27.400  30.530  1.00  0.00     0.049 A 
ATOM     54  C   UNL A   1      42.954  31.872  30.587  1.00  0.00     0.074 A 
ATOM     55  C   UNL A   1      38.553  27.311  31.661  1.00  0.00     0.029 A 
ATOM     56  N   UNL A   1      40.608  27.685  30.977  1.00  0.00    -0.354 N 
ATOM     57  N   UNL A   1      42.744  31.406  31.788  1.00  0.00    -0.248 NA
ATOM     58  C   UNL A   1      43.092  30.870  29.545  1.00  0.00     0.031 C 
ATOM     59  C   UNL A   1      39.276  28.024  32.664  1.00  0.00     0.029 A 
ATOM     60  C   UNL A   1      40.478  28.458  32.101  1.00  0.00     0.049 A 
ATOM     61  H   UNL A   1      41.452  27.389  30.567  1.00  0.00     0.167 HD
ATOM     62  C   UNL A   1      42.270  30.116  31.583  1.00  0.00     0.074 A 
ATOM     63  C   UNL A   1      42.637  29.800  30.204  1.00  0.00     0.031 C 
ATOM     64  C   UNL A   1      41.377  29.543  32.446  1.00  0.00     0.034 A 
BRANCH  51  65
ATOM     65  C   UNL A   1      39.847  26.735  28.104  1.00  0.00     0.023 A 
ATOM     66  C   UNL A   1      39.614  25.340  28.108  1.00  0.00     0.012 A 
ATOM     67  C   UNL A   1      40.943  27.197  27.345  1.00  0.00     0.148 A 
ATOM     68  C   UNL A   1      40.455  24.450  27.431  1.00  0.00     0.002 A 
ATOM     69  C   UNL A   1      41.728  26.316  26.606  1.00  0.00     0.091 A 
ATOM     70  F   UNL A   1      41.331  28.473  27.436  1.00  0.00    -0.205 F 
ATOM     71  C   UNL A   1      41.509  24.939  26.670  1.00  0.00     0.022 A 
BRANCH  69  72
ATOM     72  S   UNL A   1      43.062  26.911  25.560  1.00  0.00     0.127 S 
ATOM     73  O   UNL A   1      42.350  27.818  24.665  1.00  0.00    -0.237 OA
ATOM     74  O   UNL A   1      43.943  27.562  26.531  1.00  0.00    -0.237 OA
ATOM     75  O   UNL A   1      43.631  25.714  24.953  1.00  0.00    -0.744 OA
ENDBRANCH  69  72
ENDBRANCH  51  65
BRANCH  52  76
ATOM     76  C   UNL A   1      43.629  34.186  29.588  1.00  0.00     0.023 A 
ATOM     77  C   UNL A   1      44.366  35.062  30.404  1.00  0.00     0.012 A 
ATOM     78  C   UNL A   1      44.025  34.029  28.239  1.00  0.00     0.148 A 
ATOM     79  C   UNL A   1      45.481  35.742  29.900  1.00  0.00     0.002 A 
ATOM     80  C   UNL A   1      45.130  34.710  27.742  1.00  0.00     0.091 A 
ATOM     81  F   UNL A   1      43.371  33.144  27.473  1.00  0.00    -0.205 F 
ATOM     82  C   UNL A   1      45.868  35.561  28.573  1.00  0.00     0.022 A 
BRANCH  80  83
ATOM     83  S   UNL A   1      45.702  34.505  26.049  1.00  0.00     0.127 S 
ATOM     84  O   UNL A   1      44.472  34.719  25.287  1.00  0.00    -0.237 OA
ATOM     85  O   UNL A   1      46.689  35.573  25.933  1.00  0.00    -0.237 OA
ATOM     86  O   UNL A   1      46.230  33.148  25.971  1.00  0.00    -0.744 OA
ENDBRANCH  80  83
ENDBRANCH  52  76
BRANCH  64  87
ATOM     87  C   UNL A   1      41.072  30.266  33.741  1.00  0.00     0.023 A 
ATOM     88  C   UNL A   1      41.991  30.285  34.811  1.00  0.00     0.012 A 
ATOM     89  C   UNL A   1      39.941  31.096  33.813  1.00  0.00     0.148 A 
ATOM     90  C   UNL A   1      41.782  31.089  35.934  1.00  0.00     0.002 A 
ATOM     91  C   UNL A   1      39.756  31.929  34.914  1.00  0.00     0.091 A 
ATOM     92  F   UNL A   1      39.081  31.087  32.783  1.00  0.00    -0.205 F 
ATOM     93  C   UNL A   1      40.669  31.921  35.980  1.00  0.00     0.022 A 
BRANCH  91  94
ATOM     94  S   UNL A   1      38.415  33.120  34.989  1.00  0.00     0.127 S 
ATOM     95  O   UNL A   1      37.236  32.257  34.950  1.00  0.00    -0.237 OA
ATOM     96  O   UNL A   1      38.649  33.776  36.277  1.00  0.00    -0.237 OA
ATOM     97  O   UNL A   1      38.588  33.995  33.836  1.00  0.00    -0.744 OA
ENDBRANCH  91  94
ENDBRANCH  64  87
ENDBRANCH  38  39
ENDBRANCH  30  33
ENDBRANCH  28  29
ENDBRANCH  27  28
ENDBRANCH  26  27
ENDBRANCH   1  26
TORSDOF 19
ENDMDL
MODEL 2
REMARK VINA RESULT:     -11.4      3.940      9.629
REMARK SMILES Cc1nsc(N(C)S(=O)(=O)c2cn[nH]c2C)c1C(=O)NCCCCCCNC(=O)c1ccc(-c2c3nc(c(-c4cccc(S(=O)(=O)[O-])c4F)c4ccc([nH]4)c(-c4cccc(S(=O)(=O)[O-])c4F)c4nc(c(-c5cccc(S(=O)(=O)[O-])c5F)c5ccc2[nH]5)C=C4)C=C3)cc1
REMARK SMILES IDX 23 1 22 2 21 3 20 4 18 5 19 6 17 8 1 9 2 10 3 11 4 12 5 13
REMARK SMILES IDX 6 14 7 15 8 16 9 17 10 18 11 19 12 20 15 21 13 22 14 23
REMARK SMILES IDX 16 24 24 26 25 27 26 28 27 29 28 30 29 32 30 33 31 34 92 35
REMARK SMILES IDX 32 36 91 37 33 38 34 39 35 40 85 41 36 42 90 43 84 44 86 45
REMARK SMILES IDX 37 46 89 47 83 48 82 49 38 51 70 52 50 53 69 54 51 55 54 56
REMARK SMILES IDX 68 57 87 58 52 59 53 60 67 62 88 63 55 64 39 65 40 66 48 67
REMARK SMILES IDX 41 68 43 69 49 70 42 71 44 72 45 73 46 74 47 75 71 76 72 77
REMARK SMILES IDX 80 78 73 79 75 80 81 81 74 82 76 83 77 84 78 85 79 86 56 87
REMARK SMILES IDX 57 88 65 89 58 90 60 91 66 92 59 93 61 94 62 95 63 96 64 97
REMARK H PARENT 20 7 14 25 27 31 86 50 54 61
REMARK Flexibility Score: inf
ROOT
ATOM      1  C   UNL A   1      36.869  21.603  25.689  1.00  0.00     0.002 C 
ENDROOT
BRANCH   1   2
ATOM      2  C   UNL A   1      36.324  22.955  25.208  1.00  0.00     0.021 C 
BRANCH   2   3
ATOM      3  C   UNL A   1      36.032  23.037  23.701  1.00  0.00     0.116 C 
BRANCH   3   4
ATOM      4  N   UNL A   1      34.636  22.833  23.362  1.00  0.00    -0.352 N 
ATOM      5  C   UNL A   1      33.709  22.190  24.159  1.00  0.00     0.256 C 
ATOM      6  O   UNL A   1      33.364  21.066  23.808  1.00  0.00    -0.269 OA
ATOM      7  H   UNL A   1      34.325  23.180  22.494  1.00  0.00     0.163 HD
BRANCH   5   8
ATOM      8  C   UNL A   1      33.053  22.923  25.246  1.00  0.00     0.098 A 
ATOM      9  C   UNL A   1      33.622  21.278  27.290  1.00  0.00     0.069 C 
ATOM     10  C   UNL A   1      33.066  22.510  26.659  1.00  0.00     0.066 A 
ATOM     11  N   UNL A   1      32.491  23.337  27.525  1.00  0.00    -0.195 NA
ATOM     12  S   UNL A   1      31.778  24.548  26.722  1.00  0.00    -0.017 S 
ATOM     13  C   UNL A   1      32.207  24.050  25.111  1.00  0.00     0.138 A 
BRANCH  13  14
ATOM     14  N   UNL A   1      31.703  24.881  23.987  1.00  0.00    -0.258 N 
ATOM     15  C   UNL A   1      30.698  24.278  23.085  1.00  0.00     0.165 C 
BRANCH  14  16
ATOM     16  S   UNL A   1      32.708  26.071  23.302  1.00  0.00     0.268 S 
ATOM     17  O   UNL A   1      34.038  25.846  23.744  1.00  0.00    -0.201 OA
ATOM     18  O   UNL A   1      32.311  26.246  21.906  1.00  0.00    -0.201 OA
BRANCH  16  19
ATOM     19  C   UNL A   1      32.407  27.699  23.859  1.00  0.00     0.128 A 
ATOM     20  C   UNL A   1      33.225  28.577  24.591  1.00  0.00     0.157 A 
ATOM     21  C   UNL A   1      31.173  28.340  23.831  1.00  0.00     0.053 A 
ATOM     22  N   UNL A   1      32.595  29.702  24.951  1.00  0.00    -0.183 NA
ATOM     23  N   UNL A   1      31.343  29.511  24.512  1.00  0.00    -0.281 N 
ATOM     24  C   UNL A   1      29.847  27.938  23.308  1.00  0.00     0.067 C 
ATOM     25  H   UNL A   1      30.613  30.155  24.667  1.00  0.00     0.190 HD
ENDBRANCH  16  19
ENDBRANCH  14  16
ENDBRANCH  13  14
ENDBRANCH   5   8
ENDBRANCH   3   4
ENDBRANCH   2   3
ENDBRANCH   1   2
BRANCH   1  26
ATOM     26  C   UNL A   1      36.972  20.493  24.631  1.00  0.00     0.002 C 
BRANCH  26  27
ATOM     27  C   UNL A   1      38.094  19.457  24.811  1.00  0.00     0.021 C 
BRANCH  27  28
ATOM     28  C   UNL A   1      39.120  19.824  25.871  1.00  0.00     0.116 C 
BRANCH  28  29
ATOM     29  N   UNL A   1      40.306  18.966  25.814  1.00  0.00    -0.352 N 
ATOM     30  C   UNL A   1      41.635  19.328  25.924  1.00  0.00     0.251 C 
ATOM     31  H   UNL A   1      40.135  18.007  25.679  1.00  0.00     0.163 HD
ATOM     32  O   UNL A   1      42.526  18.590  25.519  1.00  0.00    -0.269 OA
BRANCH  30  33
ATOM     33  C   UNL A   1      41.955  20.626  26.539  1.00  0.00     0.039 A 
ATOM     34  C   UNL A   1      42.575  21.651  25.819  1.00  0.00     0.014 A 
ATOM     35  C   UNL A   1      41.563  20.815  27.859  1.00  0.00     0.014 A 
ATOM     36  C   UNL A   1      42.726  22.898  26.421  1.00  0.00     0.010 A 
ATOM     37  C   UNL A   1      41.532  22.082  28.372  1.00  0.00     0.010 A 
ATOM     38  C   UNL A   1      42.187  23.108  27.698  1.00  0.00    -0.014 A 
BRANCH  38  39
ATOM     39  C   UNL A   1      42.274  24.399  28.363  1.00  0.00     0.031 A 
ATOM     40  C   UNL A   1      41.118  25.317  28.198  1.00  0.00     0.074 A 
ATOM     41  C   UNL A   1      43.241  24.660  29.269  1.00  0.00     0.049 A 
ATOM     42  N   UNL A   1      41.097  26.449  27.574  1.00  0.00    -0.248 NA
ATOM     43  C   UNL A   1      39.807  24.894  28.711  1.00  0.00     0.031 C 
ATOM     44  C   UNL A   1      44.278  23.753  29.784  1.00  0.00     0.029 A 
ATOM     45  N   UNL A   1      43.393  25.762  30.048  1.00  0.00    -0.354 N 
ATOM     46  C   UNL A   1      39.834  26.991  27.805  1.00  0.00     0.074 A 
ATOM     47  C   UNL A   1      39.034  25.920  28.345  1.00  0.00     0.031 C 
ATOM     48  C   UNL A   1      44.751  24.230  30.953  1.00  0.00     0.029 A 
ATOM     49  C   UNL A   1      44.209  25.558  31.152  1.00  0.00     0.049 A 
ATOM     50  H   UNL A   1      42.964  26.625  29.848  1.00  0.00     0.167 HD
ATOM     51  C   UNL A   1      39.612  28.334  27.751  1.00  0.00     0.034 A 
ATOM     52  C   UNL A   1      44.400  26.413  32.180  1.00  0.00     0.034 A 
ATOM     53  C   UNL A   1      40.730  29.034  27.169  1.00  0.00     0.049 A 
ATOM     54  C   UNL A   1      44.065  27.765  31.679  1.00  0.00     0.074 A 
ATOM     55  C   UNL A   1      41.397  28.993  25.960  1.00  0.00     0.029 A 
ATOM     56  N   UNL A   1      41.570  29.690  28.037  1.00  0.00    -0.354 N 
ATOM     57  N   UNL A   1      44.738  28.364  30.733  1.00  0.00    -0.248 NA
ATOM     58  C   UNL A   1      42.729  28.282  31.915  1.00  0.00     0.031 C 
ATOM     59  C   UNL A   1      42.771  29.181  26.295  1.00  0.00     0.029 A 
ATOM     60  C   UNL A   1      42.854  29.376  27.677  1.00  0.00     0.049 A 
ATOM     61  H   UNL A   1      41.300  30.276  28.779  1.00  0.00     0.167 HD
ATOM     62  C   UNL A   1      43.771  29.002  29.967  1.00  0.00     0.074 A 
ATOM     63  C   UNL A   1      42.581  29.029  30.817  1.00  0.00     0.031 C 
ATOM     64  C   UNL A   1      43.937  29.183  28.622  1.00  0.00     0.034 A 
BRANCH  51  65
ATOM     65  C   UNL A   1      38.547  29.086  28.515  1.00  0.00     0.023 A 
ATOM     66  C   UNL A   1      37.733  29.982  27.783  1.00  0.00     0.012 A 
ATOM     67  C   UNL A   1      38.475  29.163  29.922  1.00  0.00     0.148 A 
ATOM     68  C   UNL A   1      36.929  30.935  28.419  1.00  0.00     0.002 A 
ATOM     69  C   UNL A   1      37.612  30.056  30.551  1.00  0.00     0.091 A 
ATOM     70  F   UNL A   1      39.340  28.476  30.675  1.00  0.00    -0.205 F 
ATOM     71  C   UNL A   1      36.860  30.966  29.805  1.00  0.00     0.022 A 
BRANCH  69  72
ATOM     72  S   UNL A   1      37.446  30.088  32.338  1.00  0.00     0.127 S 
ATOM     73  O   UNL A   1      37.113  28.696  32.627  1.00  0.00    -0.237 OA
ATOM     74  O   UNL A   1      38.783  30.508  32.761  1.00  0.00    -0.237 OA
ATOM     75  O   UNL A   1      36.404  31.073  32.605  1.00  0.00    -0.744 OA
ENDBRANCH  69  72
ENDBRANCH  51  65
BRANCH  52  76
ATOM     76  C   UNL A   1      44.649  26.101  33.601  1.00  0.00     0.023 A 
ATOM     77  C   UNL A   1      45.968  25.987  34.075  1.00  0.00     0.012 A 
ATOM     78  C   UNL A   1      43.598  26.164  34.545  1.00  0.00     0.148 A 
ATOM     79  C   UNL A   1      46.235  25.962  35.449  1.00  0.00     0.002 A 
ATOM     80  C   UNL A   1      43.868  26.134  35.908  1.00  0.00     0.091 A 
ATOM     81  F   UNL A   1      42.344  26.342  34.104  1.00  0.00    -0.205 F 
ATOM     82  C   UNL A   1      45.188  26.044  36.365  1.00  0.00     0.022 A 
BRANCH  80  83
ATOM     83  S   UNL A   1      42.569  26.261  37.146  1.00  0.00     0.127 S 
ATOM     84  O   UNL A   1      43.339  26.324  38.388  1.00  0.00    -0.237 OA
ATOM     85  O   UNL A   1      41.913  27.509  36.768  1.00  0.00    -0.237 OA
ATOM     86  O   UNL A   1      41.762  25.056  36.999  1.00  0.00    -0.744 OA
ENDBRANCH  80  83
ENDBRANCH  52  76
BRANCH  64  87
ATOM     87  C   UNL A   1      45.288  28.857  28.020  1.00  0.00     0.023 A 
ATOM     88  C   UNL A   1      46.376  29.749  28.120  1.00  0.00     0.012 A 
ATOM     89  C   UNL A   1      45.524  27.565  27.523  1.00  0.00     0.148 A 
ATOM     90  C   UNL A   1      47.660  29.378  27.716  1.00  0.00     0.002 A 
ATOM     91  C   UNL A   1      46.813  27.182  27.160  1.00  0.00     0.091 A 
ATOM     92  F   UNL A   1      44.488  26.715  27.448  1.00  0.00    -0.205 F 
ATOM     93  C   UNL A   1      47.881  28.088  27.246  1.00  0.00     0.022 A 
BRANCH  91  94
ATOM     94  S   UNL A   1      47.199  25.500  26.665  1.00  0.00     0.127 S 
ATOM     95  O   UNL A   1      47.111  24.779  27.932  1.00  0.00    -0.237 OA
ATOM     96  O   UNL A   1      46.127  25.198  25.715  1.00  0.00    -0.237 OA
ATOM     97  O   UNL A   1      48.527  25.552  26.066  1.00  0.00    -0.744 OA
ENDBRANCH  91  94
ENDBRANCH  64  87
ENDBRANCH  38  39
ENDBRANCH  30  33
ENDBRANCH  28  29
ENDBRANCH  27  28
ENDBRANCH  26  27
ENDBRANCH   1  26
TORSDOF 19
ENDMDL
MODEL 3
REMARK VINA RESULT:     -11.2      3.498      7.336
REMARK SMILES Cc1nsc(N(C)S(=O)(=O)c2cn[nH]c2C)c1C(=O)NCCCCCCNC(=O)c1ccc(-c2c3nc(c(-c4cccc(S(=O)(=O)[O-])c4F)c4ccc([nH]4)c(-c4cccc(S(=O)(=O)[O-])c4F)c4nc(c(-c5cccc(S(=O)(=O)[O-])c5F)c5ccc2[nH]5)C=C4)C=C3)cc1
REMARK SMILES IDX 23 1 22 2 21 3 20 4 18 5 19 6 17 8 1 9 2 10 3 11 4 12 5 13
REMARK SMILES IDX 6 14 7 15 8 16 9 17 10 18 11 19 12 20 15 21 13 22 14 23
REMARK SMILES IDX 16 24 24 26 25 27 26 28 27 29 28 30 29 32 30 33 31 34 92 35
REMARK SMILES IDX 32 36 91 37 33 38 34 39 35 40 85 41 36 42 90 43 84 44 86 45
REMARK SMILES IDX 37 46 89 47 83 48 82 49 38 51 70 52 50 53 69 54 51 55 54 56
REMARK SMILES IDX 68 57 87 58 52 59 53 60 67 62 88 63 55 64 39 65 40 66 48 67
REMARK SMILES IDX 41 68 43 69 49 70 42 71 44 72 45 73 46 74 47 75 71 76 72 77
REMARK SMILES IDX 80 78 73 79 75 80 81 81 74 82 76 83 77 84 78 85 79 86 56 87
REMARK SMILES IDX 57 88 65 89 58 90 60 91 66 92 59 93 61 94 62 95 63 96 64 97
REMARK H PARENT 20 7 14 25 27 31 86 50 54 61
REMARK Flexibility Score: inf
ROOT
ATOM      1  C   UNL A   1      32.487  29.499  25.422  1.00  0.00     0.002 C 
ENDROOT
BRANCH   1   2
ATOM      2  C   UNL A   1      33.335  28.258  25.118  1.00  0.00     0.021 C 
BRANCH   2   3
ATOM      3  C   UNL A   1      34.144  28.329  23.813  1.00  0.00     0.116 C 
BRANCH   3   4
ATOM      4  N   UNL A   1      33.342  28.160  22.615  1.00  0.00    -0.352 N 
ATOM      5  C   UNL A   1      32.565  27.054  22.327  1.00  0.00     0.256 C 
ATOM      6  O   UNL A   1      32.986  26.295  21.460  1.00  0.00    -0.269 OA
ATOM      7  H   UNL A   1      33.353  28.891  21.956  1.00  0.00     0.163 HD
BRANCH   5   8
ATOM      8  C   UNL A   1      31.226  26.937  22.910  1.00  0.00     0.098 A 
ATOM      9  C   UNL A   1      30.244  29.346  22.244  1.00  0.00     0.069 C 
ATOM     10  C   UNL A   1      30.181  27.971  22.820  1.00  0.00     0.066 A 
ATOM     11  N   UNL A   1      28.995  27.664  23.334  1.00  0.00    -0.195 NA
ATOM     12  S   UNL A   1      29.085  26.228  24.077  1.00  0.00    -0.017 S 
ATOM     13  C   UNL A   1      30.761  25.895  23.748  1.00  0.00     0.138 A 
BRANCH  13  14
ATOM     14  N   UNL A   1      31.324  24.639  24.306  1.00  0.00    -0.258 N 
ATOM     15  C   UNL A   1      31.229  23.416  23.479  1.00  0.00     0.165 C 
BRANCH  14  16
ATOM     16  S   UNL A   1      31.351  24.403  25.992  1.00  0.00     0.268 S 
ATOM     17  O   UNL A   1      31.537  25.663  26.619  1.00  0.00    -0.201 OA
ATOM     18  O   UNL A   1      30.296  23.450  26.331  1.00  0.00    -0.201 OA
BRANCH  16  19
ATOM     19  C   UNL A   1      32.718  23.493  26.586  1.00  0.00     0.128 A 
ATOM     20  C   UNL A   1      32.791  22.503  27.581  1.00  0.00     0.157 A 
ATOM     21  C   UNL A   1      34.050  23.760  26.287  1.00  0.00     0.053 A 
ATOM     22  N   UNL A   1      34.046  22.127  27.856  1.00  0.00    -0.183 NA
ATOM     23  N   UNL A   1      34.788  22.934  27.086  1.00  0.00    -0.281 N 
ATOM     24  C   UNL A   1      34.697  24.752  25.397  1.00  0.00     0.067 C 
ATOM     25  H   UNL A   1      35.773  22.933  27.095  1.00  0.00     0.190 HD
ENDBRANCH  16  19
ENDBRANCH  14  16
ENDBRANCH  13  14
ENDBRANCH   5   8
ENDBRANCH   3   4
ENDBRANCH   2   3
ENDBRANCH   1   2
BRANCH   1  26
ATOM     26  C   UNL A   1      32.652  30.115  26.820  1.00  0.00     0.002 C 
BRANCH  26  27
ATOM     27  C   UNL A   1      34.029  29.970  27.490  1.00  0.00     0.021 C 
BRANCH  27  28
ATOM     28  C   UNL A   1      34.857  31.246  27.500  1.00  0.00     0.116 C 
BRANCH  28  29
ATOM     29  N   UNL A   1      34.560  32.090  28.660  1.00  0.00    -0.352 N 
ATOM     30  C   UNL A   1      35.075  32.005  29.938  1.00  0.00     0.251 C 
ATOM     31  H   UNL A   1      33.908  32.811  28.509  1.00  0.00     0.163 HD
ATOM     32  O   UNL A   1      34.502  32.531  30.886  1.00  0.00    -0.269 OA
BRANCH  30  33
ATOM     33  C   UNL A   1      36.331  31.264  30.136  1.00  0.00     0.039 A 
ATOM     34  C   UNL A   1      36.346  29.884  30.359  1.00  0.00     0.014 A 
ATOM     35  C   UNL A   1      37.514  31.985  30.037  1.00  0.00     0.014 A 
ATOM     36  C   UNL A   1      37.572  29.225  30.402  1.00  0.00     0.010 A 
ATOM     37  C   UNL A   1      38.696  31.314  29.882  1.00  0.00     0.010 A 
ATOM     38  C   UNL A   1      38.745  29.949  30.148  1.00  0.00    -0.014 A 
BRANCH  38  39
ATOM     39  C   UNL A   1      40.053  29.311  30.137  1.00  0.00     0.031 A 
ATOM     40  C   UNL A   1      40.669  29.024  31.457  1.00  0.00     0.074 A 
ATOM     41  C   UNL A   1      40.574  28.795  29.003  1.00  0.00     0.049 A 
ATOM     42  N   UNL A   1      41.733  29.559  31.959  1.00  0.00    -0.248 NA
ATOM     43  C   UNL A   1      39.980  28.098  32.367  1.00  0.00     0.031 C 
ATOM     44  C   UNL A   1      39.958  28.712  27.670  1.00  0.00     0.029 A 
ATOM     45  N   UNL A   1      41.718  28.080  28.849  1.00  0.00    -0.354 N 
ATOM     46  C   UNL A   1      41.979  28.878  33.150  1.00  0.00     0.074 A 
ATOM     47  C   UNL A   1      40.780  28.130  33.436  1.00  0.00     0.031 C 
ATOM     48  C   UNL A   1      40.589  27.768  26.942  1.00  0.00     0.029 A 
ATOM     49  C   UNL A   1      41.763  27.342  27.674  1.00  0.00     0.049 A 
ATOM     50  H   UNL A   1      42.447  28.084  29.510  1.00  0.00     0.167 HD
ATOM     51  C   UNL A   1      43.230  28.802  33.684  1.00  0.00     0.034 A 
ATOM     52  C   UNL A   1      42.689  26.418  27.339  1.00  0.00     0.034 A 
ATOM     53  C   UNL A   1      44.141  29.714  33.038  1.00  0.00     0.049 A 
ATOM     54  C   UNL A   1      43.900  26.719  28.135  1.00  0.00     0.074 A 
ATOM     55  C   UNL A   1      44.195  31.081  32.848  1.00  0.00     0.029 A 
ATOM     56  N   UNL A   1      45.015  29.174  32.125  1.00  0.00    -0.354 N 
ATOM     57  N   UNL A   1      44.592  27.819  27.996  1.00  0.00    -0.248 NA
ATOM     58  C   UNL A   1      44.106  26.008  29.384  1.00  0.00     0.031 C 
ATOM     59  C   UNL A   1      44.712  31.245  31.528  1.00  0.00     0.029 A 
ATOM     60  C   UNL A   1      44.988  29.976  31.014  1.00  0.00     0.049 A 
ATOM     61  H   UNL A   1      45.559  28.364  32.246  1.00  0.00     0.167 HD
ATOM     62  C   UNL A   1      44.950  28.171  29.291  1.00  0.00     0.074 A 
ATOM     63  C   UNL A   1      44.743  26.956  30.078  1.00  0.00     0.031 C 
ATOM     64  C   UNL A   1      45.097  29.481  29.655  1.00  0.00     0.034 A 
BRANCH  51  65
ATOM     65  C   UNL A   1      43.752  27.684  34.558  1.00  0.00     0.023 A 
ATOM     66  C   UNL A   1      44.435  28.050  35.741  1.00  0.00     0.012 A 
ATOM     67  C   UNL A   1      43.844  26.333  34.159  1.00  0.00     0.148 A 
ATOM     68  C   UNL A   1      45.207  27.130  36.461  1.00  0.00     0.002 A 
ATOM     69  C   UNL A   1      44.545  25.404  34.924  1.00  0.00     0.091 A 
ATOM     70  F   UNL A   1      43.377  25.954  32.965  1.00  0.00    -0.205 F 
ATOM     71  C   UNL A   1      45.254  25.803  36.058  1.00  0.00     0.022 A 
BRANCH  69  72
ATOM     72  S   UNL A   1      44.581  23.666  34.473  1.00  0.00     0.127 S 
ATOM     73  O   UNL A   1      45.334  23.090  35.583  1.00  0.00    -0.237 OA
ATOM     74  O   UNL A   1      43.156  23.328  34.448  1.00  0.00    -0.237 OA
ATOM     75  O   UNL A   1      45.222  23.627  33.164  1.00  0.00    -0.744 OA
ENDBRANCH  69  72
ENDBRANCH  51  65
BRANCH  52  76
ATOM     76  C   UNL A   1      42.513  25.188  26.542  1.00  0.00     0.023 A 
ATOM     77  C   UNL A   1      43.426  24.877  25.518  1.00  0.00     0.012 A 
ATOM     78  C   UNL A   1      41.595  24.192  26.950  1.00  0.00     0.148 A 
ATOM     79  C   UNL A   1      43.442  23.604  24.936  1.00  0.00     0.002 A 
ATOM     80  C   UNL A   1      41.613  22.931  26.366  1.00  0.00     0.091 A 
ATOM     81  F   UNL A   1      40.768  24.456  27.972  1.00  0.00    -0.205 F 
ATOM     82  C   UNL A   1      42.543  22.630  25.365  1.00  0.00     0.022 A 
BRANCH  80  83
ATOM     83  S   UNL A   1      40.499  21.618  26.886  1.00  0.00     0.127 S 
ATOM     84  O   UNL A   1      40.956  20.493  26.071  1.00  0.00    -0.237 OA
ATOM     85  O   UNL A   1      40.807  21.509  28.309  1.00  0.00    -0.237 OA
ATOM     86  O   UNL A   1      39.156  22.087  26.567  1.00  0.00    -0.744 OA
ENDBRANCH  80  83
ENDBRANCH  52  76
BRANCH  64  87
ATOM     87  C   UNL A   1      45.064  30.532  28.565  1.00  0.00     0.023 A 
ATOM     88  C   UNL A   1      43.846  31.008  28.036  1.00  0.00     0.012 A 
ATOM     89  C   UNL A   1      46.252  31.189  28.208  1.00  0.00     0.148 A 
ATOM     90  C   UNL A   1      43.810  32.093  27.157  1.00  0.00     0.002 A 
ATOM     91  C   UNL A   1      46.212  32.296  27.365  1.00  0.00     0.091 A 
ATOM     92  F   UNL A   1      47.405  30.742  28.730  1.00  0.00    -0.205 F 
ATOM     93  C   UNL A   1      44.994  32.745  26.830  1.00  0.00     0.022 A 
BRANCH  91  94
ATOM     94  S   UNL A   1      47.677  33.265  26.999  1.00  0.00     0.127 S 
ATOM     95  O   UNL A   1      48.465  32.337  26.190  1.00  0.00    -0.237 OA
ATOM     96  O   UNL A   1      47.126  34.402  26.259  1.00  0.00    -0.237 OA
ATOM     97  O   UNL A   1      48.259  33.619  28.288  1.00  0.00    -0.744 OA
ENDBRANCH  91  94
ENDBRANCH  64  87
ENDBRANCH  38  39
ENDBRANCH  30  33
ENDBRANCH  28  29
ENDBRANCH  27  28
ENDBRANCH  26  27
ENDBRANCH   1  26
TORSDOF 19
ENDMDL
