MODEL 1
REMARK VINA RESULT:     -11.4      0.000      0.000
REMARK SMILES C[C@H]1CC=C(C2=NN=C(C(=O)NCCCCCCNC(=O)c3ccc(-c4c5nc(c(-c6cccc(S(=O)(=O)[O-])c6F)c6ccc([nH]6)c(-c6cccc(S(=O)(=O)[O-])c6F)c6nc(c(-c7cccc(S(=O)(=O)[O-])c7F)c7ccc4[nH]7)C=C6)C=C5)cc3)C2)O1
REMARK SMILES IDX 16 1 15 2 14 3 13 4 12 5 10 6 11 7 9 9 6 10 7 11 85 12 8 13
REMARK SMILES IDX 5 14 1 15 2 16 3 17 86 18 4 19 17 20 18 21 19 22 20 23 21 25
REMARK SMILES IDX 22 26 23 27 84 28 24 29 83 30 25 31 26 32 27 33 77 34 28 35
REMARK SMILES IDX 82 36 76 37 78 38 29 39 81 40 75 41 74 42 30 44 62 45 42 46
REMARK SMILES IDX 61 47 43 48 46 49 60 50 79 51 44 52 45 53 59 55 80 56 47 57
REMARK SMILES IDX 31 58 32 59 40 60 33 61 35 62 41 63 34 64 36 65 37 66 38 67
REMARK SMILES IDX 39 68 63 69 64 70 72 71 65 72 67 73 73 74 66 75 68 76 69 77
REMARK SMILES IDX 70 78 71 79 48 80 49 81 57 82 50 83 52 84 58 85 51 86 53 87
REMARK SMILES IDX 54 88 55 89 56 90
REMARK H PARENT 12 8 19 24 78 43 46 54
REMARK Flexibility Score: inf
ROOT
ATOM      1  C   UNL A   1      38.808  22.366  26.164  1.00  0.00     0.002 C 
ENDROOT
BRANCH   1   2
ATOM      2  C   UNL A   1      37.926  23.408  25.465  1.00  0.00     0.002 C 
BRANCH   2   3
ATOM      3  C   UNL A   1      36.583  22.909  24.918  1.00  0.00     0.021 C 
BRANCH   3   4
ATOM      4  C   UNL A   1      35.356  23.691  25.380  1.00  0.00     0.116 C 
BRANCH   4   5
ATOM      5  N   UNL A   1      34.486  24.041  24.270  1.00  0.00    -0.351 N 
ATOM      6  C   UNL A   1      33.436  23.341  23.736  1.00  0.00     0.267 C 
ATOM      7  O   UNL A   1      32.816  23.773  22.769  1.00  0.00    -0.268 OA
ATOM      8  H   UNL A   1      34.680  24.905  23.838  1.00  0.00     0.163 HD
BRANCH   6   9
ATOM      9  C   UNL A   1      32.978  22.044  24.334  1.00  0.00     0.134 C 
ATOM     10  C   UNL A   1      32.760  19.864  24.743  1.00  0.00     0.111 C 
ATOM     11  N   UNL A   1      31.796  20.491  25.350  1.00  0.00    -0.151 NA
ATOM     12  C   UNL A   1      33.666  20.775  23.982  1.00  0.00     0.126 C 
ATOM     13  N   UNL A   1      31.924  21.883  25.073  1.00  0.00    -0.149 NA
BRANCH  10  14
ATOM     14  C   UNL A   1      32.931  18.404  24.685  1.00  0.00     0.139 C 
ATOM     15  C   UNL A   1      32.271  15.164  25.743  1.00  0.00     0.053 C 
ATOM     16  C   UNL A   1      33.207  16.321  25.421  1.00  0.00     0.174 C 
ATOM     17  C   UNL A   1      33.629  16.361  23.946  1.00  0.00     0.076 C 
ATOM     18  O   UNL A   1      32.577  17.584  25.747  1.00  0.00    -0.489 OA
ATOM     19  C   UNL A   1      33.533  17.806  23.662  1.00  0.00     0.025 C 
ENDBRANCH  10  14
ENDBRANCH   6   9
ENDBRANCH   4   5
ENDBRANCH   3   4
ENDBRANCH   2   3
ENDBRANCH   1   2
BRANCH   1  20
ATOM     20  C   UNL A   1      39.092  21.068  25.392  1.00  0.00     0.021 C 
BRANCH  20  21
ATOM     21  C   UNL A   1      39.307  19.851  26.276  1.00  0.00     0.116 C 
BRANCH  21  22
ATOM     22  N   UNL A   1      40.523  19.108  25.933  1.00  0.00    -0.352 N 
ATOM     23  C   UNL A   1      41.806  19.602  25.767  1.00  0.00     0.251 C 
ATOM     24  H   UNL A   1      40.413  18.138  25.806  1.00  0.00     0.163 HD
ATOM     25  O   UNL A   1      42.644  18.981  25.135  1.00  0.00    -0.269 OA
BRANCH  23  26
ATOM     26  C   UNL A   1      42.139  20.896  26.391  1.00  0.00     0.039 A 
ATOM     27  C   UNL A   1      42.610  21.980  25.647  1.00  0.00     0.014 A 
ATOM     28  C   UNL A   1      41.934  21.006  27.763  1.00  0.00     0.014 A 
ATOM     29  C   UNL A   1      42.799  23.201  26.292  1.00  0.00     0.010 A 
ATOM     30  C   UNL A   1      41.931  22.240  28.347  1.00  0.00     0.010 A 
ATOM     31  C   UNL A   1      42.442  23.322  27.644  1.00  0.00    -0.014 A 
BRANCH  31  32
ATOM     32  C   UNL A   1      42.493  24.600  28.339  1.00  0.00     0.031 A 
ATOM     33  C   UNL A   1      41.291  25.451  28.136  1.00  0.00     0.074 A 
ATOM     34  C   UNL A   1      43.428  24.862  29.281  1.00  0.00     0.049 A 
ATOM     35  N   UNL A   1      41.215  26.563  27.483  1.00  0.00    -0.248 NA
ATOM     36  C   UNL A   1      39.985  24.925  28.564  1.00  0.00     0.031 C 
ATOM     37  C   UNL A   1      44.458  23.954  29.811  1.00  0.00     0.029 A 
ATOM     38  N   UNL A   1      43.553  25.948  30.089  1.00  0.00    -0.354 N 
ATOM     39  C   UNL A   1      39.904  27.004  27.651  1.00  0.00     0.074 A 
ATOM     40  C   UNL A   1      39.156  25.862  28.099  1.00  0.00     0.031 C 
ATOM     41  C   UNL A   1      44.900  24.418  31.000  1.00  0.00     0.029 A 
ATOM     42  C   UNL A   1      44.330  25.730  31.225  1.00  0.00     0.049 A 
ATOM     43  H   UNL A   1      43.132  26.815  29.887  1.00  0.00     0.167 HD
ATOM     44  C   UNL A   1      39.612  28.335  27.689  1.00  0.00     0.034 A 
ATOM     45  C   UNL A   1      44.453  26.554  32.293  1.00  0.00     0.034 A 
ATOM     46  C   UNL A   1      40.727  29.121  27.215  1.00  0.00     0.049 A 
ATOM     47  C   UNL A   1      44.024  27.899  31.851  1.00  0.00     0.074 A 
ATOM     48  C   UNL A   1      41.458  29.182  26.046  1.00  0.00     0.029 A 
ATOM     49  N   UNL A   1      41.496  29.733  28.176  1.00  0.00    -0.354 N 
ATOM     50  N   UNL A   1      44.666  28.599  30.958  1.00  0.00    -0.248 NA
ATOM     51  C   UNL A   1      42.635  28.271  32.062  1.00  0.00     0.031 C 
ATOM     52  C   UNL A   1      42.804  29.389  26.470  1.00  0.00     0.029 A 
ATOM     53  C   UNL A   1      42.810  29.522  27.860  1.00  0.00     0.049 A 
ATOM     54  H   UNL A   1      41.160  30.234  28.954  1.00  0.00     0.167 HD
ATOM     55  C   UNL A   1      43.662  29.154  30.176  1.00  0.00     0.074 A 
ATOM     56  C   UNL A   1      42.442  29.015  30.970  1.00  0.00     0.031 C 
ATOM     57  C   UNL A   1      43.861  29.396  28.846  1.00  0.00     0.034 A 
BRANCH  44  58
ATOM     58  C   UNL A   1      38.512  28.974  28.516  1.00  0.00     0.023 A 
ATOM     59  C   UNL A   1      37.626  29.841  27.834  1.00  0.00     0.012 A 
ATOM     60  C   UNL A   1      38.471  29.009  29.929  1.00  0.00     0.148 A 
ATOM     61  C   UNL A   1      36.806  30.747  28.517  1.00  0.00     0.002 A 
ATOM     62  C   UNL A   1      37.600  29.857  30.605  1.00  0.00     0.091 A 
ATOM     63  F   UNL A   1      39.361  28.322  30.646  1.00  0.00    -0.205 F 
ATOM     64  C   UNL A   1      36.791  30.754  29.905  1.00  0.00     0.022 A 
BRANCH  62  65
ATOM     65  S   UNL A   1      37.506  29.877  32.400  1.00  0.00     0.127 S 
ATOM     66  O   UNL A   1      37.282  28.465  32.696  1.00  0.00    -0.237 OA
ATOM     67  O   UNL A   1      38.829  30.385  32.761  1.00  0.00    -0.237 OA
ATOM     68  O   UNL A   1      36.411  30.782  32.727  1.00  0.00    -0.744 OA
ENDBRANCH  62  65
ENDBRANCH  44  58
BRANCH  45  69
ATOM     69  C   UNL A   1      44.677  26.238  33.724  1.00  0.00     0.023 A 
ATOM     70  C   UNL A   1      45.984  26.258  34.248  1.00  0.00     0.012 A 
ATOM     71  C   UNL A   1      43.594  26.208  34.632  1.00  0.00     0.148 A 
ATOM     72  C   UNL A   1      46.209  26.286  35.630  1.00  0.00     0.002 A 
ATOM     73  C   UNL A   1      43.822  26.232  36.006  1.00  0.00     0.091 A 
ATOM     74  F   UNL A   1      42.346  26.248  34.148  1.00  0.00    -0.205 F 
ATOM     75  C   UNL A   1      45.129  26.285  36.508  1.00  0.00     0.022 A 
BRANCH  73  76
ATOM     76  S   UNL A   1      42.480  26.267  37.203  1.00  0.00     0.127 S 
ATOM     77  O   UNL A   1      43.208  26.367  38.469  1.00  0.00    -0.237 OA
ATOM     78  O   UNL A   1      41.761  27.477  36.815  1.00  0.00    -0.237 OA
ATOM     79  O   UNL A   1      41.755  25.015  37.026  1.00  0.00    -0.744 OA
ENDBRANCH  73  76
ENDBRANCH  45  69
BRANCH  57  80
ATOM     80  C   UNL A   1      45.266  29.290  28.306  1.00  0.00     0.023 A 
ATOM     81  C   UNL A   1      46.223  30.316  28.462  1.00  0.00     0.012 A 
ATOM     82  C   UNL A   1      45.680  28.052  27.789  1.00  0.00     0.148 A 
ATOM     83  C   UNL A   1      47.558  30.115  28.093  1.00  0.00     0.002 A 
ATOM     84  C   UNL A   1      47.014  27.839  27.468  1.00  0.00     0.091 A 
ATOM     85  F   UNL A   1      44.758  27.086  27.650  1.00  0.00    -0.205 F 
ATOM     86  C   UNL A   1      47.956  28.871  27.608  1.00  0.00     0.022 A 
BRANCH  84  87
ATOM     87  S   UNL A   1      47.607  26.224  26.963  1.00  0.00     0.127 S 
ATOM     88  O   UNL A   1      49.039  26.464  26.798  1.00  0.00    -0.237 OA
ATOM     89  O   UNL A   1      47.253  25.386  28.108  1.00  0.00    -0.237 OA
ATOM     90  O   UNL A   1      46.882  25.895  25.741  1.00  0.00    -0.744 OA
ENDBRANCH  84  87
ENDBRANCH  57  80
ENDBRANCH  31  32
ENDBRANCH  23  26
ENDBRANCH  21  22
ENDBRANCH  20  21
ENDBRANCH   1  20
TORSDOF 17
ENDMDL
MODEL 2
REMARK VINA RESULT:     -11.1      2.006      3.562
REMARK SMILES C[C@H]1CC=C(C2=NN=C(C(=O)NCCCCCCNC(=O)c3ccc(-c4c5nc(c(-c6cccc(S(=O)(=O)[O-])c6F)c6ccc([nH]6)c(-c6cccc(S(=O)(=O)[O-])c6F)c6nc(c(-c7cccc(S(=O)(=O)[O-])c7F)c7ccc4[nH]7)C=C6)C=C5)cc3)C2)O1
REMARK SMILES IDX 16 1 15 2 14 3 13 4 12 5 10 6 11 7 9 9 6 10 7 11 85 12 8 13
REMARK SMILES IDX 5 14 1 15 2 16 3 17 86 18 4 19 17 20 18 21 19 22 20 23 21 25
REMARK SMILES IDX 22 26 23 27 84 28 24 29 83 30 25 31 26 32 27 33 77 34 28 35
REMARK SMILES IDX 82 36 76 37 78 38 29 39 81 40 75 41 74 42 30 44 62 45 42 46
REMARK SMILES IDX 61 47 43 48 46 49 60 50 79 51 44 52 45 53 59 55 80 56 47 57
REMARK SMILES IDX 31 58 32 59 40 60 33 61 35 62 41 63 34 64 36 65 37 66 38 67
REMARK SMILES IDX 39 68 63 69 64 70 72 71 65 72 67 73 73 74 66 75 68 76 69 77
REMARK SMILES IDX 70 78 71 79 48 80 49 81 57 82 50 83 52 84 58 85 51 86 53 87
REMARK SMILES IDX 54 88 55 89 56 90
REMARK H PARENT 12 8 19 24 78 43 46 54
REMARK Flexibility Score: inf
ROOT
ATOM      1  C   UNL A   1      36.383  20.339  25.012  1.00  0.00     0.002 C 
ENDROOT
BRANCH   1   2
ATOM      2  C   UNL A   1      36.138  21.756  24.478  1.00  0.00     0.002 C 
BRANCH   2   3
ATOM      3  C   UNL A   1      35.652  22.795  25.496  1.00  0.00     0.021 C 
BRANCH   3   4
ATOM      4  C   UNL A   1      34.190  23.212  25.360  1.00  0.00     0.116 C 
BRANCH   4   5
ATOM      5  N   UNL A   1      33.525  22.512  24.274  1.00  0.00    -0.351 N 
ATOM      6  C   UNL A   1      32.294  22.741  23.719  1.00  0.00     0.267 C 
ATOM      7  O   UNL A   1      31.867  22.029  22.814  1.00  0.00    -0.268 OA
ATOM      8  H   UNL A   1      34.033  21.765  23.881  1.00  0.00     0.163 HD
BRANCH   6   9
ATOM      9  C   UNL A   1      31.438  23.889  24.164  1.00  0.00     0.134 C 
ATOM     10  C   UNL A   1      30.413  25.867  24.217  1.00  0.00     0.111 C 
ATOM     11  N   UNL A   1      30.287  25.312  25.385  1.00  0.00    -0.151 NA
ATOM     12  C   UNL A   1      31.189  25.034  23.251  1.00  0.00     0.126 C 
ATOM     13  N   UNL A   1      30.957  24.055  25.358  1.00  0.00    -0.149 NA
BRANCH  10  14
ATOM     14  C   UNL A   1      29.957  27.218  23.855  1.00  0.00     0.139 C 
ATOM     15  C   UNL A   1      27.509  29.565  23.112  1.00  0.00     0.053 C 
ATOM     16  C   UNL A   1      28.787  28.797  22.808  1.00  0.00     0.174 C 
ATOM     17  C   UNL A   1      30.040  29.454  23.403  1.00  0.00     0.076 C 
ATOM     18  O   UNL A   1      28.697  27.445  23.319  1.00  0.00    -0.489 OA
ATOM     19  C   UNL A   1      30.762  28.274  23.917  1.00  0.00     0.025 C 
ENDBRANCH  10  14
ENDBRANCH   6   9
ENDBRANCH   4   5
ENDBRANCH   3   4
ENDBRANCH   2   3
ENDBRANCH   1   2
BRANCH   1  20
ATOM     20  C   UNL A   1      37.744  19.704  24.690  1.00  0.00     0.021 C 
BRANCH  20  21
ATOM     21  C   UNL A   1      38.882  20.186  25.575  1.00  0.00     0.116 C 
BRANCH  21  22
ATOM     22  N   UNL A   1      39.936  19.180  25.743  1.00  0.00    -0.352 N 
ATOM     23  C   UNL A   1      41.282  19.388  25.991  1.00  0.00     0.251 C 
ATOM     24  H   UNL A   1      39.650  18.241  25.671  1.00  0.00     0.163 HD
ATOM     25  O   UNL A   1      42.110  18.527  25.748  1.00  0.00    -0.269 OA
BRANCH  23  26
ATOM     26  C   UNL A   1      41.690  20.680  26.577  1.00  0.00     0.039 A 
ATOM     27  C   UNL A   1      42.269  21.693  25.809  1.00  0.00     0.014 A 
ATOM     28  C   UNL A   1      41.443  20.863  27.933  1.00  0.00     0.014 A 
ATOM     29  C   UNL A   1      42.527  22.923  26.413  1.00  0.00     0.010 A 
ATOM     30  C   UNL A   1      41.512  22.118  28.468  1.00  0.00     0.010 A 
ATOM     31  C   UNL A   1      42.130  23.128  27.743  1.00  0.00    -0.014 A 
BRANCH  31  32
ATOM     32  C   UNL A   1      42.252  24.426  28.390  1.00  0.00     0.031 A 
ATOM     33  C   UNL A   1      41.096  25.332  28.157  1.00  0.00     0.074 A 
ATOM     34  C   UNL A   1      43.204  24.674  29.318  1.00  0.00     0.049 A 
ATOM     35  N   UNL A   1      41.076  26.420  27.463  1.00  0.00    -0.248 NA
ATOM     36  C   UNL A   1      39.766  24.893  28.610  1.00  0.00     0.031 C 
ATOM     37  C   UNL A   1      44.187  23.734  29.879  1.00  0.00     0.029 A 
ATOM     38  N   UNL A   1      43.391  25.782  30.082  1.00  0.00    -0.354 N 
ATOM     39  C   UNL A   1      39.791  26.937  27.618  1.00  0.00     0.074 A 
ATOM     40  C   UNL A   1      38.985  25.854  28.112  1.00  0.00     0.031 C 
ATOM     41  C   UNL A   1      44.660  24.218  31.047  1.00  0.00     0.029 A 
ATOM     42  C   UNL A   1      44.161  25.567  31.224  1.00  0.00     0.049 A 
ATOM     43  H   UNL A   1      43.015  26.662  29.849  1.00  0.00     0.167 HD
ATOM     44  C   UNL A   1      39.570  28.282  27.606  1.00  0.00     0.034 A 
ATOM     45  C   UNL A   1      44.334  26.423  32.259  1.00  0.00     0.034 A 
ATOM     46  C   UNL A   1      40.722  28.989  27.098  1.00  0.00     0.049 A 
ATOM     47  C   UNL A   1      43.974  27.771  31.767  1.00  0.00     0.074 A 
ATOM     48  C   UNL A   1      41.449  28.967  25.925  1.00  0.00     0.029 A 
ATOM     49  N   UNL A   1      41.527  29.595  28.032  1.00  0.00    -0.354 N 
ATOM     50  N   UNL A   1      44.647  28.401  30.846  1.00  0.00    -0.248 NA
ATOM     51  C   UNL A   1      42.608  28.224  31.969  1.00  0.00     0.031 C 
ATOM     52  C   UNL A   1      42.807  29.117  26.337  1.00  0.00     0.029 A 
ATOM     53  C   UNL A   1      42.826  29.303  27.721  1.00  0.00     0.049 A 
ATOM     54  H   UNL A   1      41.222  30.143  28.792  1.00  0.00     0.167 HD
ATOM     55  C   UNL A   1      43.671  28.979  30.047  1.00  0.00     0.074 A 
ATOM     56  C   UNL A   1      42.449  28.935  30.849  1.00  0.00     0.031 C 
ATOM     57  C   UNL A   1      43.875  29.159  28.707  1.00  0.00     0.034 A 
BRANCH  44  58
ATOM     58  C   UNL A   1      38.510  29.010  28.411  1.00  0.00     0.023 A 
ATOM     59  C   UNL A   1      37.731  29.967  27.720  1.00  0.00     0.012 A 
ATOM     60  C   UNL A   1      38.428  29.026  29.822  1.00  0.00     0.148 A 
ATOM     61  C   UNL A   1      36.979  30.936  28.394  1.00  0.00     0.002 A 
ATOM     62  C   UNL A   1      37.619  29.942  30.487  1.00  0.00     0.091 A 
ATOM     63  F   UNL A   1      39.226  28.247  30.554  1.00  0.00    -0.205 F 
ATOM     64  C   UNL A   1      36.921  30.923  29.780  1.00  0.00     0.022 A 
BRANCH  62  65
ATOM     65  S   UNL A   1      37.471  29.944  32.280  1.00  0.00     0.127 S 
ATOM     66  O   UNL A   1      38.777  30.463  32.679  1.00  0.00    -0.237 OA
ATOM     67  O   UNL A   1      36.350  30.861  32.484  1.00  0.00    -0.237 OA
ATOM     68  O   UNL A   1      37.189  28.564  32.653  1.00  0.00    -0.744 OA
ENDBRANCH  62  65
ENDBRANCH  44  58
BRANCH  45  69
ATOM     69  C   UNL A   1      44.548  26.151  33.700  1.00  0.00     0.023 A 
ATOM     70  C   UNL A   1      45.846  26.229  34.241  1.00  0.00     0.012 A 
ATOM     71  C   UNL A   1      43.454  26.104  34.594  1.00  0.00     0.148 A 
ATOM     72  C   UNL A   1      46.049  26.299  35.625  1.00  0.00     0.002 A 
ATOM     73  C   UNL A   1      43.661  26.170  35.970  1.00  0.00     0.091 A 
ATOM     74  F   UNL A   1      42.212  26.088  34.093  1.00  0.00    -0.205 F 
ATOM     75  C   UNL A   1      44.958  26.281  36.488  1.00  0.00     0.022 A 
BRANCH  73  76
ATOM     76  S   UNL A   1      42.302  26.186  37.148  1.00  0.00     0.127 S 
ATOM     77  O   UNL A   1      43.008  26.331  38.422  1.00  0.00    -0.237 OA
ATOM     78  O   UNL A   1      41.552  27.367  36.727  1.00  0.00    -0.237 OA
ATOM     79  O   UNL A   1      41.617  24.910  36.984  1.00  0.00    -0.744 OA
ENDBRANCH  73  76
ENDBRANCH  45  69
BRANCH  57  80
ATOM     80  C   UNL A   1      45.270  28.958  28.168  1.00  0.00     0.023 A 
ATOM     81  C   UNL A   1      46.285  29.931  28.295  1.00  0.00     0.012 A 
ATOM     82  C   UNL A   1      45.609  27.685  27.682  1.00  0.00     0.148 A 
ATOM     83  C   UNL A   1      47.604  29.643  27.928  1.00  0.00     0.002 A 
ATOM     84  C   UNL A   1      46.927  27.388  27.364  1.00  0.00     0.091 A 
ATOM     85  F   UNL A   1      44.633  26.771  27.571  1.00  0.00    -0.205 F 
ATOM     86  C   UNL A   1      47.928  28.367  27.475  1.00  0.00     0.022 A 
BRANCH  84  87
ATOM     87  S   UNL A   1      47.424  25.728  26.900  1.00  0.00     0.127 S 
ATOM     88  O   UNL A   1      48.710  25.967  26.248  1.00  0.00    -0.237 OA
ATOM     89  O   UNL A   1      47.510  25.051  28.194  1.00  0.00    -0.237 OA
ATOM     90  O   UNL A   1      46.368  25.221  26.033  1.00  0.00    -0.744 OA
ENDBRANCH  84  87
ENDBRANCH  57  80
ENDBRANCH  31  32
ENDBRANCH  23  26
ENDBRANCH  21  22
ENDBRANCH  20  21
ENDBRANCH   1  20
TORSDOF 17
ENDMDL
MODEL 3
REMARK VINA RESULT:     -11.1      4.093      8.727
REMARK SMILES C[C@H]1CC=C(C2=NN=C(C(=O)NCCCCCCNC(=O)c3ccc(-c4c5nc(c(-c6cccc(S(=O)(=O)[O-])c6F)c6ccc([nH]6)c(-c6cccc(S(=O)(=O)[O-])c6F)c6nc(c(-c7cccc(S(=O)(=O)[O-])c7F)c7ccc4[nH]7)C=C6)C=C5)cc3)C2)O1
REMARK SMILES IDX 16 1 15 2 14 3 13 4 12 5 10 6 11 7 9 9 6 10 7 11 85 12 8 13
REMARK SMILES IDX 5 14 1 15 2 16 3 17 86 18 4 19 17 20 18 21 19 22 20 23 21 25
REMARK SMILES IDX 22 26 23 27 84 28 24 29 83 30 25 31 26 32 27 33 77 34 28 35
REMARK SMILES IDX 82 36 76 37 78 38 29 39 81 40 75 41 74 42 30 44 62 45 42 46
REMARK SMILES IDX 61 47 43 48 46 49 60 50 79 51 44 52 45 53 59 55 80 56 47 57
REMARK SMILES IDX 31 58 32 59 40 60 33 61 35 62 41 63 34 64 36 65 37 66 38 67
REMARK SMILES IDX 39 68 63 69 64 70 72 71 65 72 67 73 73 74 66 75 68 76 69 77
REMARK SMILES IDX 70 78 71 79 48 80 49 81 57 82 50 83 52 84 58 85 51 86 53 87
REMARK SMILES IDX 54 88 55 89 56 90
REMARK H PARENT 12 8 19 24 78 43 46 54
REMARK Flexibility Score: inf
ROOT
ATOM      1  C   UNL A   1      32.434  29.194  27.178  1.00  0.00     0.002 C 
ENDROOT
BRANCH   1   2
ATOM      2  C   UNL A   1      33.574  28.222  26.845  1.00  0.00     0.002 C 
BRANCH   2   3
ATOM      3  C   UNL A   1      33.244  27.092  25.864  1.00  0.00     0.021 C 
BRANCH   3   4
ATOM      4  C   UNL A   1      33.568  27.380  24.400  1.00  0.00     0.116 C 
BRANCH   4   5
ATOM      5  N   UNL A   1      33.349  26.216  23.558  1.00  0.00    -0.351 N 
ATOM      6  C   UNL A   1      32.205  25.805  22.926  1.00  0.00     0.267 C 
ATOM      7  O   UNL A   1      32.185  24.770  22.266  1.00  0.00    -0.268 OA
ATOM      8  H   UNL A   1      34.136  25.639  23.423  1.00  0.00     0.163 HD
BRANCH   6   9
ATOM      9  C   UNL A   1      30.947  26.621  22.980  1.00  0.00     0.134 C 
ATOM     10  C   UNL A   1      29.516  28.317  22.779  1.00  0.00     0.111 C 
ATOM     11  N   UNL A   1      28.963  27.404  23.519  1.00  0.00    -0.151 NA
ATOM     12  C   UNL A   1      30.892  27.954  22.326  1.00  0.00     0.126 C 
ATOM     13  N   UNL A   1      29.884  26.326  23.664  1.00  0.00    -0.149 NA
BRANCH  10  14
ATOM     14  C   UNL A   1      28.943  29.637  22.473  1.00  0.00     0.139 C 
ATOM     15  C   UNL A   1      27.864  32.116  20.295  1.00  0.00     0.053 C 
ATOM     16  C   UNL A   1      28.701  31.605  21.460  1.00  0.00     0.174 C 
ATOM     17  C   UNL A   1      27.965  31.673  22.805  1.00  0.00     0.076 C 
ATOM     18  O   UNL A   1      29.100  30.232  21.229  1.00  0.00    -0.489 OA
ATOM     19  C   UNL A   1      28.342  30.376  23.401  1.00  0.00     0.025 C 
ENDBRANCH  10  14
ENDBRANCH   6   9
ENDBRANCH   4   5
ENDBRANCH   3   4
ENDBRANCH   2   3
ENDBRANCH   1   2
BRANCH   1  20
ATOM     20  C   UNL A   1      32.733  30.692  27.019  1.00  0.00     0.021 C 
BRANCH  20  21
ATOM     21  C   UNL A   1      34.098  31.115  27.537  1.00  0.00     0.116 C 
BRANCH  21  22
ATOM     22  N   UNL A   1      34.017  31.933  28.750  1.00  0.00    -0.352 N 
ATOM     23  C   UNL A   1      34.876  31.936  29.836  1.00  0.00     0.251 C 
ATOM     24  H   UNL A   1      33.258  32.558  28.798  1.00  0.00     0.163 HD
ATOM     25  O   UNL A   1      34.522  32.367  30.920  1.00  0.00    -0.269 OA
BRANCH  23  26
ATOM     26  C   UNL A   1      36.244  31.417  29.642  1.00  0.00     0.039 A 
ATOM     27  C   UNL A   1      37.361  32.256  29.630  1.00  0.00     0.014 A 
ATOM     28  C   UNL A   1      36.382  30.041  29.501  1.00  0.00     0.014 A 
ATOM     29  C   UNL A   1      38.628  31.680  29.549  1.00  0.00     0.010 A 
ATOM     30  C   UNL A   1      37.618  29.472  29.620  1.00  0.00     0.010 A 
ATOM     31  C   UNL A   1      38.744  30.282  29.559  1.00  0.00    -0.014 A 
BRANCH  31  32
ATOM     32  C   UNL A   1      40.039  29.620  29.607  1.00  0.00     0.031 A 
ATOM     33  C   UNL A   1      40.564  29.411  30.983  1.00  0.00     0.074 A 
ATOM     34  C   UNL A   1      40.578  29.026  28.518  1.00  0.00     0.049 A 
ATOM     35  N   UNL A   1      41.580  29.987  31.534  1.00  0.00    -0.248 NA
ATOM     36  C   UNL A   1      39.770  28.592  31.913  1.00  0.00     0.031 C 
ATOM     37  C   UNL A   1      39.979  28.872  27.183  1.00  0.00     0.029 A 
ATOM     38  N   UNL A   1      41.713  28.286  28.416  1.00  0.00    -0.354 N 
ATOM     39  C   UNL A   1      41.705  29.397  32.790  1.00  0.00     0.074 A 
ATOM     40  C   UNL A   1      40.449  28.749  33.052  1.00  0.00     0.031 C 
ATOM     41  C   UNL A   1      40.611  27.882  26.515  1.00  0.00     0.029 A 
ATOM     42  C   UNL A   1      41.762  27.464  27.291  1.00  0.00     0.049 A 
ATOM     43  H   UNL A   1      42.439  28.326  29.080  1.00  0.00     0.167 HD
ATOM     44  C   UNL A   1      42.928  29.247  33.375  1.00  0.00     0.034 A 
ATOM     45  C   UNL A   1      42.659  26.480  27.043  1.00  0.00     0.034 A 
ATOM     46  C   UNL A   1      43.924  30.043  32.698  1.00  0.00     0.049 A 
ATOM     47  C   UNL A   1      43.831  26.739  27.909  1.00  0.00     0.074 A 
ATOM     48  C   UNL A   1      44.082  31.384  32.414  1.00  0.00     0.029 A 
ATOM     49  N   UNL A   1      44.764  29.372  31.841  1.00  0.00    -0.354 N 
ATOM     50  N   UNL A   1      44.604  27.781  27.776  1.00  0.00    -0.248 NA
ATOM     51  C   UNL A   1      43.873  26.085  29.205  1.00  0.00     0.031 C 
ATOM     52  C   UNL A   1      44.631  31.415  31.097  1.00  0.00     0.029 A 
ATOM     53  C   UNL A   1      44.852  30.098  30.685  1.00  0.00     0.049 A 
ATOM     54  H   UNL A   1      45.220  28.519  32.026  1.00  0.00     0.167 HD
ATOM     55  C   UNL A   1      44.851  28.188  29.080  1.00  0.00     0.074 A 
ATOM     56  C   UNL A   1      44.477  27.045  29.912  1.00  0.00     0.031 C 
ATOM     57  C   UNL A   1      45.046  29.507  29.380  1.00  0.00     0.034 A 
BRANCH  44  58
ATOM     58  C   UNL A   1      43.338  28.099  34.278  1.00  0.00     0.023 A 
ATOM     59  C   UNL A   1      43.902  28.444  35.529  1.00  0.00     0.012 A 
ATOM     60  C   UNL A   1      43.473  26.751  33.872  1.00  0.00     0.148 A 
ATOM     61  C   UNL A   1      44.629  27.523  36.292  1.00  0.00     0.002 A 
ATOM     62  C   UNL A   1      44.130  25.820  34.670  1.00  0.00     0.091 A 
ATOM     63  F   UNL A   1      43.087  26.372  32.654  1.00  0.00    -0.205 F 
ATOM     64  C   UNL A   1      44.741  26.208  35.863  1.00  0.00     0.022 A 
BRANCH  62  65
ATOM     65  S   UNL A   1      44.268  24.093  34.186  1.00  0.00     0.127 S 
ATOM     66  O   UNL A   1      45.322  23.624  35.083  1.00  0.00    -0.237 OA
ATOM     67  O   UNL A   1      42.928  23.592  34.488  1.00  0.00    -0.237 OA
ATOM     68  O   UNL A   1      44.594  24.107  32.766  1.00  0.00    -0.744 OA
ENDBRANCH  62  65
ENDBRANCH  44  58
BRANCH  45  69
ATOM     69  C   UNL A   1      42.500  25.204  26.308  1.00  0.00     0.023 A 
ATOM     70  C   UNL A   1      43.455  24.831  25.341  1.00  0.00     0.012 A 
ATOM     71  C   UNL A   1      41.587  24.224  26.756  1.00  0.00     0.148 A 
ATOM     72  C   UNL A   1      43.525  23.516  24.864  1.00  0.00     0.002 A 
ATOM     73  C   UNL A   1      41.657  22.918  26.276  1.00  0.00     0.091 A 
ATOM     74  F   UNL A   1      40.712  24.549  27.717  1.00  0.00    -0.205 F 
ATOM     75  C   UNL A   1      42.635  22.557  25.339  1.00  0.00     0.022 A 
BRANCH  73  76
ATOM     76  S   UNL A   1      40.565  21.615  26.865  1.00  0.00     0.127 S 
ATOM     77  O   UNL A   1      40.821  21.637  28.306  1.00  0.00    -0.237 OA
ATOM     78  O   UNL A   1      39.253  22.120  26.469  1.00  0.00    -0.237 OA
ATOM     79  O   UNL A   1      41.002  20.396  26.197  1.00  0.00    -0.744 OA
ENDBRANCH  73  76
ENDBRANCH  45  69
BRANCH  57  80
ATOM     80  C   UNL A   1      45.243  30.473  28.237  1.00  0.00     0.023 A 
ATOM     81  C   UNL A   1      44.166  31.045  27.525  1.00  0.00     0.012 A 
ATOM     82  C   UNL A   1      46.541  30.950  27.997  1.00  0.00     0.148 A 
ATOM     83  C   UNL A   1      44.384  32.057  26.584  1.00  0.00     0.002 A 
ATOM     84  C   UNL A   1      46.750  31.986  27.097  1.00  0.00     0.091 A 
ATOM     85  F   UNL A   1      47.554  30.398  28.684  1.00  0.00    -0.205 F 
ATOM     86  C   UNL A   1      45.675  32.537  26.380  1.00  0.00     0.022 A 
BRANCH  84  87
ATOM     87  S   UNL A   1      48.368  32.731  26.889  1.00  0.00     0.127 S 
ATOM     88  O   UNL A   1      49.172  31.593  26.449  1.00  0.00    -0.237 OA
ATOM     89  O   UNL A   1      48.120  33.741  25.859  1.00  0.00    -0.237 OA
ATOM     90  O   UNL A   1      48.725  33.285  28.189  1.00  0.00    -0.744 OA
ENDBRANCH  84  87
ENDBRANCH  57  80
ENDBRANCH  31  32
ENDBRANCH  23  26
ENDBRANCH  21  22
ENDBRANCH  20  21
ENDBRANCH   1  20
TORSDOF 17
ENDMDL
