MODEL 1
REMARK VINA RESULT:     -13.0      0.000      0.000
REMARK SMILES COc1ccc(NC(=O)N[C@@H]2C=C[C@H](C(=O)NCCCCCCNC(=O)c3ccc(-c4c5nc(c(-c6cccc(S(=O)(=O)[O-])c6F)c6ccc([nH]6)c(-c6cccc(S(=O)(=O)[O-])c6F)c6nc(c(-c7cccc(S(=O)(=O)[O-])c7F)c7ccc4[nH]7)C=C6)C=C5)cc3)C2)c(C)c1
REMARK SMILES IDX 20 1 19 2 18 3 17 4 15 5 16 6 14 8 11 9 12 10 90 11 13 12
REMARK SMILES IDX 10 13 7 14 8 15 9 17 6 19 3 20 4 21 93 22 5 23 91 24 92 25
REMARK SMILES IDX 2 26 1 27 21 28 22 29 23 30 24 31 25 32 26 34 27 35 28 36
REMARK SMILES IDX 89 37 29 38 88 39 30 40 31 41 32 42 82 43 33 44 87 45 81 46
REMARK SMILES IDX 83 47 34 48 86 49 80 50 79 51 35 53 67 54 47 55 66 56 48 57
REMARK SMILES IDX 51 58 65 59 84 60 49 61 50 62 64 64 85 65 52 66 36 67 37 68
REMARK SMILES IDX 45 69 38 70 40 71 46 72 39 73 41 74 42 75 43 76 44 77 68 78
REMARK SMILES IDX 69 79 77 80 70 81 72 82 78 83 71 84 73 85 74 86 75 87 76 88
REMARK SMILES IDX 53 89 54 90 62 91 55 92 57 93 63 94 56 95 58 96 59 97 60 98
REMARK SMILES IDX 61 99
REMARK H PARENT 17 7 7 16 10 18 24 33 83 52 51 63
REMARK Flexibility Score: inf
ROOT
ATOM      1  C   UNL A   1      33.580  33.880  28.056  1.00  0.00     0.002 C 
ENDROOT
BRANCH   1   2
ATOM      2  C   UNL A   1      34.668  32.796  27.990  1.00  0.00     0.021 C 
BRANCH   2   3
ATOM      3  C   UNL A   1      34.138  31.365  27.856  1.00  0.00     0.116 C 
BRANCH   3   4
ATOM      4  N   UNL A   1      32.843  31.390  27.236  1.00  0.00    -0.356 N 
ATOM      5  C   UNL A   1      32.185  30.404  26.575  1.00  0.00     0.227 C 
ATOM      6  O   UNL A   1      31.434  30.829  25.698  1.00  0.00    -0.274 OA
ATOM      7  H   UNL A   1      32.362  32.246  27.301  1.00  0.00     0.163 HD
BRANCH   5   8
ATOM      8  C   UNL A   1      32.357  28.842  27.164  1.00  0.00     0.103 C 
ATOM      9  C   UNL A   1      33.247  26.308  25.364  1.00  0.00     0.107 C 
ATOM     10  C   UNL A   1      31.712  25.800  26.358  1.00  0.00    -0.006 C 
ATOM     11  C   UNL A   1      33.969  28.080  26.065  1.00  0.00     0.047 C 
ATOM     12  C   UNL A   1      31.117  27.003  27.178  1.00  0.00    -0.016 C 
BRANCH   9  13
ATOM     13  N   UNL A   1      32.387  26.479  23.887  1.00  0.00    -0.332 N 
ATOM     14  N   UNL A   1      32.720  24.362  22.473  1.00  0.00    -0.308 N 
ATOM     15  C   UNL A   1      32.175  25.689  22.689  1.00  0.00     0.319 C 
ATOM     16  H   UNL A   1      32.560  23.940  21.598  1.00  0.00     0.171 HD
ATOM     17  O   UNL A   1      31.464  26.179  21.805  1.00  0.00    -0.248 OA
ATOM     18  H   UNL A   1      31.913  27.341  23.842  1.00  0.00     0.165 HD
BRANCH  14  19
ATOM     19  C   UNL A   1      33.465  23.632  23.423  1.00  0.00     0.046 A 
ATOM     20  C   UNL A   1      36.328  21.555  24.479  1.00  0.00     0.119 A 
ATOM     21  C   UNL A   1      36.586  22.919  23.387  1.00  0.00     0.048 A 
ATOM     22  C   UNL A   1      34.704  21.386  25.073  1.00  0.00     0.052 A 
ATOM     23  C   UNL A   1      34.890  24.003  23.070  1.00  0.00     0.030 A 
ATOM     24  C   UNL A   1      33.330  22.351  24.512  1.00  0.00    -0.024 A 
ATOM     25  C   UNL A   1      31.987  22.020  25.094  1.00  0.00     0.047 C 
BRANCH  20  26
ATOM     26  O   UNL A   1      37.303  20.757  24.980  1.00  0.00    -0.497 OA
ATOM     27  C   UNL A   1      38.334  21.514  25.606  1.00  0.00     0.278 C 
ENDBRANCH  20  26
ENDBRANCH  14  19
ENDBRANCH   9  13
ENDBRANCH   5   8
ENDBRANCH   3   4
ENDBRANCH   2   3
ENDBRANCH   1   2
BRANCH   1  28
ATOM     28  C   UNL A   1      34.072  35.318  28.274  1.00  0.00     0.002 C 
BRANCH  28  29
ATOM     29  C   UNL A   1      33.139  36.215  29.076  1.00  0.00     0.021 C 
BRANCH  29  30
ATOM     30  C   UNL A   1      32.881  35.699  30.466  1.00  0.00     0.116 C 
BRANCH  30  31
ATOM     31  N   UNL A   1      33.863  36.165  31.410  1.00  0.00    -0.352 N 
ATOM     32  C   UNL A   1      34.659  35.417  32.252  1.00  0.00     0.251 C 
ATOM     33  H   UNL A   1      33.982  37.141  31.459  1.00  0.00     0.163 HD
ATOM     34  O   UNL A   1      35.101  35.959  33.260  1.00  0.00    -0.269 OA
BRANCH  32  35
ATOM     35  C   UNL A   1      35.133  34.072  31.813  1.00  0.00     0.039 A 
ATOM     36  C   UNL A   1      35.097  33.097  32.815  1.00  0.00     0.014 A 
ATOM     37  C   UNL A   1      36.060  33.960  30.785  1.00  0.00     0.014 A 
ATOM     38  C   UNL A   1      36.198  32.280  32.998  1.00  0.00     0.010 A 
ATOM     39  C   UNL A   1      37.229  33.310  31.060  1.00  0.00     0.010 A 
ATOM     40  C   UNL A   1      37.307  32.517  32.206  1.00  0.00    -0.014 A 
BRANCH  40  41
ATOM     41  C   UNL A   1      38.549  31.797  32.288  1.00  0.00     0.031 A 
ATOM     42  C   UNL A   1      38.558  30.505  31.591  1.00  0.00     0.074 A 
ATOM     43  C   UNL A   1      39.643  32.496  32.652  1.00  0.00     0.049 A 
ATOM     44  N   UNL A   1      39.548  29.700  31.602  1.00  0.00    -0.248 NA
ATOM     45  C   UNL A   1      37.422  30.012  30.808  1.00  0.00     0.031 C 
ATOM     46  C   UNL A   1      41.036  32.254  32.310  1.00  0.00     0.029 A 
ATOM     47  N   UNL A   1      39.705  33.530  33.582  1.00  0.00    -0.354 N 
ATOM     48  C   UNL A   1      39.327  28.766  30.612  1.00  0.00     0.074 A 
ATOM     49  C   UNL A   1      37.951  28.932  30.228  1.00  0.00     0.031 C 
ATOM     50  C   UNL A   1      41.824  32.905  33.185  1.00  0.00     0.029 A 
ATOM     51  C   UNL A   1      40.955  33.442  34.219  1.00  0.00     0.049 A 
ATOM     52  H   UNL A   1      39.004  34.198  33.760  1.00  0.00     0.167 HD
ATOM     53  C   UNL A   1      40.411  28.091  30.151  1.00  0.00     0.034 A 
ATOM     54  C   UNL A   1      40.999  33.077  35.539  1.00  0.00     0.034 A 
ATOM     55  C   UNL A   1      41.578  28.439  30.979  1.00  0.00     0.049 A 
ATOM     56  C   UNL A   1      41.622  31.704  35.741  1.00  0.00     0.074 A 
ATOM     57  C   UNL A   1      42.609  29.351  30.824  1.00  0.00     0.029 A 
ATOM     58  N   UNL A   1      41.557  28.089  32.323  1.00  0.00    -0.354 N 
ATOM     59  N   UNL A   1      41.789  30.826  34.787  1.00  0.00    -0.248 NA
ATOM     60  C   UNL A   1      42.177  31.240  37.007  1.00  0.00     0.031 C 
ATOM     61  C   UNL A   1      43.164  29.598  32.112  1.00  0.00     0.029 A 
ATOM     62  C   UNL A   1      42.490  28.819  33.039  1.00  0.00     0.049 A 
ATOM     63  H   UNL A   1      40.957  27.414  32.715  1.00  0.00     0.167 HD
ATOM     64  C   UNL A   1      42.405  29.699  35.267  1.00  0.00     0.074 A 
ATOM     65  C   UNL A   1      42.659  30.030  36.661  1.00  0.00     0.031 C 
ATOM     66  C   UNL A   1      42.637  28.600  34.476  1.00  0.00     0.034 A 
BRANCH  53  67
ATOM     67  C   UNL A   1      40.536  27.318  28.852  1.00  0.00     0.023 A 
ATOM     68  C   UNL A   1      39.617  26.256  28.679  1.00  0.00     0.012 A 
ATOM     69  C   UNL A   1      41.484  27.490  27.815  1.00  0.00     0.148 A 
ATOM     70  C   UNL A   1      39.656  25.390  27.585  1.00  0.00     0.002 A 
ATOM     71  C   UNL A   1      41.526  26.621  26.717  1.00  0.00     0.091 A 
ATOM     72  F   UNL A   1      42.353  28.499  27.857  1.00  0.00    -0.205 F 
ATOM     73  C   UNL A   1      40.615  25.566  26.605  1.00  0.00     0.022 A 
BRANCH  71  74
ATOM     74  S   UNL A   1      42.741  26.761  25.392  1.00  0.00     0.127 S 
ATOM     75  O   UNL A   1      42.276  27.952  24.676  1.00  0.00    -0.237 OA
ATOM     76  O   UNL A   1      43.990  26.948  26.129  1.00  0.00    -0.237 OA
ATOM     77  O   UNL A   1      42.659  25.528  24.619  1.00  0.00    -0.744 OA
ENDBRANCH  71  74
ENDBRANCH  53  67
BRANCH  54  78
ATOM     78  C   UNL A   1      39.851  33.683  36.300  1.00  0.00     0.023 A 
ATOM     79  C   UNL A   1      38.743  32.819  36.515  1.00  0.00     0.012 A 
ATOM     80  C   UNL A   1      40.037  34.764  37.181  1.00  0.00     0.148 A 
ATOM     81  C   UNL A   1      38.022  32.865  37.709  1.00  0.00     0.002 A 
ATOM     82  C   UNL A   1      39.267  34.840  38.345  1.00  0.00     0.091 A 
ATOM     83  F   UNL A   1      40.994  35.660  36.907  1.00  0.00    -0.205 F 
ATOM     84  C   UNL A   1      38.322  33.844  38.648  1.00  0.00     0.022 A 
BRANCH  82  85
ATOM     85  S   UNL A   1      39.486  36.170  39.535  1.00  0.00     0.127 S 
ATOM     86  O   UNL A   1      39.013  37.323  38.775  1.00  0.00    -0.237 OA
ATOM     87  O   UNL A   1      38.610  35.775  40.637  1.00  0.00    -0.237 OA
ATOM     88  O   UNL A   1      40.904  36.159  39.864  1.00  0.00    -0.744 OA
ENDBRANCH  82  85
ENDBRANCH  54  78
BRANCH  66  89
ATOM     89  C   UNL A   1      43.034  27.202  34.946  1.00  0.00     0.023 A 
ATOM     90  C   UNL A   1      42.313  26.493  35.920  1.00  0.00     0.012 A 
ATOM     91  C   UNL A   1      44.092  26.482  34.313  1.00  0.00     0.148 A 
ATOM     92  C   UNL A   1      42.639  25.180  36.284  1.00  0.00     0.002 A 
ATOM     93  C   UNL A   1      44.322  25.136  34.578  1.00  0.00     0.091 A 
ATOM     94  F   UNL A   1      44.926  27.102  33.467  1.00  0.00    -0.205 F 
ATOM     95  C   UNL A   1      43.623  24.490  35.592  1.00  0.00     0.022 A 
BRANCH  93  96
ATOM     96  S   UNL A   1      45.403  24.144  33.536  1.00  0.00     0.127 S 
ATOM     97  O   UNL A   1      44.991  22.786  33.884  1.00  0.00    -0.237 OA
ATOM     98  O   UNL A   1      45.012  24.575  32.192  1.00  0.00    -0.237 OA
ATOM     99  O   UNL A   1      46.759  24.520  33.912  1.00  0.00    -0.744 OA
ENDBRANCH  93  96
ENDBRANCH  66  89
ENDBRANCH  40  41
ENDBRANCH  32  35
ENDBRANCH  30  31
ENDBRANCH  29  30
ENDBRANCH  28  29
ENDBRANCH   1  28
TORSDOF 19
ENDMDL
MODEL 2
REMARK VINA RESULT:     -11.5      2.379      3.015
REMARK SMILES COc1ccc(NC(=O)N[C@@H]2C=C[C@H](C(=O)NCCCCCCNC(=O)c3ccc(-c4c5nc(c(-c6cccc(S(=O)(=O)[O-])c6F)c6ccc([nH]6)c(-c6cccc(S(=O)(=O)[O-])c6F)c6nc(c(-c7cccc(S(=O)(=O)[O-])c7F)c7ccc4[nH]7)C=C6)C=C5)cc3)C2)c(C)c1
REMARK SMILES IDX 20 1 19 2 18 3 17 4 15 5 16 6 14 8 11 9 12 10 90 11 13 12
REMARK SMILES IDX 10 13 7 14 8 15 9 17 6 19 3 20 4 21 93 22 5 23 91 24 92 25
REMARK SMILES IDX 2 26 1 27 21 28 22 29 23 30 24 31 25 32 26 34 27 35 28 36
REMARK SMILES IDX 89 37 29 38 88 39 30 40 31 41 32 42 82 43 33 44 87 45 81 46
REMARK SMILES IDX 83 47 34 48 86 49 80 50 79 51 35 53 67 54 47 55 66 56 48 57
REMARK SMILES IDX 51 58 65 59 84 60 49 61 50 62 64 64 85 65 52 66 36 67 37 68
REMARK SMILES IDX 45 69 38 70 40 71 46 72 39 73 41 74 42 75 43 76 44 77 68 78
REMARK SMILES IDX 69 79 77 80 70 81 72 82 78 83 71 84 73 85 74 86 75 87 76 88
REMARK SMILES IDX 53 89 54 90 62 91 55 92 57 93 63 94 56 95 58 96 59 97 60 98
REMARK SMILES IDX 61 99
REMARK H PARENT 17 7 7 16 10 18 24 33 83 52 51 63
REMARK Flexibility Score: inf
ROOT
ATOM      1  C   UNL A   1      33.918  31.805  27.981  1.00  0.00     0.002 C 
ENDROOT
BRANCH   1   2
ATOM      2  C   UNL A   1      33.531  30.785  26.897  1.00  0.00     0.021 C 
BRANCH   2   3
ATOM      3  C   UNL A   1      32.400  29.831  27.292  1.00  0.00     0.116 C 
BRANCH   3   4
ATOM      4  N   UNL A   1      31.503  29.666  26.182  1.00  0.00    -0.356 N 
ATOM      5  C   UNL A   1      31.766  29.258  24.914  1.00  0.00     0.227 C 
ATOM      6  O   UNL A   1      31.005  29.748  24.082  1.00  0.00    -0.274 OA
ATOM      7  H   UNL A   1      30.560  29.879  26.368  1.00  0.00     0.163 HD
BRANCH   5   8
ATOM      8  C   UNL A   1      32.923  28.058  24.723  1.00  0.00     0.103 C 
ATOM      9  C   UNL A   1      32.253  24.901  24.530  1.00  0.00     0.107 C 
ATOM     10  C   UNL A   1      33.652  25.118  25.794  1.00  0.00    -0.006 C 
ATOM     11  C   UNL A   1      31.963  26.642  23.513  1.00  0.00     0.047 C 
ATOM     12  C   UNL A   1      33.974  26.634  26.061  1.00  0.00    -0.016 C 
BRANCH   9  13
ATOM     13  N   UNL A   1      31.049  24.621  25.723  1.00  0.00    -0.332 N 
ATOM     14  N   UNL A   1      31.135  22.157  26.439  1.00  0.00    -0.308 N 
ATOM     15  C   UNL A   1      30.577  23.494  26.505  1.00  0.00     0.319 C 
ATOM     16  H   UNL A   1      30.699  21.454  26.972  1.00  0.00     0.171 HD
ATOM     17  O   UNL A   1      29.646  23.700  27.292  1.00  0.00    -0.248 OA
ATOM     18  H   UNL A   1      30.549  25.443  25.932  1.00  0.00     0.165 HD
BRANCH  14  19
ATOM     19  C   UNL A   1      32.258  21.789  25.667  1.00  0.00     0.046 A 
ATOM     20  C   UNL A   1      35.854  21.855  24.837  1.00  0.00     0.119 A 
ATOM     21  C   UNL A   1      35.342  21.758  26.525  1.00  0.00     0.048 A 
ATOM     22  C   UNL A   1      34.566  21.785  23.673  1.00  0.00     0.052 A 
ATOM     23  C   UNL A   1      33.322  21.582  26.724  1.00  0.00     0.030 A 
ATOM     24  C   UNL A   1      32.844  21.815  24.086  1.00  0.00    -0.024 A 
ATOM     25  C   UNL A   1      31.873  21.812  22.941  1.00  0.00     0.047 C 
BRANCH  20  26
ATOM     26  O   UNL A   1      37.138  21.828  24.405  1.00  0.00    -0.497 OA
ATOM     27  C   UNL A   1      38.046  22.245  25.420  1.00  0.00     0.278 C 
ENDBRANCH  20  26
ENDBRANCH  14  19
ENDBRANCH   9  13
ENDBRANCH   5   8
ENDBRANCH   3   4
ENDBRANCH   2   3
ENDBRANCH   1   2
BRANCH   1  28
ATOM     28  C   UNL A   1      33.506  33.260  27.717  1.00  0.00     0.002 C 
BRANCH  28  29
ATOM     29  C   UNL A   1      34.213  34.306  28.569  1.00  0.00     0.021 C 
BRANCH  29  30
ATOM     30  C   UNL A   1      33.776  34.283  30.009  1.00  0.00     0.116 C 
BRANCH  30  31
ATOM     31  N   UNL A   1      34.758  34.870  30.883  1.00  0.00    -0.352 N 
ATOM     32  C   UNL A   1      35.614  34.232  31.756  1.00  0.00     0.251 C 
ATOM     33  H   UNL A   1      34.826  35.852  30.854  1.00  0.00     0.163 HD
ATOM     34  O   UNL A   1      36.053  34.872  32.705  1.00  0.00    -0.269 OA
BRANCH  32  35
ATOM     35  C   UNL A   1      36.146  32.882  31.407  1.00  0.00     0.039 A 
ATOM     36  C   UNL A   1      36.409  32.067  32.513  1.00  0.00     0.014 A 
ATOM     37  C   UNL A   1      36.871  32.699  30.236  1.00  0.00     0.014 A 
ATOM     38  C   UNL A   1      37.610  31.383  32.573  1.00  0.00     0.010 A 
ATOM     39  C   UNL A   1      38.137  32.200  30.352  1.00  0.00     0.010 A 
ATOM     40  C   UNL A   1      38.517  31.594  31.551  1.00  0.00    -0.014 A 
BRANCH  40  41
ATOM     41  C   UNL A   1      39.826  31.004  31.473  1.00  0.00     0.031 A 
ATOM     42  C   UNL A   1      39.854  29.641  30.928  1.00  0.00     0.074 A 
ATOM     43  C   UNL A   1      40.884  31.837  31.549  1.00  0.00     0.049 A 
ATOM     44  N   UNL A   1      40.913  28.935  30.838  1.00  0.00    -0.248 NA
ATOM     45  C   UNL A   1      38.660  28.955  30.430  1.00  0.00     0.031 C 
ATOM     46  C   UNL A   1      42.212  31.679  30.978  1.00  0.00     0.029 A 
ATOM     47  N   UNL A   1      40.994  32.980  32.336  1.00  0.00    -0.354 N 
ATOM     48  C   UNL A   1      40.625  27.869  30.012  1.00  0.00     0.074 A 
ATOM     49  C   UNL A   1      39.193  27.863  29.878  1.00  0.00     0.031 C 
ATOM     50  C   UNL A   1      43.066  32.502  31.615  1.00  0.00     0.029 A 
ATOM     51  C   UNL A   1      42.339  33.083  32.731  1.00  0.00     0.049 A 
ATOM     52  H   UNL A   1      40.266  33.600  32.571  1.00  0.00     0.167 HD
ATOM     53  C   UNL A   1      41.679  27.241  29.429  1.00  0.00     0.034 A 
ATOM     54  C   UNL A   1      42.656  32.891  34.051  1.00  0.00     0.034 A 
ATOM     55  C   UNL A   1      42.927  27.791  29.981  1.00  0.00     0.049 A 
ATOM     56  C   UNL A   1      43.452  31.615  34.276  1.00  0.00     0.074 A 
ATOM     57  C   UNL A   1      43.809  28.765  29.539  1.00  0.00     0.029 A 
ATOM     58  N   UNL A   1      43.183  27.612  31.334  1.00  0.00    -0.354 N 
ATOM     59  N   UNL A   1      43.543  30.644  33.406  1.00  0.00    -0.248 NA
ATOM     60  C   UNL A   1      44.270  31.363  35.457  1.00  0.00     0.031 C 
ATOM     61  C   UNL A   1      44.551  29.219  30.666  1.00  0.00     0.029 A 
ATOM     62  C   UNL A   1      44.142  28.505  31.780  1.00  0.00     0.049 A 
ATOM     63  H   UNL A   1      42.740  26.939  31.901  1.00  0.00     0.167 HD
ATOM     64  C   UNL A   1      44.355  29.645  33.879  1.00  0.00     0.074 A 
ATOM     65  C   UNL A   1      44.813  30.167  35.156  1.00  0.00     0.031 C 
ATOM     66  C   UNL A   1      44.564  28.481  33.178  1.00  0.00     0.034 A 
BRANCH  53  67
ATOM     67  C   UNL A   1      41.657  26.326  28.219  1.00  0.00     0.023 A 
ATOM     68  C   UNL A   1      41.185  26.908  27.019  1.00  0.00     0.012 A 
ATOM     69  C   UNL A   1      42.000  24.955  28.148  1.00  0.00     0.148 A 
ATOM     70  C   UNL A   1      41.014  26.181  25.839  1.00  0.00     0.002 A 
ATOM     71  C   UNL A   1      41.827  24.223  26.966  1.00  0.00     0.091 A 
ATOM     72  F   UNL A   1      42.510  24.333  29.210  1.00  0.00    -0.205 F 
ATOM     73  C   UNL A   1      41.329  24.835  25.813  1.00  0.00     0.022 A 
BRANCH  71  74
ATOM     74  S   UNL A   1      42.201  22.464  26.831  1.00  0.00     0.127 S 
ATOM     75  O   UNL A   1      41.993  22.217  25.402  1.00  0.00    -0.237 OA
ATOM     76  O   UNL A   1      43.597  22.405  27.259  1.00  0.00    -0.237 OA
ATOM     77  O   UNL A   1      41.259  21.770  27.702  1.00  0.00    -0.744 OA
ENDBRANCH  71  74
ENDBRANCH  53  67
BRANCH  54  78
ATOM     78  C   UNL A   1      41.600  33.483  34.946  1.00  0.00     0.023 A 
ATOM     79  C   UNL A   1      41.239  34.826  34.651  1.00  0.00     0.012 A 
ATOM     80  C   UNL A   1      40.673  32.675  35.628  1.00  0.00     0.148 A 
ATOM     81  C   UNL A   1      39.918  35.255  34.780  1.00  0.00     0.002 A 
ATOM     82  C   UNL A   1      39.366  33.138  35.811  1.00  0.00     0.091 A 
ATOM     83  F   UNL A   1      41.053  31.456  36.031  1.00  0.00    -0.205 F 
ATOM     84  C   UNL A   1      38.969  34.390  35.310  1.00  0.00     0.022 A 
BRANCH  82  85
ATOM     85  S   UNL A   1      38.119  32.136  36.634  1.00  0.00     0.127 S 
ATOM     86  O   UNL A   1      38.169  30.905  35.851  1.00  0.00    -0.237 OA
ATOM     87  O   UNL A   1      38.643  32.008  37.993  1.00  0.00    -0.237 OA
ATOM     88  O   UNL A   1      36.887  32.906  36.538  1.00  0.00    -0.744 OA
ENDBRANCH  82  85
ENDBRANCH  54  78
BRANCH  66  89
ATOM     89  C   UNL A   1      45.190  27.192  33.711  1.00  0.00     0.023 A 
ATOM     90  C   UNL A   1      46.577  26.988  33.769  1.00  0.00     0.012 A 
ATOM     91  C   UNL A   1      44.388  26.175  34.311  1.00  0.00     0.148 A 
ATOM     92  C   UNL A   1      47.141  25.836  34.335  1.00  0.00     0.002 A 
ATOM     93  C   UNL A   1      44.956  25.104  34.994  1.00  0.00     0.091 A 
ATOM     94  F   UNL A   1      43.054  26.204  34.197  1.00  0.00    -0.205 F 
ATOM     95  C   UNL A   1      46.333  24.909  34.975  1.00  0.00     0.022 A 
BRANCH  93  96
ATOM     96  S   UNL A   1      43.967  24.029  36.045  1.00  0.00     0.127 S 
ATOM     97  O   UNL A   1      44.992  23.190  36.663  1.00  0.00    -0.237 OA
ATOM     98  O   UNL A   1      43.333  24.987  36.953  1.00  0.00    -0.237 OA
ATOM     99  O   UNL A   1      43.039  23.353  35.148  1.00  0.00    -0.744 OA
ENDBRANCH  93  96
ENDBRANCH  66  89
ENDBRANCH  40  41
ENDBRANCH  32  35
ENDBRANCH  30  31
ENDBRANCH  29  30
ENDBRANCH  28  29
ENDBRANCH   1  28
TORSDOF 19
ENDMDL
MODEL 3
REMARK VINA RESULT:     -11.1      4.620      9.952
REMARK SMILES COc1ccc(NC(=O)N[C@@H]2C=C[C@H](C(=O)NCCCCCCNC(=O)c3ccc(-c4c5nc(c(-c6cccc(S(=O)(=O)[O-])c6F)c6ccc([nH]6)c(-c6cccc(S(=O)(=O)[O-])c6F)c6nc(c(-c7cccc(S(=O)(=O)[O-])c7F)c7ccc4[nH]7)C=C6)C=C5)cc3)C2)c(C)c1
REMARK SMILES IDX 20 1 19 2 18 3 17 4 15 5 16 6 14 8 11 9 12 10 90 11 13 12
REMARK SMILES IDX 10 13 7 14 8 15 9 17 6 19 3 20 4 21 93 22 5 23 91 24 92 25
REMARK SMILES IDX 2 26 1 27 21 28 22 29 23 30 24 31 25 32 26 34 27 35 28 36
REMARK SMILES IDX 89 37 29 38 88 39 30 40 31 41 32 42 82 43 33 44 87 45 81 46
REMARK SMILES IDX 83 47 34 48 86 49 80 50 79 51 35 53 67 54 47 55 66 56 48 57
REMARK SMILES IDX 51 58 65 59 84 60 49 61 50 62 64 64 85 65 52 66 36 67 37 68
REMARK SMILES IDX 45 69 38 70 40 71 46 72 39 73 41 74 42 75 43 76 44 77 68 78
REMARK SMILES IDX 69 79 77 80 70 81 72 82 78 83 71 84 73 85 74 86 75 87 76 88
REMARK SMILES IDX 53 89 54 90 62 91 55 92 57 93 63 94 56 95 58 96 59 97 60 98
REMARK SMILES IDX 61 99
REMARK H PARENT 17 7 7 16 10 18 24 33 83 52 51 63
REMARK Flexibility Score: inf
ROOT
ATOM      1  C   UNL A   1      32.496  30.222  27.225  1.00  0.00     0.002 C 
ENDROOT
BRANCH   1   2
ATOM      2  C   UNL A   1      32.384  29.739  25.769  1.00  0.00     0.021 C 
BRANCH   2   3
ATOM      3  C   UNL A   1      31.201  28.805  25.495  1.00  0.00     0.116 C 
BRANCH   3   4
ATOM      4  N   UNL A   1      30.895  28.819  24.092  1.00  0.00    -0.356 N 
ATOM      5  C   UNL A   1      31.716  28.626  23.028  1.00  0.00     0.227 C 
ATOM      6  O   UNL A   1      31.359  29.241  22.025  1.00  0.00    -0.274 OA
ATOM      7  H   UNL A   1      29.952  28.995  23.868  1.00  0.00     0.163 HD
BRANCH   5   8
ATOM      8  C   UNL A   1      32.929  27.479  23.199  1.00  0.00     0.103 C 
ATOM      9  C   UNL A   1      32.418  24.406  24.066  1.00  0.00     0.107 C 
ATOM     10  C   UNL A   1      33.827  25.084  25.143  1.00  0.00    -0.006 C 
ATOM     11  C   UNL A   1      32.021  25.706  22.548  1.00  0.00     0.047 C 
ATOM     12  C   UNL A   1      34.076  26.617  24.891  1.00  0.00    -0.016 C 
BRANCH   9  13
ATOM     13  N   UNL A   1      31.253  24.481  25.326  1.00  0.00    -0.332 N 
ATOM     14  N   UNL A   1      31.599  22.489  26.907  1.00  0.00    -0.308 N 
ATOM     15  C   UNL A   1      30.902  23.691  26.491  1.00  0.00     0.319 C 
ATOM     16  H   UNL A   1      31.240  21.999  27.682  1.00  0.00     0.171 HD
ATOM     17  O   UNL A   1      29.956  24.086  27.181  1.00  0.00    -0.248 OA
ATOM     18  H   UNL A   1      30.669  25.268  25.233  1.00  0.00     0.165 HD
BRANCH  14  19
ATOM     19  C   UNL A   1      32.753  21.968  26.284  1.00  0.00     0.046 A 
ATOM     20  C   UNL A   1      36.253  22.171  25.132  1.00  0.00     0.119 A 
ATOM     21  C   UNL A   1      35.807  22.830  26.708  1.00  0.00     0.048 A 
ATOM     22  C   UNL A   1      34.975  21.348  24.290  1.00  0.00     0.052 A 
ATOM     23  C   UNL A   1      33.861  22.467  27.188  1.00  0.00     0.030 A 
ATOM     24  C   UNL A   1      33.289  21.311  24.827  1.00  0.00    -0.024 A 
ATOM     25  C   UNL A   1      32.310  20.603  23.935  1.00  0.00     0.047 C 
BRANCH  20  26
ATOM     26  O   UNL A   1      37.510  22.134  24.625  1.00  0.00    -0.497 OA
ATOM     27  C   UNL A   1      38.428  21.533  25.533  1.00  0.00     0.278 C 
ENDBRANCH  20  26
ENDBRANCH  14  19
ENDBRANCH   9  13
ENDBRANCH   5   8
ENDBRANCH   3   4
ENDBRANCH   2   3
ENDBRANCH   1   2
BRANCH   1  28
ATOM     28  C   UNL A   1      32.974  31.668  27.420  1.00  0.00     0.002 C 
BRANCH  28  29
ATOM     29  C   UNL A   1      34.158  31.844  28.363  1.00  0.00     0.021 C 
BRANCH  29  30
ATOM     30  C   UNL A   1      35.464  32.026  27.637  1.00  0.00     0.116 C 
BRANCH  30  31
ATOM     31  N   UNL A   1      36.395  30.966  27.921  1.00  0.00    -0.352 N 
ATOM     32  C   UNL A   1      37.482  30.990  28.770  1.00  0.00     0.251 C 
ATOM     33  H   UNL A   1      36.235  30.116  27.450  1.00  0.00     0.163 HD
ATOM     34  O   UNL A   1      38.388  30.187  28.569  1.00  0.00    -0.269 OA
BRANCH  32  35
ATOM     35  C   UNL A   1      37.427  31.816  30.011  1.00  0.00     0.039 A 
ATOM     36  C   UNL A   1      37.554  33.191  29.789  1.00  0.00     0.014 A 
ATOM     37  C   UNL A   1      37.835  31.280  31.225  1.00  0.00     0.014 A 
ATOM     38  C   UNL A   1      38.420  33.923  30.583  1.00  0.00     0.010 A 
ATOM     39  C   UNL A   1      38.836  31.926  31.893  1.00  0.00     0.010 A 
ATOM     40  C   UNL A   1      39.162  33.231  31.522  1.00  0.00    -0.014 A 
BRANCH  40  41
ATOM     41  C   UNL A   1      40.138  33.820  32.399  1.00  0.00     0.031 A 
ATOM     42  C   UNL A   1      39.583  34.443  33.607  1.00  0.00     0.074 A 
ATOM     43  C   UNL A   1      41.422  33.442  32.235  1.00  0.00     0.049 A 
ATOM     44  N   UNL A   1      40.285  35.066  34.471  1.00  0.00    -0.248 NA
ATOM     45  C   UNL A   1      38.157  34.408  33.940  1.00  0.00     0.031 C 
ATOM     46  C   UNL A   1      42.491  33.390  33.220  1.00  0.00     0.029 A 
ATOM     47  N   UNL A   1      42.065  33.163  31.032  1.00  0.00    -0.354 N 
ATOM     48  C   UNL A   1      39.501  35.234  35.593  1.00  0.00     0.074 A 
ATOM     49  C   UNL A   1      38.162  34.914  35.176  1.00  0.00     0.031 C 
ATOM     50  C   UNL A   1      43.676  33.364  32.582  1.00  0.00     0.029 A 
ATOM     51  C   UNL A   1      43.402  33.574  31.171  1.00  0.00     0.049 A 
ATOM     52  H   UNL A   1      41.659  32.754  30.234  1.00  0.00     0.167 HD
ATOM     53  C   UNL A   1      40.146  35.469  36.764  1.00  0.00     0.034 A 
ATOM     54  C   UNL A   1      43.840  34.652  30.445  1.00  0.00     0.034 A 
ATOM     55  C   UNL A   1      41.582  35.646  36.492  1.00  0.00     0.049 A 
ATOM     56  C   UNL A   1      44.147  35.855  31.323  1.00  0.00     0.074 A 
ATOM     57  C   UNL A   1      42.669  34.790  36.554  1.00  0.00     0.029 A 
ATOM     58  N   UNL A   1      41.973  36.727  35.712  1.00  0.00    -0.354 N 
ATOM     59  N   UNL A   1      43.738  35.987  32.557  1.00  0.00    -0.248 NA
ATOM     60  C   UNL A   1      45.001  36.964  30.914  1.00  0.00     0.031 C 
ATOM     61  C   UNL A   1      43.700  35.341  35.741  1.00  0.00     0.029 A 
ATOM     62  C   UNL A   1      43.249  36.539  35.210  1.00  0.00     0.049 A 
ATOM     63  H   UNL A   1      41.418  37.521  35.539  1.00  0.00     0.167 HD
ATOM     64  C   UNL A   1      44.201  37.159  33.098  1.00  0.00     0.074 A 
ATOM     65  C   UNL A   1      45.020  37.715  32.032  1.00  0.00     0.031 C 
ATOM     66  C   UNL A   1      43.857  37.564  34.366  1.00  0.00     0.034 A 
BRANCH  53  67
ATOM     67  C   UNL A   1      39.597  35.313  38.169  1.00  0.00     0.023 A 
ATOM     68  C   UNL A   1      39.508  36.504  38.929  1.00  0.00     0.012 A 
ATOM     69  C   UNL A   1      39.210  34.126  38.835  1.00  0.00     0.148 A 
ATOM     70  C   UNL A   1      39.112  36.522  40.268  1.00  0.00     0.002 A 
ATOM     71  C   UNL A   1      38.814  34.142  40.178  1.00  0.00     0.091 A 
ATOM     72  F   UNL A   1      39.201  32.962  38.186  1.00  0.00    -0.205 F 
ATOM     73  C   UNL A   1      38.771  35.339  40.897  1.00  0.00     0.022 A 
BRANCH  71  74
ATOM     74  S   UNL A   1      38.358  32.654  41.091  1.00  0.00     0.127 S 
ATOM     75  O   UNL A   1      39.607  31.890  41.073  1.00  0.00    -0.237 OA
ATOM     76  O   UNL A   1      37.995  33.189  42.402  1.00  0.00    -0.237 OA
ATOM     77  O   UNL A   1      37.265  32.032  40.354  1.00  0.00    -0.744 OA
ENDBRANCH  71  74
ENDBRANCH  53  67
BRANCH  54  78
ATOM     78  C   UNL A   1      43.231  34.652  29.069  1.00  0.00     0.023 A 
ATOM     79  C   UNL A   1      42.379  35.754  28.784  1.00  0.00     0.012 A 
ATOM     80  C   UNL A   1      43.838  33.980  27.993  1.00  0.00     0.148 A 
ATOM     81  C   UNL A   1      42.356  36.329  27.512  1.00  0.00     0.002 A 
ATOM     82  C   UNL A   1      43.757  34.528  26.710  1.00  0.00     0.091 A 
ATOM     83  F   UNL A   1      44.530  32.861  28.241  1.00  0.00    -0.205 F 
ATOM     84  C   UNL A   1      43.090  35.745  26.488  1.00  0.00     0.022 A 
BRANCH  82  85
ATOM     85  S   UNL A   1      44.548  33.743  25.298  1.00  0.00     0.127 S 
ATOM     86  O   UNL A   1      44.009  32.389  25.376  1.00  0.00    -0.237 OA
ATOM     87  O   UNL A   1      44.053  34.524  24.165  1.00  0.00    -0.237 OA
ATOM     88  O   UNL A   1      45.978  33.877  25.538  1.00  0.00    -0.744 OA
ENDBRANCH  82  85
ENDBRANCH  54  78
BRANCH  66  89
ATOM     89  C   UNL A   1      44.055  38.955  34.967  1.00  0.00     0.023 A 
ATOM     90  C   UNL A   1      44.792  39.180  36.140  1.00  0.00     0.012 A 
ATOM     91  C   UNL A   1      43.609  40.126  34.282  1.00  0.00     0.148 A 
ATOM     92  C   UNL A   1      45.035  40.468  36.636  1.00  0.00     0.002 A 
ATOM     93  C   UNL A   1      43.971  41.401  34.701  1.00  0.00     0.091 A 
ATOM     94  F   UNL A   1      42.788  40.026  33.228  1.00  0.00    -0.205 F 
ATOM     95  C   UNL A   1      44.652  41.579  35.901  1.00  0.00     0.022 A 
BRANCH  93  96
ATOM     96  S   UNL A   1      43.717  42.843  33.655  1.00  0.00     0.127 S 
ATOM     97  O   UNL A   1      44.425  42.456  32.436  1.00  0.00    -0.237 OA
ATOM     98  O   UNL A   1      42.259  42.876  33.529  1.00  0.00    -0.237 OA
ATOM     99  O   UNL A   1      44.278  43.965  34.394  1.00  0.00    -0.744 OA
ENDBRANCH  93  96
ENDBRANCH  66  89
ENDBRANCH  40  41
ENDBRANCH  32  35
ENDBRANCH  30  31
ENDBRANCH  29  30
ENDBRANCH  28  29
ENDBRANCH   1  28
TORSDOF 19
ENDMDL
