MODEL 1
REMARK VINA RESULT:     -10.8      0.000      0.000
REMARK SMILES C[NH2+][C@]1(C(=O)NCCCCCCNC(=O)c2ccc(-c3c4nc(c(-c5cccc(S(=O)(=O)[O-])c5F)c5ccc([nH]5)c(-c5cccc(S(=O)(=O)[O-])c5F)c5nc(c(-c6cccc(S(=O)(=O)[O-])c6F)c6ccc3[nH]6)C=C5)C=C4)cc2)CCC[C@@H]1CC[N@H+]1CCC[C@H]([NH+](C)C)C1
REMARK SMILES IDX 9 1 8 2 7 3 6 4 4 5 5 6 3 8 79 9 82 10 80 11 81 12 2 13 1 14
REMARK SMILES IDX 83 17 84 18 85 19 86 20 93 21 87 23 89 24 88 25 90 26 91 27
REMARK SMILES IDX 92 28 10 30 11 31 12 32 13 33 14 34 15 36 16 37 17 38 78 39
REMARK SMILES IDX 18 40 77 41 19 42 20 43 21 44 71 45 22 46 76 47 70 48 72 49
REMARK SMILES IDX 23 50 75 51 69 52 68 53 24 55 56 56 36 57 55 58 37 59 40 60
REMARK SMILES IDX 54 61 73 62 38 63 39 64 53 66 74 67 41 68 25 69 26 70 34 71
REMARK SMILES IDX 27 72 29 73 35 74 28 75 30 76 31 77 32 78 33 79 57 80 58 81
REMARK SMILES IDX 66 82 59 83 61 84 67 85 60 86 62 87 63 88 64 89 65 90 42 91
REMARK SMILES IDX 43 92 51 93 44 94 46 95 52 96 45 97 47 98 48 99 49 100
REMARK SMILES IDX 50 101
REMARK H PARENT 6 7 2 15 2 16 85 22 90 29 13 35 72 54 40 65
REMARK Flexibility Score: inf
ROOT
ATOM      1  C   UNL A   1      31.784  27.300  26.873  1.00  0.00     0.002 C 
ENDROOT
BRANCH   1   2
ATOM      2  C   UNL A   1      32.524  26.909  25.588  1.00  0.00     0.021 C 
BRANCH   2   3
ATOM      3  C   UNL A   1      31.760  25.900  24.731  1.00  0.00     0.116 C 
BRANCH   3   4
ATOM      4  N   UNL A   1      32.444  25.690  23.463  1.00  0.00    -0.351 N 
ATOM      5  C   UNL A   1      33.485  24.898  23.071  1.00  0.00     0.281 C 
ATOM      6  O   UNL A   1      33.777  24.991  21.872  1.00  0.00    -0.268 OA
ATOM      7  H   UNL A   1      32.076  26.237  22.731  1.00  0.00     0.163 HD
BRANCH   5   8
ATOM      8  C   UNL A   1      34.190  23.870  24.029  1.00  0.00     0.178 C 
ATOM      9  C   UNL A   1      35.067  24.583  25.089  1.00  0.00     0.079 C 
ATOM     10  C   UNL A   1      33.141  23.113  24.910  1.00  0.00     0.066 C 
ATOM     11  C   UNL A   1      35.126  23.628  26.278  1.00  0.00     0.008 C 
ATOM     12  C   UNL A   1      33.925  22.688  26.161  1.00  0.00     0.011 C 
BRANCH   8  13
ATOM     13  N   UNL A   1      35.204  23.053  23.292  1.00  0.00    -0.336 N 
ATOM     14  C   UNL A   1      36.603  23.162  23.643  1.00  0.00     0.331 C 
ATOM     15  H   UNL A   1      34.943  22.075  23.416  1.00  0.00     0.346 HD
ATOM     16  H   UNL A   1      35.167  23.428  22.345  1.00  0.00     0.346 HD
ENDBRANCH   8  13
BRANCH  10  17
ATOM     17  C   UNL A   1      32.381  21.952  24.237  1.00  0.00     0.072 C 
BRANCH  17  18
ATOM     18  C   UNL A   1      32.183  20.668  25.061  1.00  0.00     0.262 C 
BRANCH  18  19
ATOM     19  N   UNL A   1      32.589  19.390  24.460  1.00  0.00    -0.330 N 
ATOM     20  C   UNL A   1      32.235  19.181  23.057  1.00  0.00     0.262 C 
ATOM     21  C   UNL A   1      34.049  19.205  24.601  1.00  0.00     0.327 C 
ATOM     22  H   UNL A   1      32.051  18.699  24.984  1.00  0.00     0.348 HD
ATOM     23  C   UNL A   1      32.504  17.732  22.652  1.00  0.00     0.068 C 
ATOM     24  C   UNL A   1      34.511  17.756  24.282  1.00  0.00     0.239 C 
ATOM     25  C   UNL A   1      33.947  17.306  22.914  1.00  0.00     0.077 C 
BRANCH  24  26
ATOM     26  N   UNL A   1      34.341  16.756  25.365  1.00  0.00    -0.333 N 
ATOM     27  C   UNL A   1      33.022  16.118  25.309  1.00  0.00     0.332 C 
ATOM     28  C   UNL A   1      35.370  15.718  25.420  1.00  0.00     0.332 C 
ATOM     29  H   UNL A   1      34.436  17.306  26.219  1.00  0.00     0.348 HD
ENDBRANCH  24  26
ENDBRANCH  18  19
ENDBRANCH  17  18
ENDBRANCH  10  17
ENDBRANCH   5   8
ENDBRANCH   3   4
ENDBRANCH   2   3
ENDBRANCH   1   2
BRANCH   1  30
ATOM     30  C   UNL A   1      31.873  28.787  27.241  1.00  0.00     0.002 C 
BRANCH  30  31
ATOM     31  C   UNL A   1      32.835  29.611  26.382  1.00  0.00     0.021 C 
BRANCH  31  32
ATOM     32  C   UNL A   1      34.132  30.004  27.084  1.00  0.00     0.116 C 
BRANCH  32  33
ATOM     33  N   UNL A   1      33.967  31.199  27.898  1.00  0.00    -0.352 N 
ATOM     34  C   UNL A   1      34.728  31.643  28.952  1.00  0.00     0.251 C 
ATOM     35  H   UNL A   1      33.202  31.771  27.659  1.00  0.00     0.163 HD
ATOM     36  O   UNL A   1      34.326  32.559  29.658  1.00  0.00    -0.269 OA
BRANCH  34  37
ATOM     37  C   UNL A   1      36.030  30.999  29.235  1.00  0.00     0.039 A 
ATOM     38  C   UNL A   1      37.190  31.545  28.683  1.00  0.00     0.014 A 
ATOM     39  C   UNL A   1      36.101  29.858  30.039  1.00  0.00     0.014 A 
ATOM     40  C   UNL A   1      38.431  30.977  28.984  1.00  0.00     0.010 A 
ATOM     41  C   UNL A   1      37.342  29.341  30.397  1.00  0.00     0.010 A 
ATOM     42  C   UNL A   1      38.520  29.889  29.868  1.00  0.00    -0.014 A 
BRANCH  42  43
ATOM     43  C   UNL A   1      39.836  29.317  30.256  1.00  0.00     0.031 A 
ATOM     44  C   UNL A   1      40.634  29.936  31.371  1.00  0.00     0.074 A 
ATOM     45  C   UNL A   1      40.348  28.291  29.548  1.00  0.00     0.049 A 
ATOM     46  N   UNL A   1      41.821  29.610  31.815  1.00  0.00    -0.248 NA
ATOM     47  C   UNL A   1      40.034  31.090  32.062  1.00  0.00     0.031 C 
ATOM     48  C   UNL A   1      39.706  27.653  28.397  1.00  0.00     0.029 A 
ATOM     49  N   UNL A   1      41.539  27.620  29.676  1.00  0.00    -0.354 N 
ATOM     50  C   UNL A   1      42.123  30.533  32.808  1.00  0.00     0.074 A 
ATOM     51  C   UNL A   1      41.012  31.456  32.879  1.00  0.00     0.031 C 
ATOM     52  C   UNL A   1      40.505  26.680  27.930  1.00  0.00     0.029 A 
ATOM     53  C   UNL A   1      41.729  26.647  28.723  1.00  0.00     0.049 A 
ATOM     54  H   UNL A   1      42.194  27.816  30.385  1.00  0.00     0.167 HD
ATOM     55  C   UNL A   1      43.214  30.593  33.609  1.00  0.00     0.034 A 
ATOM     56  C   UNL A   1      42.777  25.828  28.504  1.00  0.00     0.034 A 
ATOM     57  C   UNL A   1      44.300  29.652  33.560  1.00  0.00     0.049 A 
ATOM     58  C   UNL A   1      43.963  25.896  29.427  1.00  0.00     0.074 A 
ATOM     59  C   UNL A   1      45.409  29.575  34.385  1.00  0.00     0.029 A 
ATOM     60  N   UNL A   1      44.423  28.631  32.630  1.00  0.00    -0.354 N 
ATOM     61  N   UNL A   1      44.161  26.677  30.461  1.00  0.00    -0.248 NA
ATOM     62  C   UNL A   1      45.056  24.945  29.175  1.00  0.00     0.031 C 
ATOM     63  C   UNL A   1      46.219  28.528  33.932  1.00  0.00     0.029 A 
ATOM     64  C   UNL A   1      45.595  27.928  32.849  1.00  0.00     0.049 A 
ATOM     65  H   UNL A   1      43.773  28.436  31.917  1.00  0.00     0.167 HD
ATOM     66  C   UNL A   1      45.379  26.288  31.005  1.00  0.00     0.074 A 
ATOM     67  C   UNL A   1      45.865  25.188  30.197  1.00  0.00     0.031 C 
ATOM     68  C   UNL A   1      46.043  26.803  32.069  1.00  0.00     0.034 A 
BRANCH  55  69
ATOM     69  C   UNL A   1      43.268  31.690  34.641  1.00  0.00     0.023 A 
ATOM     70  C   UNL A   1      43.920  32.903  34.338  1.00  0.00     0.012 A 
ATOM     71  C   UNL A   1      42.620  31.547  35.884  1.00  0.00     0.148 A 
ATOM     72  C   UNL A   1      43.962  33.940  35.269  1.00  0.00     0.002 A 
ATOM     73  C   UNL A   1      42.624  32.603  36.788  1.00  0.00     0.091 A 
ATOM     74  F   UNL A   1      42.021  30.381  36.163  1.00  0.00    -0.205 F 
ATOM     75  C   UNL A   1      43.305  33.795  36.488  1.00  0.00     0.022 A 
BRANCH  73  76
ATOM     76  S   UNL A   1      41.739  32.548  38.350  1.00  0.00     0.127 S 
ATOM     77  O   UNL A   1      42.510  31.547  39.089  1.00  0.00    -0.237 OA
ATOM     78  O   UNL A   1      41.892  33.918  38.838  1.00  0.00    -0.237 OA
ATOM     79  O   UNL A   1      40.373  32.166  38.025  1.00  0.00    -0.744 OA
ENDBRANCH  73  76
ENDBRANCH  55  69
BRANCH  56  80
ATOM     80  C   UNL A   1      42.726  24.830  27.398  1.00  0.00     0.023 A 
ATOM     81  C   UNL A   1      43.284  25.153  26.146  1.00  0.00     0.012 A 
ATOM     82  C   UNL A   1      42.148  23.559  27.584  1.00  0.00     0.148 A 
ATOM     83  C   UNL A   1      43.235  24.245  25.089  1.00  0.00     0.002 A 
ATOM     84  C   UNL A   1      42.153  22.637  26.544  1.00  0.00     0.091 A 
ATOM     85  F   UNL A   1      41.614  23.274  28.780  1.00  0.00    -0.205 F 
ATOM     86  C   UNL A   1      42.679  22.984  25.290  1.00  0.00     0.022 A 
BRANCH  84  87
ATOM     87  S   UNL A   1      41.574  20.949  26.750  1.00  0.00     0.127 S 
ATOM     88  O   UNL A   1      40.126  21.131  26.783  1.00  0.00    -0.237 OA
ATOM     89  O   UNL A   1      42.089  20.305  25.540  1.00  0.00    -0.237 OA
ATOM     90  O   UNL A   1      42.179  20.473  27.986  1.00  0.00    -0.744 OA
ENDBRANCH  84  87
ENDBRANCH  56  80
BRANCH  68  91
ATOM     91  C   UNL A   1      47.348  26.159  32.460  1.00  0.00     0.023 A 
ATOM     92  C   UNL A   1      47.374  25.168  33.462  1.00  0.00     0.012 A 
ATOM     93  C   UNL A   1      48.538  26.486  31.781  1.00  0.00     0.148 A 
ATOM     94  C   UNL A   1      48.570  24.539  33.805  1.00  0.00     0.002 A 
ATOM     95  C   UNL A   1      49.716  25.818  32.091  1.00  0.00     0.091 A 
ATOM     96  F   UNL A   1      48.497  27.444  30.842  1.00  0.00    -0.205 F 
ATOM     97  C   UNL A   1      49.737  24.854  33.112  1.00  0.00     0.022 A 
BRANCH  95  98
ATOM     98  S   UNL A   1      51.244  26.085  31.185  1.00  0.00     0.127 S 
ATOM     99  O   UNL A   1      50.801  25.928  29.802  1.00  0.00    -0.237 OA
ATOM    100  O   UNL A   1      51.590  27.457  31.563  1.00  0.00    -0.237 OA
ATOM    101  O   UNL A   1      52.178  25.074  31.661  1.00  0.00    -0.744 OA
ENDBRANCH  95  98
ENDBRANCH  68  91
ENDBRANCH  42  43
ENDBRANCH  34  37
ENDBRANCH  32  33
ENDBRANCH  31  32
ENDBRANCH  30  31
ENDBRANCH   1  30
TORSDOF 21
ENDMDL
MODEL 2
REMARK VINA RESULT:     -10.8      4.178      6.503
REMARK SMILES C[NH2+][C@]1(C(=O)NCCCCCCNC(=O)c2ccc(-c3c4nc(c(-c5cccc(S(=O)(=O)[O-])c5F)c5ccc([nH]5)c(-c5cccc(S(=O)(=O)[O-])c5F)c5nc(c(-c6cccc(S(=O)(=O)[O-])c6F)c6ccc3[nH]6)C=C5)C=C4)cc2)CCC[C@@H]1CC[N@H+]1CCC[C@H]([NH+](C)C)C1
REMARK SMILES IDX 9 1 8 2 7 3 6 4 4 5 5 6 3 8 79 9 82 10 80 11 81 12 2 13 1 14
REMARK SMILES IDX 83 17 84 18 85 19 86 20 93 21 87 23 89 24 88 25 90 26 91 27
REMARK SMILES IDX 92 28 10 30 11 31 12 32 13 33 14 34 15 36 16 37 17 38 78 39
REMARK SMILES IDX 18 40 77 41 19 42 20 43 21 44 71 45 22 46 76 47 70 48 72 49
REMARK SMILES IDX 23 50 75 51 69 52 68 53 24 55 56 56 36 57 55 58 37 59 40 60
REMARK SMILES IDX 54 61 73 62 38 63 39 64 53 66 74 67 41 68 25 69 26 70 34 71
REMARK SMILES IDX 27 72 29 73 35 74 28 75 30 76 31 77 32 78 33 79 57 80 58 81
REMARK SMILES IDX 66 82 59 83 61 84 67 85 60 86 62 87 63 88 64 89 65 90 42 91
REMARK SMILES IDX 43 92 51 93 44 94 46 95 52 96 45 97 47 98 48 99 49 100
REMARK SMILES IDX 50 101
REMARK H PARENT 6 7 2 15 2 16 85 22 90 29 13 35 72 54 40 65
REMARK Flexibility Score: inf
ROOT
ATOM      1  C   UNL A   1      35.006  30.352  28.479  1.00  0.00     0.002 C 
ENDROOT
BRANCH   1   2
ATOM      2  C   UNL A   1      35.211  29.291  27.391  1.00  0.00     0.021 C 
BRANCH   2   3
ATOM      3  C   UNL A   1      34.005  29.130  26.466  1.00  0.00     0.116 C 
BRANCH   3   4
ATOM      4  N   UNL A   1      32.831  28.730  27.229  1.00  0.00    -0.351 N 
ATOM      5  C   UNL A   1      31.913  27.727  27.093  1.00  0.00     0.281 C 
ATOM      6  O   UNL A   1      31.043  27.706  27.974  1.00  0.00    -0.268 OA
ATOM      7  H   UNL A   1      32.662  29.306  28.010  1.00  0.00     0.163 HD
BRANCH   5   8
ATOM      8  C   UNL A   1      32.006  26.621  25.979  1.00  0.00     0.178 C 
ATOM      9  C   UNL A   1      31.399  25.278  26.454  1.00  0.00     0.079 C 
ATOM     10  C   UNL A   1      31.107  26.986  24.751  1.00  0.00     0.066 C 
ATOM     11  C   UNL A   1      30.945  24.564  25.183  1.00  0.00     0.008 C 
ATOM     12  C   UNL A   1      30.778  25.634  24.101  1.00  0.00     0.011 C 
BRANCH   8  13
ATOM     13  N   UNL A   1      33.428  26.239  25.716  1.00  0.00    -0.336 N 
ATOM     14  C   UNL A   1      33.834  24.856  25.849  1.00  0.00     0.331 C 
ATOM     15  H   UNL A   1      33.637  26.519  24.758  1.00  0.00     0.346 HD
ATOM     16  H   UNL A   1      33.942  26.709  26.461  1.00  0.00     0.346 HD
ENDBRANCH   8  13
BRANCH  10  17
ATOM     17  C   UNL A   1      31.676  28.022  23.760  1.00  0.00     0.072 C 
BRANCH  17  18
ATOM     18  C   UNL A   1      30.844  28.324  22.502  1.00  0.00     0.262 C 
BRANCH  18  19
ATOM     19  N   UNL A   1      29.699  29.236  22.630  1.00  0.00    -0.330 N 
ATOM     20  C   UNL A   1      28.393  28.622  22.867  1.00  0.00     0.262 C 
ATOM     21  C   UNL A   1      29.952  30.217  23.706  1.00  0.00     0.327 C 
ATOM     22  H   UNL A   1      29.634  29.668  21.708  1.00  0.00     0.348 HD
ATOM     23  C   UNL A   1      27.284  29.666  22.737  1.00  0.00     0.068 C 
ATOM     24  C   UNL A   1      28.945  31.401  23.697  1.00  0.00     0.239 C 
ATOM     25  C   UNL A   1      27.494  30.866  23.658  1.00  0.00     0.077 C 
BRANCH  24  26
ATOM     26  N   UNL A   1      29.214  32.489  22.724  1.00  0.00    -0.333 N 
ATOM     27  C   UNL A   1      28.264  32.462  21.607  1.00  0.00     0.332 C 
ATOM     28  C   UNL A   1      29.245  33.836  23.291  1.00  0.00     0.332 C 
ATOM     29  H   UNL A   1      30.159  32.289  22.395  1.00  0.00     0.348 HD
ENDBRANCH  24  26
ENDBRANCH  18  19
ENDBRANCH  17  18
ENDBRANCH  10  17
ENDBRANCH   5   8
ENDBRANCH   3   4
ENDBRANCH   2   3
ENDBRANCH   1   2
BRANCH   1  30
ATOM     30  C   UNL A   1      35.112  31.803  27.992  1.00  0.00     0.002 C 
BRANCH  30  31
ATOM     31  C   UNL A   1      33.787  32.570  27.945  1.00  0.00     0.021 C 
BRANCH  31  32
ATOM     32  C   UNL A   1      33.936  34.077  27.762  1.00  0.00     0.116 C 
BRANCH  32  33
ATOM     33  N   UNL A   1      33.218  34.822  28.785  1.00  0.00    -0.352 N 
ATOM     34  C   UNL A   1      33.384  34.802  30.149  1.00  0.00     0.251 C 
ATOM     35  H   UNL A   1      32.515  35.426  28.454  1.00  0.00     0.163 HD
ATOM     36  O   UNL A   1      32.554  35.334  30.877  1.00  0.00    -0.269 OA
BRANCH  34  37
ATOM     37  C   UNL A   1      34.563  34.125  30.732  1.00  0.00     0.039 A 
ATOM     38  C   UNL A   1      34.365  33.031  31.577  1.00  0.00     0.014 A 
ATOM     39  C   UNL A   1      35.855  34.571  30.446  1.00  0.00     0.014 A 
ATOM     40  C   UNL A   1      35.471  32.350  32.094  1.00  0.00     0.010 A 
ATOM     41  C   UNL A   1      36.953  33.847  30.901  1.00  0.00     0.010 A 
ATOM     42  C   UNL A   1      36.774  32.734  31.735  1.00  0.00    -0.014 A 
BRANCH  42  43
ATOM     43  C   UNL A   1      37.959  31.978  32.217  1.00  0.00     0.031 A 
ATOM     44  C   UNL A   1      38.623  32.350  33.515  1.00  0.00     0.074 A 
ATOM     45  C   UNL A   1      38.488  31.009  31.443  1.00  0.00     0.049 A 
ATOM     46  N   UNL A   1      39.693  31.842  34.069  1.00  0.00    -0.248 NA
ATOM     47  C   UNL A   1      38.022  33.456  34.279  1.00  0.00     0.031 C 
ATOM     48  C   UNL A   1      37.982  30.605  30.128  1.00  0.00     0.029 A 
ATOM     49  N   UNL A   1      39.583  30.203  31.637  1.00  0.00    -0.354 N 
ATOM     50  C   UNL A   1      39.914  32.583  35.223  1.00  0.00     0.074 A 
ATOM     51  C   UNL A   1      38.887  33.601  35.273  1.00  0.00     0.031 C 
ATOM     52  C   UNL A   1      38.759  29.627  29.638  1.00  0.00     0.029 A 
ATOM     53  C   UNL A   1      39.837  29.356  30.585  1.00  0.00     0.049 A 
ATOM     54  H   UNL A   1      40.133  30.231  32.453  1.00  0.00     0.167 HD
ATOM     55  C   UNL A   1      40.867  32.417  36.171  1.00  0.00     0.034 A 
ATOM     56  C   UNL A   1      40.833  28.467  30.396  1.00  0.00     0.034 A 
ATOM     57  C   UNL A   1      41.864  31.381  36.136  1.00  0.00     0.049 A 
ATOM     58  C   UNL A   1      41.861  28.282  31.478  1.00  0.00     0.074 A 
ATOM     59  C   UNL A   1      42.819  31.075  37.090  1.00  0.00     0.029 A 
ATOM     60  N   UNL A   1      42.044  30.490  35.090  1.00  0.00    -0.354 N 
ATOM     61  N   UNL A   1      41.961  28.889  32.636  1.00  0.00    -0.248 NA
ATOM     62  C   UNL A   1      42.896  27.264  31.244  1.00  0.00     0.031 C 
ATOM     63  C   UNL A   1      43.598  30.020  36.604  1.00  0.00     0.029 A 
ATOM     64  C   UNL A   1      43.103  29.643  35.366  1.00  0.00     0.049 A 
ATOM     65  H   UNL A   1      41.499  30.464  34.270  1.00  0.00     0.167 HD
ATOM     66  C   UNL A   1      43.041  28.302  33.283  1.00  0.00     0.074 A 
ATOM     67  C   UNL A   1      43.552  27.277  32.396  1.00  0.00     0.031 C 
ATOM     68  C   UNL A   1      43.571  28.593  34.497  1.00  0.00     0.034 A 
BRANCH  55  69
ATOM     69  C   UNL A   1      40.851  33.351  37.354  1.00  0.00     0.023 A 
ATOM     70  C   UNL A   1      41.649  34.513  37.337  1.00  0.00     0.012 A 
ATOM     71  C   UNL A   1      40.001  33.113  38.452  1.00  0.00     0.148 A 
ATOM     72  C   UNL A   1      41.632  35.404  38.410  1.00  0.00     0.002 A 
ATOM     73  C   UNL A   1      39.953  34.030  39.497  1.00  0.00     0.091 A 
ATOM     74  F   UNL A   1      39.264  31.994  38.461  1.00  0.00    -0.205 F 
ATOM     75  C   UNL A   1      40.777  35.168  39.483  1.00  0.00     0.022 A 
BRANCH  73  76
ATOM     76  S   UNL A   1      38.827  33.862  40.885  1.00  0.00     0.127 S 
ATOM     77  O   UNL A   1      39.016  35.139  41.574  1.00  0.00    -0.237 OA
ATOM     78  O   UNL A   1      37.535  33.715  40.216  1.00  0.00    -0.237 OA
ATOM     79  O   UNL A   1      39.269  32.686  41.622  1.00  0.00    -0.744 OA
ENDBRANCH  73  76
ENDBRANCH  55  69
BRANCH  56  80
ATOM     80  C   UNL A   1      40.871  27.640  29.156  1.00  0.00     0.023 A 
ATOM     81  C   UNL A   1      39.985  26.555  29.018  1.00  0.00     0.012 A 
ATOM     82  C   UNL A   1      41.763  27.936  28.107  1.00  0.00     0.148 A 
ATOM     83  C   UNL A   1      40.011  25.754  27.876  1.00  0.00     0.002 A 
ATOM     84  C   UNL A   1      41.744  27.169  26.947  1.00  0.00     0.091 A 
ATOM     85  F   UNL A   1      42.604  28.968  28.261  1.00  0.00    -0.205 F 
ATOM     86  C   UNL A   1      40.884  26.067  26.837  1.00  0.00     0.022 A 
BRANCH  84  87
ATOM     87  S   UNL A   1      42.741  27.576  25.509  1.00  0.00     0.127 S 
ATOM     88  O   UNL A   1      42.094  28.794  25.029  1.00  0.00    -0.237 OA
ATOM     89  O   UNL A   1      44.063  27.774  26.106  1.00  0.00    -0.237 OA
ATOM     90  O   UNL A   1      42.650  26.421  24.626  1.00  0.00    -0.744 OA
ENDBRANCH  84  87
ENDBRANCH  56  80
BRANCH  68  91
ATOM     91  C   UNL A   1      44.740  27.767  34.968  1.00  0.00     0.023 A 
ATOM     92  C   UNL A   1      46.049  28.279  34.877  1.00  0.00     0.012 A 
ATOM     93  C   UNL A   1      44.530  26.509  35.568  1.00  0.00     0.148 A 
ATOM     94  C   UNL A   1      47.134  27.538  35.344  1.00  0.00     0.002 A 
ATOM     95  C   UNL A   1      45.609  25.800  36.079  1.00  0.00     0.091 A 
ATOM     96  F   UNL A   1      43.278  26.030  35.630  1.00  0.00    -0.205 F 
ATOM     97  C   UNL A   1      46.913  26.306  35.956  1.00  0.00     0.022 A 
BRANCH  95  98
ATOM     98  S   UNL A   1      45.411  24.253  36.971  1.00  0.00     0.127 S 
ATOM     99  O   UNL A   1      44.715  24.693  38.179  1.00  0.00    -0.237 OA
ATOM    100  O   UNL A   1      44.592  23.467  36.047  1.00  0.00    -0.237 OA
ATOM    101  O   UNL A   1      46.756  23.733  37.180  1.00  0.00    -0.744 OA
ENDBRANCH  95  98
ENDBRANCH  68  91
ENDBRANCH  42  43
ENDBRANCH  34  37
ENDBRANCH  32  33
ENDBRANCH  31  32
ENDBRANCH  30  31
ENDBRANCH   1  30
TORSDOF 21
ENDMDL
MODEL 3
REMARK VINA RESULT:     -10.6      3.579      5.090
REMARK SMILES C[NH2+][C@]1(C(=O)NCCCCCCNC(=O)c2ccc(-c3c4nc(c(-c5cccc(S(=O)(=O)[O-])c5F)c5ccc([nH]5)c(-c5cccc(S(=O)(=O)[O-])c5F)c5nc(c(-c6cccc(S(=O)(=O)[O-])c6F)c6ccc3[nH]6)C=C5)C=C4)cc2)CCC[C@@H]1CC[N@H+]1CCC[C@H]([NH+](C)C)C1
REMARK SMILES IDX 9 1 8 2 7 3 6 4 4 5 5 6 3 8 79 9 82 10 80 11 81 12 2 13 1 14
REMARK SMILES IDX 83 17 84 18 85 19 86 20 93 21 87 23 89 24 88 25 90 26 91 27
REMARK SMILES IDX 92 28 10 30 11 31 12 32 13 33 14 34 15 36 16 37 17 38 78 39
REMARK SMILES IDX 18 40 77 41 19 42 20 43 21 44 71 45 22 46 76 47 70 48 72 49
REMARK SMILES IDX 23 50 75 51 69 52 68 53 24 55 56 56 36 57 55 58 37 59 40 60
REMARK SMILES IDX 54 61 73 62 38 63 39 64 53 66 74 67 41 68 25 69 26 70 34 71
REMARK SMILES IDX 27 72 29 73 35 74 28 75 30 76 31 77 32 78 33 79 57 80 58 81
REMARK SMILES IDX 66 82 59 83 61 84 67 85 60 86 62 87 63 88 64 89 65 90 42 91
REMARK SMILES IDX 43 92 51 93 44 94 46 95 52 96 45 97 47 98 48 99 49 100
REMARK SMILES IDX 50 101
REMARK H PARENT 6 7 2 15 2 16 85 22 90 29 13 35 72 54 40 65
REMARK Flexibility Score: inf
ROOT
ATOM      1  C   UNL A   1      34.926  31.977  28.594  1.00  0.00     0.002 C 
ENDROOT
BRANCH   1   2
ATOM      2  C   UNL A   1      34.767  30.759  27.676  1.00  0.00     0.021 C 
BRANCH   2   3
ATOM      3  C   UNL A   1      33.391  30.672  27.017  1.00  0.00     0.116 C 
BRANCH   3   4
ATOM      4  N   UNL A   1      32.606  29.606  27.621  1.00  0.00    -0.351 N 
ATOM      5  C   UNL A   1      31.975  28.500  27.126  1.00  0.00     0.281 C 
ATOM      6  O   UNL A   1      31.405  27.808  27.981  1.00  0.00    -0.268 OA
ATOM      7  H   UNL A   1      32.508  29.703  28.597  1.00  0.00     0.163 HD
BRANCH   5   8
ATOM      8  C   UNL A   1      32.051  28.072  25.615  1.00  0.00     0.178 C 
ATOM      9  C   UNL A   1      31.794  29.270  24.668  1.00  0.00     0.079 C 
ATOM     10  C   UNL A   1      33.503  27.637  25.227  1.00  0.00     0.066 C 
ATOM     11  C   UNL A   1      32.521  28.926  23.370  1.00  0.00     0.008 C 
ATOM     12  C   UNL A   1      33.587  27.884  23.714  1.00  0.00     0.011 C 
BRANCH   8  13
ATOM     13  N   UNL A   1      30.926  27.152  25.258  1.00  0.00    -0.336 N 
ATOM     14  C   UNL A   1      30.859  25.838  25.858  1.00  0.00     0.331 C 
ATOM     15  H   UNL A   1      30.062  27.634  25.502  1.00  0.00     0.346 HD
ATOM     16  H   UNL A   1      31.087  26.954  24.270  1.00  0.00     0.346 HD
ENDBRANCH   8  13
BRANCH  10  17
ATOM     17  C   UNL A   1      33.935  26.216  25.643  1.00  0.00     0.072 C 
BRANCH  17  18
ATOM     18  C   UNL A   1      34.369  25.256  24.522  1.00  0.00     0.262 C 
BRANCH  18  19
ATOM     19  N   UNL A   1      33.633  23.994  24.368  1.00  0.00    -0.330 N 
ATOM     20  C   UNL A   1      33.510  23.467  23.009  1.00  0.00     0.262 C 
ATOM     21  C   UNL A   1      34.237  22.947  25.217  1.00  0.00     0.327 C 
ATOM     22  H   UNL A   1      32.683  24.235  24.653  1.00  0.00     0.348 HD
ATOM     23  C   UNL A   1      32.525  22.298  22.980  1.00  0.00     0.068 C 
ATOM     24  C   UNL A   1      33.341  21.685  25.356  1.00  0.00     0.239 C 
ATOM     25  C   UNL A   1      32.900  21.188  23.959  1.00  0.00     0.077 C 
BRANCH  24  26
ATOM     26  N   UNL A   1      32.237  21.764  26.345  1.00  0.00    -0.333 N 
ATOM     27  C   UNL A   1      32.580  22.645  27.467  1.00  0.00     0.332 C 
ATOM     28  C   UNL A   1      30.942  22.169  25.800  1.00  0.00     0.332 C 
ATOM     29  H   UNL A   1      32.131  20.802  26.666  1.00  0.00     0.348 HD
ENDBRANCH  24  26
ENDBRANCH  18  19
ENDBRANCH  17  18
ENDBRANCH  10  17
ENDBRANCH   5   8
ENDBRANCH   3   4
ENDBRANCH   2   3
ENDBRANCH   1   2
BRANCH   1  30
ATOM     30  C   UNL A   1      35.410  33.254  27.894  1.00  0.00     0.002 C 
BRANCH  30  31
ATOM     31  C   UNL A   1      34.454  34.446  27.988  1.00  0.00     0.021 C 
BRANCH  31  32
ATOM     32  C   UNL A   1      33.150  34.155  28.725  1.00  0.00     0.116 C 
BRANCH  32  33
ATOM     33  N   UNL A   1      32.905  35.112  29.793  1.00  0.00    -0.352 N 
ATOM     34  C   UNL A   1      33.470  35.181  31.043  1.00  0.00     0.251 C 
ATOM     35  H   UNL A   1      32.241  35.810  29.591  1.00  0.00     0.163 HD
ATOM     36  O   UNL A   1      32.996  35.926  31.892  1.00  0.00    -0.269 OA
BRANCH  34  37
ATOM     37  C   UNL A   1      34.645  34.340  31.361  1.00  0.00     0.039 A 
ATOM     38  C   UNL A   1      35.921  34.812  31.044  1.00  0.00     0.014 A 
ATOM     39  C   UNL A   1      34.485  33.091  31.965  1.00  0.00     0.014 A 
ATOM     40  C   UNL A   1      37.042  34.051  31.385  1.00  0.00     0.010 A 
ATOM     41  C   UNL A   1      35.605  32.370  32.371  1.00  0.00     0.010 A 
ATOM     42  C   UNL A   1      36.895  32.838  32.078  1.00  0.00    -0.014 A 
BRANCH  42  43
ATOM     43  C   UNL A   1      38.078  32.051  32.513  1.00  0.00     0.031 A 
ATOM     44  C   UNL A   1      38.783  32.384  33.800  1.00  0.00     0.074 A 
ATOM     45  C   UNL A   1      38.567  31.088  31.706  1.00  0.00     0.049 A 
ATOM     46  N   UNL A   1      39.857  31.845  34.315  1.00  0.00    -0.248 NA
ATOM     47  C   UNL A   1      38.223  33.486  34.602  1.00  0.00     0.031 C 
ATOM     48  C   UNL A   1      38.019  30.720  30.398  1.00  0.00     0.029 A 
ATOM     49  N   UNL A   1      39.651  30.258  31.855  1.00  0.00    -0.354 N 
ATOM     50  C   UNL A   1      40.122  32.559  35.477  1.00  0.00     0.074 A 
ATOM     51  C   UNL A   1      39.117  33.594  35.574  1.00  0.00     0.031 C 
ATOM     52  C   UNL A   1      38.764  29.737  29.869  1.00  0.00     0.029 A 
ATOM     53  C   UNL A   1      39.861  29.427  30.780  1.00  0.00     0.049 A 
ATOM     54  H   UNL A   1      40.223  30.259  32.656  1.00  0.00     0.167 HD
ATOM     55  C   UNL A   1      41.097  32.355  36.396  1.00  0.00     0.034 A 
ATOM     56  C   UNL A   1      40.834  28.524  30.547  1.00  0.00     0.034 A 
ATOM     57  C   UNL A   1      42.072  31.302  36.314  1.00  0.00     0.049 A 
ATOM     58  C   UNL A   1      41.887  28.298  31.598  1.00  0.00     0.074 A 
ATOM     59  C   UNL A   1      43.046  30.960  37.235  1.00  0.00     0.029 A 
ATOM     60  N   UNL A   1      42.207  30.429  35.246  1.00  0.00    -0.354 N 
ATOM     61  N   UNL A   1      42.029  28.880  32.764  1.00  0.00    -0.248 NA
ATOM     62  C   UNL A   1      42.895  27.266  31.316  1.00  0.00     0.031 C 
ATOM     63  C   UNL A   1      43.792  29.899  36.708  1.00  0.00     0.029 A 
ATOM     64  C   UNL A   1      43.257  29.557  35.477  1.00  0.00     0.049 A 
ATOM     65  H   UNL A   1      41.641  30.430  34.441  1.00  0.00     0.167 HD
ATOM     66  C   UNL A   1      43.114  28.260  33.371  1.00  0.00     0.074 A 
ATOM     67  C   UNL A   1      43.582  27.243  32.451  1.00  0.00     0.031 C 
ATOM     68  C   UNL A   1      43.682  28.517  34.575  1.00  0.00     0.034 A 
BRANCH  55  69
ATOM     69  C   UNL A   1      41.130  33.266  37.597  1.00  0.00     0.023 A 
ATOM     70  C   UNL A   1      42.058  34.327  37.644  1.00  0.00     0.012 A 
ATOM     71  C   UNL A   1      40.205  33.111  38.648  1.00  0.00     0.148 A 
ATOM     72  C   UNL A   1      42.090  35.196  38.734  1.00  0.00     0.002 A 
ATOM     73  C   UNL A   1      40.211  34.011  39.709  1.00  0.00     0.091 A 
ATOM     74  F   UNL A   1      39.343  32.086  38.596  1.00  0.00    -0.205 F 
ATOM     75  C   UNL A   1      41.161  35.044  39.760  1.00  0.00     0.022 A 
BRANCH  73  76
ATOM     76  S   UNL A   1      39.005  33.953  41.038  1.00  0.00     0.127 S 
ATOM     77  O   UNL A   1      39.408  32.739  41.748  1.00  0.00    -0.237 OA
ATOM     78  O   UNL A   1      39.278  35.198  41.754  1.00  0.00    -0.237 OA
ATOM     79  O   UNL A   1      37.700  33.894  40.395  1.00  0.00    -0.744 OA
ENDBRANCH  73  76
ENDBRANCH  55  69
BRANCH  56  80
ATOM     80  C   UNL A   1      40.824  27.722  29.291  1.00  0.00     0.023 A 
ATOM     81  C   UNL A   1      39.919  26.650  29.159  1.00  0.00     0.012 A 
ATOM     82  C   UNL A   1      41.687  28.027  28.221  1.00  0.00     0.148 A 
ATOM     83  C   UNL A   1      39.900  25.873  28.002  1.00  0.00     0.002 A 
ATOM     84  C   UNL A   1      41.623  27.284  27.047  1.00  0.00     0.091 A 
ATOM     85  F   UNL A   1      42.546  29.045  28.369  1.00  0.00    -0.205 F 
ATOM     86  C   UNL A   1      40.745  26.195  26.942  1.00  0.00     0.022 A 
BRANCH  84  87
ATOM     87  S   UNL A   1      42.581  27.706  25.588  1.00  0.00     0.127 S 
ATOM     88  O   UNL A   1      42.351  26.546  24.731  1.00  0.00    -0.237 OA
ATOM     89  O   UNL A   1      41.927  28.939  25.145  1.00  0.00    -0.237 OA
ATOM     90  O   UNL A   1      43.950  27.887  26.052  1.00  0.00    -0.744 OA
ENDBRANCH  84  87
ENDBRANCH  56  80
BRANCH  68  91
ATOM     91  C   UNL A   1      44.846  27.659  34.998  1.00  0.00     0.023 A 
ATOM     92  C   UNL A   1      46.165  28.111  34.798  1.00  0.00     0.012 A 
ATOM     93  C   UNL A   1      44.628  26.435  35.662  1.00  0.00     0.148 A 
ATOM     94  C   UNL A   1      47.249  27.342  35.220  1.00  0.00     0.002 A 
ATOM     95  C   UNL A   1      45.712  25.699  36.126  1.00  0.00     0.091 A 
ATOM     96  F   UNL A   1      43.365  26.012  35.828  1.00  0.00    -0.205 F 
ATOM     97  C   UNL A   1      47.023  26.145  35.894  1.00  0.00     0.022 A 
BRANCH  95  98
ATOM     98  S   UNL A   1      45.515  24.197  37.091  1.00  0.00     0.127 S 
ATOM     99  O   UNL A   1      44.716  24.671  38.220  1.00  0.00    -0.237 OA
ATOM    100  O   UNL A   1      44.796  23.325  36.160  1.00  0.00    -0.237 OA
ATOM    101  O   UNL A   1      46.861  23.750  37.421  1.00  0.00    -0.744 OA
ENDBRANCH  95  98
ENDBRANCH  68  91
ENDBRANCH  42  43
ENDBRANCH  34  37
ENDBRANCH  32  33
ENDBRANCH  31  32
ENDBRANCH  30  31
ENDBRANCH   1  30
TORSDOF 21
ENDMDL
