MODEL 1
REMARK VINA RESULT:     -12.1      0.000      0.000
REMARK SMILES O=C(NCCCCCCNC(=O)[C@@H](NC(=O)[C@H]1CC[C@@H]2CCCC[C@H]2[NH2+]1)C1CC1)c1ccc(-c2c3nc(c(-c4cccc(S(=O)(=O)[O-])c4F)c4ccc([nH]4)c(-c4cccc(S(=O)(=O)[O-])c4F)c4nc(c(-c5cccc(S(=O)(=O)[O-])c5F)c5ccc2[nH]5)C=C4)C=C3)cc1
REMARK SMILES IDX 6 1 5 2 4 3 3 4 1 5 2 6 30 8 31 9 92 10 32 11 91 12 33 13
REMARK SMILES IDX 34 14 35 15 85 16 36 17 90 18 84 19 86 20 37 21 89 22 83 23
REMARK SMILES IDX 82 24 38 26 70 27 50 28 69 29 51 30 54 31 68 32 87 33 52 34
REMARK SMILES IDX 53 35 67 37 88 38 55 39 39 40 40 41 48 42 41 43 43 44 49 45
REMARK SMILES IDX 42 46 44 47 45 48 46 49 47 50 71 51 72 52 80 53 73 54 75 55
REMARK SMILES IDX 81 56 74 57 76 58 77 59 78 60 79 61 56 62 57 63 65 64 58 65
REMARK SMILES IDX 60 66 66 67 59 68 61 69 62 70 63 71 64 72 7 73 8 74 9 75
REMARK SMILES IDX 10 76 11 77 12 79 13 80 14 81 15 82 16 84 17 85 18 86 26 87
REMARK SMILES IDX 19 88 25 89 20 92 24 93 21 94 23 95 22 96 27 97 28 98 29 99
REMARK H PARENT 3 7 86 25 54 36 10 78 14 83 26 90 26 91
REMARK Flexibility Score: inf
ROOT
ATOM      1  C   UNL A   1      35.474  23.363  26.158  1.00  0.00     0.002 C 
ENDROOT
BRANCH   1   2
ATOM      2  C   UNL A   1      36.068  21.986  25.859  1.00  0.00     0.021 C 
BRANCH   2   3
ATOM      3  C   UNL A   1      37.389  21.973  25.100  1.00  0.00     0.116 C 
BRANCH   3   4
ATOM      4  N   UNL A   1      38.299  20.930  25.542  1.00  0.00    -0.352 N 
ATOM      5  O   UNL A   1      40.160  20.029  26.428  1.00  0.00    -0.269 OA
ATOM      6  C   UNL A   1      39.481  21.031  26.242  1.00  0.00     0.251 C 
ATOM      7  H   UNL A   1      38.031  20.013  25.304  1.00  0.00     0.163 HD
BRANCH   6   8
ATOM      8  C   UNL A   1      39.947  22.351  26.729  1.00  0.00     0.039 A 
ATOM      9  C   UNL A   1      39.451  23.539  26.189  1.00  0.00     0.014 A 
ATOM     10  C   UNL A   1      40.905  22.396  27.746  1.00  0.00     0.014 A 
ATOM     11  C   UNL A   1      40.029  24.755  26.542  1.00  0.00     0.010 A 
ATOM     12  C   UNL A   1      41.422  23.627  28.164  1.00  0.00     0.010 A 
ATOM     13  C   UNL A   1      41.025  24.815  27.532  1.00  0.00    -0.014 A 
BRANCH  13  14
ATOM     14  C   UNL A   1      41.603  26.133  27.907  1.00  0.00     0.031 A 
ATOM     15  C   UNL A   1      42.999  26.522  27.495  1.00  0.00     0.074 A 
ATOM     16  C   UNL A   1      40.847  26.997  28.614  1.00  0.00     0.049 A 
ATOM     17  N   UNL A   1      43.623  27.657  27.680  1.00  0.00    -0.248 NA
ATOM     18  C   UNL A   1      43.804  25.507  26.798  1.00  0.00     0.031 C 
ATOM     19  C   UNL A   1      39.501  26.718  29.117  1.00  0.00     0.029 A 
ATOM     20  N   UNL A   1      41.094  28.283  29.024  1.00  0.00    -0.354 N 
ATOM     21  C   UNL A   1      44.903  27.482  27.165  1.00  0.00     0.074 A 
ATOM     22  C   UNL A   1      44.970  26.126  26.666  1.00  0.00     0.031 C 
ATOM     23  C   UNL A   1      39.025  27.811  29.732  1.00  0.00     0.029 A 
ATOM     24  C   UNL A   1      40.045  28.853  29.706  1.00  0.00     0.049 A 
ATOM     25  H   UNL A   1      41.941  28.752  28.848  1.00  0.00     0.167 HD
ATOM     26  C   UNL A   1      45.921  28.373  27.098  1.00  0.00     0.034 A 
ATOM     27  C   UNL A   1      39.913  30.079  30.247  1.00  0.00     0.034 A 
ATOM     28  C   UNL A   1      45.834  29.738  27.547  1.00  0.00     0.049 A 
ATOM     29  C   UNL A   1      41.039  31.063  30.106  1.00  0.00     0.074 A 
ATOM     30  C   UNL A   1      46.784  30.740  27.449  1.00  0.00     0.029 A 
ATOM     31  N   UNL A   1      44.734  30.295  28.182  1.00  0.00    -0.354 N 
ATOM     32  N   UNL A   1      42.185  30.922  29.486  1.00  0.00    -0.248 NA
ATOM     33  C   UNL A   1      40.840  32.387  30.711  1.00  0.00     0.031 C 
ATOM     34  C   UNL A   1      46.266  31.898  28.038  1.00  0.00     0.029 A 
ATOM     35  C   UNL A   1      44.984  31.623  28.488  1.00  0.00     0.049 A 
ATOM     36  H   UNL A   1      43.898  29.817  28.386  1.00  0.00     0.167 HD
ATOM     37  C   UNL A   1      42.833  32.146  29.601  1.00  0.00     0.074 A 
ATOM     38  C   UNL A   1      41.938  33.024  30.327  1.00  0.00     0.031 C 
ATOM     39  C   UNL A   1      44.064  32.502  29.161  1.00  0.00     0.034 A 
BRANCH  26  40
ATOM     40  C   UNL A   1      47.216  27.919  26.472  1.00  0.00     0.023 A 
ATOM     41  C   UNL A   1      48.236  27.392  27.289  1.00  0.00     0.012 A 
ATOM     42  C   UNL A   1      47.395  27.945  25.075  1.00  0.00     0.148 A 
ATOM     43  C   UNL A   1      49.425  26.925  26.729  1.00  0.00     0.002 A 
ATOM     44  C   UNL A   1      48.567  27.441  24.521  1.00  0.00     0.091 A 
ATOM     45  F   UNL A   1      46.423  28.470  24.314  1.00  0.00    -0.205 F 
ATOM     46  C   UNL A   1      49.587  26.940  25.346  1.00  0.00     0.022 A 
BRANCH  44  47
ATOM     47  S   UNL A   1      48.833  27.348  22.745  1.00  0.00     0.127 S 
ATOM     48  O   UNL A   1      50.281  27.532  22.654  1.00  0.00    -0.237 OA
ATOM     49  O   UNL A   1      48.371  25.995  22.433  1.00  0.00    -0.237 OA
ATOM     50  O   UNL A   1      48.023  28.410  22.166  1.00  0.00    -0.744 OA
ENDBRANCH  44  47
ENDBRANCH  26  40
BRANCH  27  51
ATOM     51  C   UNL A   1      38.632  30.462  30.904  1.00  0.00     0.023 A 
ATOM     52  C   UNL A   1      38.452  30.188  32.274  1.00  0.00     0.012 A 
ATOM     53  C   UNL A   1      37.618  31.137  30.198  1.00  0.00     0.148 A 
ATOM     54  C   UNL A   1      37.274  30.560  32.924  1.00  0.00     0.002 A 
ATOM     55  C   UNL A   1      36.472  31.556  30.866  1.00  0.00     0.091 A 
ATOM     56  F   UNL A   1      37.800  31.372  28.891  1.00  0.00    -0.205 F 
ATOM     57  C   UNL A   1      36.292  31.255  32.224  1.00  0.00     0.022 A 
BRANCH  55  58
ATOM     58  S   UNL A   1      35.226  32.579  30.072  1.00  0.00     0.127 S 
ATOM     59  O   UNL A   1      36.020  33.715  29.613  1.00  0.00    -0.237 OA
ATOM     60  O   UNL A   1      34.738  31.698  29.011  1.00  0.00    -0.237 OA
ATOM     61  O   UNL A   1      34.242  32.864  31.109  1.00  0.00    -0.744 OA
ENDBRANCH  55  58
ENDBRANCH  27  51
BRANCH  39  62
ATOM     62  C   UNL A   1      44.511  33.916  29.427  1.00  0.00     0.023 A 
ATOM     63  C   UNL A   1      45.215  34.215  30.610  1.00  0.00     0.012 A 
ATOM     64  C   UNL A   1      44.286  34.934  28.481  1.00  0.00     0.148 A 
ATOM     65  C   UNL A   1      45.657  35.512  30.864  1.00  0.00     0.002 A 
ATOM     66  C   UNL A   1      44.770  36.216  28.719  1.00  0.00     0.091 A 
ATOM     67  F   UNL A   1      43.594  34.639  27.371  1.00  0.00    -0.205 F 
ATOM     68  C   UNL A   1      45.446  36.509  29.915  1.00  0.00     0.022 A 
BRANCH  66  69
ATOM     69  S   UNL A   1      44.619  37.532  27.506  1.00  0.00     0.127 S 
ATOM     70  O   UNL A   1      45.747  37.253  26.621  1.00  0.00    -0.237 OA
ATOM     71  O   UNL A   1      43.304  37.272  26.918  1.00  0.00    -0.237 OA
ATOM     72  O   UNL A   1      44.700  38.775  28.262  1.00  0.00    -0.744 OA
ENDBRANCH  66  69
ENDBRANCH  39  62
ENDBRANCH  13  14
ENDBRANCH   6   8
ENDBRANCH   3   4
ENDBRANCH   2   3
ENDBRANCH   1   2
BRANCH   1  73
ATOM     73  C   UNL A   1      35.658  24.438  25.082  1.00  0.00     0.002 C 
BRANCH  73  74
ATOM     74  C   UNL A   1      34.511  24.610  24.084  1.00  0.00     0.021 C 
BRANCH  74  75
ATOM     75  C   UNL A   1      34.274  23.439  23.140  1.00  0.00     0.116 C 
BRANCH  75  76
ATOM     76  N   UNL A   1      32.876  23.169  22.889  1.00  0.00    -0.354 N 
ATOM     77  C   UNL A   1      31.908  22.676  23.713  1.00  0.00     0.242 C 
ATOM     78  H   UNL A   1      32.574  23.373  21.975  1.00  0.00     0.163 HD
ATOM     79  O   UNL A   1      30.741  22.787  23.310  1.00  0.00    -0.273 OA
BRANCH  77  80
ATOM     80  C   UNL A   1      32.181  22.135  25.153  1.00  0.00     0.174 C 
BRANCH  80  81
ATOM     81  N   UNL A   1      31.069  22.241  26.106  1.00  0.00    -0.339 N 
ATOM     82  C   UNL A   1      30.359  23.214  26.740  1.00  0.00     0.278 C 
ATOM     83  H   UNL A   1      30.741  21.348  26.358  1.00  0.00     0.164 HD
ATOM     84  O   UNL A   1      29.525  22.819  27.562  1.00  0.00    -0.268 OA
BRANCH  82  85
ATOM     85  C   UNL A   1      30.559  24.707  26.436  1.00  0.00     0.272 C 
ATOM     86  C   UNL A   1      32.030  25.132  26.550  1.00  0.00     0.076 C 
ATOM     87  N   UNL A   1      30.097  25.025  25.069  1.00  0.00    -0.333 N 
ATOM     88  C   UNL A   1      32.175  26.636  26.300  1.00  0.00     0.016 C 
ATOM     89  C   UNL A   1      30.089  26.477  24.874  1.00  0.00     0.186 C 
ATOM     90  H   UNL A   1      29.154  24.660  24.936  1.00  0.00     0.347 HD
ATOM     91  H   UNL A   1      30.728  24.597  24.391  1.00  0.00     0.347 HD
ATOM     92  C   UNL A   1      31.516  27.042  24.973  1.00  0.00     0.048 C 
ATOM     93  C   UNL A   1      29.462  26.822  23.520  1.00  0.00     0.065 C 
ATOM     94  C   UNL A   1      31.479  28.566  24.802  1.00  0.00     0.010 C 
ATOM     95  C   UNL A   1      29.425  28.336  23.322  1.00  0.00     0.006 C 
ATOM     96  C   UNL A   1      30.807  28.965  23.486  1.00  0.00     0.001 C 
ENDBRANCH  82  85
ENDBRANCH  80  81
BRANCH  80  97
ATOM     97  C   UNL A   1      32.937  20.831  25.129  1.00  0.00     0.021 C 
ATOM     98  C   UNL A   1      32.184  19.519  25.072  1.00  0.00     0.006 C 
ATOM     99  C   UNL A   1      32.992  19.963  23.892  1.00  0.00     0.006 C 
ENDBRANCH  80  97
ENDBRANCH  77  80
ENDBRANCH  75  76
ENDBRANCH  74  75
ENDBRANCH  73  74
ENDBRANCH   1  73
TORSDOF 19
ENDMDL
MODEL 2
REMARK VINA RESULT:     -12.1      5.442     10.391
REMARK SMILES O=C(NCCCCCCNC(=O)[C@@H](NC(=O)[C@H]1CC[C@@H]2CCCC[C@H]2[NH2+]1)C1CC1)c1ccc(-c2c3nc(c(-c4cccc(S(=O)(=O)[O-])c4F)c4ccc([nH]4)c(-c4cccc(S(=O)(=O)[O-])c4F)c4nc(c(-c5cccc(S(=O)(=O)[O-])c5F)c5ccc2[nH]5)C=C4)C=C3)cc1
REMARK SMILES IDX 6 1 5 2 4 3 3 4 1 5 2 6 30 8 31 9 92 10 32 11 91 12 33 13
REMARK SMILES IDX 34 14 35 15 85 16 36 17 90 18 84 19 86 20 37 21 89 22 83 23
REMARK SMILES IDX 82 24 38 26 70 27 50 28 69 29 51 30 54 31 68 32 87 33 52 34
REMARK SMILES IDX 53 35 67 37 88 38 55 39 39 40 40 41 48 42 41 43 43 44 49 45
REMARK SMILES IDX 42 46 44 47 45 48 46 49 47 50 71 51 72 52 80 53 73 54 75 55
REMARK SMILES IDX 81 56 74 57 76 58 77 59 78 60 79 61 56 62 57 63 65 64 58 65
REMARK SMILES IDX 60 66 66 67 59 68 61 69 62 70 63 71 64 72 7 73 8 74 9 75
REMARK SMILES IDX 10 76 11 77 12 79 13 80 14 81 15 82 16 84 17 85 18 86 26 87
REMARK SMILES IDX 19 88 25 89 20 92 24 93 21 94 23 95 22 96 27 97 28 98 29 99
REMARK H PARENT 3 7 86 25 54 36 10 78 14 83 26 90 26 91
REMARK Flexibility Score: inf
ROOT
ATOM      1  C   UNL A   1      31.442  30.744  25.629  1.00  0.00     0.002 C 
ENDROOT
BRANCH   1   2
ATOM      2  C   UNL A   1      31.430  31.650  26.861  1.00  0.00     0.021 C 
BRANCH   2   3
ATOM      3  C   UNL A   1      32.729  32.384  27.169  1.00  0.00     0.116 C 
BRANCH   3   4
ATOM      4  N   UNL A   1      32.529  33.754  27.606  1.00  0.00    -0.352 N 
ATOM      5  O   UNL A   1      32.829  35.611  28.840  1.00  0.00    -0.269 OA
ATOM      6  C   UNL A   1      33.226  34.494  28.536  1.00  0.00     0.251 C 
ATOM      7  H   UNL A   1      31.781  34.226  27.173  1.00  0.00     0.163 HD
BRANCH   6   8
ATOM      8  C   UNL A   1      34.424  33.921  29.195  1.00  0.00     0.039 A 
ATOM      9  C   UNL A   1      35.706  34.395  28.906  1.00  0.00     0.014 A 
ATOM     10  C   UNL A   1      34.259  32.885  30.117  1.00  0.00     0.014 A 
ATOM     11  C   UNL A   1      36.821  33.728  29.406  1.00  0.00     0.010 A 
ATOM     12  C   UNL A   1      35.379  32.272  30.689  1.00  0.00     0.010 A 
ATOM     13  C   UNL A   1      36.672  32.655  30.301  1.00  0.00    -0.014 A 
BRANCH  13  14
ATOM     14  C   UNL A   1      37.883  31.982  30.840  1.00  0.00     0.031 A 
ATOM     15  C   UNL A   1      38.423  32.316  32.206  1.00  0.00     0.074 A 
ATOM     16  C   UNL A   1      38.491  31.039  30.091  1.00  0.00     0.049 A 
ATOM     17  N   UNL A   1      39.424  31.771  32.850  1.00  0.00    -0.248 NA
ATOM     18  C   UNL A   1      37.768  33.409  32.941  1.00  0.00     0.031 C 
ATOM     19  C   UNL A   1      38.095  30.663  28.733  1.00  0.00     0.029 A 
ATOM     20  N   UNL A   1      39.559  30.223  30.364  1.00  0.00    -0.354 N 
ATOM     21  C   UNL A   1      39.549  32.479  34.040  1.00  0.00     0.074 A 
ATOM     22  C   UNL A   1      38.523  33.500  34.028  1.00  0.00     0.031 C 
ATOM     23  C   UNL A   1      38.882  29.664  28.306  1.00  0.00     0.029 A 
ATOM     24  C   UNL A   1      39.864  29.357  29.340  1.00  0.00     0.049 A 
ATOM     25  H   UNL A   1      40.060  30.254  31.211  1.00  0.00     0.167 HD
ATOM     26  C   UNL A   1      40.422  32.284  35.057  1.00  0.00     0.034 A 
ATOM     27  C   UNL A   1      40.823  28.416  29.243  1.00  0.00     0.034 A 
ATOM     28  C   UNL A   1      41.406  31.233  35.090  1.00  0.00     0.049 A 
ATOM     29  C   UNL A   1      41.740  28.187  30.410  1.00  0.00     0.074 A 
ATOM     30  C   UNL A   1      42.283  30.905  36.110  1.00  0.00     0.029 A 
ATOM     31  N   UNL A   1      41.647  30.340  34.057  1.00  0.00    -0.354 N 
ATOM     32  N   UNL A   1      41.744  28.771  31.583  1.00  0.00    -0.248 NA
ATOM     33  C   UNL A   1      42.765  27.146  30.251  1.00  0.00     0.031 C 
ATOM     34  C   UNL A   1      43.064  29.824  35.688  1.00  0.00     0.029 A 
ATOM     35  C   UNL A   1      42.663  29.466  34.411  1.00  0.00     0.049 A 
ATOM     36  H   UNL A   1      41.167  30.328  33.197  1.00  0.00     0.167 HD
ATOM     37  C   UNL A   1      42.750  28.150  32.313  1.00  0.00     0.074 A 
ATOM     38  C   UNL A   1      43.315  27.127  31.458  1.00  0.00     0.031 C 
ATOM     39  C   UNL A   1      43.178  28.417  33.571  1.00  0.00     0.034 A 
BRANCH  26  40
ATOM     40  C   UNL A   1      40.330  33.200  36.252  1.00  0.00     0.023 A 
ATOM     41  C   UNL A   1      40.965  34.458  36.214  1.00  0.00     0.012 A 
ATOM     42  C   UNL A   1      39.558  32.849  37.377  1.00  0.00     0.148 A 
ATOM     43  C   UNL A   1      40.857  35.340  37.289  1.00  0.00     0.002 A 
ATOM     44  C   UNL A   1      39.424  33.751  38.428  1.00  0.00     0.091 A 
ATOM     45  F   UNL A   1      38.979  31.640  37.405  1.00  0.00    -0.205 F 
ATOM     46  C   UNL A   1      40.079  34.992  38.390  1.00  0.00     0.022 A 
BRANCH  44  47
ATOM     47  S   UNL A   1      38.380  33.421  39.854  1.00  0.00     0.127 S 
ATOM     48  O   UNL A   1      39.087  32.309  40.486  1.00  0.00    -0.237 OA
ATOM     49  O   UNL A   1      38.450  34.685  40.589  1.00  0.00    -0.237 OA
ATOM     50  O   UNL A   1      37.062  33.109  39.318  1.00  0.00    -0.744 OA
ENDBRANCH  44  47
ENDBRANCH  26  40
BRANCH  27  51
ATOM     51  C   UNL A   1      40.908  27.573  28.017  1.00  0.00     0.023 A 
ATOM     52  C   UNL A   1      41.562  28.079  26.877  1.00  0.00     0.012 A 
ATOM     53  C   UNL A   1      40.394  26.262  27.991  1.00  0.00     0.148 A 
ATOM     54  C   UNL A   1      41.681  27.302  25.724  1.00  0.00     0.002 A 
ATOM     55  C   UNL A   1      40.569  25.474  26.860  1.00  0.00     0.091 A 
ATOM     56  F   UNL A   1      39.760  25.806  29.080  1.00  0.00    -0.205 F 
ATOM     57  C   UNL A   1      41.198  25.996  25.720  1.00  0.00     0.022 A 
BRANCH  55  58
ATOM     58  S   UNL A   1      40.103  23.739  26.825  1.00  0.00     0.127 S 
ATOM     59  O   UNL A   1      40.992  23.211  25.794  1.00  0.00    -0.237 OA
ATOM     60  O   UNL A   1      40.417  23.310  28.188  1.00  0.00    -0.237 OA
ATOM     61  O   UNL A   1      38.681  23.726  26.509  1.00  0.00    -0.744 OA
ENDBRANCH  55  58
ENDBRANCH  27  51
BRANCH  39  62
ATOM     62  C   UNL A   1      44.298  27.569  34.115  1.00  0.00     0.023 A 
ATOM     63  C   UNL A   1      45.629  28.024  34.016  1.00  0.00     0.012 A 
ATOM     64  C   UNL A   1      44.030  26.355  34.776  1.00  0.00     0.148 A 
ATOM     65  C   UNL A   1      46.677  27.265  34.533  1.00  0.00     0.002 A 
ATOM     66  C   UNL A   1      45.076  25.626  35.330  1.00  0.00     0.091 A 
ATOM     67  F   UNL A   1      42.761  25.926  34.841  1.00  0.00    -0.205 F 
ATOM     68  C   UNL A   1      46.402  26.074  35.199  1.00  0.00     0.022 A 
BRANCH  66  69
ATOM     69  S   UNL A   1      44.795  24.130  36.283  1.00  0.00     0.127 S 
ATOM     70  O   UNL A   1      46.117  23.509  36.263  1.00  0.00    -0.237 OA
ATOM     71  O   UNL A   1      44.389  24.657  37.587  1.00  0.00    -0.237 OA
ATOM     72  O   UNL A   1      43.745  23.405  35.578  1.00  0.00    -0.744 OA
ENDBRANCH  66  69
ENDBRANCH  39  62
ENDBRANCH  13  14
ENDBRANCH   6   8
ENDBRANCH   3   4
ENDBRANCH   2   3
ENDBRANCH   1   2
BRANCH   1  73
ATOM     73  C   UNL A   1      31.457  29.234  25.887  1.00  0.00     0.002 C 
BRANCH  73  74
ATOM     74  C   UNL A   1      32.249  28.756  27.106  1.00  0.00     0.021 C 
BRANCH  74  75
ATOM     75  C   UNL A   1      33.740  28.544  26.884  1.00  0.00     0.116 C 
BRANCH  75  76
ATOM     76  N   UNL A   1      34.173  28.823  25.532  1.00  0.00    -0.354 N 
ATOM     77  C   UNL A   1      34.126  28.049  24.411  1.00  0.00     0.242 C 
ATOM     78  H   UNL A   1      34.564  29.716  25.401  1.00  0.00     0.163 HD
ATOM     79  O   UNL A   1      34.331  28.633  23.338  1.00  0.00    -0.273 OA
BRANCH  77  80
ATOM     80  C   UNL A   1      33.693  26.548  24.405  1.00  0.00     0.174 C 
BRANCH  80  81
ATOM     81  N   UNL A   1      33.545  25.922  23.085  1.00  0.00    -0.339 N 
ATOM     82  C   UNL A   1      32.577  25.741  22.145  1.00  0.00     0.278 C 
ATOM     83  H   UNL A   1      34.393  25.516  22.795  1.00  0.00     0.164 HD
ATOM     84  O   UNL A   1      32.896  25.044  21.177  1.00  0.00    -0.268 OA
BRANCH  82  85
ATOM     85  C   UNL A   1      31.186  26.385  22.264  1.00  0.00     0.272 C 
ATOM     86  C   UNL A   1      30.468  25.982  23.560  1.00  0.00     0.076 C 
ATOM     87  N   UNL A   1      31.293  27.858  22.240  1.00  0.00    -0.333 N 
ATOM     88  C   UNL A   1      29.065  26.596  23.608  1.00  0.00     0.016 C 
ATOM     89  C   UNL A   1      29.957  28.450  22.133  1.00  0.00     0.186 C 
ATOM     90  H   UNL A   1      31.855  28.145  21.438  1.00  0.00     0.347 HD
ATOM     91  H   UNL A   1      31.735  28.179  23.101  1.00  0.00     0.347 HD
ATOM     92  C   UNL A   1      29.117  28.113  23.376  1.00  0.00     0.048 C 
ATOM     93  C   UNL A   1      30.066  29.966  21.946  1.00  0.00     0.065 C 
ATOM     94  C   UNL A   1      27.713  28.711  23.225  1.00  0.00     0.010 C 
ATOM     95  C   UNL A   1      28.677  30.586  21.806  1.00  0.00     0.006 C 
ATOM     96  C   UNL A   1      27.770  30.220  22.978  1.00  0.00     0.001 C 
ENDBRANCH  82  85
ENDBRANCH  80  81
BRANCH  80  97
ATOM     97  C   UNL A   1      34.416  25.751  25.461  1.00  0.00     0.021 C 
ATOM     98  C   UNL A   1      33.797  24.484  26.013  1.00  0.00     0.006 C 
ATOM     99  C   UNL A   1      35.026  24.399  25.161  1.00  0.00     0.006 C 
ENDBRANCH  80  97
ENDBRANCH  77  80
ENDBRANCH  75  76
ENDBRANCH  74  75
ENDBRANCH  73  74
ENDBRANCH   1  73
TORSDOF 19
ENDMDL
MODEL 3
REMARK VINA RESULT:     -12.0      5.058     10.281
REMARK SMILES O=C(NCCCCCCNC(=O)[C@@H](NC(=O)[C@H]1CC[C@@H]2CCCC[C@H]2[NH2+]1)C1CC1)c1ccc(-c2c3nc(c(-c4cccc(S(=O)(=O)[O-])c4F)c4ccc([nH]4)c(-c4cccc(S(=O)(=O)[O-])c4F)c4nc(c(-c5cccc(S(=O)(=O)[O-])c5F)c5ccc2[nH]5)C=C4)C=C3)cc1
REMARK SMILES IDX 6 1 5 2 4 3 3 4 1 5 2 6 30 8 31 9 92 10 32 11 91 12 33 13
REMARK SMILES IDX 34 14 35 15 85 16 36 17 90 18 84 19 86 20 37 21 89 22 83 23
REMARK SMILES IDX 82 24 38 26 70 27 50 28 69 29 51 30 54 31 68 32 87 33 52 34
REMARK SMILES IDX 53 35 67 37 88 38 55 39 39 40 40 41 48 42 41 43 43 44 49 45
REMARK SMILES IDX 42 46 44 47 45 48 46 49 47 50 71 51 72 52 80 53 73 54 75 55
REMARK SMILES IDX 81 56 74 57 76 58 77 59 78 60 79 61 56 62 57 63 65 64 58 65
REMARK SMILES IDX 60 66 66 67 59 68 61 69 62 70 63 71 64 72 7 73 8 74 9 75
REMARK SMILES IDX 10 76 11 77 12 79 13 80 14 81 15 82 16 84 17 85 18 86 26 87
REMARK SMILES IDX 19 88 25 89 20 92 24 93 21 94 23 95 22 96 27 97 28 98 29 99
REMARK H PARENT 3 7 86 25 54 36 10 78 14 83 26 90 26 91
REMARK Flexibility Score: inf
ROOT
ATOM      1  C   UNL A   1      31.762  28.919  25.500  1.00  0.00     0.002 C 
ENDROOT
BRANCH   1   2
ATOM      2  C   UNL A   1      31.725  30.351  26.034  1.00  0.00     0.021 C 
BRANCH   2   3
ATOM      3  C   UNL A   1      32.911  30.782  26.887  1.00  0.00     0.116 C 
BRANCH   3   4
ATOM      4  N   UNL A   1      32.909  32.198  27.206  1.00  0.00    -0.352 N 
ATOM      5  O   UNL A   1      33.592  34.119  28.158  1.00  0.00    -0.269 OA
ATOM      6  C   UNL A   1      33.832  32.946  27.905  1.00  0.00     0.251 C 
ATOM      7  H   UNL A   1      32.131  32.701  26.874  1.00  0.00     0.163 HD
BRANCH   6   8
ATOM      8  C   UNL A   1      35.088  32.320  28.384  1.00  0.00     0.039 A 
ATOM      9  C   UNL A   1      35.090  31.046  28.956  1.00  0.00     0.014 A 
ATOM     10  C   UNL A   1      36.286  33.027  28.260  1.00  0.00     0.014 A 
ATOM     11  C   UNL A   1      36.249  30.555  29.551  1.00  0.00     0.010 A 
ATOM     12  C   UNL A   1      37.470  32.494  28.780  1.00  0.00     0.010 A 
ATOM     13  C   UNL A   1      37.454  31.275  29.474  1.00  0.00    -0.014 A 
BRANCH  13  14
ATOM     14  C   UNL A   1      38.681  30.710  30.096  1.00  0.00     0.031 A 
ATOM     15  C   UNL A   1      39.128  31.133  31.470  1.00  0.00     0.074 A 
ATOM     16  C   UNL A   1      39.390  29.788  29.414  1.00  0.00     0.049 A 
ATOM     17  N   UNL A   1      40.132  30.686  32.182  1.00  0.00    -0.248 NA
ATOM     18  C   UNL A   1      38.361  32.202  32.130  1.00  0.00     0.031 C 
ATOM     19  C   UNL A   1      39.090  29.334  28.055  1.00  0.00     0.029 A 
ATOM     20  N   UNL A   1      40.498  29.061  29.769  1.00  0.00    -0.354 N 
ATOM     21  C   UNL A   1      40.147  31.443  33.348  1.00  0.00     0.074 A 
ATOM     22  C   UNL A   1      39.054  32.387  33.247  1.00  0.00     0.031 C 
ATOM     23  C   UNL A   1      39.965  28.380  27.706  1.00  0.00     0.029 A 
ATOM     24  C   UNL A   1      40.914  28.183  28.796  1.00  0.00     0.049 A 
ATOM     25  H   UNL A   1      40.953  29.160  30.636  1.00  0.00     0.167 HD
ATOM     26  C   UNL A   1      40.981  31.350  34.412  1.00  0.00     0.034 A 
ATOM     27  C   UNL A   1      41.940  27.312  28.781  1.00  0.00     0.034 A 
ATOM     28  C   UNL A   1      42.033  30.374  34.532  1.00  0.00     0.049 A 
ATOM     29  C   UNL A   1      42.813  27.192  29.998  1.00  0.00     0.074 A 
ATOM     30  C   UNL A   1      42.879  30.149  35.604  1.00  0.00     0.029 A 
ATOM     31  N   UNL A   1      42.387  29.464  33.548  1.00  0.00    -0.354 N 
ATOM     32  N   UNL A   1      42.717  27.817  31.146  1.00  0.00    -0.248 NA
ATOM     33  C   UNL A   1      43.915  26.223  29.930  1.00  0.00     0.031 C 
ATOM     34  C   UNL A   1      43.754  29.113  35.263  1.00  0.00     0.029 A 
ATOM     35  C   UNL A   1      43.443  28.680  33.984  1.00  0.00     0.049 A 
ATOM     36  H   UNL A   1      41.953  29.386  32.668  1.00  0.00     0.167 HD
ATOM     37  C   UNL A   1      43.727  27.298  31.947  1.00  0.00     0.074 A 
ATOM     38  C   UNL A   1      44.405  26.288  31.160  1.00  0.00     0.031 C 
ATOM     39  C   UNL A   1      44.072  27.640  33.212  1.00  0.00     0.034 A 
BRANCH  26  40
ATOM     40  C   UNL A   1      40.765  32.300  35.563  1.00  0.00     0.023 A 
ATOM     41  C   UNL A   1      41.608  33.420  35.707  1.00  0.00     0.012 A 
ATOM     42  C   UNL A   1      39.689  32.126  36.455  1.00  0.00     0.148 A 
ATOM     43  C   UNL A   1      41.401  34.336  36.738  1.00  0.00     0.002 A 
ATOM     44  C   UNL A   1      39.465  33.065  37.456  1.00  0.00     0.091 A 
ATOM     45  F   UNL A   1      38.909  31.043  36.316  1.00  0.00    -0.205 F 
ATOM     46  C   UNL A   1      40.325  34.165  37.605  1.00  0.00     0.022 A 
BRANCH  44  47
ATOM     47  S   UNL A   1      38.059  32.970  38.573  1.00  0.00     0.127 S 
ATOM     48  O   UNL A   1      38.451  31.865  39.446  1.00  0.00    -0.237 OA
ATOM     49  O   UNL A   1      38.079  34.287  39.211  1.00  0.00    -0.237 OA
ATOM     50  O   UNL A   1      36.897  32.727  37.729  1.00  0.00    -0.744 OA
ENDBRANCH  44  47
ENDBRANCH  26  40
BRANCH  27  51
ATOM     51  C   UNL A   1      42.145  26.432  27.596  1.00  0.00     0.023 A 
ATOM     52  C   UNL A   1      42.842  26.933  26.479  1.00  0.00     0.012 A 
ATOM     53  C   UNL A   1      41.703  25.096  27.588  1.00  0.00     0.148 A 
ATOM     54  C   UNL A   1      43.074  26.125  25.366  1.00  0.00     0.002 A 
ATOM     55  C   UNL A   1      41.988  24.279  26.500  1.00  0.00     0.091 A 
ATOM     56  F   UNL A   1      41.025  24.644  28.653  1.00  0.00    -0.205 F 
ATOM     57  C   UNL A   1      42.660  24.796  25.381  1.00  0.00     0.022 A 
BRANCH  55  58
ATOM     58  S   UNL A   1      41.615  22.522  26.502  1.00  0.00     0.127 S 
ATOM     59  O   UNL A   1      42.221  22.089  27.758  1.00  0.00    -0.237 OA
ATOM     60  O   UNL A   1      40.152  22.520  26.489  1.00  0.00    -0.237 OA
ATOM     61  O   UNL A   1      42.222  21.996  25.286  1.00  0.00    -0.744 OA
ENDBRANCH  55  58
ENDBRANCH  27  51
BRANCH  39  62
ATOM     62  C   UNL A   1      45.222  26.897  33.841  1.00  0.00     0.023 A 
ATOM     63  C   UNL A   1      46.530  27.409  33.727  1.00  0.00     0.012 A 
ATOM     64  C   UNL A   1      45.000  25.727  34.593  1.00  0.00     0.148 A 
ATOM     65  C   UNL A   1      47.603  26.748  34.322  1.00  0.00     0.002 A 
ATOM     66  C   UNL A   1      46.069  25.098  35.221  1.00  0.00     0.091 A 
ATOM     67  F   UNL A   1      43.752  25.241  34.671  1.00  0.00    -0.205 F 
ATOM     68  C   UNL A   1      47.373  25.601  35.077  1.00  0.00     0.022 A 
BRANCH  66  69
ATOM     69  S   UNL A   1      45.841  23.671  36.287  1.00  0.00     0.127 S 
ATOM     70  O   UNL A   1      45.422  22.648  35.332  1.00  0.00    -0.237 OA
ATOM     71  O   UNL A   1      47.181  23.474  36.842  1.00  0.00    -0.237 OA
ATOM     72  O   UNL A   1      44.840  24.068  37.268  1.00  0.00    -0.744 OA
ENDBRANCH  66  69
ENDBRANCH  39  62
ENDBRANCH  13  14
ENDBRANCH   6   8
ENDBRANCH   3   4
ENDBRANCH   2   3
ENDBRANCH   1   2
BRANCH   1  73
ATOM     73  C   UNL A   1      30.936  28.633  24.242  1.00  0.00     0.002 C 
BRANCH  73  74
ATOM     74  C   UNL A   1      31.650  28.805  22.900  1.00  0.00     0.021 C 
BRANCH  74  75
ATOM     75  C   UNL A   1      33.069  28.259  22.831  1.00  0.00     0.116 C 
BRANCH  75  76
ATOM     76  N   UNL A   1      33.278  27.317  21.753  1.00  0.00    -0.354 N 
ATOM     77  C   UNL A   1      33.159  25.959  21.729  1.00  0.00     0.242 C 
ATOM     78  H   UNL A   1      33.551  27.722  20.900  1.00  0.00     0.163 HD
ATOM     79  O   UNL A   1      33.150  25.434  20.607  1.00  0.00    -0.273 OA
BRANCH  77  80
ATOM     80  C   UNL A   1      32.891  25.085  22.996  1.00  0.00     0.174 C 
BRANCH  80  81
ATOM     81  N   UNL A   1      33.869  25.207  24.085  1.00  0.00    -0.339 N 
ATOM     82  C   UNL A   1      34.684  24.399  24.818  1.00  0.00     0.278 C 
ATOM     83  H   UNL A   1      33.963  26.145  24.365  1.00  0.00     0.164 HD
ATOM     84  O   UNL A   1      35.302  24.953  25.733  1.00  0.00    -0.268 OA
BRANCH  82  85
ATOM     85  C   UNL A   1      34.849  22.902  24.510  1.00  0.00     0.272 C 
ATOM     86  C   UNL A   1      35.960  22.255  25.348  1.00  0.00     0.076 C 
ATOM     87  N   UNL A   1      33.591  22.175  24.780  1.00  0.00    -0.333 N 
ATOM     88  C   UNL A   1      36.131  20.781  24.967  1.00  0.00     0.016 C 
ATOM     89  C   UNL A   1      33.695  20.803  24.278  1.00  0.00     0.186 C 
ATOM     90  H   UNL A   1      32.818  22.650  24.312  1.00  0.00     0.347 HD
ATOM     91  H   UNL A   1      33.422  22.155  25.786  1.00  0.00     0.347 HD
ATOM     92  C   UNL A   1      34.791  20.034  25.034  1.00  0.00     0.048 C 
ATOM     93  C   UNL A   1      32.345  20.092  24.408  1.00  0.00     0.065 C 
ATOM     94  C   UNL A   1      34.906  18.613  24.468  1.00  0.00     0.010 C 
ATOM     95  C   UNL A   1      32.439  18.670  23.861  1.00  0.00     0.006 C 
ATOM     96  C   UNL A   1      33.565  17.878  24.522  1.00  0.00     0.001 C 
ENDBRANCH  82  85
ENDBRANCH  80  81
BRANCH  80  97
ATOM     97  C   UNL A   1      31.434  25.091  23.385  1.00  0.00     0.021 C 
ATOM     98  C   UNL A   1      30.640  23.802  23.372  1.00  0.00     0.006 C 
ATOM     99  C   UNL A   1      30.951  24.470  24.677  1.00  0.00     0.006 C 
ENDBRANCH  80  97
ENDBRANCH  77  80
ENDBRANCH  75  76
ENDBRANCH  74  75
ENDBRANCH  73  74
ENDBRANCH   1  73
TORSDOF 19
ENDMDL
