MODEL 1
REMARK VINA RESULT:     -11.9      0.000      0.000
REMARK SMILES C[C@H](C(=O)NCCCCCCNC(=O)c1ccc(-c2c3nc(c(-c4cccc(S(=O)(=O)[O-])c4F)c4ccc([nH]4)c(-c4cccc(S(=O)(=O)[O-])c4F)c4nc(c(-c5cccc(S(=O)(=O)[O-])c5F)c5ccc2[nH]5)C=C4)C=C3)cc1)c1ccc(C[C@@H]2CCC[C@H]2O)cc1
REMARK SMILES IDX 8 1 7 2 6 3 5 4 3 5 4 6 2 8 1 9 78 10 79 11 90 12 80 13
REMARK SMILES IDX 89 14 81 15 82 16 83 17 84 18 87 19 85 20 86 21 88 22 9 24
REMARK SMILES IDX 10 25 11 26 12 27 13 28 14 30 15 31 16 32 77 33 17 34 76 35
REMARK SMILES IDX 18 36 19 37 20 38 70 39 21 40 75 41 69 42 71 43 22 44 74 45
REMARK SMILES IDX 68 46 67 47 23 49 55 50 35 51 54 52 36 53 39 54 53 55 72 56
REMARK SMILES IDX 37 57 38 58 52 60 73 61 40 62 24 63 25 64 33 65 26 66 28 67
REMARK SMILES IDX 34 68 27 69 29 70 30 71 31 72 32 73 56 74 57 75 65 76 58 77
REMARK SMILES IDX 60 78 66 79 59 80 61 81 62 82 63 83 64 84 41 85 42 86 50 87
REMARK SMILES IDX 43 88 45 89 51 90 44 91 46 92 47 93 48 94 49 95
REMARK H PARENT 5 7 88 23 12 29 71 48 39 59
REMARK Flexibility Score: inf
ROOT
ATOM      1  C   UNL A   1      30.104  28.298  23.391  1.00  0.00     0.002 C 
ENDROOT
BRANCH   1   2
ATOM      2  C   UNL A   1      30.595  26.902  22.990  1.00  0.00     0.021 C 
BRANCH   2   3
ATOM      3  C   UNL A   1      29.752  25.758  23.542  1.00  0.00     0.116 C 
BRANCH   3   4
ATOM      4  N   UNL A   1      29.975  25.559  24.964  1.00  0.00    -0.356 N 
ATOM      5  C   UNL A   1      31.131  25.369  25.662  1.00  0.00     0.227 C 
ATOM      6  O   UNL A   1      31.048  25.352  26.894  1.00  0.00    -0.274 OA
ATOM      7  H   UNL A   1      29.159  25.563  25.514  1.00  0.00     0.163 HD
BRANCH   5   8
ATOM      8  C   UNL A   1      32.476  25.144  24.968  1.00  0.00     0.105 C 
ATOM      9  C   UNL A   1      33.568  25.989  25.646  1.00  0.00     0.023 C 
BRANCH   8  10
ATOM     10  C   UNL A   1      32.892  23.695  24.739  1.00  0.00    -0.036 A 
ATOM     11  C   UNL A   1      32.057  22.744  24.138  1.00  0.00     0.005 A 
ATOM     12  C   UNL A   1      34.162  23.269  25.161  1.00  0.00     0.005 A 
ATOM     13  C   UNL A   1      32.398  21.390  24.126  1.00  0.00     0.004 A 
ATOM     14  C   UNL A   1      34.521  21.920  25.118  1.00  0.00     0.004 A 
ATOM     15  C   UNL A   1      33.612  20.959  24.663  1.00  0.00    -0.048 A 
BRANCH  15  16
ATOM     16  C   UNL A   1      33.914  19.487  24.787  1.00  0.00     0.041 C 
BRANCH  16  17
ATOM     17  C   UNL A   1      32.810  18.501  24.338  1.00  0.00     0.022 C 
ATOM     18  C   UNL A   1      32.577  17.318  25.289  1.00  0.00     0.007 C 
ATOM     19  C   UNL A   1      33.049  17.837  22.978  1.00  0.00     0.117 C 
ATOM     20  C   UNL A   1      33.220  16.086  24.651  1.00  0.00     0.003 C 
ATOM     21  C   UNL A   1      33.728  16.507  23.276  1.00  0.00     0.032 C 
BRANCH  19  22
ATOM     22  O   UNL A   1      31.802  17.590  22.328  1.00  0.00    -0.393 OA
ATOM     23  H   UNL A   1      31.692  16.635  22.193  1.00  0.00     0.210 HD
ENDBRANCH  19  22
ENDBRANCH  16  17
ENDBRANCH  15  16
ENDBRANCH   8  10
ENDBRANCH   5   8
ENDBRANCH   3   4
ENDBRANCH   2   3
ENDBRANCH   1   2
BRANCH   1  24
ATOM     24  C   UNL A   1      31.159  29.207  24.031  1.00  0.00     0.002 C 
BRANCH  24  25
ATOM     25  C   UNL A   1      31.388  28.991  25.528  1.00  0.00     0.021 C 
BRANCH  25  26
ATOM     26  C   UNL A   1      32.650  29.639  26.084  1.00  0.00     0.116 C 
BRANCH  26  27
ATOM     27  N   UNL A   1      32.466  31.054  26.372  1.00  0.00    -0.352 N 
ATOM     28  C   UNL A   1      33.192  31.871  27.201  1.00  0.00     0.251 C 
ATOM     29  H   UNL A   1      31.713  31.485  25.907  1.00  0.00     0.163 HD
ATOM     30  O   UNL A   1      32.789  33.005  27.452  1.00  0.00    -0.269 OA
BRANCH  28  31
ATOM     31  C   UNL A   1      34.446  31.376  27.808  1.00  0.00     0.039 A 
ATOM     32  C   UNL A   1      35.481  32.282  28.054  1.00  0.00     0.014 A 
ATOM     33  C   UNL A   1      34.599  30.027  28.139  1.00  0.00     0.014 A 
ATOM     34  C   UNL A   1      36.647  31.843  28.685  1.00  0.00     0.010 A 
ATOM     35  C   UNL A   1      35.728  29.610  28.838  1.00  0.00     0.010 A 
ATOM     36  C   UNL A   1      36.767  30.511  29.112  1.00  0.00    -0.014 A 
BRANCH  36  37
ATOM     37  C   UNL A   1      37.966  30.048  29.858  1.00  0.00     0.031 A 
ATOM     38  C   UNL A   1      38.235  30.547  31.252  1.00  0.00     0.074 A 
ATOM     39  C   UNL A   1      38.856  29.238  29.249  1.00  0.00     0.049 A 
ATOM     40  N   UNL A   1      39.250  30.292  32.037  1.00  0.00    -0.248 NA
ATOM     41  C   UNL A   1      37.248  31.472  31.833  1.00  0.00     0.031 C 
ATOM     42  C   UNL A   1      38.746  28.745  27.874  1.00  0.00     0.029 A 
ATOM     43  N   UNL A   1      40.039  28.707  29.698  1.00  0.00    -0.354 N 
ATOM     44  C   UNL A   1      39.044  31.048  33.184  1.00  0.00     0.074 A 
ATOM     45  C   UNL A   1      37.824  31.799  32.981  1.00  0.00     0.031 C 
ATOM     46  C   UNL A   1      39.814  27.978  27.596  1.00  0.00     0.029 A 
ATOM     47  C   UNL A   1      40.699  27.953  28.755  1.00  0.00     0.049 A 
ATOM     48  H   UNL A   1      40.383  28.851  30.610  1.00  0.00     0.167 HD
ATOM     49  C   UNL A   1      39.785  31.093  34.317  1.00  0.00     0.034 A 
ATOM     50  C   UNL A   1      41.889  27.323  28.812  1.00  0.00     0.034 A 
ATOM     51  C   UNL A   1      40.979  30.319  34.529  1.00  0.00     0.049 A 
ATOM     52  C   UNL A   1      42.681  27.371  30.091  1.00  0.00     0.074 A 
ATOM     53  C   UNL A   1      41.754  30.232  35.672  1.00  0.00     0.029 A 
ATOM     54  N   UNL A   1      41.579  29.510  33.576  1.00  0.00    -0.354 N 
ATOM     55  N   UNL A   1      42.390  27.970  31.220  1.00  0.00    -0.248 NA
ATOM     56  C   UNL A   1      43.948  26.627  30.115  1.00  0.00     0.031 C 
ATOM     57  C   UNL A   1      42.843  29.398  35.399  1.00  0.00     0.029 A 
ATOM     58  C   UNL A   1      42.723  28.932  34.099  1.00  0.00     0.049 A 
ATOM     59  H   UNL A   1      41.242  29.369  32.663  1.00  0.00     0.167 HD
ATOM     60  C   UNL A   1      43.416  27.642  32.100  1.00  0.00     0.074 A 
ATOM     61  C   UNL A   1      44.325  26.777  31.378  1.00  0.00     0.031 C 
ATOM     62  C   UNL A   1      43.594  28.033  33.386  1.00  0.00     0.034 A 
BRANCH  49  63
ATOM     63  C   UNL A   1      39.303  31.980  35.436  1.00  0.00     0.023 A 
ATOM     64  C   UNL A   1      38.410  31.468  36.399  1.00  0.00     0.012 A 
ATOM     65  C   UNL A   1      39.780  33.299  35.571  1.00  0.00     0.148 A 
ATOM     66  C   UNL A   1      37.969  32.263  37.455  1.00  0.00     0.002 A 
ATOM     67  C   UNL A   1      39.375  34.070  36.655  1.00  0.00     0.091 A 
ATOM     68  F   UNL A   1      40.614  33.775  34.637  1.00  0.00    -0.205 F 
ATOM     69  C   UNL A   1      38.459  33.559  37.589  1.00  0.00     0.022 A 
BRANCH  67  70
ATOM     70  S   UNL A   1      40.011  35.721  36.963  1.00  0.00     0.127 S 
ATOM     71  O   UNL A   1      41.450  35.471  37.042  1.00  0.00    -0.237 OA
ATOM     72  O   UNL A   1      39.584  36.442  35.765  1.00  0.00    -0.237 OA
ATOM     73  O   UNL A   1      39.387  36.169  38.200  1.00  0.00    -0.744 OA
ENDBRANCH  67  70
ENDBRANCH  49  63
BRANCH  50  74
ATOM     74  C   UNL A   1      42.379  26.548  27.638  1.00  0.00     0.023 A 
ATOM     75  C   UNL A   1      43.234  27.167  26.705  1.00  0.00     0.012 A 
ATOM     76  C   UNL A   1      42.022  25.199  27.452  1.00  0.00     0.148 A 
ATOM     77  C   UNL A   1      43.693  26.468  25.588  1.00  0.00     0.002 A 
ATOM     78  C   UNL A   1      42.530  24.491  26.368  1.00  0.00     0.091 A 
ATOM     79  F   UNL A   1      41.202  24.629  28.346  1.00  0.00    -0.205 F 
ATOM     80  C   UNL A   1      43.349  25.129  25.425  1.00  0.00     0.022 A 
BRANCH  78  81
ATOM     81  S   UNL A   1      42.249  22.730  26.152  1.00  0.00     0.127 S 
ATOM     82  O   UNL A   1      42.946  22.468  24.896  1.00  0.00    -0.237 OA
ATOM     83  O   UNL A   1      42.892  22.174  27.343  1.00  0.00    -0.237 OA
ATOM     84  O   UNL A   1      40.803  22.560  26.118  1.00  0.00    -0.744 OA
ENDBRANCH  78  81
ENDBRANCH  50  74
BRANCH  62  85
ATOM     85  C   UNL A   1      44.794  27.494  34.122  1.00  0.00     0.023 A 
ATOM     86  C   UNL A   1      46.015  28.198  34.093  1.00  0.00     0.012 A 
ATOM     87  C   UNL A   1      44.688  26.325  34.901  1.00  0.00     0.148 A 
ATOM     88  C   UNL A   1      47.121  27.725  34.800  1.00  0.00     0.002 A 
ATOM     89  C   UNL A   1      45.777  25.891  35.645  1.00  0.00     0.091 A 
ATOM     90  F   UNL A   1      43.523  25.661  34.902  1.00  0.00    -0.205 F 
ATOM     91  C   UNL A   1      46.999  26.581  35.584  1.00  0.00     0.022 A 
BRANCH  89  92
ATOM     92  S   UNL A   1      45.686  24.485  36.760  1.00  0.00     0.127 S 
ATOM     93  O   UNL A   1      45.285  23.410  35.854  1.00  0.00    -0.237 OA
ATOM     94  O   UNL A   1      47.062  24.390  37.250  1.00  0.00    -0.237 OA
ATOM     95  O   UNL A   1      44.705  24.842  37.777  1.00  0.00    -0.744 OA
ENDBRANCH  89  92
ENDBRANCH  62  85
ENDBRANCH  36  37
ENDBRANCH  28  31
ENDBRANCH  26  27
ENDBRANCH  25  26
ENDBRANCH  24  25
ENDBRANCH   1  24
TORSDOF 20
ENDMDL
MODEL 2
REMARK VINA RESULT:     -11.8      2.197      8.560
REMARK SMILES C[C@H](C(=O)NCCCCCCNC(=O)c1ccc(-c2c3nc(c(-c4cccc(S(=O)(=O)[O-])c4F)c4ccc([nH]4)c(-c4cccc(S(=O)(=O)[O-])c4F)c4nc(c(-c5cccc(S(=O)(=O)[O-])c5F)c5ccc2[nH]5)C=C4)C=C3)cc1)c1ccc(C[C@@H]2CCC[C@H]2O)cc1
REMARK SMILES IDX 8 1 7 2 6 3 5 4 3 5 4 6 2 8 1 9 78 10 79 11 90 12 80 13
REMARK SMILES IDX 89 14 81 15 82 16 83 17 84 18 87 19 85 20 86 21 88 22 9 24
REMARK SMILES IDX 10 25 11 26 12 27 13 28 14 30 15 31 16 32 77 33 17 34 76 35
REMARK SMILES IDX 18 36 19 37 20 38 70 39 21 40 75 41 69 42 71 43 22 44 74 45
REMARK SMILES IDX 68 46 67 47 23 49 55 50 35 51 54 52 36 53 39 54 53 55 72 56
REMARK SMILES IDX 37 57 38 58 52 60 73 61 40 62 24 63 25 64 33 65 26 66 28 67
REMARK SMILES IDX 34 68 27 69 29 70 30 71 31 72 32 73 56 74 57 75 65 76 58 77
REMARK SMILES IDX 60 78 66 79 59 80 61 81 62 82 63 83 64 84 41 85 42 86 50 87
REMARK SMILES IDX 43 88 45 89 51 90 44 91 46 92 47 93 48 94 49 95
REMARK H PARENT 5 7 88 23 12 29 71 48 39 59
REMARK Flexibility Score: inf
ROOT
ATOM      1  C   UNL A   1      32.254  25.935  26.496  1.00  0.00     0.002 C 
ENDROOT
BRANCH   1   2
ATOM      2  C   UNL A   1      31.608  24.546  26.556  1.00  0.00     0.021 C 
BRANCH   2   3
ATOM      3  C   UNL A   1      32.587  23.410  26.826  1.00  0.00     0.116 C 
BRANCH   3   4
ATOM      4  N   UNL A   1      32.590  22.431  25.751  1.00  0.00    -0.356 N 
ATOM      5  C   UNL A   1      33.289  22.403  24.581  1.00  0.00     0.227 C 
ATOM      6  O   UNL A   1      33.196  21.379  23.896  1.00  0.00    -0.274 OA
ATOM      7  H   UNL A   1      31.990  21.664  25.890  1.00  0.00     0.163 HD
BRANCH   5   8
ATOM      8  C   UNL A   1      34.125  23.590  24.099  1.00  0.00     0.105 C 
ATOM      9  C   UNL A   1      35.354  23.090  23.321  1.00  0.00     0.023 C 
BRANCH   8  10
ATOM     10  C   UNL A   1      33.374  24.708  23.384  1.00  0.00    -0.036 A 
ATOM     11  C   UNL A   1      33.911  25.986  23.185  1.00  0.00     0.005 A 
ATOM     12  C   UNL A   1      32.073  24.470  22.911  1.00  0.00     0.005 A 
ATOM     13  C   UNL A   1      33.122  27.034  22.705  1.00  0.00     0.004 A 
ATOM     14  C   UNL A   1      31.292  25.508  22.397  1.00  0.00     0.004 A 
ATOM     15  C   UNL A   1      31.789  26.815  22.355  1.00  0.00    -0.048 A 
BRANCH  15  16
ATOM     16  C   UNL A   1      30.896  27.971  21.981  1.00  0.00     0.041 C 
BRANCH  16  17
ATOM     17  C   UNL A   1      30.107  28.650  23.126  1.00  0.00     0.022 C 
ATOM     18  C   UNL A   1      28.773  27.976  23.478  1.00  0.00     0.007 C 
ATOM     19  C   UNL A   1      29.724  30.112  22.869  1.00  0.00     0.117 C 
ATOM     20  C   UNL A   1      27.657  28.839  22.887  1.00  0.00     0.003 C 
ATOM     21  C   UNL A   1      28.315  30.079  22.291  1.00  0.00     0.032 C 
BRANCH  19  22
ATOM     22  O   UNL A   1      29.708  30.837  24.098  1.00  0.00    -0.393 OA
ATOM     23  H   UNL A   1      29.423  31.749  23.931  1.00  0.00     0.210 HD
ENDBRANCH  19  22
ENDBRANCH  16  17
ENDBRANCH  15  16
ENDBRANCH   8  10
ENDBRANCH   5   8
ENDBRANCH   3   4
ENDBRANCH   2   3
ENDBRANCH   1   2
BRANCH   1  24
ATOM     24  C   UNL A   1      31.325  27.074  26.064  1.00  0.00     0.002 C 
BRANCH  24  25
ATOM     25  C   UNL A   1      31.596  28.427  26.726  1.00  0.00     0.021 C 
BRANCH  25  26
ATOM     26  C   UNL A   1      32.442  29.388  25.898  1.00  0.00     0.116 C 
BRANCH  26  27
ATOM     27  N   UNL A   1      32.112  30.781  26.158  1.00  0.00    -0.352 N 
ATOM     28  C   UNL A   1      32.746  31.684  26.974  1.00  0.00     0.251 C 
ATOM     29  H   UNL A   1      31.322  31.124  25.681  1.00  0.00     0.163 HD
ATOM     30  O   UNL A   1      32.227  32.775  27.201  1.00  0.00    -0.269 OA
BRANCH  28  31
ATOM     31  C   UNL A   1      34.039  31.332  27.596  1.00  0.00     0.039 A 
ATOM     32  C   UNL A   1      34.940  32.354  27.905  1.00  0.00     0.014 A 
ATOM     33  C   UNL A   1      34.361  30.001  27.878  1.00  0.00     0.014 A 
ATOM     34  C   UNL A   1      36.140  32.045  28.551  1.00  0.00     0.010 A 
ATOM     35  C   UNL A   1      35.520  29.706  28.591  1.00  0.00     0.010 A 
ATOM     36  C   UNL A   1      36.425  30.723  28.929  1.00  0.00    -0.014 A 
BRANCH  36  37
ATOM     37  C   UNL A   1      37.656  30.389  29.689  1.00  0.00     0.031 A 
ATOM     38  C   UNL A   1      38.683  29.457  29.103  1.00  0.00     0.074 A 
ATOM     39  C   UNL A   1      37.814  30.861  30.942  1.00  0.00     0.049 A 
ATOM     40  N   UNL A   1      39.793  29.013  29.635  1.00  0.00    -0.248 NA
ATOM     41  C   UNL A   1      38.419  28.935  27.751  1.00  0.00     0.031 C 
ATOM     42  C   UNL A   1      36.855  31.712  31.650  1.00  0.00     0.029 A 
ATOM     43  N   UNL A   1      38.825  30.673  31.852  1.00  0.00    -0.354 N 
ATOM     44  C   UNL A   1      40.340  28.139  28.704  1.00  0.00     0.074 A 
ATOM     45  C   UNL A   1      39.422  28.086  27.586  1.00  0.00     0.031 C 
ATOM     46  C   UNL A   1      37.328  31.978  32.879  1.00  0.00     0.029 A 
ATOM     47  C   UNL A   1      38.601  31.291  33.060  1.00  0.00     0.049 A 
ATOM     48  H   UNL A   1      39.634  30.146  31.656  1.00  0.00     0.167 HD
ATOM     49  C   UNL A   1      41.511  27.462  28.759  1.00  0.00     0.034 A 
ATOM     50  C   UNL A   1      39.333  31.294  34.192  1.00  0.00     0.034 A 
ATOM     51  C   UNL A   1      42.437  27.544  29.857  1.00  0.00     0.049 A 
ATOM     52  C   UNL A   1      40.642  30.552  34.218  1.00  0.00     0.074 A 
ATOM     53  C   UNL A   1      43.688  26.963  29.971  1.00  0.00     0.029 A 
ATOM     54  N   UNL A   1      42.209  28.238  31.036  1.00  0.00    -0.354 N 
ATOM     55  N   UNL A   1      41.215  29.854  33.267  1.00  0.00    -0.248 NA
ATOM     56  C   UNL A   1      41.424  30.628  35.460  1.00  0.00     0.031 C 
ATOM     57  C   UNL A   1      44.201  27.276  31.233  1.00  0.00     0.029 A 
ATOM     58  C   UNL A   1      43.289  28.087  31.889  1.00  0.00     0.049 A 
ATOM     59  H   UNL A   1      41.400  28.759  31.236  1.00  0.00     0.167 HD
ATOM     60  C   UNL A   1      42.439  29.442  33.781  1.00  0.00     0.074 A 
ATOM     61  C   UNL A   1      42.533  29.985  35.120  1.00  0.00     0.031 C 
ATOM     62  C   UNL A   1      43.394  28.673  33.201  1.00  0.00     0.034 A 
BRANCH  49  63
ATOM     63  C   UNL A   1      41.883  26.604  27.577  1.00  0.00     0.023 A 
ATOM     64  C   UNL A   1      42.572  27.174  26.488  1.00  0.00     0.012 A 
ATOM     65  C   UNL A   1      41.604  25.223  27.570  1.00  0.00     0.148 A 
ATOM     66  C   UNL A   1      42.945  26.395  25.394  1.00  0.00     0.002 A 
ATOM     67  C   UNL A   1      42.023  24.442  26.498  1.00  0.00     0.091 A 
ATOM     68  F   UNL A   1      40.931  24.701  28.604  1.00  0.00    -0.205 F 
ATOM     69  C   UNL A   1      42.681  25.028  25.404  1.00  0.00     0.022 A 
BRANCH  67  70
ATOM     70  S   UNL A   1      41.804  22.659  26.453  1.00  0.00     0.127 S 
ATOM     71  O   UNL A   1      40.347  22.543  26.395  1.00  0.00    -0.237 OA
ATOM     72  O   UNL A   1      42.493  22.299  25.214  1.00  0.00    -0.237 OA
ATOM     73  O   UNL A   1      42.423  22.146  27.667  1.00  0.00    -0.744 OA
ENDBRANCH  67  70
ENDBRANCH  49  63
BRANCH  50  74
ATOM     74  C   UNL A   1      38.871  32.068  35.377  1.00  0.00     0.023 A 
ATOM     75  C   UNL A   1      39.010  33.470  35.389  1.00  0.00     0.012 A 
ATOM     76  C   UNL A   1      38.277  31.429  36.483  1.00  0.00     0.148 A 
ATOM     77  C   UNL A   1      38.601  34.217  36.494  1.00  0.00     0.002 A 
ATOM     78  C   UNL A   1      37.818  32.184  37.556  1.00  0.00     0.091 A 
ATOM     79  F   UNL A   1      38.160  30.094  36.457  1.00  0.00    -0.205 F 
ATOM     80  C   UNL A   1      37.997  33.576  37.572  1.00  0.00     0.022 A 
BRANCH  78  81
ATOM     81  S   UNL A   1      36.909  31.459  38.925  1.00  0.00     0.127 S 
ATOM     82  O   UNL A   1      37.912  31.464  39.986  1.00  0.00    -0.237 OA
ATOM     83  O   UNL A   1      35.817  32.416  39.102  1.00  0.00    -0.237 OA
ATOM     84  O   UNL A   1      36.483  30.144  38.465  1.00  0.00    -0.744 OA
ENDBRANCH  78  81
ENDBRANCH  50  74
BRANCH  62  85
ATOM     85  C   UNL A   1      44.651  28.405  33.987  1.00  0.00     0.023 A 
ATOM     86  C   UNL A   1      45.732  29.307  33.921  1.00  0.00     0.012 A 
ATOM     87  C   UNL A   1      44.730  27.293  34.849  1.00  0.00     0.148 A 
ATOM     88  C   UNL A   1      46.886  29.085  34.673  1.00  0.00     0.002 A 
ATOM     89  C   UNL A   1      45.860  27.108  35.635  1.00  0.00     0.091 A 
ATOM     90  F   UNL A   1      43.697  26.438  34.885  1.00  0.00    -0.205 F 
ATOM     91  C   UNL A   1      46.944  27.995  35.538  1.00  0.00     0.022 A 
BRANCH  89  92
ATOM     92  S   UNL A   1      45.986  25.790  36.850  1.00  0.00     0.127 S 
ATOM     93  O   UNL A   1      47.277  26.080  37.471  1.00  0.00    -0.237 OA
ATOM     94  O   UNL A   1      44.826  26.047  37.705  1.00  0.00    -0.237 OA
ATOM     95  O   UNL A   1      45.920  24.544  36.098  1.00  0.00    -0.744 OA
ENDBRANCH  89  92
ENDBRANCH  62  85
ENDBRANCH  36  37
ENDBRANCH  28  31
ENDBRANCH  26  27
ENDBRANCH  25  26
ENDBRANCH  24  25
ENDBRANCH   1  24
TORSDOF 20
ENDMDL
MODEL 3
REMARK VINA RESULT:     -11.7      2.702      5.167
REMARK SMILES C[C@H](C(=O)NCCCCCCNC(=O)c1ccc(-c2c3nc(c(-c4cccc(S(=O)(=O)[O-])c4F)c4ccc([nH]4)c(-c4cccc(S(=O)(=O)[O-])c4F)c4nc(c(-c5cccc(S(=O)(=O)[O-])c5F)c5ccc2[nH]5)C=C4)C=C3)cc1)c1ccc(C[C@@H]2CCC[C@H]2O)cc1
REMARK SMILES IDX 8 1 7 2 6 3 5 4 3 5 4 6 2 8 1 9 78 10 79 11 90 12 80 13
REMARK SMILES IDX 89 14 81 15 82 16 83 17 84 18 87 19 85 20 86 21 88 22 9 24
REMARK SMILES IDX 10 25 11 26 12 27 13 28 14 30 15 31 16 32 77 33 17 34 76 35
REMARK SMILES IDX 18 36 19 37 20 38 70 39 21 40 75 41 69 42 71 43 22 44 74 45
REMARK SMILES IDX 68 46 67 47 23 49 55 50 35 51 54 52 36 53 39 54 53 55 72 56
REMARK SMILES IDX 37 57 38 58 52 60 73 61 40 62 24 63 25 64 33 65 26 66 28 67
REMARK SMILES IDX 34 68 27 69 29 70 30 71 31 72 32 73 56 74 57 75 65 76 58 77
REMARK SMILES IDX 60 78 66 79 59 80 61 81 62 82 63 83 64 84 41 85 42 86 50 87
REMARK SMILES IDX 43 88 45 89 51 90 44 91 46 92 47 93 48 94 49 95
REMARK H PARENT 5 7 88 23 12 29 71 48 39 59
REMARK Flexibility Score: inf
ROOT
ATOM      1  C   UNL A   1      34.026  26.202  24.965  1.00  0.00     0.002 C 
ENDROOT
BRANCH   1   2
ATOM      2  C   UNL A   1      34.530  24.920  25.637  1.00  0.00     0.021 C 
BRANCH   2   3
ATOM      3  C   UNL A   1      33.876  23.643  25.122  1.00  0.00     0.116 C 
BRANCH   3   4
ATOM      4  N   UNL A   1      34.006  23.513  23.680  1.00  0.00    -0.356 N 
ATOM      5  C   UNL A   1      33.087  23.684  22.688  1.00  0.00     0.227 C 
ATOM      6  O   UNL A   1      33.499  23.633  21.524  1.00  0.00    -0.274 OA
ATOM      7  H   UNL A   1      34.904  23.260  23.368  1.00  0.00     0.163 HD
BRANCH   5   8
ATOM      8  C   UNL A   1      31.599  23.891  22.980  1.00  0.00     0.105 C 
ATOM      9  C   UNL A   1      31.200  23.130  24.255  1.00  0.00     0.023 C 
BRANCH   8  10
ATOM     10  C   UNL A   1      31.093  25.329  22.954  1.00  0.00    -0.036 A 
ATOM     11  C   UNL A   1      31.658  26.326  22.148  1.00  0.00     0.005 A 
ATOM     12  C   UNL A   1      30.022  25.697  23.786  1.00  0.00     0.005 A 
ATOM     13  C   UNL A   1      31.296  27.667  22.299  1.00  0.00     0.004 A 
ATOM     14  C   UNL A   1      29.634  27.033  23.913  1.00  0.00     0.004 A 
ATOM     15  C   UNL A   1      30.317  28.038  23.221  1.00  0.00    -0.048 A 
BRANCH  15  16
ATOM     16  C   UNL A   1      30.034  29.494  23.493  1.00  0.00     0.041 C 
BRANCH  16  17
ATOM     17  C   UNL A   1      28.628  30.020  23.116  1.00  0.00     0.022 C 
ATOM     18  C   UNL A   1      28.344  30.077  21.608  1.00  0.00     0.007 C 
ATOM     19  C   UNL A   1      28.317  31.440  23.602  1.00  0.00     0.117 C 
ATOM     20  C   UNL A   1      28.445  31.542  21.180  1.00  0.00     0.003 C 
ATOM     21  C   UNL A   1      28.669  32.365  22.444  1.00  0.00     0.032 C 
BRANCH  19  22
ATOM     22  O   UNL A   1      26.925  31.564  23.892  1.00  0.00    -0.393 OA
ATOM     23  H   UNL A   1      26.419  31.533  23.065  1.00  0.00     0.210 HD
ENDBRANCH  19  22
ENDBRANCH  16  17
ENDBRANCH  15  16
ENDBRANCH   8  10
ENDBRANCH   5   8
ENDBRANCH   3   4
ENDBRANCH   2   3
ENDBRANCH   1   2
BRANCH   1  24
ATOM     24  C   UNL A   1      32.953  26.974  25.741  1.00  0.00     0.002 C 
BRANCH  24  25
ATOM     25  C   UNL A   1      33.167  28.487  25.821  1.00  0.00     0.021 C 
BRANCH  25  26
ATOM     26  C   UNL A   1      33.321  29.039  27.234  1.00  0.00     0.116 C 
BRANCH  26  27
ATOM     27  N   UNL A   1      33.544  30.476  27.246  1.00  0.00    -0.352 N 
ATOM     28  C   UNL A   1      34.603  31.184  27.757  1.00  0.00     0.251 C 
ATOM     29  H   UNL A   1      32.836  31.018  26.829  1.00  0.00     0.163 HD
ATOM     30  O   UNL A   1      34.545  32.410  27.827  1.00  0.00    -0.269 OA
BRANCH  28  31
ATOM     31  C   UNL A   1      35.802  30.468  28.242  1.00  0.00     0.039 A 
ATOM     32  C   UNL A   1      36.939  30.428  27.433  1.00  0.00     0.014 A 
ATOM     33  C   UNL A   1      35.806  29.841  29.492  1.00  0.00     0.014 A 
ATOM     34  C   UNL A   1      38.100  29.811  27.903  1.00  0.00     0.010 A 
ATOM     35  C   UNL A   1      36.986  29.297  29.989  1.00  0.00     0.010 A 
ATOM     36  C   UNL A   1      38.144  29.269  29.198  1.00  0.00    -0.014 A 
BRANCH  36  37
ATOM     37  C   UNL A   1      39.395  28.682  29.744  1.00  0.00     0.031 A 
ATOM     38  C   UNL A   1      40.051  29.282  30.958  1.00  0.00     0.074 A 
ATOM     39  C   UNL A   1      39.985  27.656  29.098  1.00  0.00     0.049 A 
ATOM     40  N   UNL A   1      41.166  28.938  31.548  1.00  0.00    -0.248 NA
ATOM     41  C   UNL A   1      39.379  30.437  31.579  1.00  0.00     0.031 C 
ATOM     42  C   UNL A   1      39.488  27.034  27.869  1.00  0.00     0.029 A 
ATOM     43  N   UNL A   1      41.143  26.971  29.372  1.00  0.00    -0.354 N 
ATOM     44  C   UNL A   1      41.348  29.847  32.582  1.00  0.00     0.074 A 
ATOM     45  C   UNL A   1      40.246  30.783  32.519  1.00  0.00     0.031 C 
ATOM     46  C   UNL A   1      40.331  26.055  27.500  1.00  0.00     0.029 A 
ATOM     47  C   UNL A   1      41.444  26.003  28.441  1.00  0.00     0.049 A 
ATOM     48  H   UNL A   1      41.704  27.155  30.160  1.00  0.00     0.167 HD
ATOM     49  C   UNL A   1      42.326  29.887  33.517  1.00  0.00     0.034 A 
ATOM     50  C   UNL A   1      42.503  25.174  28.351  1.00  0.00     0.034 A 
ATOM     51  C   UNL A   1      43.402  28.936  33.597  1.00  0.00     0.049 A 
ATOM     52  C   UNL A   1      43.564  25.223  29.416  1.00  0.00     0.074 A 
ATOM     53  C   UNL A   1      44.395  28.840  34.556  1.00  0.00     0.029 A 
ATOM     54  N   UNL A   1      43.635  27.924  32.678  1.00  0.00    -0.354 N 
ATOM     55  N   UNL A   1      43.636  25.994  30.474  1.00  0.00    -0.248 NA
ATOM     56  C   UNL A   1      44.672  24.265  29.295  1.00  0.00     0.031 C 
ATOM     57  C   UNL A   1      45.250  27.793  34.198  1.00  0.00     0.029 A 
ATOM     58  C   UNL A   1      44.765  27.208  33.039  1.00  0.00     0.049 A 
ATOM     59  H   UNL A   1      43.080  27.741  31.887  1.00  0.00     0.167 HD
ATOM     60  C   UNL A   1      44.773  25.588  31.165  1.00  0.00     0.074 A 
ATOM     61  C   UNL A   1      45.346  24.490  30.415  1.00  0.00     0.031 C 
ATOM     62  C   UNL A   1      45.299  26.086  32.311  1.00  0.00     0.034 A 
BRANCH  49  63
ATOM     63  C   UNL A   1      42.257  30.973  34.561  1.00  0.00     0.023 A 
ATOM     64  C   UNL A   1      41.629  30.716  35.796  1.00  0.00     0.012 A 
ATOM     65  C   UNL A   1      42.865  32.225  34.343  1.00  0.00     0.148 A 
ATOM     66  C   UNL A   1      41.573  31.698  36.784  1.00  0.00     0.002 A 
ATOM     67  C   UNL A   1      42.849  33.182  35.351  1.00  0.00     0.091 A 
ATOM     68  F   UNL A   1      43.442  32.458  33.156  1.00  0.00    -0.205 F 
ATOM     69  C   UNL A   1      42.192  32.926  36.566  1.00  0.00     0.022 A 
BRANCH  67  70
ATOM     70  S   UNL A   1      43.688  34.764  35.201  1.00  0.00     0.127 S 
ATOM     71  O   UNL A   1      42.939  35.392  34.113  1.00  0.00    -0.237 OA
ATOM     72  O   UNL A   1      43.459  35.357  36.518  1.00  0.00    -0.237 OA
ATOM     73  O   UNL A   1      45.079  34.456  34.905  1.00  0.00    -0.744 OA
ENDBRANCH  67  70
ENDBRANCH  49  63
BRANCH  50  74
ATOM     74  C   UNL A   1      42.585  24.189  27.236  1.00  0.00     0.023 A 
ATOM     75  C   UNL A   1      43.254  24.540  26.047  1.00  0.00     0.012 A 
ATOM     76  C   UNL A   1      42.023  22.903  27.353  1.00  0.00     0.148 A 
ATOM     77  C   UNL A   1      43.331  23.642  24.982  1.00  0.00     0.002 A 
ATOM     78  C   UNL A   1      42.153  21.993  26.310  1.00  0.00     0.091 A 
ATOM     79  F   UNL A   1      41.383  22.591  28.488  1.00  0.00    -0.205 F 
ATOM     80  C   UNL A   1      42.789  22.367  25.117  1.00  0.00     0.022 A 
BRANCH  78  81
ATOM     81  S   UNL A   1      41.604  20.288  26.447  1.00  0.00     0.127 S 
ATOM     82  O   UNL A   1      40.165  20.420  26.239  1.00  0.00    -0.237 OA
ATOM     83  O   UNL A   1      42.330  19.649  25.349  1.00  0.00    -0.237 OA
ATOM     84  O   UNL A   1      42.013  19.845  27.773  1.00  0.00    -0.744 OA
ENDBRANCH  78  81
ENDBRANCH  50  74
BRANCH  62  85
ATOM     85  C   UNL A   1      46.537  25.424  32.858  1.00  0.00     0.023 A 
ATOM     86  C   UNL A   1      47.813  25.864  32.452  1.00  0.00     0.012 A 
ATOM     87  C   UNL A   1      46.434  24.412  33.833  1.00  0.00     0.148 A 
ATOM     88  C   UNL A   1      48.965  25.281  32.980  1.00  0.00     0.002 A 
ATOM     89  C   UNL A   1      47.584  23.875  34.395  1.00  0.00     0.091 A 
ATOM     90  F   UNL A   1      45.211  23.996  34.195  1.00  0.00    -0.205 F 
ATOM     91  C   UNL A   1      48.851  24.297  33.959  1.00  0.00     0.022 A 
BRANCH  89  92
ATOM     92  S   UNL A   1      47.537  22.675  35.731  1.00  0.00     0.127 S 
ATOM     93  O   UNL A   1      48.778  21.934  35.511  1.00  0.00    -0.237 OA
ATOM     94  O   UNL A   1      47.540  23.533  36.917  1.00  0.00    -0.237 OA
ATOM     95  O   UNL A   1      46.312  21.910  35.541  1.00  0.00    -0.744 OA
ENDBRANCH  89  92
ENDBRANCH  62  85
ENDBRANCH  36  37
ENDBRANCH  28  31
ENDBRANCH  26  27
ENDBRANCH  25  26
ENDBRANCH  24  25
ENDBRANCH   1  24
TORSDOF 20
ENDMDL
