MODEL 1
REMARK VINA RESULT:     -10.6      0.000      0.000
REMARK SMILES [NH3+][C@H](CCc1c[nH]nc1C(F)(F)F)C(=O)NCCCCCCNC(=O)c1ccc(-c2c3nc(c(-c4cccc(S(=O)(=O)[O-])c4F)c4ccc([nH]4)c(-c4cccc(S(=O)(=O)[O-])c4F)c4nc(c(-c5cccc(S(=O)(=O)[O-])c5F)c5ccc2[nH]5)C=C4)C=C3)cc1
REMARK SMILES IDX 19 1 18 2 17 3 16 4 14 5 15 6 2 8 1 9 3 13 4 14 5 15 6 16
REMARK SMILES IDX 9 17 7 18 8 19 10 21 11 22 12 23 13 24 20 25 21 26 22 27
REMARK SMILES IDX 23 28 24 29 25 31 26 32 27 33 88 34 28 35 87 36 29 37 30 38
REMARK SMILES IDX 31 39 81 40 32 41 86 42 80 43 82 44 33 45 85 46 79 47 78 48
REMARK SMILES IDX 34 50 66 51 46 52 65 53 47 54 50 55 64 56 83 57 48 58 49 59
REMARK SMILES IDX 63 61 84 62 51 63 35 64 36 65 44 66 37 67 39 68 45 69 38 70
REMARK SMILES IDX 40 71 41 72 42 73 43 74 67 75 68 76 76 77 69 78 71 79 77 80
REMARK SMILES IDX 70 81 72 82 73 83 74 84 75 85 52 86 53 87 61 88 54 89 56 90
REMARK SMILES IDX 62 91 55 92 57 93 58 94 59 95 60 96
REMARK H PARENT 16 7 1 10 1 11 1 12 7 20 23 30 82 49 50 60
REMARK Flexibility Score: inf
ROOT
ATOM      1  C   UNL A   1      36.957  22.217  24.180  1.00  0.00     0.002 C 
ENDROOT
BRANCH   1   2
ATOM      2  C   UNL A   1      36.354  23.376  24.971  1.00  0.00     0.021 C 
BRANCH   2   3
ATOM      3  C   UNL A   1      34.990  23.834  24.454  1.00  0.00     0.116 C 
BRANCH   3   4
ATOM      4  N   UNL A   1      34.165  24.260  25.562  1.00  0.00    -0.351 N 
ATOM      5  C   UNL A   1      33.380  23.553  26.418  1.00  0.00     0.278 C 
ATOM      6  O   UNL A   1      32.601  24.209  27.122  1.00  0.00    -0.268 OA
ATOM      7  H   UNL A   1      34.174  25.230  25.726  1.00  0.00     0.163 HD
BRANCH   5   8
ATOM      8  C   UNL A   1      33.444  22.012  26.561  1.00  0.00     0.271 C 
BRANCH   8   9
ATOM      9  N   UNL A   1      34.555  21.596  27.433  1.00  0.00    -0.347 N 
ATOM     10  H   UNL A   1      34.222  21.522  28.395  1.00  0.00     0.345 HD
ATOM     11  H   UNL A   1      35.303  22.288  27.384  1.00  0.00     0.345 HD
ATOM     12  H   UNL A   1      34.908  20.690  27.125  1.00  0.00     0.345 HD
ENDBRANCH   8   9
BRANCH   8  13
ATOM     13  C   UNL A   1      33.183  21.154  25.305  1.00  0.00     0.080 C 
BRANCH  13  14
ATOM     14  C   UNL A   1      33.033  19.633  25.357  1.00  0.00     0.046 C 
BRANCH  14  15
ATOM     15  C   UNL A   1      32.837  18.865  24.084  1.00  0.00     0.003 A 
ATOM     16  C   UNL A   1      32.146  19.203  22.938  1.00  0.00     0.109 A 
ATOM     17  C   UNL A   1      33.407  17.577  23.770  1.00  0.00     0.169 A 
ATOM     18  N   UNL A   1      32.198  18.123  22.108  1.00  0.00    -0.285 N 
ATOM     19  N   UNL A   1      32.921  17.116  22.602  1.00  0.00    -0.171 NA
ATOM     20  H   UNL A   1      31.749  18.089  21.232  1.00  0.00     0.189 HD
BRANCH  17  21
ATOM     21  C   UNL A   1      34.409  16.768  24.565  1.00  0.00     0.435 C 
ATOM     22  F   UNL A   1      34.643  15.542  24.024  1.00  0.00    -0.164 F 
ATOM     23  F   UNL A   1      35.606  17.396  24.684  1.00  0.00    -0.164 F 
ATOM     24  F   UNL A   1      33.978  16.531  25.838  1.00  0.00    -0.164 F 
ENDBRANCH  17  21
ENDBRANCH  14  15
ENDBRANCH  13  14
ENDBRANCH   8  13
ENDBRANCH   5   8
ENDBRANCH   3   4
ENDBRANCH   2   3
ENDBRANCH   1   2
BRANCH   1  25
ATOM     25  C   UNL A   1      36.709  20.834  24.793  1.00  0.00     0.002 C 
BRANCH  25  26
ATOM     26  C   UNL A   1      37.933  19.914  24.865  1.00  0.00     0.021 C 
BRANCH  26  27
ATOM     27  C   UNL A   1      38.806  20.092  26.106  1.00  0.00     0.116 C 
BRANCH  27  28
ATOM     28  N   UNL A   1      39.969  19.219  26.080  1.00  0.00    -0.352 N 
ATOM     29  C   UNL A   1      41.301  19.547  26.106  1.00  0.00     0.251 C 
ATOM     30  H   UNL A   1      39.772  18.255  26.037  1.00  0.00     0.163 HD
ATOM     31  O   UNL A   1      42.145  18.690  25.859  1.00  0.00    -0.269 OA
BRANCH  29  32
ATOM     32  C   UNL A   1      41.720  20.929  26.424  1.00  0.00     0.039 A 
ATOM     33  C   UNL A   1      42.019  21.257  27.750  1.00  0.00     0.014 A 
ATOM     34  C   UNL A   1      41.782  21.907  25.428  1.00  0.00     0.014 A 
ATOM     35  C   UNL A   1      42.420  22.556  28.071  1.00  0.00     0.010 A 
ATOM     36  C   UNL A   1      42.236  23.187  25.739  1.00  0.00     0.010 A 
ATOM     37  C   UNL A   1      42.548  23.529  27.064  1.00  0.00    -0.014 A 
BRANCH  37  38
ATOM     38  C   UNL A   1      42.999  24.909  27.376  1.00  0.00     0.031 A 
ATOM     39  C   UNL A   1      42.053  25.884  28.024  1.00  0.00     0.074 A 
ATOM     40  C   UNL A   1      44.229  25.311  26.997  1.00  0.00     0.049 A 
ATOM     41  N   UNL A   1      42.236  27.148  28.305  1.00  0.00    -0.248 NA
ATOM     42  C   UNL A   1      40.717  25.378  28.384  1.00  0.00     0.031 C 
ATOM     43  C   UNL A   1      45.212  24.480  26.299  1.00  0.00     0.029 A 
ATOM     44  N   UNL A   1      44.848  26.530  27.115  1.00  0.00    -0.354 N 
ATOM     45  C   UNL A   1      41.032  27.599  28.833  1.00  0.00     0.074 A 
ATOM     46  C   UNL A   1      40.117  26.479  28.815  1.00  0.00     0.031 C 
ATOM     47  C   UNL A   1      46.306  25.216  26.042  1.00  0.00     0.029 A 
ATOM     48  C   UNL A   1      46.095  26.574  26.531  1.00  0.00     0.049 A 
ATOM     49  H   UNL A   1      44.441  27.300  27.573  1.00  0.00     0.167 HD
ATOM     50  C   UNL A   1      40.724  28.827  29.313  1.00  0.00     0.034 A 
ATOM     51  C   UNL A   1      46.963  27.596  26.396  1.00  0.00     0.034 A 
ATOM     52  C   UNL A   1      41.651  29.924  29.377  1.00  0.00     0.049 A 
ATOM     53  C   UNL A   1      46.610  28.938  26.984  1.00  0.00     0.074 A 
ATOM     54  C   UNL A   1      41.462  31.178  29.927  1.00  0.00     0.029 A 
ATOM     55  N   UNL A   1      42.942  29.899  28.872  1.00  0.00    -0.354 N 
ATOM     56  N   UNL A   1      45.525  29.298  27.627  1.00  0.00    -0.248 NA
ATOM     57  C   UNL A   1      47.616  30.003  26.864  1.00  0.00     0.031 C 
ATOM     58  C   UNL A   1      42.633  31.920  29.740  1.00  0.00     0.029 A 
ATOM     59  C   UNL A   1      43.559  31.117  29.094  1.00  0.00     0.049 A 
ATOM     60  H   UNL A   1      43.357  29.128  28.421  1.00  0.00     0.167 HD
ATOM     61  C   UNL A   1      45.736  30.614  28.023  1.00  0.00     0.074 A 
ATOM     62  C   UNL A   1      47.058  30.982  27.565  1.00  0.00     0.031 C 
ATOM     63  C   UNL A   1      44.903  31.447  28.694  1.00  0.00     0.034 A 
BRANCH  50  64
ATOM     64  C   UNL A   1      39.338  29.043  29.865  1.00  0.00     0.023 A 
ATOM     65  C   UNL A   1      39.049  28.643  31.186  1.00  0.00     0.012 A 
ATOM     66  C   UNL A   1      38.353  29.713  29.113  1.00  0.00     0.148 A 
ATOM     67  C   UNL A   1      37.793  28.881  31.740  1.00  0.00     0.002 A 
ATOM     68  C   UNL A   1      37.116  29.984  29.688  1.00  0.00     0.091 A 
ATOM     69  F   UNL A   1      38.640  30.069  27.853  1.00  0.00    -0.205 F 
ATOM     70  C   UNL A   1      36.832  29.560  30.997  1.00  0.00     0.022 A 
BRANCH  68  71
ATOM     71  S   UNL A   1      35.837  30.923  28.845  1.00  0.00     0.127 S 
ATOM     72  O   UNL A   1      35.042  31.414  29.969  1.00  0.00    -0.237 OA
ATOM     73  O   UNL A   1      36.617  31.951  28.154  1.00  0.00    -0.237 OA
ATOM     74  O   UNL A   1      35.159  29.980  27.966  1.00  0.00    -0.744 OA
ENDBRANCH  68  71
ENDBRANCH  50  64
BRANCH  51  75
ATOM     75  C   UNL A   1      48.281  27.377  25.736  1.00  0.00     0.023 A 
ATOM     76  C   UNL A   1      49.389  26.999  26.519  1.00  0.00     0.012 A 
ATOM     77  C   UNL A   1      48.444  27.527  24.345  1.00  0.00     0.148 A 
ATOM     78  C   UNL A   1      50.642  26.811  25.936  1.00  0.00     0.002 A 
ATOM     79  C   UNL A   1      49.683  27.285  23.763  1.00  0.00     0.091 A 
ATOM     80  F   UNL A   1      47.383  27.902  23.616  1.00  0.00    -0.205 F 
ATOM     81  C   UNL A   1      50.788  26.946  24.558  1.00  0.00     0.022 A 
BRANCH  79  82
ATOM     82  S   UNL A   1      49.930  27.311  21.983  1.00  0.00     0.127 S 
ATOM     83  O   UNL A   1      49.735  28.724  21.672  1.00  0.00    -0.237 OA
ATOM     84  O   UNL A   1      51.308  26.838  21.857  1.00  0.00    -0.237 OA
ATOM     85  O   UNL A   1      48.935  26.396  21.437  1.00  0.00    -0.744 OA
ENDBRANCH  79  82
ENDBRANCH  51  75
BRANCH  63  86
ATOM     86  C   UNL A   1      45.405  32.828  29.024  1.00  0.00     0.023 A 
ATOM     87  C   UNL A   1      46.075  33.057  30.242  1.00  0.00     0.012 A 
ATOM     88  C   UNL A   1      45.291  33.874  28.087  1.00  0.00     0.148 A 
ATOM     89  C   UNL A   1      46.601  34.316  30.533  1.00  0.00     0.002 A 
ATOM     90  C   UNL A   1      45.859  35.112  28.365  1.00  0.00     0.091 A 
ATOM     91  F   UNL A   1      44.634  33.640  26.943  1.00  0.00    -0.205 F 
ATOM     92  C   UNL A   1      46.504  35.337  29.592  1.00  0.00     0.022 A 
BRANCH  90  93
ATOM     93  S   UNL A   1      45.870  36.455  27.172  1.00  0.00     0.127 S 
ATOM     94  O   UNL A   1      46.947  37.300  27.686  1.00  0.00    -0.237 OA
ATOM     95  O   UNL A   1      46.183  35.760  25.923  1.00  0.00    -0.237 OA
ATOM     96  O   UNL A   1      44.538  37.043  27.217  1.00  0.00    -0.744 OA
ENDBRANCH  90  93
ENDBRANCH  63  86
ENDBRANCH  37  38
ENDBRANCH  29  32
ENDBRANCH  27  28
ENDBRANCH  26  27
ENDBRANCH  25  26
ENDBRANCH   1  25
TORSDOF 21
ENDMDL
MODEL 2
REMARK VINA RESULT:     -10.2      4.185      9.345
REMARK SMILES [NH3+][C@H](CCc1c[nH]nc1C(F)(F)F)C(=O)NCCCCCCNC(=O)c1ccc(-c2c3nc(c(-c4cccc(S(=O)(=O)[O-])c4F)c4ccc([nH]4)c(-c4cccc(S(=O)(=O)[O-])c4F)c4nc(c(-c5cccc(S(=O)(=O)[O-])c5F)c5ccc2[nH]5)C=C4)C=C3)cc1
REMARK SMILES IDX 19 1 18 2 17 3 16 4 14 5 15 6 2 8 1 9 3 13 4 14 5 15 6 16
REMARK SMILES IDX 9 17 7 18 8 19 10 21 11 22 12 23 13 24 20 25 21 26 22 27
REMARK SMILES IDX 23 28 24 29 25 31 26 32 27 33 88 34 28 35 87 36 29 37 30 38
REMARK SMILES IDX 31 39 81 40 32 41 86 42 80 43 82 44 33 45 85 46 79 47 78 48
REMARK SMILES IDX 34 50 66 51 46 52 65 53 47 54 50 55 64 56 83 57 48 58 49 59
REMARK SMILES IDX 63 61 84 62 51 63 35 64 36 65 44 66 37 67 39 68 45 69 38 70
REMARK SMILES IDX 40 71 41 72 42 73 43 74 67 75 68 76 76 77 69 78 71 79 77 80
REMARK SMILES IDX 70 81 72 82 73 83 74 84 75 85 52 86 53 87 61 88 54 89 56 90
REMARK SMILES IDX 62 91 55 92 57 93 58 94 59 95 60 96
REMARK H PARENT 16 7 1 10 1 11 1 12 7 20 23 30 82 49 50 60
REMARK Flexibility Score: inf
ROOT
ATOM      1  C   UNL A   1      34.153  22.122  24.806  1.00  0.00     0.002 C 
ENDROOT
BRANCH   1   2
ATOM      2  C   UNL A   1      33.053  23.172  24.661  1.00  0.00     0.021 C 
BRANCH   2   3
ATOM      3  C   UNL A   1      32.083  22.897  23.512  1.00  0.00     0.116 C 
BRANCH   3   4
ATOM      4  N   UNL A   1      32.799  22.903  22.256  1.00  0.00    -0.351 N 
ATOM      5  C   UNL A   1      32.923  23.861  21.299  1.00  0.00     0.278 C 
ATOM      6  O   UNL A   1      33.405  23.502  20.217  1.00  0.00    -0.268 OA
ATOM      7  H   UNL A   1      33.282  22.068  22.060  1.00  0.00     0.163 HD
BRANCH   5   8
ATOM      8  C   UNL A   1      32.525  25.341  21.518  1.00  0.00     0.271 C 
BRANCH   8   9
ATOM      9  N   UNL A   1      32.025  25.956  20.277  1.00  0.00    -0.347 N 
ATOM     10  H   UNL A   1      32.808  26.346  19.751  1.00  0.00     0.345 HD
ATOM     11  H   UNL A   1      31.367  26.699  20.507  1.00  0.00     0.345 HD
ATOM     12  H   UNL A   1      31.556  25.247  19.712  1.00  0.00     0.345 HD
ENDBRANCH   8   9
BRANCH   8  13
ATOM     13  C   UNL A   1      33.430  26.213  22.414  1.00  0.00     0.080 C 
BRANCH  13  14
ATOM     14  C   UNL A   1      33.393  27.742  22.391  1.00  0.00     0.046 C 
BRANCH  14  15
ATOM     15  C   UNL A   1      32.829  28.486  23.564  1.00  0.00     0.003 A 
ATOM     16  C   UNL A   1      33.448  28.947  24.707  1.00  0.00     0.109 A 
ATOM     17  C   UNL A   1      31.465  28.937  23.711  1.00  0.00     0.169 A 
ATOM     18  N   UNL A   1      32.475  29.479  25.502  1.00  0.00    -0.285 N 
ATOM     19  N   UNL A   1      31.266  29.451  24.939  1.00  0.00    -0.171 NA
ATOM     20  H   UNL A   1      32.647  29.847  26.399  1.00  0.00     0.189 HD
BRANCH  17  21
ATOM     21  C   UNL A   1      30.339  28.885  22.701  1.00  0.00     0.435 C 
ATOM     22  F   UNL A   1      30.557  29.694  21.628  1.00  0.00    -0.164 F 
ATOM     23  F   UNL A   1      30.124  27.632  22.227  1.00  0.00    -0.164 F 
ATOM     24  F   UNL A   1      29.154  29.296  23.236  1.00  0.00    -0.164 F 
ENDBRANCH  17  21
ENDBRANCH  14  15
ENDBRANCH  13  14
ENDBRANCH   8  13
ENDBRANCH   5   8
ENDBRANCH   3   4
ENDBRANCH   2   3
ENDBRANCH   1   2
BRANCH   1  25
ATOM     25  C   UNL A   1      35.421  22.417  23.996  1.00  0.00     0.002 C 
BRANCH  25  26
ATOM     26  C   UNL A   1      36.336  23.503  24.572  1.00  0.00     0.021 C 
BRANCH  26  27
ATOM     27  C   UNL A   1      36.726  23.313  26.036  1.00  0.00     0.116 C 
BRANCH  27  28
ATOM     28  N   UNL A   1      37.853  22.406  26.183  1.00  0.00    -0.352 N 
ATOM     29  C   UNL A   1      39.169  22.692  26.447  1.00  0.00     0.251 C 
ATOM     30  H   UNL A   1      37.642  21.450  26.078  1.00  0.00     0.163 HD
ATOM     31  O   UNL A   1      40.021  21.817  26.322  1.00  0.00    -0.269 OA
BRANCH  29  32
ATOM     32  C   UNL A   1      39.562  24.052  26.874  1.00  0.00     0.039 A 
ATOM     33  C   UNL A   1      39.423  24.405  28.219  1.00  0.00     0.014 A 
ATOM     34  C   UNL A   1      40.031  24.989  25.948  1.00  0.00     0.014 A 
ATOM     35  C   UNL A   1      39.793  25.684  28.644  1.00  0.00     0.010 A 
ATOM     36  C   UNL A   1      40.451  26.244  26.382  1.00  0.00     0.010 A 
ATOM     37  C   UNL A   1      40.325  26.610  27.731  1.00  0.00    -0.014 A 
BRANCH  37  38
ATOM     38  C   UNL A   1      40.751  27.965  28.163  1.00  0.00     0.031 A 
ATOM     39  C   UNL A   1      42.212  28.321  28.200  1.00  0.00     0.074 A 
ATOM     40  C   UNL A   1      39.829  28.845  28.605  1.00  0.00     0.049 A 
ATOM     41  N   UNL A   1      42.784  29.421  28.617  1.00  0.00    -0.248 NA
ATOM     42  C   UNL A   1      43.160  27.297  27.729  1.00  0.00     0.031 C 
ATOM     43  C   UNL A   1      38.389  28.593  28.682  1.00  0.00     0.029 A 
ATOM     44  N   UNL A   1      39.972  30.116  29.102  1.00  0.00    -0.354 N 
ATOM     45  C   UNL A   1      44.152  29.209  28.498  1.00  0.00     0.074 A 
ATOM     46  C   UNL A   1      44.329  27.866  27.990  1.00  0.00     0.031 C 
ATOM     47  C   UNL A   1      37.782  29.671  29.207  1.00  0.00     0.029 A 
ATOM     48  C   UNL A   1      38.788  30.679  29.526  1.00  0.00     0.049 A 
ATOM     49  H   UNL A   1      40.837  30.582  29.152  1.00  0.00     0.167 HD
ATOM     50  C   UNL A   1      45.169  30.063  28.764  1.00  0.00     0.034 A 
ATOM     51  C   UNL A   1      38.545  31.866  30.116  1.00  0.00     0.034 A 
ATOM     52  C   UNL A   1      44.987  31.415  29.220  1.00  0.00     0.049 A 
ATOM     53  C   UNL A   1      39.692  32.813  30.354  1.00  0.00     0.074 A 
ATOM     54  C   UNL A   1      45.949  32.386  29.431  1.00  0.00     0.029 A 
ATOM     55  N   UNL A   1      43.765  31.986  29.538  1.00  0.00    -0.354 N 
ATOM     56  N   UNL A   1      40.965  32.653  30.081  1.00  0.00    -0.248 NA
ATOM     57  C   UNL A   1      39.365  34.120  30.943  1.00  0.00     0.031 C 
ATOM     58  C   UNL A   1      45.310  33.541  29.894  1.00  0.00     0.029 A 
ATOM     59  C   UNL A   1      43.948  33.294  29.948  1.00  0.00     0.049 A 
ATOM     60  H   UNL A   1      42.895  31.527  29.481  1.00  0.00     0.167 HD
ATOM     61  C   UNL A   1      41.581  33.851  30.425  1.00  0.00     0.074 A 
ATOM     62  C   UNL A   1      40.541  34.733  30.909  1.00  0.00     0.031 C 
ATOM     63  C   UNL A   1      42.894  34.185  30.360  1.00  0.00     0.034 A 
BRANCH  50  64
ATOM     64  C   UNL A   1      46.576  29.586  28.514  1.00  0.00     0.023 A 
ATOM     65  C   UNL A   1      47.188  29.855  27.272  1.00  0.00     0.012 A 
ATOM     66  C   UNL A   1      47.319  28.951  29.529  1.00  0.00     0.148 A 
ATOM     67  C   UNL A   1      48.508  29.475  27.035  1.00  0.00     0.002 A 
ATOM     68  C   UNL A   1      48.648  28.613  29.298  1.00  0.00     0.091 A 
ATOM     69  F   UNL A   1      46.714  28.688  30.696  1.00  0.00    -0.205 F 
ATOM     70  C   UNL A   1      49.240  28.865  28.050  1.00  0.00     0.022 A 
BRANCH  68  71
ATOM     71  S   UNL A   1      49.702  27.897  30.566  1.00  0.00     0.127 S 
ATOM     72  O   UNL A   1      50.912  27.592  29.804  1.00  0.00    -0.237 OA
ATOM     73  O   UNL A   1      49.840  29.005  31.512  1.00  0.00    -0.237 OA
ATOM     74  O   UNL A   1      48.982  26.741  31.082  1.00  0.00    -0.744 OA
ENDBRANCH  68  71
ENDBRANCH  50  64
BRANCH  51  75
ATOM     75  C   UNL A   1      37.149  32.258  30.460  1.00  0.00     0.023 A 
ATOM     76  C   UNL A   1      36.665  32.012  31.760  1.00  0.00     0.012 A 
ATOM     77  C   UNL A   1      36.305  32.882  29.521  1.00  0.00     0.148 A 
ATOM     78  C   UNL A   1      35.355  32.344  32.107  1.00  0.00     0.002 A 
ATOM     79  C   UNL A   1      35.018  33.259  29.890  1.00  0.00     0.091 A 
ATOM     80  F   UNL A   1      36.775  33.096  28.284  1.00  0.00    -0.205 F 
ATOM     81  C   UNL A   1      34.535  32.974  31.176  1.00  0.00     0.022 A 
BRANCH  79  82
ATOM     82  S   UNL A   1      33.939  34.190  28.794  1.00  0.00     0.127 S 
ATOM     83  O   UNL A   1      34.819  35.264  28.345  1.00  0.00    -0.237 OA
ATOM     84  O   UNL A   1      33.608  33.197  27.773  1.00  0.00    -0.237 OA
ATOM     85  O   UNL A   1      32.805  34.597  29.616  1.00  0.00    -0.744 OA
ENDBRANCH  79  82
ENDBRANCH  51  75
BRANCH  63  86
ATOM     86  C   UNL A   1      43.287  35.579  30.773  1.00  0.00     0.023 A 
ATOM     87  C   UNL A   1      43.682  35.832  32.101  1.00  0.00     0.012 A 
ATOM     88  C   UNL A   1      43.350  36.616  29.821  1.00  0.00     0.148 A 
ATOM     89  C   UNL A   1      44.109  37.104  32.481  1.00  0.00     0.002 A 
ATOM     90  C   UNL A   1      43.821  37.868  30.197  1.00  0.00     0.091 A 
ATOM     91  F   UNL A   1      42.952  36.359  28.567  1.00  0.00    -0.205 F 
ATOM     92  C   UNL A   1      44.191  38.116  31.529  1.00  0.00     0.022 A 
BRANCH  90  93
ATOM     93  S   UNL A   1      44.054  39.203  29.017  1.00  0.00     0.127 S 
ATOM     94  O   UNL A   1      42.679  39.472  28.598  1.00  0.00    -0.237 OA
ATOM     95  O   UNL A   1      44.656  40.249  29.844  1.00  0.00    -0.237 OA
ATOM     96  O   UNL A   1      44.931  38.674  27.981  1.00  0.00    -0.744 OA
ENDBRANCH  90  93
ENDBRANCH  63  86
ENDBRANCH  37  38
ENDBRANCH  29  32
ENDBRANCH  27  28
ENDBRANCH  26  27
ENDBRANCH  25  26
ENDBRANCH   1  25
TORSDOF 21
ENDMDL
MODEL 3
REMARK VINA RESULT:     -10.2      6.369     11.300
REMARK SMILES [NH3+][C@H](CCc1c[nH]nc1C(F)(F)F)C(=O)NCCCCCCNC(=O)c1ccc(-c2c3nc(c(-c4cccc(S(=O)(=O)[O-])c4F)c4ccc([nH]4)c(-c4cccc(S(=O)(=O)[O-])c4F)c4nc(c(-c5cccc(S(=O)(=O)[O-])c5F)c5ccc2[nH]5)C=C4)C=C3)cc1
REMARK SMILES IDX 19 1 18 2 17 3 16 4 14 5 15 6 2 8 1 9 3 13 4 14 5 15 6 16
REMARK SMILES IDX 9 17 7 18 8 19 10 21 11 22 12 23 13 24 20 25 21 26 22 27
REMARK SMILES IDX 23 28 24 29 25 31 26 32 27 33 88 34 28 35 87 36 29 37 30 38
REMARK SMILES IDX 31 39 81 40 32 41 86 42 80 43 82 44 33 45 85 46 79 47 78 48
REMARK SMILES IDX 34 50 66 51 46 52 65 53 47 54 50 55 64 56 83 57 48 58 49 59
REMARK SMILES IDX 63 61 84 62 51 63 35 64 36 65 44 66 37 67 39 68 45 69 38 70
REMARK SMILES IDX 40 71 41 72 42 73 43 74 67 75 68 76 76 77 69 78 71 79 77 80
REMARK SMILES IDX 70 81 72 82 73 83 74 84 75 85 52 86 53 87 61 88 54 89 56 90
REMARK SMILES IDX 62 91 55 92 57 93 58 94 59 95 60 96
REMARK H PARENT 16 7 1 10 1 11 1 12 7 20 23 30 82 49 50 60
REMARK Flexibility Score: inf
ROOT
ATOM      1  C   UNL A   1      33.529  35.264  31.331  1.00  0.00     0.002 C 
ENDROOT
BRANCH   1   2
ATOM      2  C   UNL A   1      34.072  35.586  32.722  1.00  0.00     0.021 C 
BRANCH   2   3
ATOM      3  C   UNL A   1      35.473  35.029  32.983  1.00  0.00     0.116 C 
BRANCH   3   4
ATOM      4  N   UNL A   1      35.583  34.613  34.363  1.00  0.00    -0.351 N 
ATOM      5  C   UNL A   1      36.477  33.799  34.985  1.00  0.00     0.278 C 
ATOM      6  O   UNL A   1      36.185  33.432  36.130  1.00  0.00    -0.268 OA
ATOM      7  H   UNL A   1      34.890  34.984  34.956  1.00  0.00     0.163 HD
BRANCH   5   8
ATOM      8  C   UNL A   1      37.815  33.355  34.345  1.00  0.00     0.271 C 
BRANCH   8   9
ATOM      9  N   UNL A   1      38.215  32.014  34.804  1.00  0.00    -0.347 N 
ATOM     10  H   UNL A   1      39.194  31.852  34.569  1.00  0.00     0.345 HD
ATOM     11  H   UNL A   1      37.635  31.312  34.347  1.00  0.00     0.345 HD
ATOM     12  H   UNL A   1      38.094  31.951  35.816  1.00  0.00     0.345 HD
ENDBRANCH   8   9
BRANCH   8  13
ATOM     13  C   UNL A   1      38.935  34.406  34.199  1.00  0.00     0.080 C 
BRANCH  13  14
ATOM     14  C   UNL A   1      39.893  34.436  33.006  1.00  0.00     0.046 C 
BRANCH  14  15
ATOM     15  C   UNL A   1      39.339  34.491  31.614  1.00  0.00     0.003 A 
ATOM     16  C   UNL A   1      38.043  34.682  31.178  1.00  0.00     0.109 A 
ATOM     17  C   UNL A   1      40.099  34.402  30.390  1.00  0.00     0.169 A 
ATOM     18  N   UNL A   1      38.056  34.557  29.820  1.00  0.00    -0.285 N 
ATOM     19  N   UNL A   1      39.278  34.352  29.325  1.00  0.00    -0.171 NA
ATOM     20  H   UNL A   1      37.247  34.614  29.262  1.00  0.00     0.189 HD
BRANCH  17  21
ATOM     21  C   UNL A   1      41.601  34.362  30.213  1.00  0.00     0.435 C 
ATOM     22  F   UNL A   1      42.272  34.855  31.290  1.00  0.00    -0.164 F 
ATOM     23  F   UNL A   1      42.064  33.107  29.985  1.00  0.00    -0.164 F 
ATOM     24  F   UNL A   1      42.010  35.115  29.151  1.00  0.00    -0.164 F 
ENDBRANCH  17  21
ENDBRANCH  14  15
ENDBRANCH  13  14
ENDBRANCH   8  13
ENDBRANCH   5   8
ENDBRANCH   3   4
ENDBRANCH   2   3
ENDBRANCH   1   2
BRANCH   1  25
ATOM     25  C   UNL A   1      34.322  34.194  30.572  1.00  0.00     0.002 C 
BRANCH  25  26
ATOM     26  C   UNL A   1      34.074  34.135  29.060  1.00  0.00     0.021 C 
BRANCH  26  27
ATOM     27  C   UNL A   1      34.916  33.110  28.305  1.00  0.00     0.116 C 
BRANCH  27  28
ATOM     28  N   UNL A   1      34.118  31.980  27.852  1.00  0.00    -0.352 N 
ATOM     29  C   UNL A   1      34.495  30.675  27.656  1.00  0.00     0.251 C 
ATOM     30  H   UNL A   1      33.174  32.181  27.659  1.00  0.00     0.163 HD
ATOM     31  O   UNL A   1      33.743  29.906  27.065  1.00  0.00    -0.269 OA
BRANCH  29  32
ATOM     32  C   UNL A   1      35.804  30.198  28.149  1.00  0.00     0.039 A 
ATOM     33  C   UNL A   1      35.886  29.656  29.435  1.00  0.00     0.014 A 
ATOM     34  C   UNL A   1      36.954  30.316  27.363  1.00  0.00     0.014 A 
ATOM     35  C   UNL A   1      37.114  29.195  29.918  1.00  0.00     0.010 A 
ATOM     36  C   UNL A   1      38.166  29.806  27.824  1.00  0.00     0.010 A 
ATOM     37  C   UNL A   1      38.262  29.252  29.110  1.00  0.00    -0.014 A 
BRANCH  37  38
ATOM     38  C   UNL A   1      39.572  28.743  29.590  1.00  0.00     0.031 A 
ATOM     39  C   UNL A   1      40.303  29.464  30.690  1.00  0.00     0.074 A 
ATOM     40  C   UNL A   1      40.143  27.687  28.977  1.00  0.00     0.049 A 
ATOM     41  N   UNL A   1      41.486  29.220  31.193  1.00  0.00    -0.248 NA
ATOM     42  C   UNL A   1      39.627  30.627  31.290  1.00  0.00     0.031 C 
ATOM     43  C   UNL A   1      39.566  26.947  27.854  1.00  0.00     0.029 A 
ATOM     44  N   UNL A   1      41.352  27.074  29.192  1.00  0.00    -0.354 N 
ATOM     45  C   UNL A   1      41.714  30.217  32.134  1.00  0.00     0.074 A 
ATOM     46  C   UNL A   1      40.556  31.084  32.119  1.00  0.00     0.031 C 
ATOM     47  C   UNL A   1      40.424  25.987  27.472  1.00  0.00     0.029 A 
ATOM     48  C   UNL A   1      41.621  26.057  28.303  1.00  0.00     0.049 A 
ATOM     49  H   UNL A   1      41.969  27.334  29.914  1.00  0.00     0.167 HD
ATOM     50  C   UNL A   1      42.779  30.382  32.953  1.00  0.00     0.034 A 
ATOM     51  C   UNL A   1      42.714  25.281  28.165  1.00  0.00     0.034 A 
ATOM     52  C   UNL A   1      43.905  29.489  33.001  1.00  0.00     0.049 A 
ATOM     53  C   UNL A   1      43.863  25.457  29.124  1.00  0.00     0.074 A 
ATOM     54  C   UNL A   1      44.990  29.520  33.858  1.00  0.00     0.029 A 
ATOM     55  N   UNL A   1      44.094  28.408  32.155  1.00  0.00    -0.354 N 
ATOM     56  N   UNL A   1      43.986  26.306  30.117  1.00  0.00    -0.248 NA
ATOM     57  C   UNL A   1      45.004  24.544  28.971  1.00  0.00     0.031 C 
ATOM     58  C   UNL A   1      45.845  28.466  33.520  1.00  0.00     0.029 A 
ATOM     59  C   UNL A   1      45.279  27.766  32.467  1.00  0.00     0.049 A 
ATOM     60  H   UNL A   1      43.476  28.136  31.438  1.00  0.00     0.167 HD
ATOM     61  C   UNL A   1      45.196  26.001  30.730  1.00  0.00     0.074 A 
ATOM     62  C   UNL A   1      45.759  24.879  30.010  1.00  0.00     0.031 C 
ATOM     63  C   UNL A   1      45.794  26.606  31.786  1.00  0.00     0.034 A 
BRANCH  50  64
ATOM     64  C   UNL A   1      42.759  31.543  33.914  1.00  0.00     0.023 A 
ATOM     65  C   UNL A   1      43.320  32.775  33.522  1.00  0.00     0.012 A 
ATOM     66  C   UNL A   1      42.115  31.441  35.163  1.00  0.00     0.148 A 
ATOM     67  C   UNL A   1      43.264  33.881  34.369  1.00  0.00     0.002 A 
ATOM     68  C   UNL A   1      42.027  32.560  35.983  1.00  0.00     0.091 A 
ATOM     69  F   UNL A   1      41.603  30.256  35.525  1.00  0.00    -0.205 F 
ATOM     70  C   UNL A   1      42.610  33.776  35.592  1.00  0.00     0.022 A 
BRANCH  68  71
ATOM     71  S   UNL A   1      41.135  32.552  37.544  1.00  0.00     0.127 S 
ATOM     72  O   UNL A   1      41.218  33.958  37.937  1.00  0.00    -0.237 OA
ATOM     73  O   UNL A   1      39.802  32.112  37.133  1.00  0.00    -0.237 OA
ATOM     74  O   UNL A   1      41.845  31.620  38.409  1.00  0.00    -0.744 OA
ENDBRANCH  68  71
ENDBRANCH  50  64
BRANCH  51  75
ATOM     75  C   UNL A   1      42.750  24.216  27.122  1.00  0.00     0.023 A 
ATOM     76  C   UNL A   1      43.447  24.452  25.922  1.00  0.00     0.012 A 
ATOM     77  C   UNL A   1      42.113  22.974  27.313  1.00  0.00     0.148 A 
ATOM     78  C   UNL A   1      43.479  23.486  24.915  1.00  0.00     0.002 A 
ATOM     79  C   UNL A   1      42.194  21.996  26.328  1.00  0.00     0.091 A 
ATOM     80  F   UNL A   1      41.441  22.771  28.455  1.00  0.00    -0.205 F 
ATOM     81  C   UNL A   1      42.860  22.257  25.121  1.00  0.00     0.022 A 
BRANCH  79  82
ATOM     82  S   UNL A   1      41.535  20.340  26.562  1.00  0.00     0.127 S 
ATOM     83  O   UNL A   1      40.096  20.581  26.529  1.00  0.00    -0.237 OA
ATOM     84  O   UNL A   1      42.068  19.631  25.399  1.00  0.00    -0.237 OA
ATOM     85  O   UNL A   1      42.074  19.882  27.837  1.00  0.00    -0.744 OA
ENDBRANCH  79  82
ENDBRANCH  51  75
BRANCH  63  86
ATOM     86  C   UNL A   1      47.105  26.043  32.270  1.00  0.00     0.023 A 
ATOM     87  C   UNL A   1      47.125  25.151  33.359  1.00  0.00     0.012 A 
ATOM     88  C   UNL A   1      48.303  26.329  31.585  1.00  0.00     0.148 A 
ATOM     89  C   UNL A   1      48.323  24.573  33.778  1.00  0.00     0.002 A 
ATOM     90  C   UNL A   1      49.485  25.713  31.978  1.00  0.00     0.091 A 
ATOM     91  F   UNL A   1      48.264  27.194  30.562  1.00  0.00    -0.205 F 
ATOM     92  C   UNL A   1      49.498  24.843  33.081  1.00  0.00     0.022 A 
BRANCH  90  93
ATOM     93  S   UNL A   1      51.026  25.924  31.079  1.00  0.00     0.127 S 
ATOM     94  O   UNL A   1      51.940  25.088  31.856  1.00  0.00    -0.237 OA
ATOM     95  O   UNL A   1      50.690  25.395  29.757  1.00  0.00    -0.237 OA
ATOM     96  O   UNL A   1      51.311  27.352  31.102  1.00  0.00    -0.744 OA
ENDBRANCH  90  93
ENDBRANCH  63  86
ENDBRANCH  37  38
ENDBRANCH  29  32
ENDBRANCH  27  28
ENDBRANCH  26  27
ENDBRANCH  25  26
ENDBRANCH   1  25
TORSDOF 21
ENDMDL
