MODEL 1
REMARK VINA RESULT:     -11.1      0.000      0.000
REMARK SMILES COc1cccc(-c2c(C(=O)NCCCCCCNC(=O)c3ccc(-c4c5nc(c(-c6cccc(S(=O)(=O)[O-])c6F)c6ccc([nH]6)c(-c6cccc(S(=O)(=O)[O-])c6F)c6nc(c(-c7cccc(S(=O)(=O)[O-])c7F)c7ccc4[nH]7)C=C6)C=C5)cc3)nnn2Cc2ccc(OC(F)(F)F)cc2)c1
REMARK SMILES IDX 15 1 14 2 13 3 12 4 10 5 11 6 9 8 8 9 87 10 85 11 86 12 7 13
REMARK SMILES IDX 3 14 4 15 100 16 5 17 6 18 2 19 1 20 88 21 89 22 90 23 99 24
REMARK SMILES IDX 91 25 98 26 92 27 93 28 94 29 95 30 96 31 97 32 16 33 17 34
REMARK SMILES IDX 18 35 19 36 20 37 21 39 22 40 23 41 84 42 24 43 83 44 25 45
REMARK SMILES IDX 26 46 27 47 77 48 28 49 82 50 76 51 78 52 29 53 81 54 75 55
REMARK SMILES IDX 74 56 30 58 62 59 42 60 61 61 43 62 46 63 60 64 79 65 44 66
REMARK SMILES IDX 45 67 59 69 80 70 47 71 31 72 32 73 40 74 33 75 35 76 41 77
REMARK SMILES IDX 34 78 36 79 37 80 38 81 39 82 63 83 64 84 72 85 65 86 67 87
REMARK SMILES IDX 73 88 66 89 68 90 69 91 70 92 71 93 48 94 49 95 57 96 50 97
REMARK SMILES IDX 52 98 58 99 51 100 53 101 54 102 55 103 56 104
REMARK H PARENT 12 7 19 38 78 57 46 68
REMARK Flexibility Score: inf
ROOT
ATOM      1  C   UNL A   1      33.431  29.442  26.375  1.00  0.00     0.002 C 
ENDROOT
BRANCH   1   2
ATOM      2  C   UNL A   1      33.548  28.080  25.701  1.00  0.00     0.021 C 
BRANCH   2   3
ATOM      3  C   UNL A   1      33.720  28.059  24.195  1.00  0.00     0.116 C 
BRANCH   3   4
ATOM      4  N   UNL A   1      32.607  27.635  23.402  1.00  0.00    -0.351 N 
ATOM      5  C   UNL A   1      31.747  26.577  23.620  1.00  0.00     0.274 C 
ATOM      6  O   UNL A   1      30.820  26.494  22.803  1.00  0.00    -0.267 OA
ATOM      7  H   UNL A   1      32.432  28.167  22.593  1.00  0.00     0.163 HD
BRANCH   5   8
ATOM      8  C   UNL A   1      31.891  25.575  24.697  1.00  0.00     0.178 A 
ATOM      9  C   UNL A   1      32.831  24.599  25.062  1.00  0.00     0.102 A 
ATOM     10  N   UNL A   1      32.269  24.014  26.182  1.00  0.00    -0.239 N 
ATOM     11  N   UNL A   1      30.866  25.543  25.631  1.00  0.00    -0.124 NA
ATOM     12  N   UNL A   1      31.088  24.573  26.493  1.00  0.00    -0.066 NA
BRANCH   9  13
ATOM     13  C   UNL A   1      34.112  24.137  24.527  1.00  0.00     0.006 A 
ATOM     14  C   UNL A   1      36.499  23.763  24.857  1.00  0.00     0.119 A 
ATOM     15  C   UNL A   1      36.543  23.107  23.624  1.00  0.00     0.046 A 
ATOM     16  C   UNL A   1      35.284  24.277  25.304  1.00  0.00     0.056 A 
ATOM     17  C   UNL A   1      35.395  22.975  22.840  1.00  0.00     0.005 A 
ATOM     18  C   UNL A   1      34.181  23.499  23.283  1.00  0.00     0.011 A 
BRANCH  14  19
ATOM     19  O   UNL A   1      37.695  23.818  25.513  1.00  0.00    -0.497 OA
ATOM     20  C   UNL A   1      37.757  24.529  26.751  1.00  0.00     0.278 C 
ENDBRANCH  14  19
ENDBRANCH   9  13
BRANCH  10  21
ATOM     21  C   UNL A   1      32.760  22.905  26.993  1.00  0.00     0.182 C 
BRANCH  21  22
ATOM     22  C   UNL A   1      33.087  21.687  26.157  1.00  0.00    -0.026 A 
ATOM     23  C   UNL A   1      34.352  21.090  26.207  1.00  0.00     0.009 A 
ATOM     24  C   UNL A   1      32.122  21.142  25.299  1.00  0.00     0.009 A 
ATOM     25  C   UNL A   1      34.635  19.974  25.411  1.00  0.00     0.047 A 
ATOM     26  C   UNL A   1      32.401  20.018  24.519  1.00  0.00     0.047 A 
ATOM     27  C   UNL A   1      33.662  19.429  24.566  1.00  0.00     0.129 A 
BRANCH  27  28
ATOM     28  O   UNL A   1      34.069  18.341  23.847  1.00  0.00    -0.406 OA
BRANCH  28  29
ATOM     29  C   UNL A   1      33.100  17.343  23.575  1.00  0.00     0.573 C 
ATOM     30  F   UNL A   1      32.242  17.741  22.610  1.00  0.00    -0.132 F 
ATOM     31  F   UNL A   1      33.673  16.175  23.216  1.00  0.00    -0.132 F 
ATOM     32  F   UNL A   1      32.381  17.121  24.699  1.00  0.00    -0.132 F 
ENDBRANCH  28  29
ENDBRANCH  27  28
ENDBRANCH  21  22
ENDBRANCH  10  21
ENDBRANCH   5   8
ENDBRANCH   3   4
ENDBRANCH   2   3
ENDBRANCH   1   2
BRANCH   1  33
ATOM     33  C   UNL A   1      34.340  29.731  27.579  1.00  0.00     0.002 C 
BRANCH  33  34
ATOM     34  C   UNL A   1      35.138  31.044  27.601  1.00  0.00     0.021 C 
BRANCH  34  35
ATOM     35  C   UNL A   1      35.322  31.667  28.972  1.00  0.00     0.116 C 
BRANCH  35  36
ATOM     36  N   UNL A   1      35.985  32.973  28.937  1.00  0.00    -0.352 N 
ATOM     37  C   UNL A   1      37.262  33.297  29.376  1.00  0.00     0.251 C 
ATOM     38  H   UNL A   1      35.460  33.714  28.555  1.00  0.00     0.163 HD
ATOM     39  O   UNL A   1      37.572  34.452  29.614  1.00  0.00    -0.269 OA
BRANCH  37  40
ATOM     40  C   UNL A   1      38.241  32.204  29.537  1.00  0.00     0.039 A 
ATOM     41  C   UNL A   1      38.128  30.990  28.853  1.00  0.00     0.014 A 
ATOM     42  C   UNL A   1      39.319  32.442  30.380  1.00  0.00     0.014 A 
ATOM     43  C   UNL A   1      39.157  30.058  28.979  1.00  0.00     0.010 A 
ATOM     44  C   UNL A   1      40.422  31.644  30.306  1.00  0.00     0.010 A 
ATOM     45  C   UNL A   1      40.311  30.405  29.699  1.00  0.00    -0.014 A 
BRANCH  45  46
ATOM     46  C   UNL A   1      41.464  29.520  29.782  1.00  0.00     0.031 A 
ATOM     47  C   UNL A   1      41.792  29.077  31.162  1.00  0.00     0.074 A 
ATOM     48  C   UNL A   1      42.040  28.984  28.681  1.00  0.00     0.049 A 
ATOM     49  N   UNL A   1      42.821  29.413  31.865  1.00  0.00    -0.248 NA
ATOM     50  C   UNL A   1      40.782  28.312  31.910  1.00  0.00     0.031 C 
ATOM     51  C   UNL A   1      41.601  29.082  27.279  1.00  0.00     0.029 A 
ATOM     52  N   UNL A   1      43.068  28.098  28.600  1.00  0.00    -0.354 N 
ATOM     53  C   UNL A   1      42.712  28.696  33.055  1.00  0.00     0.074 A 
ATOM     54  C   UNL A   1      41.354  28.225  33.113  1.00  0.00     0.031 C 
ATOM     55  C   UNL A   1      42.169  28.092  26.556  1.00  0.00     0.029 A 
ATOM     56  C   UNL A   1      43.147  27.422  27.385  1.00  0.00     0.049 A 
ATOM     57  H   UNL A   1      43.704  27.949  29.336  1.00  0.00     0.167 HD
ATOM     58  C   UNL A   1      43.821  28.330  33.757  1.00  0.00     0.034 A 
ATOM     59  C   UNL A   1      43.932  26.353  27.103  1.00  0.00     0.034 A 
ATOM     60  C   UNL A   1      44.986  29.038  33.286  1.00  0.00     0.049 A 
ATOM     61  C   UNL A   1      45.019  26.343  28.106  1.00  0.00     0.074 A 
ATOM     62  C   UNL A   1      45.356  30.364  33.194  1.00  0.00     0.029 A 
ATOM     63  N   UNL A   1      45.815  28.350  32.433  1.00  0.00    -0.354 N 
ATOM     64  N   UNL A   1      45.921  27.281  28.191  1.00  0.00    -0.248 NA
ATOM     65  C   UNL A   1      44.827  25.544  29.303  1.00  0.00     0.031 C 
ATOM     66  C   UNL A   1      46.046  30.462  31.950  1.00  0.00     0.029 A 
ATOM     67  C   UNL A   1      46.128  29.184  31.394  1.00  0.00     0.049 A 
ATOM     68  H   UNL A   1      46.127  27.424  32.547  1.00  0.00     0.167 HD
ATOM     69  C   UNL A   1      46.061  27.496  29.555  1.00  0.00     0.074 A 
ATOM     70  C   UNL A   1      45.448  26.328  30.189  1.00  0.00     0.031 C 
ATOM     71  C   UNL A   1      46.384  28.729  30.044  1.00  0.00     0.034 A 
BRANCH  58  72
ATOM     72  C   UNL A   1      43.964  27.072  34.586  1.00  0.00     0.023 A 
ATOM     73  C   UNL A   1      44.327  27.239  35.943  1.00  0.00     0.012 A 
ATOM     74  C   UNL A   1      44.048  25.764  34.059  1.00  0.00     0.148 A 
ATOM     75  C   UNL A   1      44.816  26.178  36.711  1.00  0.00     0.002 A 
ATOM     76  C   UNL A   1      44.465  24.697  34.848  1.00  0.00     0.091 A 
ATOM     77  F   UNL A   1      43.853  25.550  32.757  1.00  0.00    -0.205 F 
ATOM     78  C   UNL A   1      44.883  24.904  36.164  1.00  0.00     0.022 A 
BRANCH  76  79
ATOM     79  S   UNL A   1      44.539  23.019  34.204  1.00  0.00     0.127 S 
ATOM     80  O   UNL A   1      45.917  22.950  33.729  1.00  0.00    -0.237 OA
ATOM     81  O   UNL A   1      44.252  22.229  35.400  1.00  0.00    -0.237 OA
ATOM     82  O   UNL A   1      43.506  22.945  33.177  1.00  0.00    -0.744 OA
ENDBRANCH  76  79
ENDBRANCH  58  72
BRANCH  59  83
ATOM     83  C   UNL A   1      43.648  25.183  26.241  1.00  0.00     0.023 A 
ATOM     84  C   UNL A   1      44.464  24.919  25.124  1.00  0.00     0.012 A 
ATOM     85  C   UNL A   1      42.771  24.166  26.683  1.00  0.00     0.148 A 
ATOM     86  C   UNL A   1      44.433  23.670  24.488  1.00  0.00     0.002 A 
ATOM     87  C   UNL A   1      42.747  22.926  26.053  1.00  0.00     0.091 A 
ATOM     88  F   UNL A   1      42.032  24.386  27.778  1.00  0.00    -0.205 F 
ATOM     89  C   UNL A   1      43.585  22.670  24.959  1.00  0.00     0.022 A 
BRANCH  87  90
ATOM     90  S   UNL A   1      41.721  21.571  26.644  1.00  0.00     0.127 S 
ATOM     91  O   UNL A   1      42.216  21.394  28.008  1.00  0.00    -0.237 OA
ATOM     92  O   UNL A   1      40.380  22.140  26.544  1.00  0.00    -0.237 OA
ATOM     93  O   UNL A   1      41.982  20.446  25.751  1.00  0.00    -0.744 OA
ENDBRANCH  87  90
ENDBRANCH  59  83
BRANCH  71  94
ATOM     94  C   UNL A   1      46.827  29.790  29.068  1.00  0.00     0.023 A 
ATOM     95  C   UNL A   1      48.134  29.843  28.537  1.00  0.00     0.012 A 
ATOM     96  C   UNL A   1      45.836  30.619  28.519  1.00  0.00     0.148 A 
ATOM     97  C   UNL A   1      48.444  30.711  27.487  1.00  0.00     0.002 A 
ATOM     98  C   UNL A   1      46.136  31.443  27.443  1.00  0.00     0.091 A 
ATOM     99  F   UNL A   1      44.602  30.553  29.037  1.00  0.00    -0.205 F 
ATOM    100  C   UNL A   1      47.440  31.500  26.928  1.00  0.00     0.022 A 
BRANCH  98 101
ATOM    101  S   UNL A   1      44.857  32.370  26.593  1.00  0.00     0.127 S 
ATOM    102  O   UNL A   1      43.942  31.312  26.172  1.00  0.00    -0.237 OA
ATOM    103  O   UNL A   1      44.345  33.238  27.653  1.00  0.00    -0.237 OA
ATOM    104  O   UNL A   1      45.527  33.083  25.511  1.00  0.00    -0.744 OA
ENDBRANCH  98 101
ENDBRANCH  71  94
ENDBRANCH  45  46
ENDBRANCH  37  40
ENDBRANCH  35  36
ENDBRANCH  34  35
ENDBRANCH  33  34
ENDBRANCH   1  33
TORSDOF 22
ENDMDL
MODEL 2
REMARK VINA RESULT:     -10.8      4.371      8.013
REMARK SMILES COc1cccc(-c2c(C(=O)NCCCCCCNC(=O)c3ccc(-c4c5nc(c(-c6cccc(S(=O)(=O)[O-])c6F)c6ccc([nH]6)c(-c6cccc(S(=O)(=O)[O-])c6F)c6nc(c(-c7cccc(S(=O)(=O)[O-])c7F)c7ccc4[nH]7)C=C6)C=C5)cc3)nnn2Cc2ccc(OC(F)(F)F)cc2)c1
REMARK SMILES IDX 15 1 14 2 13 3 12 4 10 5 11 6 9 8 8 9 87 10 85 11 86 12 7 13
REMARK SMILES IDX 3 14 4 15 100 16 5 17 6 18 2 19 1 20 88 21 89 22 90 23 99 24
REMARK SMILES IDX 91 25 98 26 92 27 93 28 94 29 95 30 96 31 97 32 16 33 17 34
REMARK SMILES IDX 18 35 19 36 20 37 21 39 22 40 23 41 84 42 24 43 83 44 25 45
REMARK SMILES IDX 26 46 27 47 77 48 28 49 82 50 76 51 78 52 29 53 81 54 75 55
REMARK SMILES IDX 74 56 30 58 62 59 42 60 61 61 43 62 46 63 60 64 79 65 44 66
REMARK SMILES IDX 45 67 59 69 80 70 47 71 31 72 32 73 40 74 33 75 35 76 41 77
REMARK SMILES IDX 34 78 36 79 37 80 38 81 39 82 63 83 64 84 72 85 65 86 67 87
REMARK SMILES IDX 73 88 66 89 68 90 69 91 70 92 71 93 48 94 49 95 57 96 50 97
REMARK SMILES IDX 52 98 58 99 51 100 53 101 54 102 55 103 56 104
REMARK H PARENT 12 7 19 38 78 57 46 68
REMARK Flexibility Score: inf
ROOT
ATOM      1  C   UNL A   1      39.942  33.877  29.945  1.00  0.00     0.002 C 
ENDROOT
BRANCH   1   2
ATOM      2  C   UNL A   1      38.682  34.619  29.518  1.00  0.00     0.021 C 
BRANCH   2   3
ATOM      3  C   UNL A   1      37.480  33.785  29.122  1.00  0.00     0.116 C 
BRANCH   3   4
ATOM      4  N   UNL A   1      36.210  34.140  29.677  1.00  0.00    -0.351 N 
ATOM      5  C   UNL A   1      35.013  33.456  29.596  1.00  0.00     0.274 C 
ATOM      6  O   UNL A   1      34.088  33.965  30.243  1.00  0.00    -0.267 OA
ATOM      7  H   UNL A   1      36.185  34.984  30.183  1.00  0.00     0.163 HD
BRANCH   5   8
ATOM      8  C   UNL A   1      34.785  32.237  28.792  1.00  0.00     0.178 A 
ATOM      9  C   UNL A   1      35.433  31.007  28.602  1.00  0.00     0.102 A 
ATOM     10  N   UNL A   1      34.644  30.370  27.661  1.00  0.00    -0.239 N 
ATOM     11  N   UNL A   1      33.646  32.240  28.001  1.00  0.00    -0.124 NA
ATOM     12  N   UNL A   1      33.597  31.129  27.297  1.00  0.00    -0.066 NA
BRANCH   9  13
ATOM     13  C   UNL A   1      36.643  30.375  29.130  1.00  0.00     0.006 A 
ATOM     14  C   UNL A   1      37.746  29.163  30.937  1.00  0.00     0.119 A 
ATOM     15  C   UNL A   1      38.863  29.001  30.114  1.00  0.00     0.046 A 
ATOM     16  C   UNL A   1      36.640  29.851  30.443  1.00  0.00     0.056 A 
ATOM     17  C   UNL A   1      38.885  29.527  28.820  1.00  0.00     0.005 A 
ATOM     18  C   UNL A   1      37.781  30.224  28.330  1.00  0.00     0.011 A 
BRANCH  14  19
ATOM     19  O   UNL A   1      37.866  28.599  32.174  1.00  0.00    -0.497 OA
ATOM     20  C   UNL A   1      38.571  27.362  32.291  1.00  0.00     0.278 C 
ENDBRANCH  14  19
ENDBRANCH   9  13
BRANCH  10  21
ATOM     21  C   UNL A   1      34.825  29.068  27.029  1.00  0.00     0.182 C 
BRANCH  21  22
ATOM     22  C   UNL A   1      33.647  28.684  26.161  1.00  0.00    -0.026 A 
ATOM     23  C   UNL A   1      33.626  28.977  24.792  1.00  0.00     0.009 A 
ATOM     24  C   UNL A   1      32.538  28.038  26.724  1.00  0.00     0.009 A 
ATOM     25  C   UNL A   1      32.517  28.627  24.015  1.00  0.00     0.047 A 
ATOM     26  C   UNL A   1      31.439  27.674  25.943  1.00  0.00     0.047 A 
ATOM     27  C   UNL A   1      31.419  27.971  24.583  1.00  0.00     0.129 A 
BRANCH  27  28
ATOM     28  O   UNL A   1      30.405  27.687  23.712  1.00  0.00    -0.406 OA
BRANCH  28  29
ATOM     29  C   UNL A   1      29.772  28.783  23.074  1.00  0.00     0.573 C 
ATOM     30  F   UNL A   1      29.698  29.854  23.895  1.00  0.00    -0.132 F 
ATOM     31  F   UNL A   1      30.406  29.130  21.934  1.00  0.00    -0.132 F 
ATOM     32  F   UNL A   1      28.509  28.425  22.751  1.00  0.00    -0.132 F 
ENDBRANCH  28  29
ENDBRANCH  27  28
ENDBRANCH  21  22
ENDBRANCH  10  21
ENDBRANCH   5   8
ENDBRANCH   3   4
ENDBRANCH   2   3
ENDBRANCH   1   2
BRANCH   1  33
ATOM     33  C   UNL A   1      41.300  34.528  29.645  1.00  0.00     0.002 C 
BRANCH  33  34
ATOM     34  C   UNL A   1      41.343  35.747  28.710  1.00  0.00     0.021 C 
BRANCH  34  35
ATOM     35  C   UNL A   1      41.822  35.466  27.299  1.00  0.00     0.116 C 
BRANCH  35  36
ATOM     36  N   UNL A   1      42.955  36.300  26.888  1.00  0.00    -0.352 N 
ATOM     37  C   UNL A   1      44.308  36.068  27.095  1.00  0.00     0.251 C 
ATOM     38  H   UNL A   1      42.728  37.127  26.405  1.00  0.00     0.163 HD
ATOM     39  O   UNL A   1      45.120  36.974  27.023  1.00  0.00    -0.269 OA
BRANCH  37  40
ATOM     40  C   UNL A   1      44.740  34.689  27.396  1.00  0.00     0.039 A 
ATOM     41  C   UNL A   1      44.829  34.200  28.703  1.00  0.00     0.014 A 
ATOM     42  C   UNL A   1      45.026  33.867  26.314  1.00  0.00     0.014 A 
ATOM     43  C   UNL A   1      45.136  32.854  28.890  1.00  0.00     0.010 A 
ATOM     44  C   UNL A   1      45.083  32.515  26.490  1.00  0.00     0.010 A 
ATOM     45  C   UNL A   1      45.246  32.015  27.770  1.00  0.00    -0.014 A 
BRANCH  45  46
ATOM     46  C   UNL A   1      45.463  30.580  27.898  1.00  0.00     0.031 A 
ATOM     47  C   UNL A   1      44.215  29.775  27.904  1.00  0.00     0.074 A 
ATOM     48  C   UNL A   1      46.694  30.027  27.799  1.00  0.00     0.049 A 
ATOM     49  N   UNL A   1      43.709  29.126  28.898  1.00  0.00    -0.248 NA
ATOM     50  C   UNL A   1      43.338  29.834  26.723  1.00  0.00     0.031 C 
ATOM     51  C   UNL A   1      47.969  30.685  27.462  1.00  0.00     0.029 A 
ATOM     52  N   UNL A   1      47.047  28.716  27.829  1.00  0.00    -0.354 N 
ATOM     53  C   UNL A   1      42.579  28.486  28.393  1.00  0.00     0.074 A 
ATOM     54  C   UNL A   1      42.284  29.128  27.140  1.00  0.00     0.031 C 
ATOM     55  C   UNL A   1      48.863  29.760  27.055  1.00  0.00     0.029 A 
ATOM     56  C   UNL A   1      48.300  28.446  27.284  1.00  0.00     0.049 A 
ATOM     57  H   UNL A   1      46.467  28.015  28.205  1.00  0.00     0.167 HD
ATOM     58  C   UNL A   1      42.144  27.310  28.925  1.00  0.00     0.034 A 
ATOM     59  C   UNL A   1      48.813  27.224  26.999  1.00  0.00     0.034 A 
ATOM     60  C   UNL A   1      42.785  27.046  30.190  1.00  0.00     0.049 A 
ATOM     61  C   UNL A   1      48.053  26.242  27.803  1.00  0.00     0.074 A 
ATOM     62  C   UNL A   1      42.849  27.691  31.408  1.00  0.00     0.029 A 
ATOM     63  N   UNL A   1      43.837  26.162  30.169  1.00  0.00    -0.354 N 
ATOM     64  N   UNL A   1      48.081  26.211  29.107  1.00  0.00    -0.248 NA
ATOM     65  C   UNL A   1      46.905  25.604  27.183  1.00  0.00     0.031 C 
ATOM     66  C   UNL A   1      44.196  27.511  31.842  1.00  0.00     0.029 A 
ATOM     67  C   UNL A   1      44.852  26.705  30.909  1.00  0.00     0.049 A 
ATOM     68  H   UNL A   1      43.857  25.295  29.705  1.00  0.00     0.167 HD
ATOM     69  C   UNL A   1      46.761  25.984  29.470  1.00  0.00     0.074 A 
ATOM     70  C   UNL A   1      46.106  25.512  28.250  1.00  0.00     0.031 C 
ATOM     71  C   UNL A   1      46.256  26.485  30.635  1.00  0.00     0.034 A 
BRANCH  58  72
ATOM     72  C   UNL A   1      41.458  26.198  28.161  1.00  0.00     0.023 A 
ATOM     73  C   UNL A   1      40.081  25.998  28.423  1.00  0.00     0.012 A 
ATOM     74  C   UNL A   1      42.125  25.181  27.443  1.00  0.00     0.148 A 
ATOM     75  C   UNL A   1      39.425  24.820  28.054  1.00  0.00     0.002 A 
ATOM     76  C   UNL A   1      41.450  24.043  27.014  1.00  0.00     0.091 A 
ATOM     77  F   UNL A   1      43.447  25.232  27.276  1.00  0.00    -0.205 F 
ATOM     78  C   UNL A   1      40.109  23.841  27.347  1.00  0.00     0.022 A 
BRANCH  76  79
ATOM     79  S   UNL A   1      42.276  22.757  26.065  1.00  0.00     0.127 S 
ATOM     80  O   UNL A   1      41.167  21.854  25.771  1.00  0.00    -0.237 OA
ATOM     81  O   UNL A   1      42.783  23.512  24.920  1.00  0.00    -0.237 OA
ATOM     82  O   UNL A   1      43.316  22.228  26.938  1.00  0.00    -0.744 OA
ENDBRANCH  76  79
ENDBRANCH  58  72
BRANCH  59  83
ATOM     83  C   UNL A   1      49.686  26.813  25.876  1.00  0.00     0.023 A 
ATOM     84  C   UNL A   1      49.465  27.333  24.587  1.00  0.00     0.012 A 
ATOM     85  C   UNL A   1      50.911  26.152  26.129  1.00  0.00     0.148 A 
ATOM     86  C   UNL A   1      50.444  27.229  23.589  1.00  0.00     0.002 A 
ATOM     87  C   UNL A   1      51.882  26.055  25.139  1.00  0.00     0.091 A 
ATOM     88  F   UNL A   1      51.156  25.704  27.367  1.00  0.00    -0.205 F 
ATOM     89  C   UNL A   1      51.656  26.601  23.867  1.00  0.00     0.022 A 
BRANCH  87  90
ATOM     90  S   UNL A   1      53.493  25.313  25.446  1.00  0.00     0.127 S 
ATOM     91  O   UNL A   1      53.161  23.891  25.501  1.00  0.00    -0.237 OA
ATOM     92  O   UNL A   1      54.247  25.726  24.266  1.00  0.00    -0.237 OA
ATOM     93  O   UNL A   1      53.965  25.877  26.707  1.00  0.00    -0.744 OA
ENDBRANCH  87  90
ENDBRANCH  59  83
BRANCH  71  94
ATOM     94  C   UNL A   1      47.219  27.074  31.635  1.00  0.00     0.023 A 
ATOM     95  C   UNL A   1      47.655  28.415  31.579  1.00  0.00     0.012 A 
ATOM     96  C   UNL A   1      47.518  26.309  32.774  1.00  0.00     0.148 A 
ATOM     97  C   UNL A   1      48.380  28.976  32.635  1.00  0.00     0.002 A 
ATOM     98  C   UNL A   1      48.194  26.884  33.841  1.00  0.00     0.091 A 
ATOM     99  F   UNL A   1      47.094  25.037  32.807  1.00  0.00    -0.205 F 
ATOM    100  C   UNL A   1      48.635  28.214  33.774  1.00  0.00     0.022 A 
BRANCH  98 101
ATOM    101  S   UNL A   1      48.425  26.001  35.385  1.00  0.00     0.127 S 
ATOM    102  O   UNL A   1      49.338  24.931  34.990  1.00  0.00    -0.237 OA
ATOM    103  O   UNL A   1      49.016  27.026  36.245  1.00  0.00    -0.237 OA
ATOM    104  O   UNL A   1      47.097  25.565  35.803  1.00  0.00    -0.744 OA
ENDBRANCH  98 101
ENDBRANCH  71  94
ENDBRANCH  45  46
ENDBRANCH  37  40
ENDBRANCH  35  36
ENDBRANCH  34  35
ENDBRANCH  33  34
ENDBRANCH   1  33
TORSDOF 22
ENDMDL
MODEL 3
REMARK VINA RESULT:     -10.7      5.209     10.737
REMARK SMILES COc1cccc(-c2c(C(=O)NCCCCCCNC(=O)c3ccc(-c4c5nc(c(-c6cccc(S(=O)(=O)[O-])c6F)c6ccc([nH]6)c(-c6cccc(S(=O)(=O)[O-])c6F)c6nc(c(-c7cccc(S(=O)(=O)[O-])c7F)c7ccc4[nH]7)C=C6)C=C5)cc3)nnn2Cc2ccc(OC(F)(F)F)cc2)c1
REMARK SMILES IDX 15 1 14 2 13 3 12 4 10 5 11 6 9 8 8 9 87 10 85 11 86 12 7 13
REMARK SMILES IDX 3 14 4 15 100 16 5 17 6 18 2 19 1 20 88 21 89 22 90 23 99 24
REMARK SMILES IDX 91 25 98 26 92 27 93 28 94 29 95 30 96 31 97 32 16 33 17 34
REMARK SMILES IDX 18 35 19 36 20 37 21 39 22 40 23 41 84 42 24 43 83 44 25 45
REMARK SMILES IDX 26 46 27 47 77 48 28 49 82 50 76 51 78 52 29 53 81 54 75 55
REMARK SMILES IDX 74 56 30 58 62 59 42 60 61 61 43 62 46 63 60 64 79 65 44 66
REMARK SMILES IDX 45 67 59 69 80 70 47 71 31 72 32 73 40 74 33 75 35 76 41 77
REMARK SMILES IDX 34 78 36 79 37 80 38 81 39 82 63 83 64 84 72 85 65 86 67 87
REMARK SMILES IDX 73 88 66 89 68 90 69 91 70 92 71 93 48 94 49 95 57 96 50 97
REMARK SMILES IDX 52 98 58 99 51 100 53 101 54 102 55 103 56 104
REMARK H PARENT 12 7 19 38 78 57 46 68
REMARK Flexibility Score: inf
ROOT
ATOM      1  C   UNL A   1      44.892  32.310  26.561  1.00  0.00     0.002 C 
ENDROOT
BRANCH   1   2
ATOM      2  C   UNL A   1      44.003  31.090  26.767  1.00  0.00     0.021 C 
BRANCH   2   3
ATOM      3  C   UNL A   1      44.639  29.725  26.597  1.00  0.00     0.116 C 
BRANCH   3   4
ATOM      4  N   UNL A   1      45.977  29.670  26.092  1.00  0.00    -0.351 N 
ATOM      5  C   UNL A   1      46.718  28.563  25.733  1.00  0.00     0.274 C 
ATOM      6  O   UNL A   1      47.829  28.823  25.251  1.00  0.00    -0.267 OA
ATOM      7  H   UNL A   1      46.430  30.539  25.988  1.00  0.00     0.163 HD
BRANCH   5   8
ATOM      8  C   UNL A   1      46.291  27.160  25.918  1.00  0.00     0.178 A 
ATOM      9  C   UNL A   1      45.990  26.321  27.003  1.00  0.00     0.102 A 
ATOM     10  N   UNL A   1      45.694  25.111  26.401  1.00  0.00    -0.239 N 
ATOM     11  N   UNL A   1      46.114  26.424  24.755  1.00  0.00    -0.124 NA
ATOM     12  N   UNL A   1      45.795  25.185  25.064  1.00  0.00    -0.066 NA
BRANCH   9  13
ATOM     13  C   UNL A   1      45.964  26.472  28.458  1.00  0.00     0.006 A 
ATOM     14  C   UNL A   1      47.114  26.265  30.599  1.00  0.00     0.119 A 
ATOM     15  C   UNL A   1      46.036  26.905  31.214  1.00  0.00     0.046 A 
ATOM     16  C   UNL A   1      47.075  26.049  29.223  1.00  0.00     0.056 A 
ATOM     17  C   UNL A   1      44.926  27.316  30.471  1.00  0.00     0.005 A 
ATOM     18  C   UNL A   1      44.882  27.089  29.095  1.00  0.00     0.011 A 
BRANCH  14  19
ATOM     19  O   UNL A   1      48.127  25.919  31.447  1.00  0.00    -0.497 OA
ATOM     20  C   UNL A   1      47.787  25.436  32.748  1.00  0.00     0.278 C 
ENDBRANCH  14  19
ENDBRANCH   9  13
BRANCH  10  21
ATOM     21  C   UNL A   1      45.341  23.835  27.013  1.00  0.00     0.182 C 
BRANCH  21  22
ATOM     22  C   UNL A   1      43.844  23.639  27.107  1.00  0.00    -0.026 A 
ATOM     23  C   UNL A   1      43.132  22.982  26.095  1.00  0.00     0.009 A 
ATOM     24  C   UNL A   1      43.136  24.134  28.210  1.00  0.00     0.009 A 
ATOM     25  C   UNL A   1      41.746  22.830  26.197  1.00  0.00     0.047 A 
ATOM     26  C   UNL A   1      41.754  23.965  28.318  1.00  0.00     0.047 A 
ATOM     27  C   UNL A   1      41.049  23.315  27.309  1.00  0.00     0.129 A 
BRANCH  27  28
ATOM     28  O   UNL A   1      39.700  23.098  27.282  1.00  0.00    -0.406 OA
BRANCH  28  29
ATOM     29  C   UNL A   1      38.864  24.232  27.121  1.00  0.00     0.573 C 
ATOM     30  F   UNL A   1      39.438  25.156  26.320  1.00  0.00    -0.132 F 
ATOM     31  F   UNL A   1      37.654  23.893  26.627  1.00  0.00    -0.132 F 
ATOM     32  F   UNL A   1      38.670  24.801  28.333  1.00  0.00    -0.132 F 
ENDBRANCH  28  29
ENDBRANCH  27  28
ENDBRANCH  21  22
ENDBRANCH  10  21
ENDBRANCH   5   8
ENDBRANCH   3   4
ENDBRANCH   2   3
ENDBRANCH   1   2
BRANCH   1  33
ATOM     33  C   UNL A   1      44.396  33.413  25.615  1.00  0.00     0.002 C 
BRANCH  33  34
ATOM     34  C   UNL A   1      43.262  34.335  26.089  1.00  0.00     0.021 C 
BRANCH  34  35
ATOM     35  C   UNL A   1      43.704  35.682  26.630  1.00  0.00     0.116 C 
BRANCH  35  36
ATOM     36  N   UNL A   1      45.091  35.696  27.101  1.00  0.00    -0.352 N 
ATOM     37  C   UNL A   1      45.550  35.724  28.411  1.00  0.00     0.251 C 
ATOM     38  H   UNL A   1      45.784  35.686  26.402  1.00  0.00     0.163 HD
ATOM     39  O   UNL A   1      46.686  36.079  28.673  1.00  0.00    -0.269 OA
BRANCH  37  40
ATOM     40  C   UNL A   1      44.626  35.301  29.482  1.00  0.00     0.039 A 
ATOM     41  C   UNL A   1      43.847  36.212  30.202  1.00  0.00     0.014 A 
ATOM     42  C   UNL A   1      44.528  33.938  29.728  1.00  0.00     0.014 A 
ATOM     43  C   UNL A   1      42.920  35.716  31.117  1.00  0.00     0.010 A 
ATOM     44  C   UNL A   1      43.464  33.455  30.432  1.00  0.00     0.010 A 
ATOM     45  C   UNL A   1      42.727  34.329  31.211  1.00  0.00    -0.014 A 
BRANCH  45  46
ATOM     46  C   UNL A   1      41.703  33.749  32.070  1.00  0.00     0.031 A 
ATOM     47  C   UNL A   1      42.098  33.638  33.498  1.00  0.00     0.074 A 
ATOM     48  C   UNL A   1      40.438  33.537  31.638  1.00  0.00     0.049 A 
ATOM     49  N   UNL A   1      42.339  32.557  34.160  1.00  0.00    -0.248 NA
ATOM     50  C   UNL A   1      42.428  34.872  34.230  1.00  0.00     0.031 C 
ATOM     51  C   UNL A   1      39.836  33.912  30.347  1.00  0.00     0.029 A 
ATOM     52  N   UNL A   1      39.366  33.071  32.330  1.00  0.00    -0.354 N 
ATOM     53  C   UNL A   1      42.606  32.968  35.464  1.00  0.00     0.074 A 
ATOM     54  C   UNL A   1      42.863  34.381  35.393  1.00  0.00     0.031 C 
ATOM     55  C   UNL A   1      38.491  33.917  30.458  1.00  0.00     0.029 A 
ATOM     56  C   UNL A   1      38.135  33.364  31.748  1.00  0.00     0.049 A 
ATOM     57  H   UNL A   1      39.451  32.567  33.172  1.00  0.00     0.167 HD
ATOM     58  C   UNL A   1      42.331  32.157  36.524  1.00  0.00     0.034 A 
ATOM     59  C   UNL A   1      36.913  33.206  32.313  1.00  0.00     0.034 A 
ATOM     60  C   UNL A   1      42.067  30.808  36.087  1.00  0.00     0.049 A 
ATOM     61  C   UNL A   1      37.074  32.233  33.415  1.00  0.00     0.074 A 
ATOM     62  C   UNL A   1      42.777  29.843  35.401  1.00  0.00     0.029 A 
ATOM     63  N   UNL A   1      40.745  30.442  36.003  1.00  0.00    -0.354 N 
ATOM     64  N   UNL A   1      37.408  30.987  33.225  1.00  0.00    -0.248 NA
ATOM     65  C   UNL A   1      37.321  32.755  34.747  1.00  0.00     0.031 C 
ATOM     66  C   UNL A   1      41.816  29.227  34.545  1.00  0.00     0.029 A 
ATOM     67  C   UNL A   1      40.567  29.792  34.812  1.00  0.00     0.049 A 
ATOM     68  H   UNL A   1      40.050  30.616  36.678  1.00  0.00     0.167 HD
ATOM     69  C   UNL A   1      38.322  30.722  34.236  1.00  0.00     0.074 A 
ATOM     70  C   UNL A   1      38.146  31.807  35.201  1.00  0.00     0.031 C 
ATOM     71  C   UNL A   1      39.337  29.828  34.050  1.00  0.00     0.034 A 
BRANCH  58  72
ATOM     72  C   UNL A   1      41.907  32.619  37.901  1.00  0.00     0.023 A 
ATOM     73  C   UNL A   1      42.627  32.096  39.001  1.00  0.00     0.012 A 
ATOM     74  C   UNL A   1      40.696  33.287  38.190  1.00  0.00     0.148 A 
ATOM     75  C   UNL A   1      42.132  32.170  40.306  1.00  0.00     0.002 A 
ATOM     76  C   UNL A   1      40.244  33.421  39.498  1.00  0.00     0.091 A 
ATOM     77  F   UNL A   1      39.896  33.687  37.200  1.00  0.00    -0.205 F 
ATOM     78  C   UNL A   1      40.940  32.835  40.557  1.00  0.00     0.022 A 
BRANCH  76  79
ATOM     79  S   UNL A   1      38.725  34.303  39.887  1.00  0.00     0.127 S 
ATOM     80  O   UNL A   1      37.720  33.429  39.289  1.00  0.00    -0.237 OA
ATOM     81  O   UNL A   1      38.751  34.312  41.348  1.00  0.00    -0.237 OA
ATOM     82  O   UNL A   1      38.867  35.621  39.279  1.00  0.00    -0.744 OA
ENDBRANCH  76  79
ENDBRANCH  58  72
BRANCH  59  83
ATOM     83  C   UNL A   1      35.701  34.046  32.177  1.00  0.00     0.023 A 
ATOM     84  C   UNL A   1      35.386  34.990  33.173  1.00  0.00     0.012 A 
ATOM     85  C   UNL A   1      35.029  34.133  30.936  1.00  0.00     0.148 A 
ATOM     86  C   UNL A   1      34.454  36.009  32.930  1.00  0.00     0.002 A 
ATOM     87  C   UNL A   1      34.108  35.148  30.698  1.00  0.00     0.091 A 
ATOM     88  F   UNL A   1      35.362  33.275  29.963  1.00  0.00    -0.205 F 
ATOM     89  C   UNL A   1      33.824  36.096  31.691  1.00  0.00     0.022 A 
BRANCH  87  90
ATOM     90  S   UNL A   1      33.304  35.356  29.101  1.00  0.00     0.127 S 
ATOM     91  O   UNL A   1      32.664  34.055  28.917  1.00  0.00    -0.237 OA
ATOM     92  O   UNL A   1      32.388  36.462  29.365  1.00  0.00    -0.237 OA
ATOM     93  O   UNL A   1      34.368  35.651  28.147  1.00  0.00    -0.744 OA
ENDBRANCH  87  90
ENDBRANCH  59  83
BRANCH  71  94
ATOM     94  C   UNL A   1      39.300  28.952  32.822  1.00  0.00     0.023 A 
ATOM     95  C   UNL A   1      38.535  27.768  32.749  1.00  0.00     0.012 A 
ATOM     96  C   UNL A   1      39.888  29.456  31.651  1.00  0.00     0.148 A 
ATOM     97  C   UNL A   1      38.367  27.100  31.533  1.00  0.00     0.002 A 
ATOM     98  C   UNL A   1      39.676  28.817  30.436  1.00  0.00     0.091 A 
ATOM     99  F   UNL A   1      40.610  30.581  31.742  1.00  0.00    -0.205 F 
ATOM    100  C   UNL A   1      38.925  27.634  30.373  1.00  0.00     0.022 A 
BRANCH  98 101
ATOM    101  S   UNL A   1      40.247  29.533  28.894  1.00  0.00     0.127 S 
ATOM    102  O   UNL A   1      39.885  28.500  27.927  1.00  0.00    -0.237 OA
ATOM    103  O   UNL A   1      39.453  30.759  28.807  1.00  0.00    -0.237 OA
ATOM    104  O   UNL A   1      41.678  29.760  29.059  1.00  0.00    -0.744 OA
ENDBRANCH  98 101
ENDBRANCH  71  94
ENDBRANCH  45  46
ENDBRANCH  37  40
ENDBRANCH  35  36
ENDBRANCH  34  35
ENDBRANCH  33  34
ENDBRANCH   1  33
TORSDOF 22
ENDMDL
