MODEL 1
REMARK VINA RESULT:     -11.9      0.000      0.000
REMARK SMILES O=C(NCCCCCCNC(=O)[C@@]1(Cc2ccnc3ccccc23)CCC[NH2+]C1)c1ccc(-c2c3nc(c(-c4cccc(S(=O)(=O)[O-])c4F)c4ccc([nH]4)c(-c4cccc(S(=O)(=O)[O-])c4F)c4nc(c(-c5cccc(S(=O)(=O)[O-])c5F)c5ccc2[nH]5)C=C4)C=C3)cc1
REMARK SMILES IDX 6 1 5 2 4 3 3 4 1 5 2 6 30 8 31 9 92 10 32 11 91 12 33 13
REMARK SMILES IDX 34 14 35 15 85 16 36 17 90 18 84 19 86 20 37 21 89 22 83 23
REMARK SMILES IDX 82 24 38 26 70 27 50 28 69 29 51 30 54 31 68 32 87 33 52 34
REMARK SMILES IDX 53 35 67 37 88 38 55 39 39 40 40 41 48 42 41 43 43 44 49 45
REMARK SMILES IDX 42 46 44 47 45 48 46 49 47 50 71 51 72 52 80 53 73 54 75 55
REMARK SMILES IDX 81 56 74 57 76 58 77 59 78 60 79 61 56 62 57 63 65 64 58 65
REMARK SMILES IDX 60 66 66 67 59 68 61 69 62 70 63 71 64 72 7 73 8 74 9 75
REMARK SMILES IDX 10 76 11 77 12 79 13 80 25 81 29 82 26 83 28 84 27 85 14 88
REMARK SMILES IDX 15 89 16 90 24 91 17 92 19 93 23 94 18 95 20 96 22 97 21 98
REMARK H PARENT 3 7 86 25 54 36 10 78 28 86 28 87
REMARK Flexibility Score: inf
ROOT
ATOM      1  C   UNL A   1      31.184  30.786  25.555  1.00  0.00     0.002 C 
ENDROOT
BRANCH   1   2
ATOM      2  C   UNL A   1      31.160  31.972  26.521  1.00  0.00     0.021 C 
BRANCH   2   3
ATOM      3  C   UNL A   1      32.544  32.471  26.911  1.00  0.00     0.116 C 
BRANCH   3   4
ATOM      4  N   UNL A   1      32.504  33.862  27.326  1.00  0.00    -0.352 N 
ATOM      5  O   UNL A   1      32.825  35.573  28.754  1.00  0.00    -0.269 OA
ATOM      6  C   UNL A   1      33.176  34.471  28.358  1.00  0.00     0.251 C 
ATOM      7  H   UNL A   1      31.915  34.448  26.797  1.00  0.00     0.163 HD
BRANCH   6   8
ATOM      8  C   UNL A   1      34.318  33.767  28.978  1.00  0.00     0.039 A 
ATOM      9  C   UNL A   1      35.624  34.198  28.724  1.00  0.00     0.014 A 
ATOM     10  C   UNL A   1      34.083  32.680  29.821  1.00  0.00     0.014 A 
ATOM     11  C   UNL A   1      36.698  33.463  29.206  1.00  0.00     0.010 A 
ATOM     12  C   UNL A   1      35.166  32.002  30.385  1.00  0.00     0.010 A 
ATOM     13  C   UNL A   1      36.481  32.376  30.067  1.00  0.00    -0.014 A 
BRANCH  13  14
ATOM     14  C   UNL A   1      37.648  31.720  30.703  1.00  0.00     0.031 A 
ATOM     15  C   UNL A   1      38.460  30.687  29.977  1.00  0.00     0.074 A 
ATOM     16  C   UNL A   1      37.957  32.064  31.969  1.00  0.00     0.049 A 
ATOM     17  N   UNL A   1      39.507  30.025  30.397  1.00  0.00    -0.248 NA
ATOM     18  C   UNL A   1      38.042  30.342  28.609  1.00  0.00     0.031 C 
ATOM     19  C   UNL A   1      37.204  33.021  32.786  1.00  0.00     0.029 A 
ATOM     20  N   UNL A   1      38.970  31.650  32.793  1.00  0.00    -0.354 N 
ATOM     21  C   UNL A   1      39.850  29.156  29.369  1.00  0.00     0.074 A 
ATOM     22  C   UNL A   1      38.894  29.371  28.303  1.00  0.00     0.031 C 
ATOM     23  C   UNL A   1      37.789  33.134  33.985  1.00  0.00     0.029 A 
ATOM     24  C   UNL A   1      38.917  32.213  34.047  1.00  0.00     0.049 A 
ATOM     25  H   UNL A   1      39.666  31.012  32.517  1.00  0.00     0.167 HD
ATOM     26  C   UNL A   1      40.872  28.269  29.318  1.00  0.00     0.034 A 
ATOM     27  C   UNL A   1      39.671  31.992  35.139  1.00  0.00     0.034 A 
ATOM     28  C   UNL A   1      41.828  28.081  30.379  1.00  0.00     0.049 A 
ATOM     29  C   UNL A   1      40.803  31.014  35.048  1.00  0.00     0.074 A 
ATOM     30  C   UNL A   1      42.941  27.260  30.396  1.00  0.00     0.029 A 
ATOM     31  N   UNL A   1      41.773  28.703  31.618  1.00  0.00    -0.354 N 
ATOM     32  N   UNL A   1      41.195  30.303  34.019  1.00  0.00    -0.248 NA
ATOM     33  C   UNL A   1      41.617  30.829  36.255  1.00  0.00     0.031 C 
ATOM     34  C   UNL A   1      43.539  27.358  31.658  1.00  0.00     0.029 A 
ATOM     35  C   UNL A   1      42.820  28.272  32.413  1.00  0.00     0.049 A 
ATOM     36  H   UNL A   1      41.088  29.356  31.890  1.00  0.00     0.167 HD
ATOM     37  C   UNL A   1      42.316  29.603  34.445  1.00  0.00     0.074 A 
ATOM     38  C   UNL A   1      42.556  30.000  35.818  1.00  0.00     0.031 C 
ATOM     39  C   UNL A   1      43.070  28.704  33.766  1.00  0.00     0.034 A 
BRANCH  26  40
ATOM     40  C   UNL A   1      41.028  27.443  28.066  1.00  0.00     0.023 A 
ATOM     41  C   UNL A   1      41.637  28.006  26.925  1.00  0.00     0.012 A 
ATOM     42  C   UNL A   1      40.629  26.092  28.039  1.00  0.00     0.148 A 
ATOM     43  C   UNL A   1      41.815  27.248  25.768  1.00  0.00     0.002 A 
ATOM     44  C   UNL A   1      40.851  25.330  26.897  1.00  0.00     0.091 A 
ATOM     45  F   UNL A   1      40.034  25.578  29.125  1.00  0.00    -0.205 F 
ATOM     46  C   UNL A   1      41.432  25.909  25.757  1.00  0.00     0.022 A 
BRANCH  44  47
ATOM     47  S   UNL A   1      40.467  23.578  26.811  1.00  0.00     0.127 S 
ATOM     48  O   UNL A   1      41.406  23.120  25.788  1.00  0.00    -0.237 OA
ATOM     49  O   UNL A   1      40.777  23.128  28.168  1.00  0.00    -0.237 OA
ATOM     50  O   UNL A   1      39.059  23.492  26.450  1.00  0.00    -0.744 OA
ENDBRANCH  44  47
ENDBRANCH  26  40
BRANCH  27  51
ATOM     51  C   UNL A   1      39.378  32.734  36.397  1.00  0.00     0.023 A 
ATOM     52  C   UNL A   1      39.923  34.017  36.592  1.00  0.00     0.012 A 
ATOM     53  C   UNL A   1      38.518  32.194  37.373  1.00  0.00     0.148 A 
ATOM     54  C   UNL A   1      39.637  34.738  37.752  1.00  0.00     0.002 A 
ATOM     55  C   UNL A   1      38.188  32.942  38.494  1.00  0.00     0.091 A 
ATOM     56  F   UNL A   1      38.019  30.967  37.169  1.00  0.00    -0.205 F 
ATOM     57  C   UNL A   1      38.760  34.207  38.696  1.00  0.00     0.022 A 
BRANCH  55  58
ATOM     58  S   UNL A   1      36.958  32.398  39.686  1.00  0.00     0.127 S 
ATOM     59  O   UNL A   1      37.031  33.452  40.692  1.00  0.00    -0.237 OA
ATOM     60  O   UNL A   1      35.738  32.397  38.879  1.00  0.00    -0.237 OA
ATOM     61  O   UNL A   1      37.390  31.075  40.120  1.00  0.00    -0.744 OA
ENDBRANCH  55  58
ENDBRANCH  27  51
BRANCH  39  62
ATOM     62  C   UNL A   1      44.249  28.108  34.487  1.00  0.00     0.023 A 
ATOM     63  C   UNL A   1      45.474  28.804  34.531  1.00  0.00     0.012 A 
ATOM     64  C   UNL A   1      44.126  26.883  35.170  1.00  0.00     0.148 A 
ATOM     65  C   UNL A   1      46.567  28.273  35.215  1.00  0.00     0.002 A 
ATOM     66  C   UNL A   1      45.202  26.385  35.894  1.00  0.00     0.091 A 
ATOM     67  F   UNL A   1      42.958  26.225  35.098  1.00  0.00    -0.205 F 
ATOM     68  C   UNL A   1      46.427  27.071  35.905  1.00  0.00     0.022 A 
BRANCH  66  69
ATOM     69  S   UNL A   1      45.086  24.897  36.892  1.00  0.00     0.127 S 
ATOM     70  O   UNL A   1      44.850  23.873  35.875  1.00  0.00    -0.237 OA
ATOM     71  O   UNL A   1      46.407  24.842  37.519  1.00  0.00    -0.237 OA
ATOM     72  O   UNL A   1      43.985  25.119  37.821  1.00  0.00    -0.744 OA
ENDBRANCH  66  69
ENDBRANCH  39  62
ENDBRANCH  13  14
ENDBRANCH   6   8
ENDBRANCH   3   4
ENDBRANCH   2   3
ENDBRANCH   1   2
BRANCH   1  73
ATOM     73  C   UNL A   1      32.240  29.718  25.874  1.00  0.00     0.002 C 
BRANCH  73  74
ATOM     74  C   UNL A   1      31.800  28.666  26.897  1.00  0.00     0.021 C 
BRANCH  74  75
ATOM     75  C   UNL A   1      32.529  27.333  26.740  1.00  0.00     0.116 C 
BRANCH  75  76
ATOM     76  N   UNL A   1      31.614  26.220  26.898  1.00  0.00    -0.355 N 
ATOM     77  C   UNL A   1      31.367  25.054  26.257  1.00  0.00     0.232 C 
ATOM     78  H   UNL A   1      31.019  26.344  27.671  1.00  0.00     0.163 HD
ATOM     79  O   UNL A   1      30.330  24.498  26.652  1.00  0.00    -0.274 OA
BRANCH  77  80
ATOM     80  C   UNL A   1      32.293  24.336  25.226  1.00  0.00     0.102 C 
ATOM     81  C   UNL A   1      33.741  24.519  25.755  1.00  0.00     0.029 C 
ATOM     82  C   UNL A   1      31.947  22.827  25.373  1.00  0.00     0.277 C 
ATOM     83  C   UNL A   1      34.742  23.522  25.167  1.00  0.00     0.063 C 
ATOM     84  N   UNL A   1      32.886  21.933  24.703  1.00  0.00    -0.345 N 
ATOM     85  C   UNL A   1      34.245  22.078  25.202  1.00  0.00     0.260 C 
ATOM     86  H   UNL A   1      32.584  20.970  24.852  1.00  0.00     0.346 HD
ATOM     87  H   UNL A   1      32.892  22.174  23.713  1.00  0.00     0.346 HD
BRANCH  80  88
ATOM     88  C   UNL A   1      32.119  24.887  23.775  1.00  0.00     0.059 C 
BRANCH  88  89
ATOM     89  C   UNL A   1      32.224  26.351  23.386  1.00  0.00    -0.036 A 
ATOM     90  C   UNL A   1      33.501  26.870  23.110  1.00  0.00     0.024 A 
ATOM     91  C   UNL A   1      31.118  27.226  23.285  1.00  0.00     0.003 A 
ATOM     92  C   UNL A   1      33.618  28.159  22.634  1.00  0.00     0.112 A 
ATOM     93  C   UNL A   1      31.342  28.491  22.693  1.00  0.00     0.070 A 
ATOM     94  C   UNL A   1      29.812  26.906  23.719  1.00  0.00     0.010 A 
ATOM     95  N   UNL A   1      32.563  28.951  22.377  1.00  0.00    -0.256 NA
ATOM     96  C   UNL A   1      30.249  29.297  22.410  1.00  0.00     0.029 A 
ATOM     97  C   UNL A   1      28.731  27.738  23.434  1.00  0.00     0.001 A 
ATOM     98  C   UNL A   1      28.947  28.922  22.746  1.00  0.00     0.002 A 
ENDBRANCH  88  89
ENDBRANCH  80  88
ENDBRANCH  77  80
ENDBRANCH  75  76
ENDBRANCH  74  75
ENDBRANCH  73  74
ENDBRANCH   1  73
TORSDOF 18
ENDMDL
MODEL 2
REMARK VINA RESULT:     -11.7      5.757     11.266
REMARK SMILES O=C(NCCCCCCNC(=O)[C@@]1(Cc2ccnc3ccccc23)CCC[NH2+]C1)c1ccc(-c2c3nc(c(-c4cccc(S(=O)(=O)[O-])c4F)c4ccc([nH]4)c(-c4cccc(S(=O)(=O)[O-])c4F)c4nc(c(-c5cccc(S(=O)(=O)[O-])c5F)c5ccc2[nH]5)C=C4)C=C3)cc1
REMARK SMILES IDX 6 1 5 2 4 3 3 4 1 5 2 6 30 8 31 9 92 10 32 11 91 12 33 13
REMARK SMILES IDX 34 14 35 15 85 16 36 17 90 18 84 19 86 20 37 21 89 22 83 23
REMARK SMILES IDX 82 24 38 26 70 27 50 28 69 29 51 30 54 31 68 32 87 33 52 34
REMARK SMILES IDX 53 35 67 37 88 38 55 39 39 40 40 41 48 42 41 43 43 44 49 45
REMARK SMILES IDX 42 46 44 47 45 48 46 49 47 50 71 51 72 52 80 53 73 54 75 55
REMARK SMILES IDX 81 56 74 57 76 58 77 59 78 60 79 61 56 62 57 63 65 64 58 65
REMARK SMILES IDX 60 66 66 67 59 68 61 69 62 70 63 71 64 72 7 73 8 74 9 75
REMARK SMILES IDX 10 76 11 77 12 79 13 80 25 81 29 82 26 83 28 84 27 85 14 88
REMARK SMILES IDX 15 89 16 90 24 91 17 92 19 93 23 94 18 95 20 96 22 97 21 98
REMARK H PARENT 3 7 86 25 54 36 10 78 28 86 28 87
REMARK Flexibility Score: inf
ROOT
ATOM      1  C   UNL A   1      36.733  20.460  24.920  1.00  0.00     0.002 C 
ENDROOT
BRANCH   1   2
ATOM      2  C   UNL A   1      37.985  19.582  24.981  1.00  0.00     0.021 C 
BRANCH   2   3
ATOM      3  C   UNL A   1      39.041  20.091  25.951  1.00  0.00     0.116 C 
BRANCH   3   4
ATOM      4  N   UNL A   1      40.171  19.181  26.023  1.00  0.00    -0.352 N 
ATOM      5  O   UNL A   1      42.342  18.610  25.849  1.00  0.00    -0.269 OA
ATOM      6  C   UNL A   1      41.511  19.477  26.076  1.00  0.00     0.251 C 
ATOM      7  H   UNL A   1      39.947  18.222  26.034  1.00  0.00     0.163 HD
BRANCH   6   8
ATOM      8  C   UNL A   1      41.923  20.859  26.405  1.00  0.00     0.039 A 
ATOM      9  C   UNL A   1      42.078  21.802  25.384  1.00  0.00     0.014 A 
ATOM     10  C   UNL A   1      42.149  21.213  27.735  1.00  0.00     0.014 A 
ATOM     11  C   UNL A   1      42.583  23.060  25.679  1.00  0.00     0.010 A 
ATOM     12  C   UNL A   1      42.563  22.512  28.040  1.00  0.00     0.010 A 
ATOM     13  C   UNL A   1      42.802  23.439  27.013  1.00  0.00    -0.014 A 
BRANCH  13  14
ATOM     14  C   UNL A   1      43.174  24.842  27.309  1.00  0.00     0.031 A 
ATOM     15  C   UNL A   1      42.213  25.787  27.969  1.00  0.00     0.074 A 
ATOM     16  C   UNL A   1      44.405  25.261  26.953  1.00  0.00     0.049 A 
ATOM     17  N   UNL A   1      42.390  27.042  28.293  1.00  0.00    -0.248 NA
ATOM     18  C   UNL A   1      40.877  25.266  28.299  1.00  0.00     0.031 C 
ATOM     19  C   UNL A   1      45.403  24.438  26.261  1.00  0.00     0.029 A 
ATOM     20  N   UNL A   1      45.027  26.471  27.111  1.00  0.00    -0.354 N 
ATOM     21  C   UNL A   1      41.183  27.475  28.826  1.00  0.00     0.074 A 
ATOM     22  C   UNL A   1      40.275  26.349  28.776  1.00  0.00     0.031 C 
ATOM     23  C   UNL A   1      46.514  25.161  26.070  1.00  0.00     0.029 A 
ATOM     24  C   UNL A   1      46.288  26.512  26.566  1.00  0.00     0.049 A 
ATOM     25  H   UNL A   1      44.611  27.236  27.570  1.00  0.00     0.167 HD
ATOM     26  C   UNL A   1      40.866  28.698  29.317  1.00  0.00     0.034 A 
ATOM     27  C   UNL A   1      47.158  27.532  26.446  1.00  0.00     0.034 A 
ATOM     28  C   UNL A   1      41.787  29.803  29.378  1.00  0.00     0.049 A 
ATOM     29  C   UNL A   1      46.784  28.869  27.012  1.00  0.00     0.074 A 
ATOM     30  C   UNL A   1      41.586  31.059  29.923  1.00  0.00     0.029 A 
ATOM     31  N   UNL A   1      43.073  29.796  28.859  1.00  0.00    -0.354 N 
ATOM     32  N   UNL A   1      45.687  29.220  27.636  1.00  0.00    -0.248 NA
ATOM     33  C   UNL A   1      47.778  29.941  26.886  1.00  0.00     0.031 C 
ATOM     34  C   UNL A   1      42.738  31.823  29.702  1.00  0.00     0.029 A 
ATOM     35  C   UNL A   1      43.672  31.029  29.054  1.00  0.00     0.049 A 
ATOM     36  H   UNL A   1      43.499  29.025  28.418  1.00  0.00     0.167 HD
ATOM     37  C   UNL A   1      45.865  30.548  28.000  1.00  0.00     0.074 A 
ATOM     38  C   UNL A   1      47.190  30.927  27.549  1.00  0.00     0.031 C 
ATOM     39  C   UNL A   1      45.006  31.381  28.636  1.00  0.00     0.034 A 
BRANCH  26  40
ATOM     40  C   UNL A   1      39.470  28.904  29.848  1.00  0.00     0.023 A 
ATOM     41  C   UNL A   1      39.151  28.497  31.160  1.00  0.00     0.012 A 
ATOM     42  C   UNL A   1      38.492  29.559  29.072  1.00  0.00     0.148 A 
ATOM     43  C   UNL A   1      37.873  28.705  31.678  1.00  0.00     0.002 A 
ATOM     44  C   UNL A   1      37.234  29.804  29.612  1.00  0.00     0.091 A 
ATOM     45  F   UNL A   1      38.806  29.922  27.821  1.00  0.00    -0.205 F 
ATOM     46  C   UNL A   1      36.919  29.367  30.909  1.00  0.00     0.022 A 
BRANCH  44  47
ATOM     47  S   UNL A   1      35.964  30.719  28.731  1.00  0.00     0.127 S 
ATOM     48  O   UNL A   1      36.761  31.715  28.017  1.00  0.00    -0.237 OA
ATOM     49  O   UNL A   1      35.375  29.685  27.880  1.00  0.00    -0.237 OA
ATOM     50  O   UNL A   1      35.070  31.248  29.752  1.00  0.00    -0.744 OA
ENDBRANCH  44  47
ENDBRANCH  26  40
BRANCH  27  51
ATOM     51  C   UNL A   1      48.470  27.304  25.780  1.00  0.00     0.023 A 
ATOM     52  C   UNL A   1      49.561  26.828  26.531  1.00  0.00     0.012 A 
ATOM     53  C   UNL A   1      48.623  27.505  24.394  1.00  0.00     0.148 A 
ATOM     54  C   UNL A   1      50.790  26.582  25.918  1.00  0.00     0.002 A 
ATOM     55  C   UNL A   1      49.829  27.199  23.779  1.00  0.00     0.091 A 
ATOM     56  F   UNL A   1      47.573  27.967  23.700  1.00  0.00    -0.205 F 
ATOM     57  C   UNL A   1      50.920  26.755  24.541  1.00  0.00     0.022 A 
BRANCH  55  58
ATOM     58  S   UNL A   1      50.041  27.254  21.996  1.00  0.00     0.127 S 
ATOM     59  O   UNL A   1      48.993  26.344  21.544  1.00  0.00    -0.237 OA
ATOM     60  O   UNL A   1      49.799  28.667  21.708  1.00  0.00    -0.237 OA
ATOM     61  O   UNL A   1      51.409  26.817  21.749  1.00  0.00    -0.744 OA
ENDBRANCH  55  58
ENDBRANCH  27  51
BRANCH  39  62
ATOM     62  C   UNL A   1      45.481  32.782  28.915  1.00  0.00     0.023 A 
ATOM     63  C   UNL A   1      46.216  33.057  30.086  1.00  0.00     0.012 A 
ATOM     64  C   UNL A   1      45.250  33.815  27.985  1.00  0.00     0.148 A 
ATOM     65  C   UNL A   1      46.682  34.346  30.343  1.00  0.00     0.002 A 
ATOM     66  C   UNL A   1      45.762  35.084  28.223  1.00  0.00     0.091 A 
ATOM     67  F   UNL A   1      44.530  33.538  26.887  1.00  0.00    -0.205 F 
ATOM     68  C   UNL A   1      46.465  35.355  29.408  1.00  0.00     0.022 A 
BRANCH  66  69
ATOM     69  S   UNL A   1      45.617  36.419  27.032  1.00  0.00     0.127 S 
ATOM     70  O   UNL A   1      46.351  37.494  27.697  1.00  0.00    -0.237 OA
ATOM     71  O   UNL A   1      46.287  35.860  25.857  1.00  0.00    -0.237 OA
ATOM     72  O   UNL A   1      44.189  36.652  26.859  1.00  0.00    -0.744 OA
ENDBRANCH  66  69
ENDBRANCH  39  62
ENDBRANCH  13  14
ENDBRANCH   6   8
ENDBRANCH   3   4
ENDBRANCH   2   3
ENDBRANCH   1   2
BRANCH   1  73
ATOM     73  C   UNL A   1      37.009  21.963  24.772  1.00  0.00     0.002 C 
BRANCH  73  74
ATOM     74  C   UNL A   1      36.176  22.665  23.694  1.00  0.00     0.021 C 
BRANCH  74  75
ATOM     75  C   UNL A   1      35.445  23.903  24.211  1.00  0.00     0.116 C 
BRANCH  75  76
ATOM     76  N   UNL A   1      34.582  24.460  23.188  1.00  0.00    -0.355 N 
ATOM     77  C   UNL A   1      33.333  24.976  23.133  1.00  0.00     0.232 C 
ATOM     78  H   UNL A   1      35.018  24.464  22.306  1.00  0.00     0.163 HD
ATOM     79  O   UNL A   1      32.936  25.154  21.970  1.00  0.00    -0.274 OA
BRANCH  77  80
ATOM     80  C   UNL A   1      32.463  25.460  24.335  1.00  0.00     0.102 C 
ATOM     81  C   UNL A   1      33.420  26.266  25.255  1.00  0.00     0.029 C 
ATOM     82  C   UNL A   1      31.469  26.481  23.714  1.00  0.00     0.277 C 
ATOM     83  C   UNL A   1      32.697  27.202  26.226  1.00  0.00     0.063 C 
ATOM     84  N   UNL A   1      30.736  27.272  24.698  1.00  0.00    -0.345 N 
ATOM     85  C   UNL A   1      31.618  28.049  25.555  1.00  0.00     0.260 C 
ATOM     86  H   UNL A   1      30.112  27.911  24.204  1.00  0.00     0.346 HD
ATOM     87  H   UNL A   1      30.217  26.627  25.291  1.00  0.00     0.346 HD
BRANCH  80  88
ATOM     88  C   UNL A   1      31.772  24.280  25.090  1.00  0.00     0.059 C 
BRANCH  88  89
ATOM     89  C   UNL A   1      32.503  23.114  25.731  1.00  0.00    -0.036 A 
ATOM     90  C   UNL A   1      33.066  23.310  27.004  1.00  0.00     0.024 A 
ATOM     91  C   UNL A   1      32.655  21.845  25.128  1.00  0.00     0.003 A 
ATOM     92  C   UNL A   1      33.628  22.239  27.666  1.00  0.00     0.112 A 
ATOM     93  C   UNL A   1      33.155  20.797  25.936  1.00  0.00     0.070 A 
ATOM     94  C   UNL A   1      32.320  21.560  23.785  1.00  0.00     0.010 A 
ATOM     95  N   UNL A   1      33.635  20.987  27.176  1.00  0.00    -0.256 NA
ATOM     96  C   UNL A   1      33.141  19.504  25.434  1.00  0.00     0.029 A 
ATOM     97  C   UNL A   1      32.325  20.254  23.299  1.00  0.00     0.001 A 
ATOM     98  C   UNL A   1      32.705  19.218  24.139  1.00  0.00     0.002 A 
ENDBRANCH  88  89
ENDBRANCH  80  88
ENDBRANCH  77  80
ENDBRANCH  75  76
ENDBRANCH  74  75
ENDBRANCH  73  74
ENDBRANCH   1  73
TORSDOF 18
ENDMDL
MODEL 3
REMARK VINA RESULT:     -11.7      1.778      3.403
REMARK SMILES O=C(NCCCCCCNC(=O)[C@@]1(Cc2ccnc3ccccc23)CCC[NH2+]C1)c1ccc(-c2c3nc(c(-c4cccc(S(=O)(=O)[O-])c4F)c4ccc([nH]4)c(-c4cccc(S(=O)(=O)[O-])c4F)c4nc(c(-c5cccc(S(=O)(=O)[O-])c5F)c5ccc2[nH]5)C=C4)C=C3)cc1
REMARK SMILES IDX 6 1 5 2 4 3 3 4 1 5 2 6 30 8 31 9 92 10 32 11 91 12 33 13
REMARK SMILES IDX 34 14 35 15 85 16 36 17 90 18 84 19 86 20 37 21 89 22 83 23
REMARK SMILES IDX 82 24 38 26 70 27 50 28 69 29 51 30 54 31 68 32 87 33 52 34
REMARK SMILES IDX 53 35 67 37 88 38 55 39 39 40 40 41 48 42 41 43 43 44 49 45
REMARK SMILES IDX 42 46 44 47 45 48 46 49 47 50 71 51 72 52 80 53 73 54 75 55
REMARK SMILES IDX 81 56 74 57 76 58 77 59 78 60 79 61 56 62 57 63 65 64 58 65
REMARK SMILES IDX 60 66 66 67 59 68 61 69 62 70 63 71 64 72 7 73 8 74 9 75
REMARK SMILES IDX 10 76 11 77 12 79 13 80 25 81 29 82 26 83 28 84 27 85 14 88
REMARK SMILES IDX 15 89 16 90 24 91 17 92 19 93 23 94 18 95 20 96 22 97 21 98
REMARK H PARENT 3 7 86 25 54 36 10 78 28 86 28 87
REMARK Flexibility Score: inf
ROOT
ATOM      1  C   UNL A   1      31.607  30.740  26.160  1.00  0.00     0.002 C 
ENDROOT
BRANCH   1   2
ATOM      2  C   UNL A   1      31.489  32.136  26.775  1.00  0.00     0.021 C 
BRANCH   2   3
ATOM      3  C   UNL A   1      32.824  32.733  27.197  1.00  0.00     0.116 C 
BRANCH   3   4
ATOM      4  N   UNL A   1      32.659  34.085  27.703  1.00  0.00    -0.352 N 
ATOM      5  O   UNL A   1      32.763  35.702  29.265  1.00  0.00    -0.269 OA
ATOM      6  C   UNL A   1      33.216  34.658  28.820  1.00  0.00     0.251 C 
ATOM      7  H   UNL A   1      32.068  34.669  27.174  1.00  0.00     0.163 HD
BRANCH   6   8
ATOM      8  C   UNL A   1      34.361  33.986  29.471  1.00  0.00     0.039 A 
ATOM      9  C   UNL A   1      35.666  34.297  29.080  1.00  0.00     0.014 A 
ATOM     10  C   UNL A   1      34.128  33.049  30.478  1.00  0.00     0.014 A 
ATOM     11  C   UNL A   1      36.732  33.579  29.604  1.00  0.00     0.010 A 
ATOM     12  C   UNL A   1      35.210  32.397  31.073  1.00  0.00     0.010 A 
ATOM     13  C   UNL A   1      36.518  32.643  30.628  1.00  0.00    -0.014 A 
BRANCH  13  14
ATOM     14  C   UNL A   1      37.690  32.019  31.286  1.00  0.00     0.031 A 
ATOM     15  C   UNL A   1      38.454  30.903  30.635  1.00  0.00     0.074 A 
ATOM     16  C   UNL A   1      38.049  32.471  32.504  1.00  0.00     0.049 A 
ATOM     17  N   UNL A   1      39.499  30.256  31.083  1.00  0.00    -0.248 NA
ATOM     18  C   UNL A   1      37.983  30.443  29.319  1.00  0.00     0.031 C 
ATOM     19  C   UNL A   1      37.346  33.519  33.251  1.00  0.00     0.029 A 
ATOM     20  N   UNL A   1      39.079  32.109  33.332  1.00  0.00    -0.354 N 
ATOM     21  C   UNL A   1      39.788  29.287  30.130  1.00  0.00     0.074 A 
ATOM     22  C   UNL A   1      38.803  29.427  29.078  1.00  0.00     0.031 C 
ATOM     23  C   UNL A   1      37.973  33.726  34.416  1.00  0.00     0.029 A 
ATOM     24  C   UNL A   1      39.080  32.787  34.528  1.00  0.00     0.049 A 
ATOM     25  H   UNL A   1      39.751  31.431  33.095  1.00  0.00     0.167 HD
ATOM     26  C   UNL A   1      40.788  28.373  30.131  1.00  0.00     0.034 A 
ATOM     27  C   UNL A   1      39.865  32.649  35.613  1.00  0.00     0.034 A 
ATOM     28  C   UNL A   1      41.773  28.259  31.174  1.00  0.00     0.049 A 
ATOM     29  C   UNL A   1      40.972  31.638  35.578  1.00  0.00     0.074 A 
ATOM     30  C   UNL A   1      42.868  27.415  31.234  1.00  0.00     0.029 A 
ATOM     31  N   UNL A   1      41.774  28.994  32.351  1.00  0.00    -0.354 N 
ATOM     32  N   UNL A   1      41.312  30.824  34.609  1.00  0.00    -0.248 NA
ATOM     33  C   UNL A   1      41.820  31.545  36.772  1.00  0.00     0.031 C 
ATOM     34  C   UNL A   1      43.510  27.614  32.462  1.00  0.00     0.029 A 
ATOM     35  C   UNL A   1      42.837  28.612  33.150  1.00  0.00     0.049 A 
ATOM     36  H   UNL A   1      41.114  29.688  32.582  1.00  0.00     0.167 HD
ATOM     37  C   UNL A   1      42.431  30.139  35.063  1.00  0.00     0.074 A 
ATOM     38  C   UNL A   1      42.725  30.655  36.386  1.00  0.00     0.031 C 
ATOM     39  C   UNL A   1      43.141  29.162  34.448  1.00  0.00     0.034 A 
BRANCH  26  40
ATOM     40  C   UNL A   1      40.883  27.431  28.957  1.00  0.00     0.023 A 
ATOM     41  C   UNL A   1      39.995  26.339  28.860  1.00  0.00     0.012 A 
ATOM     42  C   UNL A   1      41.807  27.663  27.919  1.00  0.00     0.148 A 
ATOM     43  C   UNL A   1      40.050  25.474  27.767  1.00  0.00     0.002 A 
ATOM     44  C   UNL A   1      41.825  26.822  26.811  1.00  0.00     0.091 A 
ATOM     45  F   UNL A   1      42.656  28.693  28.036  1.00  0.00    -0.205 F 
ATOM     46  C   UNL A   1      40.956  25.721  26.739  1.00  0.00     0.022 A 
BRANCH  44  47
ATOM     47  S   UNL A   1      42.899  27.102  25.399  1.00  0.00     0.127 S 
ATOM     48  O   UNL A   1      44.180  27.365  26.052  1.00  0.00    -0.237 OA
ATOM     49  O   UNL A   1      42.824  25.821  24.697  1.00  0.00    -0.237 OA
ATOM     50  O   UNL A   1      42.324  28.226  24.673  1.00  0.00    -0.744 OA
ENDBRANCH  44  47
ENDBRANCH  26  40
BRANCH  27  51
ATOM     51  C   UNL A   1      39.631  33.511  36.804  1.00  0.00     0.023 A 
ATOM     52  C   UNL A   1      40.068  34.849  36.793  1.00  0.00     0.012 A 
ATOM     53  C   UNL A   1      38.929  33.025  37.924  1.00  0.00     0.148 A 
ATOM     54  C   UNL A   1      39.833  35.680  37.889  1.00  0.00     0.002 A 
ATOM     55  C   UNL A   1      38.644  33.873  38.984  1.00  0.00     0.091 A 
ATOM     56  F   UNL A   1      38.530  31.745  37.916  1.00  0.00    -0.205 F 
ATOM     57  C   UNL A   1      39.110  35.197  38.978  1.00  0.00     0.022 A 
BRANCH  55  58
ATOM     58  S   UNL A   1      37.597  33.378  40.358  1.00  0.00     0.127 S 
ATOM     59  O   UNL A   1      36.371  32.986  39.672  1.00  0.00    -0.237 OA
ATOM     60  O   UNL A   1      38.362  32.273  40.936  1.00  0.00    -0.237 OA
ATOM     61  O   UNL A   1      37.496  34.551  41.217  1.00  0.00    -0.744 OA
ENDBRANCH  55  58
ENDBRANCH  27  51
BRANCH  39  62
ATOM     62  C   UNL A   1      44.330  28.604  35.185  1.00  0.00     0.023 A 
ATOM     63  C   UNL A   1      45.617  29.123  34.940  1.00  0.00     0.012 A 
ATOM     64  C   UNL A   1      44.162  27.606  36.164  1.00  0.00     0.148 A 
ATOM     65  C   UNL A   1      46.723  28.631  35.632  1.00  0.00     0.002 A 
ATOM     66  C   UNL A   1      45.260  27.158  36.887  1.00  0.00     0.091 A 
ATOM     67  F   UNL A   1      42.932  27.110  36.367  1.00  0.00    -0.205 F 
ATOM     68  C   UNL A   1      46.543  27.659  36.613  1.00  0.00     0.022 A 
BRANCH  66  69
ATOM     69  S   UNL A   1      45.110  25.980  38.234  1.00  0.00     0.127 S 
ATOM     70  O   UNL A   1      46.491  25.885  38.703  1.00  0.00    -0.237 OA
ATOM     71  O   UNL A   1      44.201  26.672  39.149  1.00  0.00    -0.237 OA
ATOM     72  O   UNL A   1      44.564  24.763  37.646  1.00  0.00    -0.744 OA
ENDBRANCH  66  69
ENDBRANCH  39  62
ENDBRANCH  13  14
ENDBRANCH   6   8
ENDBRANCH   3   4
ENDBRANCH   2   3
ENDBRANCH   1   2
BRANCH   1  73
ATOM     73  C   UNL A   1      32.440  29.744  26.979  1.00  0.00     0.002 C 
BRANCH  73  74
ATOM     74  C   UNL A   1      31.799  28.363  27.154  1.00  0.00     0.021 C 
BRANCH  74  75
ATOM     75  C   UNL A   1      31.247  27.788  25.851  1.00  0.00     0.116 C 
BRANCH  75  76
ATOM     76  N   UNL A   1      32.318  27.486  24.922  1.00  0.00    -0.355 N 
ATOM     77  C   UNL A   1      33.009  26.386  24.545  1.00  0.00     0.232 C 
ATOM     78  H   UNL A   1      32.622  28.290  24.442  1.00  0.00     0.163 HD
ATOM     79  O   UNL A   1      33.993  26.655  23.837  1.00  0.00    -0.274 OA
BRANCH  77  80
ATOM     80  C   UNL A   1      32.615  24.898  24.798  1.00  0.00     0.102 C 
ATOM     81  C   UNL A   1      32.851  24.647  26.312  1.00  0.00     0.029 C 
ATOM     82  C   UNL A   1      31.078  24.854  24.569  1.00  0.00     0.277 C 
ATOM     83  C   UNL A   1      32.107  23.426  26.858  1.00  0.00     0.063 C 
ATOM     84  N   UNL A   1      30.443  23.620  25.019  1.00  0.00    -0.345 N 
ATOM     85  C   UNL A   1      30.638  23.381  26.441  1.00  0.00     0.260 C 
ATOM     86  H   UNL A   1      29.442  23.679  24.832  1.00  0.00     0.346 HD
ATOM     87  H   UNL A   1      30.873  22.847  24.513  1.00  0.00     0.346 HD
BRANCH  80  88
ATOM     88  C   UNL A   1      33.418  23.902  23.902  1.00  0.00     0.059 C 
BRANCH  88  89
ATOM     89  C   UNL A   1      34.140  22.666  24.410  1.00  0.00    -0.036 A 
ATOM     90  C   UNL A   1      33.469  21.433  24.334  1.00  0.00     0.024 A 
ATOM     91  C   UNL A   1      35.443  22.678  24.956  1.00  0.00     0.003 A 
ATOM     92  C   UNL A   1      34.141  20.278  24.671  1.00  0.00     0.112 A 
ATOM     93  C   UNL A   1      36.069  21.428  25.172  1.00  0.00     0.070 A 
ATOM     94  C   UNL A   1      36.158  23.855  25.277  1.00  0.00     0.010 A 
ATOM     95  N   UNL A   1      35.434  20.253  25.037  1.00  0.00    -0.256 NA
ATOM     96  C   UNL A   1      37.409  21.407  25.529  1.00  0.00     0.029 A 
ATOM     97  C   UNL A   1      37.501  23.808  25.646  1.00  0.00     0.001 A 
ATOM     98  C   UNL A   1      38.138  22.580  25.739  1.00  0.00     0.002 A 
ENDBRANCH  88  89
ENDBRANCH  80  88
ENDBRANCH  77  80
ENDBRANCH  75  76
ENDBRANCH  74  75
ENDBRANCH  73  74
ENDBRANCH   1  73
TORSDOF 18
ENDMDL
