MODEL 1
REMARK VINA RESULT:     -11.8      0.000      0.000
REMARK SMILES Cc1ccccc1NC(=O)C[NH+]1CCC(CC(=O)NCCCCCCNC(=O)c2ccc(-c3c4nc(c(-c5cccc(S(=O)(=O)[O-])c5F)c5ccc([nH]5)c(-c5cccc(S(=O)(=O)[O-])c5F)c5nc(c(-c6cccc(S(=O)(=O)[O-])c6F)c6ccc3[nH]6)C=C5)C=C4)cc2)CC1
REMARK SMILES IDX 22 1 21 2 20 3 19 4 17 5 18 6 16 8 15 9 12 10 13 11 93 12
REMARK SMILES IDX 14 14 92 15 11 16 9 17 8 18 10 20 7 21 1 22 2 23 3 24 4 25
REMARK SMILES IDX 6 26 5 27 23 28 24 29 25 30 26 31 27 32 28 34 29 35 30 36
REMARK SMILES IDX 91 37 31 38 90 39 32 40 33 41 34 42 84 43 35 44 89 45 83 46
REMARK SMILES IDX 85 47 36 48 88 49 82 50 81 51 37 53 69 54 49 55 68 56 50 57
REMARK SMILES IDX 53 58 67 59 86 60 51 61 52 62 66 64 87 65 54 66 38 67 39 68
REMARK SMILES IDX 47 69 40 70 42 71 48 72 41 73 43 74 44 75 45 76 46 77 70 78
REMARK SMILES IDX 71 79 79 80 72 81 74 82 80 83 73 84 75 85 76 86 77 87 78 88
REMARK SMILES IDX 55 89 56 90 64 91 57 92 59 93 65 94 58 95 60 96 61 97 62 98
REMARK SMILES IDX 63 99
REMARK H PARENT 19 7 12 13 8 19 26 33 85 52 53 63
REMARK Flexibility Score: inf
ROOT
ATOM      1  C   UNL A   1      35.738  22.933  23.474  1.00  0.00     0.002 C 
ENDROOT
BRANCH   1   2
ATOM      2  C   UNL A   1      34.723  23.591  24.403  1.00  0.00     0.021 C 
BRANCH   2   3
ATOM      3  C   UNL A   1      34.093  22.653  25.438  1.00  0.00     0.116 C 
BRANCH   3   4
ATOM      4  N   UNL A   1      33.333  23.397  26.426  1.00  0.00    -0.356 N 
ATOM      5  C   UNL A   1      32.005  23.706  26.452  1.00  0.00     0.220 C 
ATOM      6  O   UNL A   1      31.581  24.421  27.361  1.00  0.00    -0.275 OA
ATOM      7  H   UNL A   1      33.855  23.727  27.194  1.00  0.00     0.163 HD
BRANCH   5   8
ATOM      8  C   UNL A   1      31.071  23.148  25.394  1.00  0.00     0.104 C 
BRANCH   8   9
ATOM      9  C   UNL A   1      30.528  24.182  24.394  1.00  0.00     0.009 C 
ATOM     10  N   UNL A   1      30.421  26.964  23.412  1.00  0.00    -0.327 N 
ATOM     11  C   UNL A   1      29.256  26.394  24.086  1.00  0.00     0.262 C 
ATOM     12  C   UNL A   1      31.204  25.940  22.730  1.00  0.00     0.262 C 
ATOM     13  H   UNL A   1      31.037  27.349  24.128  1.00  0.00     0.348 HD
ATOM     14  C   UNL A   1      29.679  25.280  25.035  1.00  0.00     0.066 C 
ATOM     15  C   UNL A   1      31.700  24.840  23.660  1.00  0.00     0.066 C 
BRANCH  10  16
ATOM     16  C   UNL A   1      30.055  28.120  22.547  1.00  0.00     0.363 C 
BRANCH  16  17
ATOM     17  C   UNL A   1      30.236  29.516  23.172  1.00  0.00     0.279 C 
ATOM     18  N   UNL A   1      31.119  29.800  24.178  1.00  0.00    -0.321 N 
ATOM     19  H   UNL A   1      31.100  30.734  24.488  1.00  0.00     0.170 HD
ATOM     20  O   UNL A   1      29.632  30.486  22.695  1.00  0.00    -0.268 OA
BRANCH  18  21
ATOM     21  C   UNL A   1      32.046  28.985  24.839  1.00  0.00     0.044 A 
ATOM     22  C   UNL A   1      33.641  29.113  22.819  1.00  0.00     0.046 C 
ATOM     23  C   UNL A   1      33.211  28.574  24.157  1.00  0.00    -0.027 A 
ATOM     24  C   UNL A   1      34.003  27.561  24.728  1.00  0.00     0.005 A 
ATOM     25  C   UNL A   1      33.672  26.996  25.959  1.00  0.00     0.000 A 
ATOM     26  C   UNL A   1      31.792  28.496  26.125  1.00  0.00     0.026 A 
ATOM     27  C   UNL A   1      32.587  27.489  26.674  1.00  0.00     0.002 A 
ENDBRANCH  18  21
ENDBRANCH  16  17
ENDBRANCH  10  16
ENDBRANCH   8   9
ENDBRANCH   5   8
ENDBRANCH   3   4
ENDBRANCH   2   3
ENDBRANCH   1   2
BRANCH   1  28
ATOM     28  C   UNL A   1      36.534  21.782  24.093  1.00  0.00     0.002 C 
BRANCH  28  29
ATOM     29  C   UNL A   1      37.869  22.177  24.726  1.00  0.00     0.021 C 
BRANCH  29  30
ATOM     30  C   UNL A   1      37.851  22.163  26.246  1.00  0.00     0.116 C 
BRANCH  30  31
ATOM     31  N   UNL A   1      39.199  22.173  26.775  1.00  0.00    -0.352 N 
ATOM     32  C   UNL A   1      40.142  23.174  26.722  1.00  0.00     0.251 C 
ATOM     33  H   UNL A   1      39.480  21.350  27.238  1.00  0.00     0.163 HD
ATOM     34  O   UNL A   1      41.330  22.861  26.687  1.00  0.00    -0.269 OA
BRANCH  32  35
ATOM     35  C   UNL A   1      39.719  24.577  26.965  1.00  0.00     0.039 A 
ATOM     36  C   UNL A   1      40.439  25.557  26.264  1.00  0.00     0.014 A 
ATOM     37  C   UNL A   1      38.961  24.928  28.075  1.00  0.00     0.014 A 
ATOM     38  C   UNL A   1      40.641  26.804  26.838  1.00  0.00     0.010 A 
ATOM     39  C   UNL A   1      39.223  26.127  28.689  1.00  0.00     0.010 A 
ATOM     40  C   UNL A   1      40.133  27.018  28.108  1.00  0.00    -0.014 A 
BRANCH  40  41
ATOM     41  C   UNL A   1      40.426  28.165  28.942  1.00  0.00     0.031 A 
ATOM     42  C   UNL A   1      39.573  29.352  28.816  1.00  0.00     0.074 A 
ATOM     43  C   UNL A   1      41.211  27.953  30.022  1.00  0.00     0.049 A 
ATOM     44  N   UNL A   1      39.748  30.443  29.471  1.00  0.00    -0.248 NA
ATOM     45  C   UNL A   1      38.448  29.403  27.887  1.00  0.00     0.031 C 
ATOM     46  C   UNL A   1      41.195  28.681  31.282  1.00  0.00     0.029 A 
ATOM     47  N   UNL A   1      42.343  27.133  30.114  1.00  0.00    -0.354 N 
ATOM     48  C   UNL A   1      38.597  31.185  29.324  1.00  0.00     0.074 A 
ATOM     49  C   UNL A   1      37.904  30.575  28.218  1.00  0.00     0.031 C 
ATOM     50  C   UNL A   1      42.374  28.503  31.896  1.00  0.00     0.029 A 
ATOM     51  C   UNL A   1      43.239  27.830  30.943  1.00  0.00     0.049 A 
ATOM     52  H   UNL A   1      42.480  26.256  29.689  1.00  0.00     0.167 HD
ATOM     53  C   UNL A   1      38.308  32.111  30.279  1.00  0.00     0.034 A 
ATOM     54  C   UNL A   1      44.435  28.323  30.501  1.00  0.00     0.034 A 
ATOM     55  C   UNL A   1      39.478  32.316  31.156  1.00  0.00     0.049 A 
ATOM     56  C   UNL A   1      44.550  29.832  30.641  1.00  0.00     0.074 A 
ATOM     57  C   UNL A   1      39.799  31.902  32.438  1.00  0.00     0.029 A 
ATOM     58  N   UNL A   1      40.661  32.791  30.595  1.00  0.00    -0.354 N 
ATOM     59  N   UNL A   1      43.572  30.632  30.972  1.00  0.00    -0.248 NA
ATOM     60  C   UNL A   1      45.793  30.558  30.414  1.00  0.00     0.031 C 
ATOM     61  C   UNL A   1      41.207  32.055  32.609  1.00  0.00     0.029 A 
ATOM     62  C   UNL A   1      41.736  32.598  31.448  1.00  0.00     0.049 A 
ATOM     63  H   UNL A   1      40.724  33.210  29.706  1.00  0.00     0.167 HD
ATOM     64  C   UNL A   1      43.976  31.943  30.900  1.00  0.00     0.074 A 
ATOM     65  C   UNL A   1      45.401  31.828  30.623  1.00  0.00     0.031 C 
ATOM     66  C   UNL A   1      43.088  32.986  31.029  1.00  0.00     0.034 A 
BRANCH  53  67
ATOM     67  C   UNL A   1      36.922  32.668  30.599  1.00  0.00     0.023 A 
ATOM     68  C   UNL A   1      36.380  32.338  31.864  1.00  0.00     0.012 A 
ATOM     69  C   UNL A   1      36.060  33.401  29.744  1.00  0.00     0.148 A 
ATOM     70  C   UNL A   1      35.068  32.663  32.237  1.00  0.00     0.002 A 
ATOM     71  C   UNL A   1      34.752  33.738  30.117  1.00  0.00     0.091 A 
ATOM     72  F   UNL A   1      36.467  33.782  28.538  1.00  0.00    -0.205 F 
ATOM     73  C   UNL A   1      34.250  33.360  31.361  1.00  0.00     0.022 A 
BRANCH  71  74
ATOM     74  S   UNL A   1      33.630  34.645  29.029  1.00  0.00     0.127 S 
ATOM     75  O   UNL A   1      33.263  33.624  28.047  1.00  0.00    -0.237 OA
ATOM     76  O   UNL A   1      32.551  35.025  29.940  1.00  0.00    -0.237 OA
ATOM     77  O   UNL A   1      34.389  35.765  28.483  1.00  0.00    -0.744 OA
ENDBRANCH  71  74
ENDBRANCH  53  67
BRANCH  54  78
ATOM     78  C   UNL A   1      45.061  27.491  29.430  1.00  0.00     0.023 A 
ATOM     79  C   UNL A   1      45.247  26.119  29.725  1.00  0.00     0.012 A 
ATOM     80  C   UNL A   1      45.043  27.901  28.084  1.00  0.00     0.148 A 
ATOM     81  C   UNL A   1      45.258  25.163  28.708  1.00  0.00     0.002 A 
ATOM     82  C   UNL A   1      45.047  26.939  27.075  1.00  0.00     0.091 A 
ATOM     83  F   UNL A   1      44.923  29.207  27.818  1.00  0.00    -0.205 F 
ATOM     84  C   UNL A   1      45.114  25.570  27.388  1.00  0.00     0.022 A 
BRANCH  82  85
ATOM     85  S   UNL A   1      44.808  27.365  25.344  1.00  0.00     0.127 S 
ATOM     86  O   UNL A   1      45.063  26.085  24.689  1.00  0.00    -0.237 OA
ATOM     87  O   UNL A   1      43.412  27.800  25.322  1.00  0.00    -0.237 OA
ATOM     88  O   UNL A   1      45.769  28.424  25.076  1.00  0.00    -0.744 OA
ENDBRANCH  82  85
ENDBRANCH  54  78
BRANCH  66  89
ATOM     89  C   UNL A   1      43.370  34.473  30.761  1.00  0.00     0.023 A 
ATOM     90  C   UNL A   1      43.745  35.378  31.770  1.00  0.00     0.012 A 
ATOM     91  C   UNL A   1      43.354  35.007  29.439  1.00  0.00     0.148 A 
ATOM     92  C   UNL A   1      44.048  36.723  31.512  1.00  0.00     0.002 A 
ATOM     93  C   UNL A   1      43.757  36.316  29.172  1.00  0.00     0.091 A 
ATOM     94  F   UNL A   1      42.907  34.267  28.417  1.00  0.00    -0.205 F 
ATOM     95  C   UNL A   1      44.080  37.187  30.209  1.00  0.00     0.022 A 
BRANCH  93  96
ATOM     96  S   UNL A   1      44.003  36.906  27.488  1.00  0.00     0.127 S 
ATOM     97  O   UNL A   1      44.992  35.958  26.979  1.00  0.00    -0.237 OA
ATOM     98  O   UNL A   1      42.665  36.760  26.910  1.00  0.00    -0.237 OA
ATOM     99  O   UNL A   1      44.445  38.287  27.622  1.00  0.00    -0.744 OA
ENDBRANCH  93  96
ENDBRANCH  66  89
ENDBRANCH  40  41
ENDBRANCH  32  35
ENDBRANCH  30  31
ENDBRANCH  29  30
ENDBRANCH  28  29
ENDBRANCH   1  28
TORSDOF 20
ENDMDL
MODEL 2
REMARK VINA RESULT:     -11.4      1.643      2.437
REMARK SMILES Cc1ccccc1NC(=O)C[NH+]1CCC(CC(=O)NCCCCCCNC(=O)c2ccc(-c3c4nc(c(-c5cccc(S(=O)(=O)[O-])c5F)c5ccc([nH]5)c(-c5cccc(S(=O)(=O)[O-])c5F)c5nc(c(-c6cccc(S(=O)(=O)[O-])c6F)c6ccc3[nH]6)C=C5)C=C4)cc2)CC1
REMARK SMILES IDX 22 1 21 2 20 3 19 4 17 5 18 6 16 8 15 9 12 10 13 11 93 12
REMARK SMILES IDX 14 14 92 15 11 16 9 17 8 18 10 20 7 21 1 22 2 23 3 24 4 25
REMARK SMILES IDX 6 26 5 27 23 28 24 29 25 30 26 31 27 32 28 34 29 35 30 36
REMARK SMILES IDX 91 37 31 38 90 39 32 40 33 41 34 42 84 43 35 44 89 45 83 46
REMARK SMILES IDX 85 47 36 48 88 49 82 50 81 51 37 53 69 54 49 55 68 56 50 57
REMARK SMILES IDX 53 58 67 59 86 60 51 61 52 62 66 64 87 65 54 66 38 67 39 68
REMARK SMILES IDX 47 69 40 70 42 71 48 72 41 73 43 74 44 75 45 76 46 77 70 78
REMARK SMILES IDX 71 79 79 80 72 81 74 82 80 83 73 84 75 85 76 86 77 87 78 88
REMARK SMILES IDX 55 89 56 90 64 91 57 92 59 93 65 94 58 95 60 96 61 97 62 98
REMARK SMILES IDX 63 99
REMARK H PARENT 19 7 12 13 8 19 26 33 85 52 53 63
REMARK Flexibility Score: inf
ROOT
ATOM      1  C   UNL A   1      35.719  22.760  23.197  1.00  0.00     0.002 C 
ENDROOT
BRANCH   1   2
ATOM      2  C   UNL A   1      34.593  22.985  24.201  1.00  0.00     0.021 C 
BRANCH   2   3
ATOM      3  C   UNL A   1      33.992  21.706  24.795  1.00  0.00     0.116 C 
BRANCH   3   4
ATOM      4  N   UNL A   1      33.795  21.835  26.227  1.00  0.00    -0.356 N 
ATOM      5  C   UNL A   1      32.761  22.397  26.916  1.00  0.00     0.220 C 
ATOM      6  O   UNL A   1      32.835  22.466  28.144  1.00  0.00    -0.275 OA
ATOM      7  H   UNL A   1      34.515  21.460  26.784  1.00  0.00     0.163 HD
BRANCH   5   8
ATOM      8  C   UNL A   1      31.533  22.896  26.177  1.00  0.00     0.104 C 
BRANCH   8   9
ATOM      9  C   UNL A   1      31.585  24.372  25.749  1.00  0.00     0.009 C 
ATOM     10  N   UNL A   1      31.582  27.235  26.471  1.00  0.00    -0.327 N 
ATOM     11  C   UNL A   1      30.412  26.658  25.812  1.00  0.00     0.262 C 
ATOM     12  C   UNL A   1      32.808  26.540  26.097  1.00  0.00     0.262 C 
ATOM     13  H   UNL A   1      31.478  27.087  27.475  1.00  0.00     0.348 HD
ATOM     14  C   UNL A   1      30.323  25.163  26.091  1.00  0.00     0.066 C 
ATOM     15  C   UNL A   1      32.782  25.052  26.421  1.00  0.00     0.066 C 
BRANCH  10  16
ATOM     16  C   UNL A   1      31.648  28.713  26.297  1.00  0.00     0.363 C 
BRANCH  16  17
ATOM     17  C   UNL A   1      32.300  29.211  24.994  1.00  0.00     0.279 C 
ATOM     18  N   UNL A   1      31.602  29.645  23.900  1.00  0.00    -0.321 N 
ATOM     19  H   UNL A   1      32.162  29.908  23.135  1.00  0.00     0.170 HD
ATOM     20  O   UNL A   1      33.531  29.333  24.931  1.00  0.00    -0.268 OA
BRANCH  18  21
ATOM     21  C   UNL A   1      30.224  29.777  23.687  1.00  0.00     0.044 A 
ATOM     22  C   UNL A   1      30.146  27.455  22.573  1.00  0.00     0.046 C 
ATOM     23  C   UNL A   1      29.540  28.776  22.966  1.00  0.00    -0.027 A 
ATOM     24  C   UNL A   1      28.225  29.034  22.538  1.00  0.00     0.005 A 
ATOM     25  C   UNL A   1      27.590  30.236  22.848  1.00  0.00     0.000 A 
ATOM     26  C   UNL A   1      29.537  30.926  24.092  1.00  0.00     0.026 A 
ATOM     27  C   UNL A   1      28.233  31.167  23.655  1.00  0.00     0.002 A 
ENDBRANCH  18  21
ENDBRANCH  16  17
ENDBRANCH  10  16
ENDBRANCH   8   9
ENDBRANCH   5   8
ENDBRANCH   3   4
ENDBRANCH   2   3
ENDBRANCH   1   2
BRANCH   1  28
ATOM     28  C   UNL A   1      36.996  22.151  23.780  1.00  0.00     0.002 C 
BRANCH  28  29
ATOM     29  C   UNL A   1      37.653  22.959  24.901  1.00  0.00     0.021 C 
BRANCH  29  30
ATOM     30  C   UNL A   1      37.761  22.203  26.215  1.00  0.00     0.116 C 
BRANCH  30  31
ATOM     31  N   UNL A   1      39.127  22.195  26.693  1.00  0.00    -0.352 N 
ATOM     32  C   UNL A   1      40.080  23.184  26.605  1.00  0.00     0.251 C 
ATOM     33  H   UNL A   1      39.415  21.368  27.142  1.00  0.00     0.163 HD
ATOM     34  O   UNL A   1      41.262  22.857  26.524  1.00  0.00    -0.269 OA
BRANCH  32  35
ATOM     35  C   UNL A   1      39.685  24.591  26.867  1.00  0.00     0.039 A 
ATOM     36  C   UNL A   1      40.435  25.567  26.192  1.00  0.00     0.014 A 
ATOM     37  C   UNL A   1      38.919  24.940  27.973  1.00  0.00     0.014 A 
ATOM     38  C   UNL A   1      40.656  26.800  26.792  1.00  0.00     0.010 A 
ATOM     39  C   UNL A   1      39.199  26.122  28.611  1.00  0.00     0.010 A 
ATOM     40  C   UNL A   1      40.135  27.003  28.058  1.00  0.00    -0.014 A 
BRANCH  40  41
ATOM     41  C   UNL A   1      40.443  28.128  28.916  1.00  0.00     0.031 A 
ATOM     42  C   UNL A   1      39.620  29.338  28.796  1.00  0.00     0.074 A 
ATOM     43  C   UNL A   1      41.204  27.881  30.004  1.00  0.00     0.049 A 
ATOM     44  N   UNL A   1      39.811  30.413  29.472  1.00  0.00    -0.248 NA
ATOM     45  C   UNL A   1      38.512  29.431  27.849  1.00  0.00     0.031 C 
ATOM     46  C   UNL A   1      41.185  28.588  31.276  1.00  0.00     0.029 A 
ATOM     47  N   UNL A   1      42.314  27.032  30.101  1.00  0.00    -0.354 N 
ATOM     48  C   UNL A   1      38.680  31.185  29.319  1.00  0.00     0.074 A 
ATOM     49  C   UNL A   1      37.991  30.611  28.192  1.00  0.00     0.031 C 
ATOM     50  C   UNL A   1      42.349  28.371  31.906  1.00  0.00     0.029 A 
ATOM     51  C   UNL A   1      43.213  27.694  30.956  1.00  0.00     0.049 A 
ATOM     52  H   UNL A   1      42.438  26.158  29.664  1.00  0.00     0.167 HD
ATOM     53  C   UNL A   1      38.398  32.103  30.285  1.00  0.00     0.034 A 
ATOM     54  C   UNL A   1      44.428  28.164  30.541  1.00  0.00     0.034 A 
ATOM     55  C   UNL A   1      39.557  32.265  31.184  1.00  0.00     0.049 A 
ATOM     56  C   UNL A   1      44.577  29.668  30.709  1.00  0.00     0.074 A 
ATOM     57  C   UNL A   1      39.847  31.822  32.464  1.00  0.00     0.029 A 
ATOM     58  N   UNL A   1      40.760  32.720  30.650  1.00  0.00    -0.354 N 
ATOM     59  N   UNL A   1      43.612  30.486  31.037  1.00  0.00    -0.248 NA
ATOM     60  C   UNL A   1      45.840  30.367  30.515  1.00  0.00     0.031 C 
ATOM     61  C   UNL A   1      41.255  31.939  32.659  1.00  0.00     0.029 A 
ATOM     62  C   UNL A   1      41.817  32.488  31.517  1.00  0.00     0.049 A 
ATOM     63  H   UNL A   1      40.848  33.151  29.769  1.00  0.00     0.167 HD
ATOM     64  C   UNL A   1      44.049  31.788  30.994  1.00  0.00     0.074 A 
ATOM     65  C   UNL A   1      45.475  31.643  30.738  1.00  0.00     0.031 C 
ATOM     66  C   UNL A   1      43.183  32.850  31.126  1.00  0.00     0.034 A 
BRANCH  53  67
ATOM     67  C   UNL A   1      37.020  32.687  30.591  1.00  0.00     0.023 A 
ATOM     68  C   UNL A   1      36.517  32.481  31.898  1.00  0.00     0.012 A 
ATOM     69  C   UNL A   1      36.130  33.334  29.696  1.00  0.00     0.148 A 
ATOM     70  C   UNL A   1      35.216  32.841  32.277  1.00  0.00     0.002 A 
ATOM     71  C   UNL A   1      34.833  33.706  30.075  1.00  0.00     0.091 A 
ATOM     72  F   UNL A   1      36.499  33.597  28.447  1.00  0.00    -0.205 F 
ATOM     73  C   UNL A   1      34.370  33.449  31.364  1.00  0.00     0.022 A 
BRANCH  71  74
ATOM     74  S   UNL A   1      33.676  34.503  28.939  1.00  0.00     0.127 S 
ATOM     75  O   UNL A   1      32.585  34.890  29.835  1.00  0.00    -0.237 OA
ATOM     76  O   UNL A   1      34.464  35.622  28.425  1.00  0.00    -0.237 OA
ATOM     77  O   UNL A   1      33.312  33.504  27.941  1.00  0.00    -0.744 OA
ENDBRANCH  71  74
ENDBRANCH  53  67
BRANCH  54  78
ATOM     78  C   UNL A   1      45.051  27.336  29.467  1.00  0.00     0.023 A 
ATOM     79  C   UNL A   1      45.424  26.017  29.824  1.00  0.00     0.012 A 
ATOM     80  C   UNL A   1      44.866  27.645  28.107  1.00  0.00     0.148 A 
ATOM     81  C   UNL A   1      45.459  24.999  28.870  1.00  0.00     0.002 A 
ATOM     82  C   UNL A   1      44.895  26.621  27.162  1.00  0.00     0.091 A 
ATOM     83  F   UNL A   1      44.568  28.907  27.777  1.00  0.00    -0.205 F 
ATOM     84  C   UNL A   1      45.152  25.294  27.547  1.00  0.00     0.022 A 
BRANCH  82  85
ATOM     85  S   UNL A   1      44.457  26.894  25.439  1.00  0.00     0.127 S 
ATOM     86  O   UNL A   1      43.501  27.992  25.550  1.00  0.00    -0.237 OA
ATOM     87  O   UNL A   1      45.743  27.257  24.846  1.00  0.00    -0.237 OA
ATOM     88  O   UNL A   1      43.922  25.623  24.976  1.00  0.00    -0.744 OA
ENDBRANCH  82  85
ENDBRANCH  54  78
BRANCH  66  89
ATOM     89  C   UNL A   1      43.505  34.333  30.888  1.00  0.00     0.023 A 
ATOM     90  C   UNL A   1      43.558  34.913  29.607  1.00  0.00     0.012 A 
ATOM     91  C   UNL A   1      43.684  35.240  31.974  1.00  0.00     0.148 A 
ATOM     92  C   UNL A   1      43.804  36.277  29.399  1.00  0.00     0.002 A 
ATOM     93  C   UNL A   1      43.824  36.613  31.768  1.00  0.00     0.091 A 
ATOM     94  F   UNL A   1      43.763  34.782  33.229  1.00  0.00    -0.205 F 
ATOM     95  C   UNL A   1      43.912  37.134  30.480  1.00  0.00     0.022 A 
BRANCH  93  96
ATOM     96  S   UNL A   1      43.772  37.785  33.135  1.00  0.00     0.127 S 
ATOM     97  O   UNL A   1      42.698  37.236  33.960  1.00  0.00    -0.237 OA
ATOM     98  O   UNL A   1      45.112  37.650  33.710  1.00  0.00    -0.237 OA
ATOM     99  O   UNL A   1      43.515  39.081  32.523  1.00  0.00    -0.744 OA
ENDBRANCH  93  96
ENDBRANCH  66  89
ENDBRANCH  40  41
ENDBRANCH  32  35
ENDBRANCH  30  31
ENDBRANCH  29  30
ENDBRANCH  28  29
ENDBRANCH   1  28
TORSDOF 20
ENDMDL
MODEL 3
REMARK VINA RESULT:     -11.2      1.966      2.688
REMARK SMILES Cc1ccccc1NC(=O)C[NH+]1CCC(CC(=O)NCCCCCCNC(=O)c2ccc(-c3c4nc(c(-c5cccc(S(=O)(=O)[O-])c5F)c5ccc([nH]5)c(-c5cccc(S(=O)(=O)[O-])c5F)c5nc(c(-c6cccc(S(=O)(=O)[O-])c6F)c6ccc3[nH]6)C=C5)C=C4)cc2)CC1
REMARK SMILES IDX 22 1 21 2 20 3 19 4 17 5 18 6 16 8 15 9 12 10 13 11 93 12
REMARK SMILES IDX 14 14 92 15 11 16 9 17 8 18 10 20 7 21 1 22 2 23 3 24 4 25
REMARK SMILES IDX 6 26 5 27 23 28 24 29 25 30 26 31 27 32 28 34 29 35 30 36
REMARK SMILES IDX 91 37 31 38 90 39 32 40 33 41 34 42 84 43 35 44 89 45 83 46
REMARK SMILES IDX 85 47 36 48 88 49 82 50 81 51 37 53 69 54 49 55 68 56 50 57
REMARK SMILES IDX 53 58 67 59 86 60 51 61 52 62 66 64 87 65 54 66 38 67 39 68
REMARK SMILES IDX 47 69 40 70 42 71 48 72 41 73 43 74 44 75 45 76 46 77 70 78
REMARK SMILES IDX 71 79 79 80 72 81 74 82 80 83 73 84 75 85 76 86 77 87 78 88
REMARK SMILES IDX 55 89 56 90 64 91 57 92 59 93 65 94 58 95 60 96 61 97 62 98
REMARK SMILES IDX 63 99
REMARK H PARENT 19 7 12 13 8 19 26 33 85 52 53 63
REMARK Flexibility Score: inf
ROOT
ATOM      1  C   UNL A   1      36.278  21.505  24.622  1.00  0.00     0.002 C 
ENDROOT
BRANCH   1   2
ATOM      2  C   UNL A   1      35.417  20.306  25.004  1.00  0.00     0.021 C 
BRANCH   2   3
ATOM      3  C   UNL A   1      33.910  20.582  25.046  1.00  0.00     0.116 C 
BRANCH   3   4
ATOM      4  N   UNL A   1      33.481  20.951  26.383  1.00  0.00    -0.356 N 
ATOM      5  C   UNL A   1      33.377  22.185  26.954  1.00  0.00     0.220 C 
ATOM      6  O   UNL A   1      33.060  22.264  28.142  1.00  0.00    -0.275 OA
ATOM      7  H   UNL A   1      33.228  20.197  26.964  1.00  0.00     0.163 HD
BRANCH   5   8
ATOM      8  C   UNL A   1      33.617  23.433  26.124  1.00  0.00     0.104 C 
BRANCH   8   9
ATOM      9  C   UNL A   1      32.348  24.103  25.572  1.00  0.00     0.009 C 
ATOM     10  N   UNL A   1      31.028  26.455  24.371  1.00  0.00    -0.327 N 
ATOM     11  C   UNL A   1      30.730  26.091  25.755  1.00  0.00     0.262 C 
ATOM     12  C   UNL A   1      31.390  25.289  23.574  1.00  0.00     0.262 C 
ATOM     13  H   UNL A   1      31.855  27.051  24.376  1.00  0.00     0.348 HD
ATOM     14  C   UNL A   1      31.895  25.326  26.370  1.00  0.00     0.066 C 
ATOM     15  C   UNL A   1      32.593  24.532  24.122  1.00  0.00     0.066 C 
BRANCH  10  16
ATOM     16  C   UNL A   1      29.949  27.287  23.768  1.00  0.00     0.363 C 
BRANCH  16  17
ATOM     17  C   UNL A   1      30.403  28.587  23.080  1.00  0.00     0.279 C 
ATOM     18  N   UNL A   1      31.357  29.430  23.582  1.00  0.00    -0.321 N 
ATOM     19  H   UNL A   1      31.519  30.235  23.038  1.00  0.00     0.170 HD
ATOM     20  O   UNL A   1      29.972  28.870  21.955  1.00  0.00    -0.268 OA
BRANCH  18  21
ATOM     21  C   UNL A   1      32.141  29.341  24.739  1.00  0.00     0.044 A 
ATOM     22  C   UNL A   1      34.057  28.268  23.390  1.00  0.00     0.046 C 
ATOM     23  C   UNL A   1      33.395  28.698  24.672  1.00  0.00    -0.027 A 
ATOM     24  C   UNL A   1      34.057  28.388  25.875  1.00  0.00     0.005 A 
ATOM     25  C   UNL A   1      33.511  28.739  27.108  1.00  0.00     0.000 A 
ATOM     26  C   UNL A   1      31.663  29.792  25.974  1.00  0.00     0.026 A 
ATOM     27  C   UNL A   1      32.331  29.472  27.156  1.00  0.00     0.002 A 
ENDBRANCH  18  21
ENDBRANCH  16  17
ENDBRANCH  10  16
ENDBRANCH   8   9
ENDBRANCH   5   8
ENDBRANCH   3   4
ENDBRANCH   2   3
ENDBRANCH   1   2
BRANCH   1  28
ATOM     28  C   UNL A   1      37.356  21.881  25.641  1.00  0.00     0.002 C 
BRANCH  28  29
ATOM     29  C   UNL A   1      37.649  23.377  25.761  1.00  0.00     0.021 C 
BRANCH  29  30
ATOM     30  C   UNL A   1      38.806  23.698  26.694  1.00  0.00     0.116 C 
BRANCH  30  31
ATOM     31  N   UNL A   1      39.442  22.485  27.161  1.00  0.00    -0.352 N 
ATOM     32  C   UNL A   1      40.762  22.106  27.062  1.00  0.00     0.251 C 
ATOM     33  H   UNL A   1      38.849  21.840  27.611  1.00  0.00     0.163 HD
ATOM     34  O   UNL A   1      41.025  20.909  26.973  1.00  0.00    -0.269 OA
BRANCH  32  35
ATOM     35  C   UNL A   1      41.821  23.113  27.322  1.00  0.00     0.039 A 
ATOM     36  C   UNL A   1      42.300  23.162  28.641  1.00  0.00     0.014 A 
ATOM     37  C   UNL A   1      42.042  24.179  26.459  1.00  0.00     0.014 A 
ATOM     38  C   UNL A   1      42.722  24.373  29.174  1.00  0.00     0.010 A 
ATOM     39  C   UNL A   1      42.377  25.395  27.000  1.00  0.00     0.010 A 
ATOM     40  C   UNL A   1      42.626  25.498  28.373  1.00  0.00    -0.014 A 
BRANCH  40  41
ATOM     41  C   UNL A   1      42.812  26.861  28.824  1.00  0.00     0.031 A 
ATOM     42  C   UNL A   1      41.669  27.780  28.744  1.00  0.00     0.074 A 
ATOM     43  C   UNL A   1      43.880  27.106  29.614  1.00  0.00     0.049 A 
ATOM     44  N   UNL A   1      41.713  29.019  29.078  1.00  0.00    -0.248 NA
ATOM     45  C   UNL A   1      40.369  27.358  28.234  1.00  0.00     0.031 C 
ATOM     46  C   UNL A   1      44.003  28.130  30.641  1.00  0.00     0.029 A 
ATOM     47  N   UNL A   1      45.172  26.579  29.499  1.00  0.00    -0.354 N 
ATOM     48  C   UNL A   1      40.409  29.455  29.164  1.00  0.00     0.074 A 
ATOM     49  C   UNL A   1      39.639  28.446  28.483  1.00  0.00     0.031 C 
ATOM     50  C   UNL A   1      45.305  28.358  30.867  1.00  0.00     0.029 A 
ATOM     51  C   UNL A   1      46.035  27.636  29.841  1.00  0.00     0.049 A 
ATOM     52  H   UNL A   1      45.423  25.664  29.235  1.00  0.00     0.167 HD
ATOM     53  C   UNL A   1      40.145  30.529  29.958  1.00  0.00     0.034 A 
ATOM     54  C   UNL A   1      46.896  28.214  28.950  1.00  0.00     0.034 A 
ATOM     55  C   UNL A   1      41.406  31.187  30.354  1.00  0.00     0.049 A 
ATOM     56  C   UNL A   1      46.635  29.698  28.743  1.00  0.00     0.074 A 
ATOM     57  C   UNL A   1      42.152  31.206  31.521  1.00  0.00     0.029 A 
ATOM     58  N   UNL A   1      42.227  31.715  29.361  1.00  0.00    -0.354 N 
ATOM     59  N   UNL A   1      45.602  30.350  29.205  1.00  0.00    -0.248 NA
ATOM     60  C   UNL A   1      47.533  30.564  27.991  1.00  0.00     0.031 C 
ATOM     61  C   UNL A   1      43.461  31.672  31.197  1.00  0.00     0.029 A 
ATOM     62  C   UNL A   1      43.500  31.974  29.844  1.00  0.00     0.049 A 
ATOM     63  H   UNL A   1      41.940  31.882  28.434  1.00  0.00     0.167 HD
ATOM     64  C   UNL A   1      45.607  31.646  28.748  1.00  0.00     0.074 A 
ATOM     65  C   UNL A   1      46.886  31.741  28.058  1.00  0.00     0.031 C 
ATOM     66  C   UNL A   1      44.538  32.491  28.946  1.00  0.00     0.034 A 
BRANCH  53  67
ATOM     67  C   UNL A   1      38.796  30.869  30.588  1.00  0.00     0.023 A 
ATOM     68  C   UNL A   1      38.515  30.286  31.846  1.00  0.00     0.012 A 
ATOM     69  C   UNL A   1      37.737  31.627  30.024  1.00  0.00     0.148 A 
ATOM     70  C   UNL A   1      37.268  30.399  32.475  1.00  0.00     0.002 A 
ATOM     71  C   UNL A   1      36.493  31.752  30.654  1.00  0.00     0.091 A 
ATOM     72  F   UNL A   1      37.891  32.236  28.853  1.00  0.00    -0.205 F 
ATOM     73  C   UNL A   1      36.252  31.128  31.878  1.00  0.00     0.022 A 
BRANCH  71  74
ATOM     74  S   UNL A   1      35.124  32.687  29.936  1.00  0.00     0.127 S 
ATOM     75  O   UNL A   1      34.186  32.768  31.056  1.00  0.00    -0.237 OA
ATOM     76  O   UNL A   1      35.762  33.956  29.586  1.00  0.00    -0.237 OA
ATOM     77  O   UNL A   1      34.640  31.915  28.797  1.00  0.00    -0.744 OA
ENDBRANCH  71  74
ENDBRANCH  53  67
BRANCH  54  78
ATOM     78  C   UNL A   1      47.416  27.264  27.923  1.00  0.00     0.023 A 
ATOM     79  C   UNL A   1      48.587  26.545  28.265  1.00  0.00     0.012 A 
ATOM     80  C   UNL A   1      46.584  26.764  26.904  1.00  0.00     0.148 A 
ATOM     81  C   UNL A   1      48.840  25.286  27.718  1.00  0.00     0.002 A 
ATOM     82  C   UNL A   1      46.840  25.503  26.368  1.00  0.00     0.091 A 
ATOM     83  F   UNL A   1      45.510  27.480  26.550  1.00  0.00    -0.205 F 
ATOM     84  C   UNL A   1      47.944  24.748  26.802  1.00  0.00     0.022 A 
BRANCH  82  85
ATOM     85  S   UNL A   1      45.709  24.700  25.223  1.00  0.00     0.127 S 
ATOM     86  O   UNL A   1      46.624  24.237  24.183  1.00  0.00    -0.237 OA
ATOM     87  O   UNL A   1      45.131  23.642  26.049  1.00  0.00    -0.237 OA
ATOM     88  O   UNL A   1      44.766  25.736  24.831  1.00  0.00    -0.744 OA
ENDBRANCH  82  85
ENDBRANCH  54  78
BRANCH  66  89
ATOM     89  C   UNL A   1      44.331  33.875  28.312  1.00  0.00     0.023 A 
ATOM     90  C   UNL A   1      43.689  34.067  27.075  1.00  0.00     0.012 A 
ATOM     91  C   UNL A   1      44.705  35.070  28.995  1.00  0.00     0.148 A 
ATOM     92  C   UNL A   1      43.460  35.336  26.526  1.00  0.00     0.002 A 
ATOM     93  C   UNL A   1      44.383  36.332  28.496  1.00  0.00     0.091 A 
ATOM     94  F   UNL A   1      45.420  35.005  30.126  1.00  0.00    -0.205 F 
ATOM     95  C   UNL A   1      43.783  36.472  27.247  1.00  0.00     0.022 A 
BRANCH  93  96
ATOM     96  S   UNL A   1      44.604  37.825  29.480  1.00  0.00     0.127 S 
ATOM     97  O   UNL A   1      43.939  38.830  28.655  1.00  0.00    -0.237 OA
ATOM     98  O   UNL A   1      43.897  37.487  30.718  1.00  0.00    -0.237 OA
ATOM     99  O   UNL A   1      46.044  37.973  29.640  1.00  0.00    -0.744 OA
ENDBRANCH  93  96
ENDBRANCH  66  89
ENDBRANCH  40  41
ENDBRANCH  32  35
ENDBRANCH  30  31
ENDBRANCH  29  30
ENDBRANCH  28  29
ENDBRANCH   1  28
TORSDOF 20
ENDMDL
