MODEL 1
REMARK VINA RESULT:     -12.6      0.000      0.000
REMARK SMILES C[C@H](C(=O)NCCCCCCNC(=O)c1ccc(-c2c3nc(c(-c4cccc(S(=O)(=O)[O-])c4F)c4ccc([nH]4)c(-c4cccc(S(=O)(=O)[O-])c4F)c4nc(c(-c5cccc(S(=O)(=O)[O-])c5F)c5ccc2[nH]5)C=C4)C=C3)cc1)c1ccc2c3cc(Cl)ccc3n(C(=O)c3ccc(Cl)cc3)c2c1
REMARK SMILES IDX 8 1 7 2 6 3 5 4 3 5 4 6 2 8 1 9 78 10 79 11 100 12 80 13
REMARK SMILES IDX 99 14 81 15 89 16 82 17 88 18 83 19 87 20 84 21 86 22 85 23
REMARK SMILES IDX 90 24 91 25 92 26 93 27 98 28 94 29 97 30 95 31 96 32 9 33
REMARK SMILES IDX 10 34 11 35 12 36 13 37 14 39 15 40 16 41 77 42 17 43 76 44
REMARK SMILES IDX 18 45 19 46 20 47 70 48 21 49 75 50 69 51 71 52 22 53 74 54
REMARK SMILES IDX 68 55 67 56 23 58 55 59 35 60 54 61 36 62 39 63 53 64 72 65
REMARK SMILES IDX 37 66 38 67 52 69 73 70 40 71 24 72 25 73 33 74 26 75 28 76
REMARK SMILES IDX 34 77 27 78 29 79 30 80 31 81 32 82 56 83 57 84 65 85 58 86
REMARK SMILES IDX 60 87 66 88 59 89 61 90 62 91 63 92 64 93 41 94 42 95 50 96
REMARK SMILES IDX 43 97 45 98 51 99 44 100 46 101 47 102 48 103 49 104
REMARK H PARENT 5 7 12 38 71 57 39 68
REMARK Flexibility Score: inf
ROOT
ATOM      1  C   UNL A   1      34.149  24.722  25.757  1.00  0.00     0.002 C 
ENDROOT
BRANCH   1   2
ATOM      2  C   UNL A   1      34.060  26.009  24.926  1.00  0.00     0.021 C 
BRANCH   2   3
ATOM      3  C   UNL A   1      34.048  27.280  25.777  1.00  0.00     0.116 C 
BRANCH   3   4
ATOM      4  N   UNL A   1      33.027  27.176  26.801  1.00  0.00    -0.356 N 
ATOM      5  C   UNL A   1      32.515  28.146  27.613  1.00  0.00     0.227 C 
ATOM      6  O   UNL A   1      31.862  27.768  28.591  1.00  0.00    -0.274 OA
ATOM      7  H   UNL A   1      32.651  26.276  26.931  1.00  0.00     0.163 HD
BRANCH   5   8
ATOM      8  C   UNL A   1      32.705  29.638  27.279  1.00  0.00     0.105 C 
ATOM      9  C   UNL A   1      34.155  29.828  26.799  1.00  0.00     0.023 C 
BRANCH   8  10
ATOM     10  C   UNL A   1      31.661  30.146  26.284  1.00  0.00    -0.034 A 
ATOM     11  C   UNL A   1      31.245  31.478  26.275  1.00  0.00     0.005 A 
ATOM     12  C   UNL A   1      31.162  29.276  25.288  1.00  0.00     0.032 A 
ATOM     13  C   UNL A   1      30.414  31.964  25.262  1.00  0.00     0.011 A 
ATOM     14  C   UNL A   1      30.411  29.785  24.205  1.00  0.00     0.057 A 
ATOM     15  C   UNL A   1      30.045  31.127  24.187  1.00  0.00     0.008 A 
ATOM     16  N   UNL A   1      30.005  29.195  22.984  1.00  0.00    -0.276 N 
ATOM     17  C   UNL A   1      29.323  31.360  22.989  1.00  0.00     0.009 A 
ATOM     18  C   UNL A   1      29.248  30.151  22.283  1.00  0.00     0.057 A 
ATOM     19  C   UNL A   1      28.721  32.524  22.464  1.00  0.00     0.031 A 
ATOM     20  C   UNL A   1      28.477  30.073  21.104  1.00  0.00     0.029 A 
ATOM     21  C   UNL A   1      28.020  32.453  21.266  1.00  0.00     0.041 A 
ATOM     22  C   UNL A   1      27.884  31.242  20.601  1.00  0.00     0.023 A 
ATOM     23  Cl  UNL A   1      27.306  33.882  20.624  1.00  0.00    -0.084 Cl
BRANCH  16  24
ATOM     24  C   UNL A   1      30.389  27.878  22.564  1.00  0.00     0.262 C 
ATOM     25  O   UNL A   1      30.708  27.757  21.380  1.00  0.00    -0.268 OA
BRANCH  24  26
ATOM     26  C   UNL A   1      30.316  26.592  23.341  1.00  0.00     0.040 A 
ATOM     27  C   UNL A   1      29.750  26.569  24.618  1.00  0.00     0.015 A 
ATOM     28  C   UNL A   1      30.948  25.439  22.952  1.00  0.00     0.015 A 
ATOM     29  C   UNL A   1      29.839  25.435  25.516  1.00  0.00     0.021 A 
ATOM     30  C   UNL A   1      30.976  24.284  23.796  1.00  0.00     0.021 A 
ATOM     31  C   UNL A   1      30.486  24.106  25.250  1.00  0.00     0.041 A 
ATOM     32  Cl  UNL A   1      30.764  22.138  26.723  1.00  0.00    -0.084 Cl
ENDBRANCH  24  26
ENDBRANCH  16  24
ENDBRANCH   8  10
ENDBRANCH   5   8
ENDBRANCH   3   4
ENDBRANCH   2   3
ENDBRANCH   1   2
BRANCH   1  33
ATOM     33  C   UNL A   1      34.252  23.428  24.940  1.00  0.00     0.002 C 
BRANCH  33  34
ATOM     34  C   UNL A   1      34.094  22.143  25.747  1.00  0.00     0.021 C 
BRANCH  34  35
ATOM     35  C   UNL A   1      35.403  21.561  26.252  1.00  0.00     0.116 C 
BRANCH  35  36
ATOM     36  N   UNL A   1      36.127  20.764  25.280  1.00  0.00    -0.352 N 
ATOM     37  C   UNL A   1      37.500  20.691  25.176  1.00  0.00     0.251 C 
ATOM     38  H   UNL A   1      35.597  20.234  24.642  1.00  0.00     0.163 HD
ATOM     39  O   UNL A   1      38.057  19.769  24.596  1.00  0.00    -0.269 OA
BRANCH  37  40
ATOM     40  C   UNL A   1      38.281  21.774  25.787  1.00  0.00     0.039 A 
ATOM     41  C   UNL A   1      37.696  23.468  25.545  1.00  0.00     0.014 A 
ATOM     42  C   UNL A   1      39.831  21.455  26.681  1.00  0.00     0.014 A 
ATOM     43  C   UNL A   1      38.639  24.870  26.222  1.00  0.00     0.010 A 
ATOM     44  C   UNL A   1      40.682  22.864  27.518  1.00  0.00     0.010 A 
ATOM     45  C   UNL A   1      40.102  24.592  27.284  1.00  0.00    -0.014 A 
BRANCH  45  46
ATOM     46  C   UNL A   1      40.950  25.803  27.664  1.00  0.00     0.031 A 
ATOM     47  C   UNL A   1      40.432  26.841  28.640  1.00  0.00     0.074 A 
ATOM     48  C   UNL A   1      42.219  25.994  27.225  1.00  0.00     0.049 A 
ATOM     49  N   UNL A   1      40.819  28.082  28.812  1.00  0.00    -0.248 NA
ATOM     50  C   UNL A   1      39.301  26.468  29.496  1.00  0.00     0.031 C 
ATOM     51  C   UNL A   1      42.958  25.150  26.293  1.00  0.00     0.029 A 
ATOM     52  N   UNL A   1      43.147  26.975  27.539  1.00  0.00    -0.354 N 
ATOM     53  C   UNL A   1      39.864  28.671  29.636  1.00  0.00     0.074 A 
ATOM     54  C   UNL A   1      38.884  27.649  29.930  1.00  0.00     0.031 C 
ATOM     55  C   UNL A   1      44.236  25.546  26.218  1.00  0.00     0.029 A 
ATOM     56  C   UNL A   1      44.383  26.793  26.949  1.00  0.00     0.049 A 
ATOM     57  H   UNL A   1      42.944  27.734  28.131  1.00  0.00     0.167 HD
ATOM     58  C   UNL A   1      39.820  29.928  30.142  1.00  0.00     0.034 A 
ATOM     59  C   UNL A   1      45.498  27.554  26.921  1.00  0.00     0.034 A 
ATOM     60  C   UNL A   1      40.925  30.850  30.106  1.00  0.00     0.049 A 
ATOM     61  C   UNL A   1      45.487  28.896  27.594  1.00  0.00     0.074 A 
ATOM     62  C   UNL A   1      41.012  32.108  30.678  1.00  0.00     0.029 A 
ATOM     63  N   UNL A   1      42.162  30.582  29.547  1.00  0.00    -0.354 N 
ATOM     64  N   UNL A   1      44.527  29.462  28.283  1.00  0.00    -0.248 NA
ATOM     65  C   UNL A   1      46.705  29.711  27.476  1.00  0.00     0.031 C 
ATOM     66  C   UNL A   1      42.306  32.595  30.476  1.00  0.00     0.029 A 
ATOM     67  C   UNL A   1      43.028  31.637  29.786  1.00  0.00     0.049 A 
ATOM     68  H   UNL A   1      42.394  29.763  29.051  1.00  0.00     0.167 HD
ATOM     69  C   UNL A   1      45.029  30.692  28.687  1.00  0.00     0.074 A 
ATOM     70  C   UNL A   1      46.392  30.772  28.204  1.00  0.00     0.031 C 
ATOM     71  C   UNL A   1      44.402  31.682  29.367  1.00  0.00     0.034 A 
BRANCH  58  72
ATOM     72  C   UNL A   1      38.554  30.379  30.831  1.00  0.00     0.023 A 
ATOM     73  C   UNL A   1      38.321  30.078  32.186  1.00  0.00     0.012 A 
ATOM     74  C   UNL A   1      37.618  31.171  30.131  1.00  0.00     0.148 A 
ATOM     75  C   UNL A   1      37.153  30.506  32.818  1.00  0.00     0.002 A 
ATOM     76  C   UNL A   1      36.487  31.646  30.786  1.00  0.00     0.091 A 
ATOM     77  F   UNL A   1      37.849  31.445  28.839  1.00  0.00    -0.205 F 
ATOM     78  C   UNL A   1      36.243  31.298  32.124  1.00  0.00     0.022 A 
BRANCH  76  79
ATOM     79  S   UNL A   1      35.315  32.765  30.008  1.00  0.00     0.127 S 
ATOM     80  O   UNL A   1      34.916  31.999  28.827  1.00  0.00    -0.237 OA
ATOM     81  O   UNL A   1      34.279  32.886  31.033  1.00  0.00    -0.237 OA
ATOM     82  O   UNL A   1      36.050  33.993  29.739  1.00  0.00    -0.744 OA
ENDBRANCH  76  79
ENDBRANCH  58  72
BRANCH  59  83
ATOM     83  C   UNL A   1      46.720  27.083  26.196  1.00  0.00     0.023 A 
ATOM     84  C   UNL A   1      47.540  26.095  26.775  1.00  0.00     0.012 A 
ATOM     85  C   UNL A   1      47.065  27.591  24.927  1.00  0.00     0.148 A 
ATOM     86  C   UNL A   1      48.687  25.641  26.118  1.00  0.00     0.002 A 
ATOM     87  C   UNL A   1      48.158  27.074  24.243  1.00  0.00     0.091 A 
ATOM     88  F   UNL A   1      46.301  28.559  24.399  1.00  0.00    -0.205 F 
ATOM     89  C   UNL A   1      48.985  26.116  24.844  1.00  0.00     0.022 A 
BRANCH  87  90
ATOM     90  S   UNL A   1      48.488  27.500  22.528  1.00  0.00     0.127 S 
ATOM     91  O   UNL A   1      47.283  28.239  22.164  1.00  0.00    -0.237 OA
ATOM     92  O   UNL A   1      49.701  28.312  22.641  1.00  0.00    -0.237 OA
ATOM     93  O   UNL A   1      48.689  26.227  21.849  1.00  0.00    -0.744 OA
ENDBRANCH  87  90
ENDBRANCH  59  83
BRANCH  71  94
ATOM     94  C   UNL A   1      45.194  32.923  29.676  1.00  0.00     0.023 A 
ATOM     95  C   UNL A   1      46.012  32.963  30.823  1.00  0.00     0.012 A 
ATOM     96  C   UNL A   1      45.175  34.023  28.799  1.00  0.00     0.148 A 
ATOM     97  C   UNL A   1      46.776  34.094  31.107  1.00  0.00     0.002 A 
ATOM     98  C   UNL A   1      45.974  35.129  29.064  1.00  0.00     0.091 A 
ATOM     99  F   UNL A   1      44.373  33.972  27.725  1.00  0.00    -0.205 F 
ATOM    100  C   UNL A   1      46.766  35.170  30.223  1.00  0.00     0.022 A 
BRANCH  98 101
ATOM    101  S   UNL A   1      46.092  36.522  27.937  1.00  0.00     0.127 S 
ATOM    102  O   UNL A   1      46.749  35.917  26.781  1.00  0.00    -0.237 OA
ATOM    103  O   UNL A   1      44.687  36.873  27.727  1.00  0.00    -0.237 OA
ATOM    104  O   UNL A   1      46.868  37.537  28.637  1.00  0.00    -0.744 OA
ENDBRANCH  98 101
ENDBRANCH  71  94
ENDBRANCH  45  46
ENDBRANCH  37  40
ENDBRANCH  35  36
ENDBRANCH  34  35
ENDBRANCH  33  34
ENDBRANCH   1  33
TORSDOF 19
ENDMDL
MODEL 2
REMARK VINA RESULT:     -12.4      3.765      9.680
REMARK SMILES C[C@H](C(=O)NCCCCCCNC(=O)c1ccc(-c2c3nc(c(-c4cccc(S(=O)(=O)[O-])c4F)c4ccc([nH]4)c(-c4cccc(S(=O)(=O)[O-])c4F)c4nc(c(-c5cccc(S(=O)(=O)[O-])c5F)c5ccc2[nH]5)C=C4)C=C3)cc1)c1ccc2c3cc(Cl)ccc3n(C(=O)c3ccc(Cl)cc3)c2c1
REMARK SMILES IDX 8 1 7 2 6 3 5 4 3 5 4 6 2 8 1 9 78 10 79 11 100 12 80 13
REMARK SMILES IDX 99 14 81 15 89 16 82 17 88 18 83 19 87 20 84 21 86 22 85 23
REMARK SMILES IDX 90 24 91 25 92 26 93 27 98 28 94 29 97 30 95 31 96 32 9 33
REMARK SMILES IDX 10 34 11 35 12 36 13 37 14 39 15 40 16 41 77 42 17 43 76 44
REMARK SMILES IDX 18 45 19 46 20 47 70 48 21 49 75 50 69 51 71 52 22 53 74 54
REMARK SMILES IDX 68 55 67 56 23 58 55 59 35 60 54 61 36 62 39 63 53 64 72 65
REMARK SMILES IDX 37 66 38 67 52 69 73 70 40 71 24 72 25 73 33 74 26 75 28 76
REMARK SMILES IDX 34 77 27 78 29 79 30 80 31 81 32 82 56 83 57 84 65 85 58 86
REMARK SMILES IDX 60 87 66 88 59 89 61 90 62 91 63 92 64 93 41 94 42 95 50 96
REMARK SMILES IDX 43 97 45 98 51 99 44 100 46 101 47 102 48 103 49 104
REMARK H PARENT 5 7 12 38 71 57 39 68
REMARK Flexibility Score: inf
ROOT
ATOM      1  C   UNL A   1      40.422  25.538  28.014  1.00  0.00     0.002 C 
ENDROOT
BRANCH   1   2
ATOM      2  C   UNL A   1      40.550  27.022  27.645  1.00  0.00     0.021 C 
BRANCH   2   3
ATOM      3  C   UNL A   1      39.614  27.928  28.447  1.00  0.00     0.116 C 
BRANCH   3   4
ATOM      4  N   UNL A   1      40.275  28.368  29.659  1.00  0.00    -0.356 N 
ATOM      5  C   UNL A   1      39.734  28.701  30.867  1.00  0.00     0.227 C 
ATOM      6  O   UNL A   1      40.464  29.310  31.656  1.00  0.00    -0.274 OA
ATOM      7  H   UNL A   1      41.256  28.438  29.602  1.00  0.00     0.163 HD
BRANCH   5   8
ATOM      8  C   UNL A   1      38.298  28.281  31.232  1.00  0.00     0.105 C 
ATOM      9  C   UNL A   1      38.384  27.297  32.412  1.00  0.00     0.023 C 
BRANCH   8  10
ATOM     10  C   UNL A   1      37.394  29.484  31.504  1.00  0.00    -0.034 A 
ATOM     11  C   UNL A   1      37.429  30.166  32.721  1.00  0.00     0.005 A 
ATOM     12  C   UNL A   1      36.561  29.981  30.477  1.00  0.00     0.032 A 
ATOM     13  C   UNL A   1      36.719  31.355  32.899  1.00  0.00     0.011 A 
ATOM     14  C   UNL A   1      35.927  31.236  30.613  1.00  0.00     0.057 A 
ATOM     15  C   UNL A   1      36.012  31.926  31.818  1.00  0.00     0.008 A 
ATOM     16  N   UNL A   1      35.253  32.055  29.677  1.00  0.00    -0.276 N 
ATOM     17  C   UNL A   1      35.308  33.147  31.666  1.00  0.00     0.009 A 
ATOM     18  C   UNL A   1      34.789  33.191  30.364  1.00  0.00     0.057 A 
ATOM     19  C   UNL A   1      35.071  34.215  32.558  1.00  0.00     0.031 A 
ATOM     20  C   UNL A   1      33.940  34.250  29.982  1.00  0.00     0.029 A 
ATOM     21  C   UNL A   1      34.288  35.289  32.150  1.00  0.00     0.041 A 
ATOM     22  C   UNL A   1      33.715  35.301  30.886  1.00  0.00     0.023 A 
ATOM     23  Cl  UNL A   1      34.021  36.596  33.238  1.00  0.00    -0.084 Cl
BRANCH  16  24
ATOM     24  C   UNL A   1      35.156  31.758  28.277  1.00  0.00     0.262 C 
ATOM     25  O   UNL A   1      35.750  32.526  27.516  1.00  0.00    -0.268 OA
BRANCH  24  26
ATOM     26  C   UNL A   1      34.308  30.716  27.600  1.00  0.00     0.040 A 
ATOM     27  C   UNL A   1      32.955  30.958  27.352  1.00  0.00     0.015 A 
ATOM     28  C   UNL A   1      34.733  29.433  27.364  1.00  0.00     0.015 A 
ATOM     29  C   UNL A   1      32.024  29.939  26.914  1.00  0.00     0.021 A 
ATOM     30  C   UNL A   1      33.844  28.436  26.855  1.00  0.00     0.021 A 
ATOM     31  C   UNL A   1      32.320  28.499  26.607  1.00  0.00     0.041 A 
ATOM     32  Cl  UNL A   1      30.809  26.661  25.929  1.00  0.00    -0.084 Cl
ENDBRANCH  24  26
ENDBRANCH  16  24
ENDBRANCH   8  10
ENDBRANCH   5   8
ENDBRANCH   3   4
ENDBRANCH   2   3
ENDBRANCH   1   2
BRANCH   1  33
ATOM     33  C   UNL A   1      39.097  24.879  27.609  1.00  0.00     0.002 C 
BRANCH  33  34
ATOM     34  C   UNL A   1      39.238  23.583  26.817  1.00  0.00     0.021 C 
BRANCH  34  35
ATOM     35  C   UNL A   1      40.435  22.738  27.216  1.00  0.00     0.116 C 
BRANCH  35  36
ATOM     36  N   UNL A   1      41.114  22.087  26.112  1.00  0.00    -0.352 N 
ATOM     37  C   UNL A   1      42.417  22.322  25.731  1.00  0.00     0.251 C 
ATOM     38  H   UNL A   1      40.604  21.425  25.593  1.00  0.00     0.163 HD
ATOM     39  O   UNL A   1      43.045  21.527  25.044  1.00  0.00    -0.269 OA
BRANCH  37  40
ATOM     40  C   UNL A   1      43.034  23.578  26.177  1.00  0.00     0.039 A 
ATOM     41  C   UNL A   1      42.921  25.005  25.072  1.00  0.00     0.014 A 
ATOM     42  C   UNL A   1      43.962  23.693  27.735  1.00  0.00     0.014 A 
ATOM     43  C   UNL A   1      43.709  26.582  25.526  1.00  0.00     0.010 A 
ATOM     44  C   UNL A   1      44.601  25.340  28.272  1.00  0.00     0.010 A 
ATOM     45  C   UNL A   1      44.494  26.801  27.163  1.00  0.00    -0.014 A 
BRANCH  45  46
ATOM     46  C   UNL A   1      45.293  28.080  27.408  1.00  0.00     0.031 A 
ATOM     47  C   UNL A   1      46.781  28.134  27.125  1.00  0.00     0.074 A 
ATOM     48  C   UNL A   1      44.731  29.246  27.815  1.00  0.00     0.049 A 
ATOM     49  N   UNL A   1      47.683  28.967  27.589  1.00  0.00    -0.248 NA
ATOM     50  C   UNL A   1      47.350  27.095  26.260  1.00  0.00     0.031 C 
ATOM     51  C   UNL A   1      43.329  29.471  28.147  1.00  0.00     0.029 A 
ATOM     52  N   UNL A   1      45.286  30.503  27.996  1.00  0.00    -0.354 N 
ATOM     53  C   UNL A   1      48.918  28.433  27.231  1.00  0.00     0.074 A 
ATOM     54  C   UNL A   1      48.646  27.209  26.510  1.00  0.00     0.031 C 
ATOM     55  C   UNL A   1      43.101  30.776  28.346  1.00  0.00     0.029 A 
ATOM     56  C   UNL A   1      44.373  31.478  28.344  1.00  0.00     0.049 A 
ATOM     57  H   UNL A   1      46.247  30.685  27.884  1.00  0.00     0.167 HD
ATOM     58  C   UNL A   1      50.163  28.928  27.439  1.00  0.00     0.034 A 
ATOM     59  C   UNL A   1      44.517  32.774  28.697  1.00  0.00     0.034 A 
ATOM     60  C   UNL A   1      50.432  30.271  27.880  1.00  0.00     0.049 A 
ATOM     61  C   UNL A   1      45.896  33.356  28.802  1.00  0.00     0.074 A 
ATOM     62  C   UNL A   1      51.659  30.897  28.025  1.00  0.00     0.029 A 
ATOM     63  N   UNL A   1      49.466  31.222  28.159  1.00  0.00    -0.354 N 
ATOM     64  N   UNL A   1      47.049  32.789  28.549  1.00  0.00    -0.248 NA
ATOM     65  C   UNL A   1      45.998  34.752  29.254  1.00  0.00     0.031 C 
ATOM     66  C   UNL A   1      51.434  32.231  28.378  1.00  0.00     0.029 A 
ATOM     67  C   UNL A   1      50.067  32.437  28.445  1.00  0.00     0.049 A 
ATOM     68  H   UNL A   1      48.494  31.060  28.156  1.00  0.00     0.167 HD
ATOM     69  C   UNL A   1      48.011  33.759  28.803  1.00  0.00     0.074 A 
ATOM     70  C   UNL A   1      47.304  34.964  29.186  1.00  0.00     0.031 C 
ATOM     71  C   UNL A   1      49.360  33.650  28.755  1.00  0.00     0.034 A 
BRANCH  58  72
ATOM     72  C   UNL A   1      51.346  28.037  27.143  1.00  0.00     0.023 A 
ATOM     73  C   UNL A   1      51.860  27.169  28.124  1.00  0.00     0.012 A 
ATOM     74  C   UNL A   1      51.907  28.022  25.848  1.00  0.00     0.148 A 
ATOM     75  C   UNL A   1      52.948  26.342  27.841  1.00  0.00     0.002 A 
ATOM     76  C   UNL A   1      52.950  27.150  25.556  1.00  0.00     0.091 A 
ATOM     77  F   UNL A   1      51.412  28.859  24.926  1.00  0.00    -0.205 F 
ATOM     78  C   UNL A   1      53.485  26.324  26.557  1.00  0.00     0.022 A 
BRANCH  76  79
ATOM     79  S   UNL A   1      53.632  26.975  23.903  1.00  0.00     0.127 S 
ATOM     80  O   UNL A   1      54.162  28.316  23.659  1.00  0.00    -0.237 OA
ATOM     81  O   UNL A   1      54.652  25.945  24.099  1.00  0.00    -0.237 OA
ATOM     82  O   UNL A   1      52.522  26.576  23.050  1.00  0.00    -0.744 OA
ENDBRANCH  76  79
ENDBRANCH  58  72
BRANCH  59  83
ATOM     83  C   UNL A   1      43.317  33.612  29.016  1.00  0.00     0.023 A 
ATOM     84  C   UNL A   1      42.876  34.581  28.094  1.00  0.00     0.012 A 
ATOM     85  C   UNL A   1      42.597  33.440  30.215  1.00  0.00     0.148 A 
ATOM     86  C   UNL A   1      41.760  35.376  28.370  1.00  0.00     0.002 A 
ATOM     87  C   UNL A   1      41.440  34.174  30.445  1.00  0.00     0.091 A 
ATOM     88  F   UNL A   1      43.046  32.542  31.105  1.00  0.00    -0.205 F 
ATOM     89  C   UNL A   1      41.031  35.159  29.536  1.00  0.00     0.022 A 
BRANCH  87  90
ATOM     90  S   UNL A   1      40.350  33.813  31.828  1.00  0.00     0.127 S 
ATOM     91  O   UNL A   1      39.281  34.786  31.631  1.00  0.00    -0.237 OA
ATOM     92  O   UNL A   1      39.977  32.422  31.569  1.00  0.00    -0.237 OA
ATOM     93  O   UNL A   1      41.171  33.994  33.019  1.00  0.00    -0.744 OA
ENDBRANCH  87  90
ENDBRANCH  59  83
BRANCH  71  94
ATOM     94  C   UNL A   1      50.169  34.876  29.079  1.00  0.00     0.023 A 
ATOM     95  C   UNL A   1      50.711  35.035  30.369  1.00  0.00     0.012 A 
ATOM     96  C   UNL A   1      50.443  35.837  28.088  1.00  0.00     0.148 A 
ATOM     97  C   UNL A   1      51.490  36.150  30.676  1.00  0.00     0.002 A 
ATOM     98  C   UNL A   1      51.257  36.922  28.388  1.00  0.00     0.091 A 
ATOM     99  F   UNL A   1      49.899  35.676  26.872  1.00  0.00    -0.205 F 
ATOM    100  C   UNL A   1      51.772  37.086  29.684  1.00  0.00     0.022 A 
BRANCH  98 101
ATOM    101  S   UNL A   1      51.746  38.128  27.151  1.00  0.00     0.127 S 
ATOM    102  O   UNL A   1      52.709  37.368  26.356  1.00  0.00    -0.237 OA
ATOM    103  O   UNL A   1      50.480  38.408  26.472  1.00  0.00    -0.237 OA
ATOM    104  O   UNL A   1      52.296  39.257  27.889  1.00  0.00    -0.744 OA
ENDBRANCH  98 101
ENDBRANCH  71  94
ENDBRANCH  45  46
ENDBRANCH  37  40
ENDBRANCH  35  36
ENDBRANCH  34  35
ENDBRANCH  33  34
ENDBRANCH   1  33
TORSDOF 19
ENDMDL
MODEL 3
REMARK VINA RESULT:     -12.3      4.819      7.947
REMARK SMILES C[C@H](C(=O)NCCCCCCNC(=O)c1ccc(-c2c3nc(c(-c4cccc(S(=O)(=O)[O-])c4F)c4ccc([nH]4)c(-c4cccc(S(=O)(=O)[O-])c4F)c4nc(c(-c5cccc(S(=O)(=O)[O-])c5F)c5ccc2[nH]5)C=C4)C=C3)cc1)c1ccc2c3cc(Cl)ccc3n(C(=O)c3ccc(Cl)cc3)c2c1
REMARK SMILES IDX 8 1 7 2 6 3 5 4 3 5 4 6 2 8 1 9 78 10 79 11 100 12 80 13
REMARK SMILES IDX 99 14 81 15 89 16 82 17 88 18 83 19 87 20 84 21 86 22 85 23
REMARK SMILES IDX 90 24 91 25 92 26 93 27 98 28 94 29 97 30 95 31 96 32 9 33
REMARK SMILES IDX 10 34 11 35 12 36 13 37 14 39 15 40 16 41 77 42 17 43 76 44
REMARK SMILES IDX 18 45 19 46 20 47 70 48 21 49 75 50 69 51 71 52 22 53 74 54
REMARK SMILES IDX 68 55 67 56 23 58 55 59 35 60 54 61 36 62 39 63 53 64 72 65
REMARK SMILES IDX 37 66 38 67 52 69 73 70 40 71 24 72 25 73 33 74 26 75 28 76
REMARK SMILES IDX 34 77 27 78 29 79 30 80 31 81 32 82 56 83 57 84 65 85 58 86
REMARK SMILES IDX 60 87 66 88 59 89 61 90 62 91 63 92 64 93 41 94 42 95 50 96
REMARK SMILES IDX 43 97 45 98 51 99 44 100 46 101 47 102 48 103 49 104
REMARK H PARENT 5 7 12 38 71 57 39 68
REMARK Flexibility Score: inf
ROOT
ATOM      1  C   UNL A   1      40.396  26.575  27.203  1.00  0.00     0.002 C 
ENDROOT
BRANCH   1   2
ATOM      2  C   UNL A   1      39.305  27.027  28.183  1.00  0.00     0.021 C 
BRANCH   2   3
ATOM      3  C   UNL A   1      39.265  28.543  28.388  1.00  0.00     0.116 C 
BRANCH   3   4
ATOM      4  N   UNL A   1      40.029  28.899  29.567  1.00  0.00    -0.356 N 
ATOM      5  C   UNL A   1      39.595  29.138  30.839  1.00  0.00     0.227 C 
ATOM      6  O   UNL A   1      40.388  29.695  31.604  1.00  0.00    -0.274 OA
ATOM      7  H   UNL A   1      41.000  28.983  29.430  1.00  0.00     0.163 HD
BRANCH   5   8
ATOM      8  C   UNL A   1      38.197  28.677  31.296  1.00  0.00     0.105 C 
ATOM      9  C   UNL A   1      38.384  27.751  32.511  1.00  0.00     0.023 C 
BRANCH   8  10
ATOM     10  C   UNL A   1      37.259  29.855  31.565  1.00  0.00    -0.034 A 
ATOM     11  C   UNL A   1      37.262  30.529  32.786  1.00  0.00     0.005 A 
ATOM     12  C   UNL A   1      36.426  30.336  30.530  1.00  0.00     0.032 A 
ATOM     13  C   UNL A   1      36.518  31.698  32.963  1.00  0.00     0.011 A 
ATOM     14  C   UNL A   1      35.758  31.574  30.667  1.00  0.00     0.057 A 
ATOM     15  C   UNL A   1      35.810  32.258  31.877  1.00  0.00     0.008 A 
ATOM     16  N   UNL A   1      35.074  32.381  29.727  1.00  0.00    -0.276 N 
ATOM     17  C   UNL A   1      35.075  33.460  31.723  1.00  0.00     0.009 A 
ATOM     18  C   UNL A   1      34.572  33.500  30.416  1.00  0.00     0.057 A 
ATOM     19  C   UNL A   1      34.800  34.516  32.619  1.00  0.00     0.031 A 
ATOM     20  C   UNL A   1      33.700  34.539  30.030  1.00  0.00     0.029 A 
ATOM     21  C   UNL A   1      33.994  35.572  32.208  1.00  0.00     0.041 A 
ATOM     22  C   UNL A   1      33.437  35.578  30.937  1.00  0.00     0.023 A 
ATOM     23  Cl  UNL A   1      33.679  36.864  33.302  1.00  0.00    -0.084 Cl
BRANCH  16  24
ATOM     24  C   UNL A   1      35.003  32.091  28.324  1.00  0.00     0.262 C 
ATOM     25  O   UNL A   1      35.545  32.904  27.573  1.00  0.00    -0.268 OA
BRANCH  24  26
ATOM     26  C   UNL A   1      34.229  31.000  27.635  1.00  0.00     0.040 A 
ATOM     27  C   UNL A   1      32.883  31.184  27.311  1.00  0.00     0.015 A 
ATOM     28  C   UNL A   1      34.713  29.728  27.457  1.00  0.00     0.015 A 
ATOM     29  C   UNL A   1      32.014  30.119  26.855  1.00  0.00     0.021 A 
ATOM     30  C   UNL A   1      33.888  28.685  26.932  1.00  0.00     0.021 A 
ATOM     31  C   UNL A   1      32.378  28.683  26.605  1.00  0.00     0.041 A 
ATOM     32  Cl  UNL A   1      30.972  26.773  25.903  1.00  0.00    -0.084 Cl
ENDBRANCH  24  26
ENDBRANCH  16  24
ENDBRANCH   8  10
ENDBRANCH   5   8
ENDBRANCH   3   4
ENDBRANCH   2   3
ENDBRANCH   1   2
BRANCH   1  33
ATOM     33  C   UNL A   1      40.094  25.274  26.449  1.00  0.00     0.002 C 
BRANCH  33  34
ATOM     34  C   UNL A   1      39.681  24.100  27.331  1.00  0.00     0.021 C 
BRANCH  34  35
ATOM     35  C   UNL A   1      40.808  23.131  27.644  1.00  0.00     0.116 C 
BRANCH  35  36
ATOM     36  N   UNL A   1      41.192  22.271  26.541  1.00  0.00    -0.352 N 
ATOM     37  C   UNL A   1      42.457  22.190  26.000  1.00  0.00     0.251 C 
ATOM     38  H   UNL A   1      40.495  21.701  26.146  1.00  0.00     0.163 HD
ATOM     39  O   UNL A   1      42.814  21.231  25.329  1.00  0.00    -0.269 OA
BRANCH  37  40
ATOM     40  C   UNL A   1      43.372  23.310  26.253  1.00  0.00     0.039 A 
ATOM     41  C   UNL A   1      43.495  24.594  24.985  1.00  0.00     0.014 A 
ATOM     42  C   UNL A   1      44.420  23.379  27.736  1.00  0.00     0.014 A 
ATOM     43  C   UNL A   1      44.649  25.986  25.198  1.00  0.00     0.010 A 
ATOM     44  C   UNL A   1      45.451  24.883  28.029  1.00  0.00     0.010 A 
ATOM     45  C   UNL A   1      45.588  26.198  26.753  1.00  0.00    -0.014 A 
BRANCH  45  46
ATOM     46  C   UNL A   1      46.669  27.275  26.794  1.00  0.00     0.031 A 
ATOM     47  C   UNL A   1      46.307  28.733  26.999  1.00  0.00     0.074 A 
ATOM     48  C   UNL A   1      47.996  27.005  26.725  1.00  0.00     0.049 A 
ATOM     49  N   UNL A   1      47.003  29.808  26.712  1.00  0.00    -0.248 NA
ATOM     50  C   UNL A   1      44.979  29.037  27.542  1.00  0.00     0.031 C 
ATOM     51  C   UNL A   1      48.614  25.698  26.538  1.00  0.00     0.029 A 
ATOM     52  N   UNL A   1      49.096  27.841  26.837  1.00  0.00    -0.354 N 
ATOM     53  C   UNL A   1      46.127  30.881  26.855  1.00  0.00     0.074 A 
ATOM     54  C   UNL A   1      44.855  30.326  27.258  1.00  0.00     0.031 C 
ATOM     55  C   UNL A   1      49.942  25.783  26.688  1.00  0.00     0.029 A 
ATOM     56  C   UNL A   1      50.311  27.184  26.796  1.00  0.00     0.049 A 
ATOM     57  H   UNL A   1      49.019  28.816  26.938  1.00  0.00     0.167 HD
ATOM     58  C   UNL A   1      46.362  32.208  26.710  1.00  0.00     0.034 A 
ATOM     59  C   UNL A   1      51.585  27.630  26.773  1.00  0.00     0.034 A 
ATOM     60  C   UNL A   1      47.675  32.788  26.607  1.00  0.00     0.049 A 
ATOM     61  C   UNL A   1      51.844  29.108  26.743  1.00  0.00     0.074 A 
ATOM     62  C   UNL A   1      48.020  34.128  26.558  1.00  0.00     0.029 A 
ATOM     63  N   UNL A   1      48.861  32.074  26.631  1.00  0.00    -0.354 N 
ATOM     64  N   UNL A   1      50.984  30.094  26.781  1.00  0.00    -0.248 NA
ATOM     65  C   UNL A   1      53.248  29.537  26.652  1.00  0.00     0.031 C 
ATOM     66  C   UNL A   1      49.415  34.224  26.565  1.00  0.00     0.029 A 
ATOM     67  C   UNL A   1      49.938  32.945  26.627  1.00  0.00     0.049 A 
ATOM     68  H   UNL A   1      48.929  31.091  26.646  1.00  0.00     0.167 HD
ATOM     69  C   UNL A   1      51.740  31.258  26.728  1.00  0.00     0.074 A 
ATOM     70  C   UNL A   1      53.132  30.856  26.700  1.00  0.00     0.031 C 
ATOM     71  C   UNL A   1      51.318  32.543  26.672  1.00  0.00     0.034 A 
BRANCH  58  72
ATOM     72  C   UNL A   1      45.180  33.148  26.706  1.00  0.00     0.023 A 
ATOM     73  C   UNL A   1      44.561  33.527  25.501  1.00  0.00     0.012 A 
ATOM     74  C   UNL A   1      44.641  33.604  27.929  1.00  0.00     0.148 A 
ATOM     75  C   UNL A   1      43.463  34.388  25.505  1.00  0.00     0.002 A 
ATOM     76  C   UNL A   1      43.509  34.411  27.929  1.00  0.00     0.091 A 
ATOM     77  F   UNL A   1      45.245  33.241  29.070  1.00  0.00    -0.205 F 
ATOM     78  C   UNL A   1      42.931  34.820  26.717  1.00  0.00     0.022 A 
BRANCH  76  79
ATOM     79  S   UNL A   1      42.686  34.926  29.440  1.00  0.00     0.127 S 
ATOM     80  O   UNL A   1      41.621  35.782  28.919  1.00  0.00    -0.237 OA
ATOM     81  O   UNL A   1      42.227  33.651  29.990  1.00  0.00    -0.237 OA
ATOM     82  O   UNL A   1      43.698  35.602  30.239  1.00  0.00    -0.744 OA
ENDBRANCH  76  79
ENDBRANCH  58  72
BRANCH  59  83
ATOM     83  C   UNL A   1      52.728  26.662  26.743  1.00  0.00     0.023 A 
ATOM     84  C   UNL A   1      53.053  26.002  25.542  1.00  0.00     0.012 A 
ATOM     85  C   UNL A   1      53.507  26.407  27.889  1.00  0.00     0.148 A 
ATOM     86  C   UNL A   1      54.114  25.094  25.489  1.00  0.00     0.002 A 
ATOM     87  C   UNL A   1      54.612  25.568  27.808  1.00  0.00     0.091 A 
ATOM     88  F   UNL A   1      53.167  27.010  29.038  1.00  0.00    -0.205 F 
ATOM     89  C   UNL A   1      54.905  24.892  26.617  1.00  0.00     0.022 A 
BRANCH  87  90
ATOM     90  S   UNL A   1      55.782  25.413  29.165  1.00  0.00     0.127 S 
ATOM     91  O   UNL A   1      56.774  26.426  28.824  1.00  0.00    -0.237 OA
ATOM     92  O   UNL A   1      54.948  25.729  30.326  1.00  0.00    -0.237 OA
ATOM     93  O   UNL A   1      56.236  24.029  29.122  1.00  0.00    -0.744 OA
ENDBRANCH  87  90
ENDBRANCH  59  83
BRANCH  71  94
ATOM     94  C   UNL A   1      52.368  33.620  26.623  1.00  0.00     0.023 A 
ATOM     95  C   UNL A   1      53.023  34.011  27.807  1.00  0.00     0.012 A 
ATOM     96  C   UNL A   1      52.746  34.197  25.397  1.00  0.00     0.148 A 
ATOM     97  C   UNL A   1      54.021  34.985  27.774  1.00  0.00     0.002 A 
ATOM     98  C   UNL A   1      53.772  35.134  25.365  1.00  0.00     0.091 A 
ATOM     99  F   UNL A   1      52.094  33.825  24.285  1.00  0.00    -0.205 F 
ATOM    100  C   UNL A   1      54.402  35.537  26.554  1.00  0.00     0.022 A 
BRANCH  98 101
ATOM    101  S   UNL A   1      54.390  35.832  23.830  1.00  0.00     0.127 S 
ATOM    102  O   UNL A   1      55.552  36.588  24.292  1.00  0.00    -0.237 OA
ATOM    103  O   UNL A   1      54.712  34.635  23.052  1.00  0.00    -0.237 OA
ATOM    104  O   UNL A   1      53.299  36.629  23.286  1.00  0.00    -0.744 OA
ENDBRANCH  98 101
ENDBRANCH  71  94
ENDBRANCH  45  46
ENDBRANCH  37  40
ENDBRANCH  35  36
ENDBRANCH  34  35
ENDBRANCH  33  34
ENDBRANCH   1  33
TORSDOF 19
ENDMDL
