MODEL 1
REMARK VINA RESULT:      -9.7      0.000      0.000
REMARK SMILES CCCCCCNC(=O)Nc1cccc(-c2ccc([C@@H](C)C(=O)NCCCCCCNC(=O)c3ccc(-c4c5nc(c(-c6cccc(S(=O)(=O)[O-])c6F)c6ccc([nH]6)c(-c6cccc(S(=O)(=O)[O-])c6F)c6nc(c(-c7cccc(S(=O)(=O)[O-])c7F)c7ccc4[nH]7)C=C6)C=C5)cc3)cc2F)c1
REMARK SMILES IDX 25 1 24 2 22 3 23 4 20 6 21 7 19 8 16 9 17 10 98 11 18 12
REMARK SMILES IDX 97 13 99 14 15 15 11 16 12 17 100 18 13 19 14 20 10 21 7 22
REMARK SMILES IDX 8 23 9 25 6 27 5 28 4 29 3 30 2 31 1 32 26 33 27 34 28 35
REMARK SMILES IDX 29 36 30 37 31 38 32 39 33 41 34 42 35 43 96 44 36 45 95 46
REMARK SMILES IDX 37 47 38 48 39 49 89 50 40 51 94 52 88 53 90 54 41 55 93 56
REMARK SMILES IDX 87 57 86 58 42 60 74 61 54 62 73 63 55 64 58 65 72 66 91 67
REMARK SMILES IDX 56 68 57 69 71 71 92 72 59 73 43 74 44 75 52 76 45 77 47 78
REMARK SMILES IDX 53 79 46 80 48 81 49 82 50 83 51 84 75 85 76 86 84 87 77 88
REMARK SMILES IDX 79 89 85 90 78 91 80 92 81 93 82 94 83 95 60 96 61 97 69 98
REMARK SMILES IDX 62 99 64 100 70 101 63 102 65 103 66 104 67 105 68 106
REMARK H PARENT 24 5 7 24 10 26 31 40 90 59 58 70
REMARK Flexibility Score: inf
ROOT
ATOM      1  C   UNL A   1      37.638  33.603  29.461  1.00  0.00     0.116 C 
ENDROOT
BRANCH   1   2
ATOM      2  N   UNL A   1      36.586  34.197  28.660  1.00  0.00    -0.356 N 
ATOM      3  C   UNL A   1      35.322  33.785  28.375  1.00  0.00     0.227 C 
ATOM      4  O   UNL A   1      34.717  34.438  27.514  1.00  0.00    -0.274 OA
ATOM      5  H   UNL A   1      36.831  35.057  28.248  1.00  0.00     0.163 HD
BRANCH   3   6
ATOM      6  C   UNL A   1      34.628  32.602  29.064  1.00  0.00     0.105 C 
ATOM      7  C   UNL A   1      35.135  32.295  30.473  1.00  0.00     0.023 C 
BRANCH   6   8
ATOM      8  C   UNL A   1      34.418  31.387  28.172  1.00  0.00    -0.033 A 
ATOM      9  C   UNL A   1      33.954  29.149  26.443  1.00  0.00     0.018 A 
ATOM     10  C   UNL A   1      35.173  29.322  27.115  1.00  0.00     0.012 A 
ATOM     11  C   UNL A   1      32.968  30.118  26.674  1.00  0.00     0.131 A 
ATOM     12  C   UNL A   1      35.392  30.404  27.980  1.00  0.00     0.005 A 
ATOM     13  C   UNL A   1      33.194  31.221  27.506  1.00  0.00     0.044 A 
ATOM     14  F   UNL A   1      31.763  30.014  26.091  1.00  0.00    -0.206 F 
BRANCH   9  15
ATOM     15  C   UNL A   1      33.771  28.024  25.505  1.00  0.00    -0.013 A 
ATOM     16  C   UNL A   1      32.913  25.779  25.054  1.00  0.00     0.043 A 
ATOM     17  C   UNL A   1      33.164  25.935  23.693  1.00  0.00     0.026 A 
ATOM     18  C   UNL A   1      33.290  26.783  25.955  1.00  0.00     0.035 A 
ATOM     19  C   UNL A   1      33.666  27.146  23.224  1.00  0.00     0.003 A 
ATOM     20  C   UNL A   1      33.949  28.183  24.119  1.00  0.00     0.009 A 
BRANCH  16  21
ATOM     21  N   UNL A   1      32.195  24.647  25.463  1.00  0.00    -0.308 N 
ATOM     22  N   UNL A   1      33.865  22.978  25.664  1.00  0.00    -0.338 N 
ATOM     23  C   UNL A   1      32.569  23.343  25.507  1.00  0.00     0.319 C 
ATOM     24  H   UNL A   1      34.044  22.025  25.493  1.00  0.00     0.165 HD
ATOM     25  O   UNL A   1      31.709  22.461  25.505  1.00  0.00    -0.249 OA
ATOM     26  H   UNL A   1      31.276  24.824  25.766  1.00  0.00     0.171 HD
BRANCH  22  27
ATOM     27  C   UNL A   1      35.036  23.756  26.040  1.00  0.00     0.117 C 
BRANCH  27  28
ATOM     28  C   UNL A   1      36.046  23.925  24.914  1.00  0.00     0.021 C 
BRANCH  28  29
ATOM     29  C   UNL A   1      37.505  23.688  25.299  1.00  0.00     0.002 C 
BRANCH  29  30
ATOM     30  C   UNL A   1      37.840  23.860  26.786  1.00  0.00    -0.000 C 
BRANCH  30  31
ATOM     31  C   UNL A   1      39.321  24.049  27.117  1.00  0.00    -0.003 C 
ATOM     32  C   UNL A   1      39.988  25.181  26.349  1.00  0.00     0.004 C 
ENDBRANCH  30  31
ENDBRANCH  29  30
ENDBRANCH  28  29
ENDBRANCH  27  28
ENDBRANCH  22  27
ENDBRANCH  16  21
ENDBRANCH   9  15
ENDBRANCH   6   8
ENDBRANCH   3   6
ENDBRANCH   1   2
BRANCH   1  33
ATOM     33  C   UNL A   1      38.126  34.585  30.527  1.00  0.00     0.021 C 
BRANCH  33  34
ATOM     34  C   UNL A   1      38.322  33.931  31.897  1.00  0.00     0.002 C 
BRANCH  34  35
ATOM     35  C   UNL A   1      37.206  34.197  32.912  1.00  0.00     0.002 C 
BRANCH  35  36
ATOM     36  C   UNL A   1      36.636  32.961  33.618  1.00  0.00     0.021 C 
BRANCH  36  37
ATOM     37  C   UNL A   1      37.667  31.945  34.103  1.00  0.00     0.116 C 
BRANCH  37  38
ATOM     38  N   UNL A   1      37.369  30.596  33.649  1.00  0.00    -0.352 N 
ATOM     39  C   UNL A   1      37.928  29.875  32.623  1.00  0.00     0.251 C 
ATOM     40  H   UNL A   1      36.661  30.130  34.152  1.00  0.00     0.163 HD
ATOM     41  O   UNL A   1      37.400  28.833  32.249  1.00  0.00    -0.269 OA
BRANCH  39  42
ATOM     42  C   UNL A   1      39.161  30.359  31.966  1.00  0.00     0.039 A 
ATOM     43  C   UNL A   1      39.167  30.530  30.580  1.00  0.00     0.014 A 
ATOM     44  C   UNL A   1      40.313  30.625  32.712  1.00  0.00     0.014 A 
ATOM     45  C   UNL A   1      40.311  31.024  29.948  1.00  0.00     0.010 A 
ATOM     46  C   UNL A   1      41.428  31.181  32.090  1.00  0.00     0.010 A 
ATOM     47  C   UNL A   1      41.442  31.384  30.701  1.00  0.00    -0.014 A 
BRANCH  47  48
ATOM     48  C   UNL A   1      42.628  32.001  30.052  1.00  0.00     0.031 A 
ATOM     49  C   UNL A   1      43.830  31.170  29.697  1.00  0.00     0.074 A 
ATOM     50  C   UNL A   1      42.651  33.333  29.851  1.00  0.00     0.049 A 
ATOM     51  N   UNL A   1      44.951  31.541  29.131  1.00  0.00    -0.248 NA
ATOM     52  C   UNL A   1      43.782  29.741  30.044  1.00  0.00     0.031 C 
ATOM     53  C   UNL A   1      41.583  34.261  30.224  1.00  0.00     0.029 A 
ATOM     54  N   UNL A   1      43.615  34.141  29.300  1.00  0.00    -0.354 N 
ATOM     55  C   UNL A   1      45.751  30.407  29.087  1.00  0.00     0.074 A 
ATOM     56  C   UNL A   1      45.000  29.340  29.714  1.00  0.00     0.031 C 
ATOM     57  C   UNL A   1      41.941  35.507  29.875  1.00  0.00     0.029 A 
ATOM     58  C   UNL A   1      43.274  35.472  29.282  1.00  0.00     0.049 A 
ATOM     59  H   UNL A   1      44.470  33.799  28.952  1.00  0.00     0.167 HD
ATOM     60  C   UNL A   1      46.987  30.258  28.553  1.00  0.00     0.034 A 
ATOM     61  C   UNL A   1      43.955  36.546  28.838  1.00  0.00     0.034 A 
ATOM     62  C   UNL A   1      47.718  31.313  27.900  1.00  0.00     0.049 A 
ATOM     63  C   UNL A   1      45.312  36.349  28.219  1.00  0.00     0.074 A 
ATOM     64  C   UNL A   1      48.928  31.239  27.236  1.00  0.00     0.029 A 
ATOM     65  N   UNL A   1      47.315  32.639  27.848  1.00  0.00    -0.354 N 
ATOM     66  N   UNL A   1      45.979  35.238  28.028  1.00  0.00    -0.248 NA
ATOM     67  C   UNL A   1      45.994  37.554  27.724  1.00  0.00     0.031 C 
ATOM     68  C   UNL A   1      49.276  32.527  26.813  1.00  0.00     0.029 A 
ATOM     69  C   UNL A   1      48.265  33.399  27.183  1.00  0.00     0.049 A 
ATOM     70  H   UNL A   1      46.477  32.990  28.226  1.00  0.00     0.167 HD
ATOM     71  C   UNL A   1      47.143  35.601  27.360  1.00  0.00     0.074 A 
ATOM     72  C   UNL A   1      47.078  37.035  27.161  1.00  0.00     0.031 C 
ATOM     73  C   UNL A   1      48.176  34.819  26.958  1.00  0.00     0.034 A 
BRANCH  60  74
ATOM     74  C   UNL A   1      47.618  28.890  28.625  1.00  0.00     0.023 A 
ATOM     75  C   UNL A   1      48.396  28.534  29.746  1.00  0.00     0.012 A 
ATOM     76  C   UNL A   1      47.411  27.944  27.602  1.00  0.00     0.148 A 
ATOM     77  C   UNL A   1      48.996  27.278  29.828  1.00  0.00     0.002 A 
ATOM     78  C   UNL A   1      47.973  26.676  27.713  1.00  0.00     0.091 A 
ATOM     79  F   UNL A   1      46.688  28.303  26.533  1.00  0.00    -0.205 F 
ATOM     80  C   UNL A   1      48.777  26.347  28.816  1.00  0.00     0.022 A 
BRANCH  78  81
ATOM     81  S   UNL A   1      47.681  25.383  26.501  1.00  0.00     0.127 S 
ATOM     82  O   UNL A   1      48.682  25.700  25.484  1.00  0.00    -0.237 OA
ATOM     83  O   UNL A   1      47.956  24.169  27.271  1.00  0.00    -0.237 OA
ATOM     84  O   UNL A   1      46.293  25.533  26.084  1.00  0.00    -0.744 OA
ENDBRANCH  78  81
ENDBRANCH  60  74
BRANCH  61  85
ATOM     85  C   UNL A   1      43.324  37.895  28.888  1.00  0.00     0.023 A 
ATOM     86  C   UNL A   1      42.424  38.272  27.873  1.00  0.00     0.012 A 
ATOM     87  C   UNL A   1      43.572  38.784  29.951  1.00  0.00     0.148 A 
ATOM     88  C   UNL A   1      41.803  39.521  27.900  1.00  0.00     0.002 A 
ATOM     89  C   UNL A   1      42.909  40.004  30.002  1.00  0.00     0.091 A 
ATOM     90  F   UNL A   1      44.438  38.407  30.903  1.00  0.00    -0.205 F 
ATOM     91  C   UNL A   1      42.037  40.382  28.969  1.00  0.00     0.022 A 
BRANCH  89  92
ATOM     92  S   UNL A   1      43.044  41.120  31.403  1.00  0.00     0.127 S 
ATOM     93  O   UNL A   1      44.447  41.518  31.335  1.00  0.00    -0.237 OA
ATOM     94  O   UNL A   1      42.086  42.167  31.045  1.00  0.00    -0.237 OA
ATOM     95  O   UNL A   1      42.669  40.336  32.572  1.00  0.00    -0.744 OA
ENDBRANCH  89  92
ENDBRANCH  61  85
BRANCH  73  96
ATOM     96  C   UNL A   1      49.317  35.491  26.237  1.00  0.00     0.023 A 
ATOM     97  C   UNL A   1      49.224  35.744  24.854  1.00  0.00     0.012 A 
ATOM     98  C   UNL A   1      50.460  35.921  26.941  1.00  0.00     0.148 A 
ATOM     99  C   UNL A   1      50.265  36.380  24.176  1.00  0.00     0.002 A 
ATOM    100  C   UNL A   1      51.469  36.601  26.269  1.00  0.00     0.091 A 
ATOM    101  F   UNL A   1      50.542  35.656  28.253  1.00  0.00    -0.205 F 
ATOM    102  C   UNL A   1      51.380  36.817  24.885  1.00  0.00     0.022 A 
BRANCH 100 103
ATOM    103  S   UNL A   1      52.896  37.288  27.117  1.00  0.00     0.127 S 
ATOM    104  O   UNL A   1      53.631  37.904  26.013  1.00  0.00    -0.237 OA
ATOM    105  O   UNL A   1      52.280  38.238  28.044  1.00  0.00    -0.237 OA
ATOM    106  O   UNL A   1      53.561  36.163  27.760  1.00  0.00    -0.744 OA
ENDBRANCH 100 103
ENDBRANCH  73  96
ENDBRANCH  47  48
ENDBRANCH  39  42
ENDBRANCH  37  38
ENDBRANCH  36  37
ENDBRANCH  35  36
ENDBRANCH  34  35
ENDBRANCH  33  34
ENDBRANCH   1  33
TORSDOF 24
ENDMDL
MODEL 2
REMARK VINA RESULT:      -9.3      3.478      8.733
REMARK SMILES CCCCCCNC(=O)Nc1cccc(-c2ccc([C@@H](C)C(=O)NCCCCCCNC(=O)c3ccc(-c4c5nc(c(-c6cccc(S(=O)(=O)[O-])c6F)c6ccc([nH]6)c(-c6cccc(S(=O)(=O)[O-])c6F)c6nc(c(-c7cccc(S(=O)(=O)[O-])c7F)c7ccc4[nH]7)C=C6)C=C5)cc3)cc2F)c1
REMARK SMILES IDX 25 1 24 2 22 3 23 4 20 6 21 7 19 8 16 9 17 10 98 11 18 12
REMARK SMILES IDX 97 13 99 14 15 15 11 16 12 17 100 18 13 19 14 20 10 21 7 22
REMARK SMILES IDX 8 23 9 25 6 27 5 28 4 29 3 30 2 31 1 32 26 33 27 34 28 35
REMARK SMILES IDX 29 36 30 37 31 38 32 39 33 41 34 42 35 43 96 44 36 45 95 46
REMARK SMILES IDX 37 47 38 48 39 49 89 50 40 51 94 52 88 53 90 54 41 55 93 56
REMARK SMILES IDX 87 57 86 58 42 60 74 61 54 62 73 63 55 64 58 65 72 66 91 67
REMARK SMILES IDX 56 68 57 69 71 71 92 72 59 73 43 74 44 75 52 76 45 77 47 78
REMARK SMILES IDX 53 79 46 80 48 81 49 82 50 83 51 84 75 85 76 86 84 87 77 88
REMARK SMILES IDX 79 89 85 90 78 91 80 92 81 93 82 94 83 95 60 96 61 97 69 98
REMARK SMILES IDX 62 99 64 100 70 101 63 102 65 103 66 104 67 105 68 106
REMARK H PARENT 24 5 7 24 10 26 31 40 90 59 58 70
REMARK Flexibility Score: inf
ROOT
ATOM      1  C   UNL A   1      39.790  30.081  30.316  1.00  0.00     0.116 C 
ENDROOT
BRANCH   1   2
ATOM      2  N   UNL A   1      38.870  30.879  31.103  1.00  0.00    -0.356 N 
ATOM      3  C   UNL A   1      37.985  31.850  30.753  1.00  0.00     0.227 C 
ATOM      4  O   UNL A   1      37.457  32.469  31.686  1.00  0.00    -0.274 OA
ATOM      5  H   UNL A   1      38.890  30.682  32.067  1.00  0.00     0.163 HD
BRANCH   3   6
ATOM      6  C   UNL A   1      37.608  32.187  29.304  1.00  0.00     0.105 C 
ATOM      7  C   UNL A   1      37.356  33.670  29.036  1.00  0.00     0.023 C 
BRANCH   6   8
ATOM      8  C   UNL A   1      36.598  31.236  28.677  1.00  0.00    -0.033 A 
ATOM      9  C   UNL A   1      34.661  29.521  27.445  1.00  0.00     0.018 A 
ATOM     10  C   UNL A   1      35.873  29.024  27.946  1.00  0.00     0.012 A 
ATOM     11  C   UNL A   1      34.438  30.896  27.592  1.00  0.00     0.131 A 
ATOM     12  C   UNL A   1      36.811  29.859  28.570  1.00  0.00     0.005 A 
ATOM     13  C   UNL A   1      35.387  31.741  28.180  1.00  0.00     0.044 A 
ATOM     14  F   UNL A   1      33.292  31.449  27.164  1.00  0.00    -0.206 F 
BRANCH   9  15
ATOM     15  C   UNL A   1      33.714  28.623  26.753  1.00  0.00    -0.013 A 
ATOM     16  C   UNL A   1      33.237  27.083  24.915  1.00  0.00     0.043 A 
ATOM     17  C   UNL A   1      32.043  26.699  25.521  1.00  0.00     0.026 A 
ATOM     18  C   UNL A   1      34.019  28.093  25.488  1.00  0.00     0.035 A 
ATOM     19  C   UNL A   1      31.704  27.229  26.763  1.00  0.00     0.003 A 
ATOM     20  C   UNL A   1      32.539  28.167  27.377  1.00  0.00     0.009 A 
BRANCH  16  21
ATOM     21  N   UNL A   1      33.663  26.364  23.789  1.00  0.00    -0.308 N 
ATOM     22  N   UNL A   1      32.731  27.575  21.978  1.00  0.00    -0.338 N 
ATOM     23  C   UNL A   1      33.249  26.436  22.499  1.00  0.00     0.319 C 
ATOM     24  H   UNL A   1      32.294  27.462  21.103  1.00  0.00     0.165 HD
ATOM     25  O   UNL A   1      33.434  25.480  21.744  1.00  0.00    -0.249 OA
ATOM     26  H   UNL A   1      34.372  25.704  23.961  1.00  0.00     0.171 HD
BRANCH  22  27
ATOM     27  C   UNL A   1      32.710  28.935  22.494  1.00  0.00     0.117 C 
BRANCH  27  28
ATOM     28  C   UNL A   1      31.344  29.601  22.410  1.00  0.00     0.021 C 
BRANCH  28  29
ATOM     29  C   UNL A   1      30.297  29.078  23.392  1.00  0.00     0.002 C 
BRANCH  29  30
ATOM     30  C   UNL A   1      29.582  27.785  22.981  1.00  0.00    -0.000 C 
BRANCH  30  31
ATOM     31  C   UNL A   1      28.197  27.567  23.591  1.00  0.00    -0.003 C 
ATOM     32  C   UNL A   1      27.158  28.585  23.146  1.00  0.00     0.004 C 
ENDBRANCH  30  31
ENDBRANCH  29  30
ENDBRANCH  28  29
ENDBRANCH  27  28
ENDBRANCH  22  27
ENDBRANCH  16  21
ENDBRANCH   9  15
ENDBRANCH   6   8
ENDBRANCH   3   6
ENDBRANCH   1   2
BRANCH   1  33
ATOM     33  C   UNL A   1      39.831  28.641  30.829  1.00  0.00     0.021 C 
BRANCH  33  34
ATOM     34  C   UNL A   1      39.111  27.656  29.906  1.00  0.00     0.002 C 
BRANCH  34  35
ATOM     35  C   UNL A   1      39.922  27.188  28.693  1.00  0.00     0.002 C 
BRANCH  35  36
ATOM     36  C   UNL A   1      39.904  25.680  28.418  1.00  0.00     0.021 C 
BRANCH  36  37
ATOM     37  C   UNL A   1      39.595  25.276  26.979  1.00  0.00     0.116 C 
BRANCH  37  38
ATOM     38  N   UNL A   1      40.166  23.985  26.633  1.00  0.00    -0.352 N 
ATOM     39  C   UNL A   1      41.440  23.671  26.226  1.00  0.00     0.251 C 
ATOM     40  H   UNL A   1      39.548  23.220  26.701  1.00  0.00     0.163 HD
ATOM     41  O   UNL A   1      41.680  22.559  25.769  1.00  0.00    -0.269 OA
BRANCH  39  42
ATOM     42  C   UNL A   1      42.517  24.679  26.331  1.00  0.00     0.039 A 
ATOM     43  C   UNL A   1      42.723  25.563  25.269  1.00  0.00     0.014 A 
ATOM     44  C   UNL A   1      43.334  24.738  27.464  1.00  0.00     0.014 A 
ATOM     45  C   UNL A   1      43.711  26.546  25.369  1.00  0.00     0.010 A 
ATOM     46  C   UNL A   1      44.272  25.760  27.589  1.00  0.00     0.010 A 
ATOM     47  C   UNL A   1      44.474  26.673  26.542  1.00  0.00    -0.014 A 
BRANCH  47  48
ATOM     48  C   UNL A   1      45.460  27.774  26.697  1.00  0.00     0.031 A 
ATOM     49  C   UNL A   1      45.037  29.118  27.223  1.00  0.00     0.074 A 
ATOM     50  C   UNL A   1      46.730  27.584  26.289  1.00  0.00     0.049 A 
ATOM     51  N   UNL A   1      45.760  30.191  27.420  1.00  0.00    -0.248 NA
ATOM     52  C   UNL A   1      43.612  29.292  27.546  1.00  0.00     0.031 C 
ATOM     53  C   UNL A   1      47.248  26.355  25.687  1.00  0.00     0.029 A 
ATOM     54  N   UNL A   1      47.813  28.429  26.301  1.00  0.00    -0.354 N 
ATOM     55  C   UNL A   1      44.878  31.173  27.853  1.00  0.00     0.074 A 
ATOM     56  C   UNL A   1      43.559  30.577  27.859  1.00  0.00     0.031 C 
ATOM     57  C   UNL A   1      48.551  26.517  25.406  1.00  0.00     0.029 A 
ATOM     58  C   UNL A   1      48.954  27.869  25.778  1.00  0.00     0.049 A 
ATOM     59  H   UNL A   1      47.775  29.348  26.651  1.00  0.00     0.167 HD
ATOM     60  C   UNL A   1      45.143  32.446  28.234  1.00  0.00     0.034 A 
ATOM     61  C   UNL A   1      50.188  28.385  25.615  1.00  0.00     0.034 A 
ATOM     62  C   UNL A   1      46.461  33.024  28.259  1.00  0.00     0.049 A 
ATOM     63  C   UNL A   1      50.463  29.789  26.077  1.00  0.00     0.074 A 
ATOM     64  C   UNL A   1      46.846  34.267  28.727  1.00  0.00     0.029 A 
ATOM     65  N   UNL A   1      47.605  32.407  27.776  1.00  0.00    -0.354 N 
ATOM     66  N   UNL A   1      49.651  30.644  26.649  1.00  0.00    -0.248 NA
ATOM     67  C   UNL A   1      51.835  30.286  25.902  1.00  0.00     0.031 C 
ATOM     68  C   UNL A   1      48.218  34.417  28.494  1.00  0.00     0.029 A 
ATOM     69  C   UNL A   1      48.694  33.253  27.913  1.00  0.00     0.049 A 
ATOM     70  H   UNL A   1      47.639  31.502  27.393  1.00  0.00     0.167 HD
ATOM     71  C   UNL A   1      50.418  31.767  26.934  1.00  0.00     0.074 A 
ATOM     72  C   UNL A   1      51.767  31.474  26.491  1.00  0.00     0.031 C 
ATOM     73  C   UNL A   1      50.039  32.939  27.502  1.00  0.00     0.034 A 
BRANCH  60  74
ATOM     74  C   UNL A   1      43.981  33.293  28.689  1.00  0.00     0.023 A 
ATOM     75  C   UNL A   1      43.388  34.210  27.796  1.00  0.00     0.012 A 
ATOM     76  C   UNL A   1      43.450  33.156  29.987  1.00  0.00     0.148 A 
ATOM     77  C   UNL A   1      42.320  35.010  28.200  1.00  0.00     0.002 A 
ATOM     78  C   UNL A   1      42.353  33.923  30.367  1.00  0.00     0.091 A 
ATOM     79  F   UNL A   1      44.036  32.296  30.832  1.00  0.00    -0.205 F 
ATOM     80  C   UNL A   1      41.797  34.859  29.481  1.00  0.00     0.022 A 
BRANCH  78  81
ATOM     81  S   UNL A   1      41.558  33.742  31.967  1.00  0.00     0.127 S 
ATOM     82  O   UNL A   1      40.308  34.470  31.760  1.00  0.00    -0.237 OA
ATOM     83  O   UNL A   1      41.408  32.290  32.075  1.00  0.00    -0.237 OA
ATOM     84  O   UNL A   1      42.473  34.329  32.937  1.00  0.00    -0.744 OA
ENDBRANCH  78  81
ENDBRANCH  60  74
BRANCH  61  85
ATOM     85  C   UNL A   1      51.277  27.533  25.060  1.00  0.00     0.023 A 
ATOM     86  C   UNL A   1      51.805  26.491  25.847  1.00  0.00     0.012 A 
ATOM     87  C   UNL A   1      51.760  27.717  23.750  1.00  0.00     0.148 A 
ATOM     88  C   UNL A   1      52.814  25.665  25.350  1.00  0.00     0.002 A 
ATOM     89  C   UNL A   1      52.725  26.857  23.241  1.00  0.00     0.091 A 
ATOM     90  F   UNL A   1      51.248  28.719  23.021  1.00  0.00    -0.205 F 
ATOM     91  C   UNL A   1      53.266  25.841  24.045  1.00  0.00     0.022 A 
BRANCH  89  92
ATOM     92  S   UNL A   1      53.273  26.920  21.532  1.00  0.00     0.127 S 
ATOM     93  O   UNL A   1      52.344  25.997  20.886  1.00  0.00    -0.237 OA
ATOM     94  O   UNL A   1      53.071  28.332  21.204  1.00  0.00    -0.237 OA
ATOM     95  O   UNL A   1      54.668  26.500  21.547  1.00  0.00    -0.744 OA
ENDBRANCH  89  92
ENDBRANCH  61  85
BRANCH  73  96
ATOM     96  C   UNL A   1      51.101  33.991  27.703  1.00  0.00     0.023 A 
ATOM     97  C   UNL A   1      51.757  34.101  28.945  1.00  0.00     0.012 A 
ATOM     98  C   UNL A   1      51.487  34.836  26.642  1.00  0.00     0.148 A 
ATOM     99  C   UNL A   1      52.753  35.058  29.140  1.00  0.00     0.002 A 
ATOM    100  C   UNL A   1      52.516  35.751  26.829  1.00  0.00     0.091 A 
ATOM    101  F   UNL A   1      50.840  34.732  25.472  1.00  0.00    -0.205 F 
ATOM    102  C   UNL A   1      53.140  35.874  28.081  1.00  0.00     0.022 A 
BRANCH 100 103
ATOM    103  S   UNL A   1      53.148  36.774  25.494  1.00  0.00     0.127 S 
ATOM    104  O   UNL A   1      51.945  37.489  25.072  1.00  0.00    -0.237 OA
ATOM    105  O   UNL A   1      54.140  37.603  26.180  1.00  0.00    -0.237 OA
ATOM    106  O   UNL A   1      53.706  35.854  24.513  1.00  0.00    -0.744 OA
ENDBRANCH 100 103
ENDBRANCH  73  96
ENDBRANCH  47  48
ENDBRANCH  39  42
ENDBRANCH  37  38
ENDBRANCH  36  37
ENDBRANCH  35  36
ENDBRANCH  34  35
ENDBRANCH  33  34
ENDBRANCH   1  33
TORSDOF 24
ENDMDL
MODEL 3
REMARK VINA RESULT:      -9.1      4.371     10.820
REMARK SMILES CCCCCCNC(=O)Nc1cccc(-c2ccc([C@@H](C)C(=O)NCCCCCCNC(=O)c3ccc(-c4c5nc(c(-c6cccc(S(=O)(=O)[O-])c6F)c6ccc([nH]6)c(-c6cccc(S(=O)(=O)[O-])c6F)c6nc(c(-c7cccc(S(=O)(=O)[O-])c7F)c7ccc4[nH]7)C=C6)C=C5)cc3)cc2F)c1
REMARK SMILES IDX 25 1 24 2 22 3 23 4 20 6 21 7 19 8 16 9 17 10 98 11 18 12
REMARK SMILES IDX 97 13 99 14 15 15 11 16 12 17 100 18 13 19 14 20 10 21 7 22
REMARK SMILES IDX 8 23 9 25 6 27 5 28 4 29 3 30 2 31 1 32 26 33 27 34 28 35
REMARK SMILES IDX 29 36 30 37 31 38 32 39 33 41 34 42 35 43 96 44 36 45 95 46
REMARK SMILES IDX 37 47 38 48 39 49 89 50 40 51 94 52 88 53 90 54 41 55 93 56
REMARK SMILES IDX 87 57 86 58 42 60 74 61 54 62 73 63 55 64 58 65 72 66 91 67
REMARK SMILES IDX 56 68 57 69 71 71 92 72 59 73 43 74 44 75 52 76 45 77 47 78
REMARK SMILES IDX 53 79 46 80 48 81 49 82 50 83 51 84 75 85 76 86 84 87 77 88
REMARK SMILES IDX 79 89 85 90 78 91 80 92 81 93 82 94 83 95 60 96 61 97 69 98
REMARK SMILES IDX 62 99 64 100 70 101 63 102 65 103 66 104 67 105 68 106
REMARK H PARENT 24 5 7 24 10 26 31 40 90 59 58 70
REMARK Flexibility Score: inf
ROOT
ATOM      1  C   UNL A   1      45.263  25.371  26.371  1.00  0.00     0.116 C 
ENDROOT
BRANCH   1   2
ATOM      2  N   UNL A   1      45.503  26.165  25.182  1.00  0.00    -0.356 N 
ATOM      3  C   UNL A   1      46.049  27.398  25.010  1.00  0.00     0.227 C 
ATOM      4  O   UNL A   1      45.961  27.880  23.872  1.00  0.00    -0.274 OA
ATOM      5  H   UNL A   1      45.218  25.731  24.345  1.00  0.00     0.163 HD
BRANCH   3   6
ATOM      6  C   UNL A   1      46.763  28.183  26.119  1.00  0.00     0.105 C 
ATOM      7  C   UNL A   1      47.333  27.324  27.246  1.00  0.00     0.023 C 
BRANCH   6   8
ATOM      8  C   UNL A   1      46.036  29.443  26.569  1.00  0.00    -0.033 A 
ATOM      9  C   UNL A   1      44.605  31.757  27.465  1.00  0.00     0.018 A 
ATOM     10  C   UNL A   1      45.960  31.821  27.107  1.00  0.00     0.012 A 
ATOM     11  C   UNL A   1      43.983  30.508  27.346  1.00  0.00     0.131 A 
ATOM     12  C   UNL A   1      46.654  30.694  26.646  1.00  0.00     0.005 A 
ATOM     13  C   UNL A   1      44.680  29.370  26.923  1.00  0.00     0.044 A 
ATOM     14  F   UNL A   1      42.681  30.365  27.643  1.00  0.00    -0.206 F 
BRANCH   9  15
ATOM     15  C   UNL A   1      43.914  32.953  27.990  1.00  0.00    -0.013 A 
ATOM     16  C   UNL A   1      42.938  35.160  27.598  1.00  0.00     0.043 A 
ATOM     17  C   UNL A   1      42.372  35.157  28.871  1.00  0.00     0.026 A 
ATOM     18  C   UNL A   1      43.767  34.104  27.198  1.00  0.00     0.035 A 
ATOM     19  C   UNL A   1      42.525  34.040  29.686  1.00  0.00     0.003 A 
ATOM     20  C   UNL A   1      43.273  32.944  29.242  1.00  0.00     0.009 A 
BRANCH  16  21
ATOM     21  N   UNL A   1      42.574  36.190  26.719  1.00  0.00    -0.308 N 
ATOM     22  N   UNL A   1      43.592  38.108  27.667  1.00  0.00    -0.338 N 
ATOM     23  C   UNL A   1      42.659  37.536  26.868  1.00  0.00     0.319 C 
ATOM     24  H   UNL A   1      43.445  39.065  27.847  1.00  0.00     0.165 HD
ATOM     25  O   UNL A   1      41.941  38.272  26.189  1.00  0.00    -0.249 OA
ATOM     26  H   UNL A   1      42.198  35.891  25.861  1.00  0.00     0.171 HD
BRANCH  22  27
ATOM     27  C   UNL A   1      44.775  37.548  28.304  1.00  0.00     0.117 C 
BRANCH  27  28
ATOM     28  C   UNL A   1      45.096  38.172  29.655  1.00  0.00     0.021 C 
BRANCH  28  29
ATOM     29  C   UNL A   1      43.889  38.488  30.535  1.00  0.00     0.002 C 
BRANCH  29  30
ATOM     30  C   UNL A   1      43.820  39.917  31.089  1.00  0.00    -0.000 C 
BRANCH  30  31
ATOM     31  C   UNL A   1      42.596  40.734  30.674  1.00  0.00    -0.003 C 
ATOM     32  C   UNL A   1      42.581  42.151  31.227  1.00  0.00     0.004 C 
ENDBRANCH  30  31
ENDBRANCH  29  30
ENDBRANCH  28  29
ENDBRANCH  27  28
ENDBRANCH  22  27
ENDBRANCH  16  21
ENDBRANCH   9  15
ENDBRANCH   6   8
ENDBRANCH   3   6
ENDBRANCH   1   2
BRANCH   1  33
ATOM     33  C   UNL A   1      43.767  25.298  26.679  1.00  0.00     0.021 C 
BRANCH  33  34
ATOM     34  C   UNL A   1      43.470  24.730  28.069  1.00  0.00     0.002 C 
BRANCH  34  35
ATOM     35  C   UNL A   1      43.403  23.201  28.146  1.00  0.00     0.002 C 
BRANCH  35  36
ATOM     36  C   UNL A   1      42.444  22.523  27.162  1.00  0.00     0.021 C 
BRANCH  36  37
ATOM     37  C   UNL A   1      41.039  22.249  27.693  1.00  0.00     0.116 C 
BRANCH  37  38
ATOM     38  N   UNL A   1      40.013  22.495  26.692  1.00  0.00    -0.352 N 
ATOM     39  C   UNL A   1      39.194  23.585  26.529  1.00  0.00     0.251 C 
ATOM     40  H   UNL A   1      39.887  21.773  26.034  1.00  0.00     0.163 HD
ATOM     41  O   UNL A   1      38.239  23.523  25.761  1.00  0.00    -0.269 OA
BRANCH  39  42
ATOM     42  C   UNL A   1      39.458  24.828  27.286  1.00  0.00     0.039 A 
ATOM     43  C   UNL A   1      39.011  24.925  28.606  1.00  0.00     0.014 A 
ATOM     44  C   UNL A   1      40.126  25.900  26.689  1.00  0.00     0.014 A 
ATOM     45  C   UNL A   1      39.287  26.076  29.347  1.00  0.00     0.010 A 
ATOM     46  C   UNL A   1      40.458  27.019  27.449  1.00  0.00     0.010 A 
ATOM     47  C   UNL A   1      40.040  27.122  28.785  1.00  0.00    -0.014 A 
BRANCH  47  48
ATOM     48  C   UNL A   1      40.422  28.309  29.594  1.00  0.00     0.031 A 
ATOM     49  C   UNL A   1      41.837  28.497  30.065  1.00  0.00     0.074 A 
ATOM     50  C   UNL A   1      39.469  29.184  29.971  1.00  0.00     0.049 A 
ATOM     51  N   UNL A   1      42.346  29.468  30.780  1.00  0.00    -0.248 NA
ATOM     52  C   UNL A   1      42.805  27.446  29.711  1.00  0.00     0.031 C 
ATOM     53  C   UNL A   1      38.046  29.072  29.649  1.00  0.00     0.029 A 
ATOM     54  N   UNL A   1      39.549  30.330  30.723  1.00  0.00    -0.354 N 
ATOM     55  C   UNL A   1      43.677  29.130  30.991  1.00  0.00     0.074 A 
ATOM     56  C   UNL A   1      43.889  27.847  30.356  1.00  0.00     0.031 C 
ATOM     57  C   UNL A   1      37.390  30.116  30.181  1.00  0.00     0.029 A 
ATOM     58  C   UNL A   1      38.339  30.954  30.908  1.00  0.00     0.049 A 
ATOM     59  H   UNL A   1      40.395  30.672  31.095  1.00  0.00     0.167 HD
ATOM     60  C   UNL A   1      44.641  29.833  31.633  1.00  0.00     0.034 A 
ATOM     61  C   UNL A   1      38.025  32.075  31.586  1.00  0.00     0.034 A 
ATOM     62  C   UNL A   1      44.435  31.124  32.235  1.00  0.00     0.049 A 
ATOM     63  C   UNL A   1      39.119  32.854  32.262  1.00  0.00     0.074 A 
ATOM     64  C   UNL A   1      45.369  31.963  32.815  1.00  0.00     0.029 A 
ATOM     65  N   UNL A   1      43.205  31.755  32.352  1.00  0.00    -0.354 N 
ATOM     66  N   UNL A   1      40.405  32.608  32.300  1.00  0.00    -0.248 NA
ATOM     67  C   UNL A   1      38.721  34.086  32.959  1.00  0.00     0.031 C 
ATOM     68  C   UNL A   1      44.698  33.085  33.317  1.00  0.00     0.029 A 
ATOM     69  C   UNL A   1      43.352  32.962  33.018  1.00  0.00     0.049 A 
ATOM     70  H   UNL A   1      42.353  31.398  32.013  1.00  0.00     0.167 HD
ATOM     71  C   UNL A   1      40.977  33.668  32.994  1.00  0.00     0.074 A 
ATOM     72  C   UNL A   1      39.896  34.571  33.339  1.00  0.00     0.031 C 
ATOM     73  C   UNL A   1      42.276  33.871  33.325  1.00  0.00     0.034 A 
BRANCH  60  74
ATOM     74  C   UNL A   1      46.023  29.230  31.689  1.00  0.00     0.023 A 
ATOM     75  C   UNL A   1      46.273  28.127  32.532  1.00  0.00     0.012 A 
ATOM     76  C   UNL A   1      47.064  29.730  30.882  1.00  0.00     0.148 A 
ATOM     77  C   UNL A   1      47.546  27.561  32.607  1.00  0.00     0.002 A 
ATOM     78  C   UNL A   1      48.318  29.129  30.926  1.00  0.00     0.091 A 
ATOM     79  F   UNL A   1      46.816  30.791  30.103  1.00  0.00    -0.205 F 
ATOM     80  C   UNL A   1      48.564  28.056  31.797  1.00  0.00     0.022 A 
BRANCH  78  81
ATOM     81  S   UNL A   1      49.670  29.644  29.862  1.00  0.00     0.127 S 
ATOM     82  O   UNL A   1      50.614  28.539  30.030  1.00  0.00    -0.237 OA
ATOM     83  O   UNL A   1      49.026  29.701  28.549  1.00  0.00    -0.237 OA
ATOM     84  O   UNL A   1      50.114  30.932  30.375  1.00  0.00    -0.744 OA
ENDBRANCH  78  81
ENDBRANCH  60  74
BRANCH  61  85
ATOM     85  C   UNL A   1      36.619  32.570  31.585  1.00  0.00     0.023 A 
ATOM     86  C   UNL A   1      35.895  32.586  32.793  1.00  0.00     0.012 A 
ATOM     87  C   UNL A   1      36.013  33.063  30.414  1.00  0.00     0.148 A 
ATOM     88  C   UNL A   1      34.582  33.058  32.829  1.00  0.00     0.002 A 
ATOM     89  C   UNL A   1      34.726  33.583  30.467  1.00  0.00     0.091 A 
ATOM     90  F   UNL A   1      36.718  33.031  29.274  1.00  0.00    -0.205 F 
ATOM     91  C   UNL A   1      34.003  33.567  31.670  1.00  0.00     0.022 A 
BRANCH  89  92
ATOM     92  S   UNL A   1      33.945  34.380  29.059  1.00  0.00     0.127 S 
ATOM     93  O   UNL A   1      32.722  34.910  29.656  1.00  0.00    -0.237 OA
ATOM     94  O   UNL A   1      34.942  35.387  28.694  1.00  0.00    -0.237 OA
ATOM     95  O   UNL A   1      33.757  33.332  28.065  1.00  0.00    -0.744 OA
ENDBRANCH  89  92
ENDBRANCH  61  85
BRANCH  73  96
ATOM     96  C   UNL A   1      42.614  35.131  34.081  1.00  0.00     0.023 A 
ATOM     97  C   UNL A   1      42.998  36.291  33.379  1.00  0.00     0.012 A 
ATOM     98  C   UNL A   1      42.497  35.182  35.485  1.00  0.00     0.148 A 
ATOM     99  C   UNL A   1      43.297  37.470  34.063  1.00  0.00     0.002 A 
ATOM    100  C   UNL A   1      42.745  36.374  36.155  1.00  0.00     0.091 A 
ATOM    101  F   UNL A   1      42.149  34.065  36.139  1.00  0.00    -0.205 F 
ATOM    102  C   UNL A   1      43.160  37.514  35.448  1.00  0.00     0.022 A 
BRANCH 100 103
ATOM    103  S   UNL A   1      42.499  36.552  37.926  1.00  0.00     0.127 S 
ATOM    104  O   UNL A   1      43.176  37.819  38.195  1.00  0.00    -0.237 OA
ATOM    105  O   UNL A   1      41.041  36.605  38.033  1.00  0.00    -0.237 OA
ATOM    106  O   UNL A   1      43.106  35.377  38.535  1.00  0.00    -0.744 OA
ENDBRANCH 100 103
ENDBRANCH  73  96
ENDBRANCH  47  48
ENDBRANCH  39  42
ENDBRANCH  37  38
ENDBRANCH  36  37
ENDBRANCH  35  36
ENDBRANCH  34  35
ENDBRANCH  33  34
ENDBRANCH   1  33
TORSDOF 24
ENDMDL
