MODEL 1
REMARK VINA RESULT:     -10.9      0.000      0.000
REMARK SMILES C=CC[N@H+](CC(=O)NCCCCCCNC(=O)c1ccc(-c2c3nc(c(-c4cccc(S(=O)(=O)[O-])c4F)c4ccc([nH]4)c(-c4cccc(S(=O)(=O)[O-])c4F)c4nc(c(-c5cccc(S(=O)(=O)[O-])c5F)c5ccc2[nH]5)C=C4)C=C3)cc1)[C@H](C)c1ccc(F)cc1O
REMARK SMILES IDX 11 1 10 2 9 3 8 4 6 5 7 6 5 8 4 9 3 11 2 12 1 13 81 14 82 15
REMARK SMILES IDX 83 16 84 17 89 18 85 19 88 20 86 21 87 22 90 23 12 25 13 26
REMARK SMILES IDX 14 27 15 28 16 29 17 31 18 32 19 33 80 34 20 35 79 36 21 37
REMARK SMILES IDX 22 38 23 39 73 40 24 41 78 42 72 43 74 44 25 45 77 46 71 47
REMARK SMILES IDX 70 48 26 50 58 51 38 52 57 53 39 54 42 55 56 56 75 57 40 58
REMARK SMILES IDX 41 59 55 61 76 62 43 63 27 64 28 65 36 66 29 67 31 68 37 69
REMARK SMILES IDX 30 70 32 71 33 72 34 73 35 74 59 75 60 76 68 77 61 78 63 79
REMARK SMILES IDX 69 80 62 81 64 82 65 83 66 84 67 85 44 86 45 87 53 88 46 89
REMARK SMILES IDX 48 90 54 91 47 92 49 93 50 94 51 95 52 96
REMARK H PARENT 8 7 4 10 90 24 15 30 74 49 42 60
REMARK Flexibility Score: inf
ROOT
ATOM      1  C   UNL A   1      30.851  26.618  25.705  1.00  0.00     0.002 C 
ENDROOT
BRANCH   1   2
ATOM      2  C   UNL A   1      30.410  26.592  24.247  1.00  0.00     0.021 C 
BRANCH   2   3
ATOM      3  C   UNL A   1      30.407  25.204  23.584  1.00  0.00     0.116 C 
BRANCH   3   4
ATOM      4  N   UNL A   1      31.355  25.159  22.475  1.00  0.00    -0.351 N 
ATOM      5  C   UNL A   1      32.692  24.862  22.440  1.00  0.00     0.275 C 
ATOM      6  O   UNL A   1      33.294  25.074  21.382  1.00  0.00    -0.269 OA
ATOM      7  H   UNL A   1      30.963  25.380  21.599  1.00  0.00     0.163 HD
BRANCH   5   8
ATOM      8  C   UNL A   1      33.413  24.231  23.649  1.00  0.00     0.364 C 
BRANCH   8   9
ATOM      9  N   UNL A   1      33.545  22.734  23.579  1.00  0.00    -0.318 N 
ATOM     10  H   UNL A   1      33.533  22.389  22.619  1.00  0.00     0.349 HD
BRANCH   9  11
ATOM     11  C   UNL A   1      34.851  22.371  24.146  1.00  0.00     0.291 C 
BRANCH  11  12
ATOM     12  C   UNL A   1      35.761  23.359  24.808  1.00  0.00     0.025 C 
ATOM     13  C   UNL A   1      37.099  23.352  24.726  1.00  0.00     0.010 C 
ENDBRANCH  11  12
ENDBRANCH   9  11
BRANCH   9  14
ATOM     14  C   UNL A   1      32.359  22.071  24.214  1.00  0.00     0.216 C 
ATOM     15  C   UNL A   1      32.043  22.549  25.645  1.00  0.00     0.081 C 
BRANCH  14  16
ATOM     16  C   UNL A   1      32.409  20.549  24.042  1.00  0.00     0.051 A 
ATOM     17  C   UNL A   1      32.839  19.693  25.076  1.00  0.00     0.017 A 
ATOM     18  C   UNL A   1      32.152  19.972  22.781  1.00  0.00     0.127 A 
ATOM     19  C   UNL A   1      33.085  18.340  24.827  1.00  0.00     0.040 A 
ATOM     20  C   UNL A   1      32.371  18.620  22.536  1.00  0.00     0.085 A 
ATOM     21  C   UNL A   1      32.866  17.822  23.557  1.00  0.00     0.126 A 
ATOM     22  F   UNL A   1      33.169  16.541  23.308  1.00  0.00    -0.207 F 
BRANCH  18  23
ATOM     23  O   UNL A   1      31.786  20.740  21.708  1.00  0.00    -0.507 OA
ATOM     24  H   UNL A   1      31.070  21.340  21.784  1.00  0.00     0.293 HD
ENDBRANCH  18  23
ENDBRANCH  14  16
ENDBRANCH   9  14
ENDBRANCH   8   9
ENDBRANCH   5   8
ENDBRANCH   3   4
ENDBRANCH   2   3
ENDBRANCH   1   2
BRANCH   1  25
ATOM     25  C   UNL A   1      31.640  27.860  26.115  1.00  0.00     0.002 C 
BRANCH  25  26
ATOM     26  C   UNL A   1      33.114  27.623  26.463  1.00  0.00     0.021 C 
BRANCH  26  27
ATOM     27  C   UNL A   1      34.096  28.654  25.908  1.00  0.00     0.116 C 
BRANCH  27  28
ATOM     28  N   UNL A   1      33.802  29.999  26.381  1.00  0.00    -0.352 N 
ATOM     29  C   UNL A   1      34.396  30.719  27.383  1.00  0.00     0.251 C 
ATOM     30  H   UNL A   1      33.068  30.458  25.912  1.00  0.00     0.163 HD
ATOM     31  O   UNL A   1      33.857  31.750  27.799  1.00  0.00    -0.269 OA
BRANCH  29  32
ATOM     32  C   UNL A   1      35.670  30.266  27.974  1.00  0.00     0.039 A 
ATOM     33  C   UNL A   1      35.666  29.698  29.251  1.00  0.00     0.014 A 
ATOM     34  C   UNL A   1      36.873  30.421  27.279  1.00  0.00     0.014 A 
ATOM     35  C   UNL A   1      36.860  29.233  29.806  1.00  0.00     0.010 A 
ATOM     36  C   UNL A   1      38.050  29.894  27.804  1.00  0.00     0.010 A 
ATOM     37  C   UNL A   1      38.058  29.300  29.075  1.00  0.00    -0.014 A 
BRANCH  37  38
ATOM     38  C   UNL A   1      39.324  28.742  29.618  1.00  0.00     0.031 A 
ATOM     39  C   UNL A   1      40.032  29.427  30.755  1.00  0.00     0.074 A 
ATOM     40  C   UNL A   1      39.884  27.670  29.023  1.00  0.00     0.049 A 
ATOM     41  N   UNL A   1      41.170  29.118  31.322  1.00  0.00    -0.248 NA
ATOM     42  C   UNL A   1      39.393  30.629  31.313  1.00  0.00     0.031 C 
ATOM     43  C   UNL A   1      39.338  26.968  27.860  1.00  0.00     0.029 A 
ATOM     44  N   UNL A   1      41.051  27.001  29.296  1.00  0.00    -0.354 N 
ATOM     45  C   UNL A   1      41.402  30.105  32.273  1.00  0.00     0.074 A 
ATOM     46  C   UNL A   1      40.302  31.039  32.187  1.00  0.00     0.031 C 
ATOM     47  C   UNL A   1      40.167  25.970  27.518  1.00  0.00     0.029 A 
ATOM     48  C   UNL A   1      41.317  25.975  28.419  1.00  0.00     0.049 A 
ATOM     49  H   UNL A   1      41.641  27.232  30.049  1.00  0.00     0.167 HD
ATOM     50  C   UNL A   1      42.424  30.209  33.157  1.00  0.00     0.034 A 
ATOM     51  C   UNL A   1      42.370  25.139  28.340  1.00  0.00     0.034 A 
ATOM     52  C   UNL A   1      43.492  29.253  33.269  1.00  0.00     0.049 A 
ATOM     53  C   UNL A   1      43.467  25.246  29.365  1.00  0.00     0.074 A 
ATOM     54  C   UNL A   1      44.519  29.216  34.196  1.00  0.00     0.029 A 
ATOM     55  N   UNL A   1      43.679  28.171  32.423  1.00  0.00    -0.354 N 
ATOM     56  N   UNL A   1      43.581  26.086  30.366  1.00  0.00    -0.248 NA
ATOM     57  C   UNL A   1      44.560  24.268  29.276  1.00  0.00     0.031 C 
ATOM     58  C   UNL A   1      45.341  28.125  33.895  1.00  0.00     0.029 A 
ATOM     59  C   UNL A   1      44.811  27.467  32.797  1.00  0.00     0.049 A 
ATOM     60  H   UNL A   1      43.093  27.939  31.666  1.00  0.00     0.167 HD
ATOM     61  C   UNL A   1      44.737  25.717  31.044  1.00  0.00     0.074 A 
ATOM     62  C   UNL A   1      45.275  24.563  30.353  1.00  0.00     0.031 C 
ATOM     63  C   UNL A   1      45.309  26.290  32.132  1.00  0.00     0.034 A 
BRANCH  50  64
ATOM     64  C   UNL A   1      42.408  31.374  34.113  1.00  0.00     0.023 A 
ATOM     65  C   UNL A   1      43.213  32.502  33.849  1.00  0.00     0.012 A 
ATOM     66  C   UNL A   1      41.557  31.381  35.235  1.00  0.00     0.148 A 
ATOM     67  C   UNL A   1      43.198  33.603  34.705  1.00  0.00     0.002 A 
ATOM     68  C   UNL A   1      41.514  32.501  36.058  1.00  0.00     0.091 A 
ATOM     69  F   UNL A   1      40.815  30.293  35.483  1.00  0.00    -0.205 F 
ATOM     70  C   UNL A   1      42.341  33.606  35.802  1.00  0.00     0.022 A 
BRANCH  68  71
ATOM     71  S   UNL A   1      40.384  32.637  37.449  1.00  0.00     0.127 S 
ATOM     72  O   UNL A   1      41.231  32.200  38.559  1.00  0.00    -0.237 OA
ATOM     73  O   UNL A   1      40.069  34.067  37.451  1.00  0.00    -0.237 OA
ATOM     74  O   UNL A   1      39.260  31.768  37.140  1.00  0.00    -0.744 OA
ENDBRANCH  68  71
ENDBRANCH  50  64
BRANCH  51  75
ATOM     75  C   UNL A   1      42.403  24.082  27.290  1.00  0.00     0.023 A 
ATOM     76  C   UNL A   1      43.118  24.312  26.099  1.00  0.00     0.012 A 
ATOM     77  C   UNL A   1      41.762  22.843  27.477  1.00  0.00     0.148 A 
ATOM     78  C   UNL A   1      43.168  23.339  25.100  1.00  0.00     0.002 A 
ATOM     79  C   UNL A   1      41.863  21.857  26.503  1.00  0.00     0.091 A 
ATOM     80  F   UNL A   1      41.076  22.647  28.613  1.00  0.00    -0.205 F 
ATOM     81  C   UNL A   1      42.552  22.109  25.306  1.00  0.00     0.022 A 
BRANCH  79  82
ATOM     82  S   UNL A   1      41.217  20.197  26.744  1.00  0.00     0.127 S 
ATOM     83  O   UNL A   1      39.962  20.253  25.998  1.00  0.00    -0.237 OA
ATOM     84  O   UNL A   1      42.261  19.374  26.132  1.00  0.00    -0.237 OA
ATOM     85  O   UNL A   1      41.090  20.029  28.184  1.00  0.00    -0.744 OA
ENDBRANCH  79  82
ENDBRANCH  51  75
BRANCH  63  86
ATOM     86  C   UNL A   1      46.568  25.665  32.671  1.00  0.00     0.023 A 
ATOM     87  C   UNL A   1      47.825  26.116  32.220  1.00  0.00     0.012 A 
ATOM     88  C   UNL A   1      46.507  24.681  33.679  1.00  0.00     0.148 A 
ATOM     89  C   UNL A   1      49.000  25.578  32.742  1.00  0.00     0.002 A 
ATOM     90  C   UNL A   1      47.683  24.185  34.229  1.00  0.00     0.091 A 
ATOM     91  F   UNL A   1      45.303  24.251  34.081  1.00  0.00    -0.205 F 
ATOM     92  C   UNL A   1      48.930  24.623  33.754  1.00  0.00     0.022 A 
BRANCH  90  93
ATOM     93  S   UNL A   1      47.688  23.026  35.601  1.00  0.00     0.127 S 
ATOM     94  O   UNL A   1      47.058  21.851  35.000  1.00  0.00    -0.237 OA
ATOM     95  O   UNL A   1      49.118  22.876  35.876  1.00  0.00    -0.237 OA
ATOM     96  O   UNL A   1      46.931  23.664  36.669  1.00  0.00    -0.744 OA
ENDBRANCH  90  93
ENDBRANCH  63  86
ENDBRANCH  37  38
ENDBRANCH  29  32
ENDBRANCH  27  28
ENDBRANCH  26  27
ENDBRANCH  25  26
ENDBRANCH   1  25
TORSDOF 22
ENDMDL
MODEL 2
REMARK VINA RESULT:     -10.8      5.277     10.092
REMARK SMILES C=CC[N@H+](CC(=O)NCCCCCCNC(=O)c1ccc(-c2c3nc(c(-c4cccc(S(=O)(=O)[O-])c4F)c4ccc([nH]4)c(-c4cccc(S(=O)(=O)[O-])c4F)c4nc(c(-c5cccc(S(=O)(=O)[O-])c5F)c5ccc2[nH]5)C=C4)C=C3)cc1)[C@H](C)c1ccc(F)cc1O
REMARK SMILES IDX 11 1 10 2 9 3 8 4 6 5 7 6 5 8 4 9 3 11 2 12 1 13 81 14 82 15
REMARK SMILES IDX 83 16 84 17 89 18 85 19 88 20 86 21 87 22 90 23 12 25 13 26
REMARK SMILES IDX 14 27 15 28 16 29 17 31 18 32 19 33 80 34 20 35 79 36 21 37
REMARK SMILES IDX 22 38 23 39 73 40 24 41 78 42 72 43 74 44 25 45 77 46 71 47
REMARK SMILES IDX 70 48 26 50 58 51 38 52 57 53 39 54 42 55 56 56 75 57 40 58
REMARK SMILES IDX 41 59 55 61 76 62 43 63 27 64 28 65 36 66 29 67 31 68 37 69
REMARK SMILES IDX 30 70 32 71 33 72 34 73 35 74 59 75 60 76 68 77 61 78 63 79
REMARK SMILES IDX 69 80 62 81 64 82 65 83 66 84 67 85 44 86 45 87 53 88 46 89
REMARK SMILES IDX 48 90 54 91 47 92 49 93 50 94 51 95 52 96
REMARK H PARENT 8 7 4 10 90 24 15 30 74 49 42 60
REMARK Flexibility Score: inf
ROOT
ATOM      1  C   UNL A   1      33.839  22.233  25.138  1.00  0.00     0.002 C 
ENDROOT
BRANCH   1   2
ATOM      2  C   UNL A   1      32.450  21.787  24.697  1.00  0.00     0.021 C 
BRANCH   2   3
ATOM      3  C   UNL A   1      31.569  22.890  24.086  1.00  0.00     0.116 C 
BRANCH   3   4
ATOM      4  N   UNL A   1      30.600  23.378  25.062  1.00  0.00    -0.351 N 
ATOM      5  C   UNL A   1      30.691  24.362  26.012  1.00  0.00     0.275 C 
ATOM      6  O   UNL A   1      29.769  24.448  26.830  1.00  0.00    -0.269 OA
ATOM      7  H   UNL A   1      29.729  22.920  25.032  1.00  0.00     0.163 HD
BRANCH   5   8
ATOM      8  C   UNL A   1      31.863  25.364  26.029  1.00  0.00     0.364 C 
BRANCH   8   9
ATOM      9  N   UNL A   1      31.478  26.773  25.666  1.00  0.00    -0.318 N 
ATOM     10  H   UNL A   1      30.488  26.957  25.829  1.00  0.00     0.349 HD
BRANCH   9  11
ATOM     11  C   UNL A   1      32.231  27.684  26.540  1.00  0.00     0.291 C 
BRANCH  11  12
ATOM     12  C   UNL A   1      31.829  29.105  26.784  1.00  0.00     0.025 C 
ATOM     13  C   UNL A   1      32.640  30.069  27.242  1.00  0.00     0.010 C 
ENDBRANCH  11  12
ENDBRANCH   9  11
BRANCH   9  14
ATOM     14  C   UNL A   1      31.650  27.001  24.194  1.00  0.00     0.216 C 
ATOM     15  C   UNL A   1      33.050  27.494  23.777  1.00  0.00     0.081 C 
BRANCH  14  16
ATOM     16  C   UNL A   1      30.486  27.812  23.614  1.00  0.00     0.051 A 
ATOM     17  C   UNL A   1      30.625  29.167  23.251  1.00  0.00     0.017 A 
ATOM     18  C   UNL A   1      29.193  27.250  23.557  1.00  0.00     0.127 A 
ATOM     19  C   UNL A   1      29.504  29.940  22.935  1.00  0.00     0.040 A 
ATOM     20  C   UNL A   1      28.078  28.010  23.217  1.00  0.00     0.085 A 
ATOM     21  C   UNL A   1      28.243  29.359  22.938  1.00  0.00     0.126 A 
ATOM     22  F   UNL A   1      27.167  30.121  22.701  1.00  0.00    -0.207 F 
BRANCH  18  23
ATOM     23  O   UNL A   1      28.961  25.957  23.946  1.00  0.00    -0.507 OA
ATOM     24  H   UNL A   1      28.543  25.783  24.766  1.00  0.00     0.293 HD
ENDBRANCH  18  23
ENDBRANCH  14  16
ENDBRANCH   9  14
ENDBRANCH   8   9
ENDBRANCH   5   8
ENDBRANCH   3   4
ENDBRANCH   2   3
ENDBRANCH   1   2
BRANCH   1  25
ATOM     25  C   UNL A   1      34.789  22.594  23.998  1.00  0.00     0.002 C 
BRANCH  25  26
ATOM     26  C   UNL A   1      36.262  22.235  24.223  1.00  0.00     0.021 C 
BRANCH  26  27
ATOM     27  C   UNL A   1      36.705  22.161  25.685  1.00  0.00     0.116 C 
BRANCH  27  28
ATOM     28  N   UNL A   1      37.741  21.160  25.892  1.00  0.00    -0.352 N 
ATOM     29  C   UNL A   1      39.068  21.327  26.189  1.00  0.00     0.251 C 
ATOM     30  H   UNL A   1      37.445  20.225  25.805  1.00  0.00     0.163 HD
ATOM     31  O   UNL A   1      39.842  20.370  26.093  1.00  0.00    -0.269 OA
BRANCH  29  32
ATOM     32  C   UNL A   1      39.577  22.646  26.614  1.00  0.00     0.039 A 
ATOM     33  C   UNL A   1      40.550  22.710  27.615  1.00  0.00     0.014 A 
ATOM     34  C   UNL A   1      39.080  23.820  26.041  1.00  0.00     0.014 A 
ATOM     35  C   UNL A   1      41.066  23.950  28.001  1.00  0.00     0.010 A 
ATOM     36  C   UNL A   1      39.645  25.048  26.378  1.00  0.00     0.010 A 
ATOM     37  C   UNL A   1      40.638  25.127  27.365  1.00  0.00    -0.014 A 
BRANCH  37  38
ATOM     38  C   UNL A   1      41.229  26.447  27.708  1.00  0.00     0.031 A 
ATOM     39  C   UNL A   1      42.653  26.762  27.342  1.00  0.00     0.074 A 
ATOM     40  C   UNL A   1      40.509  27.326  28.432  1.00  0.00     0.049 A 
ATOM     41  N   UNL A   1      43.354  27.835  27.605  1.00  0.00    -0.248 NA
ATOM     42  C   UNL A   1      43.399  25.728  26.606  1.00  0.00     0.031 C 
ATOM     43  C   UNL A   1      39.146  27.105  28.920  1.00  0.00     0.029 A 
ATOM     44  N   UNL A   1      40.832  28.572  28.910  1.00  0.00    -0.354 N 
ATOM     45  C   UNL A   1      44.627  27.592  27.105  1.00  0.00     0.074 A 
ATOM     46  C   UNL A   1      44.612  26.257  26.548  1.00  0.00     0.031 C 
ATOM     47  C   UNL A   1      38.751  28.174  29.627  1.00  0.00     0.029 A 
ATOM     48  C   UNL A   1      39.839  29.148  29.668  1.00  0.00     0.049 A 
ATOM     49  H   UNL A   1      41.694  29.012  28.727  1.00  0.00     0.167 HD
ATOM     50  C   UNL A   1      45.703  28.414  27.085  1.00  0.00     0.034 A 
ATOM     51  C   UNL A   1      39.809  30.321  30.329  1.00  0.00     0.034 A 
ATOM     52  C   UNL A   1      45.700  29.757  27.600  1.00  0.00     0.049 A 
ATOM     53  C   UNL A   1      41.001  31.237  30.249  1.00  0.00     0.074 A 
ATOM     54  C   UNL A   1      46.708  30.704  27.539  1.00  0.00     0.029 A 
ATOM     55  N   UNL A   1      44.643  30.342  28.279  1.00  0.00    -0.354 N 
ATOM     56  N   UNL A   1      42.138  31.055  29.623  1.00  0.00    -0.248 NA
ATOM     57  C   UNL A   1      40.891  32.533  30.933  1.00  0.00     0.031 C 
ATOM     58  C   UNL A   1      46.268  31.854  28.203  1.00  0.00     0.029 A 
ATOM     59  C   UNL A   1      44.977  31.632  28.654  1.00  0.00     0.049 A 
ATOM     60  H   UNL A   1      43.782  29.904  28.467  1.00  0.00     0.167 HD
ATOM     61  C   UNL A   1      42.866  32.225  29.808  1.00  0.00     0.074 A 
ATOM     62  C   UNL A   1      42.030  33.118  30.586  1.00  0.00     0.031 C 
ATOM     63  C   UNL A   1      44.118  32.529  29.384  1.00  0.00     0.034 A 
BRANCH  50  64
ATOM     64  C   UNL A   1      46.965  27.904  26.437  1.00  0.00     0.023 A 
ATOM     65  C   UNL A   1      47.934  27.245  27.223  1.00  0.00     0.012 A 
ATOM     66  C   UNL A   1      47.166  28.019  25.048  1.00  0.00     0.148 A 
ATOM     67  C   UNL A   1      49.098  26.742  26.644  1.00  0.00     0.002 A 
ATOM     68  C   UNL A   1      48.308  27.474  24.471  1.00  0.00     0.091 A 
ATOM     69  F   UNL A   1      46.246  28.666  24.319  1.00  0.00    -0.205 F 
ATOM     70  C   UNL A   1      49.280  26.847  25.268  1.00  0.00     0.022 A 
BRANCH  68  71
ATOM     71  S   UNL A   1      48.595  27.483  22.697  1.00  0.00     0.127 S 
ATOM     72  O   UNL A   1      47.435  28.235  22.217  1.00  0.00    -0.237 OA
ATOM     73  O   UNL A   1      49.868  28.199  22.595  1.00  0.00    -0.237 OA
ATOM     74  O   UNL A   1      48.648  26.088  22.291  1.00  0.00    -0.744 OA
ENDBRANCH  68  71
ENDBRANCH  50  64
BRANCH  51  75
ATOM     75  C   UNL A   1      38.580  30.725  31.069  1.00  0.00     0.023 A 
ATOM     76  C   UNL A   1      38.475  30.441  32.444  1.00  0.00     0.012 A 
ATOM     77  C   UNL A   1      37.534  31.416  30.430  1.00  0.00     0.148 A 
ATOM     78  C   UNL A   1      37.337  30.811  33.162  1.00  0.00     0.002 A 
ATOM     79  C   UNL A   1      36.429  31.832  31.163  1.00  0.00     0.091 A 
ATOM     80  F   UNL A   1      37.647  31.668  29.117  1.00  0.00    -0.205 F 
ATOM     81  C   UNL A   1      36.320  31.516  32.525  1.00  0.00     0.022 A 
BRANCH  79  82
ATOM     82  S   UNL A   1      35.138  32.863  30.454  1.00  0.00     0.127 S 
ATOM     83  O   UNL A   1      34.613  32.002  29.398  1.00  0.00    -0.237 OA
ATOM     84  O   UNL A   1      34.242  33.053  31.597  1.00  0.00    -0.237 OA
ATOM     85  O   UNL A   1      35.803  34.078  30.009  1.00  0.00    -0.744 OA
ENDBRANCH  79  82
ENDBRANCH  51  75
BRANCH  63  86
ATOM     86  C   UNL A   1      44.658  33.894  29.720  1.00  0.00     0.023 A 
ATOM     87  C   UNL A   1      45.480  34.064  30.853  1.00  0.00     0.012 A 
ATOM     88  C   UNL A   1      44.413  34.992  28.871  1.00  0.00     0.148 A 
ATOM     89  C   UNL A   1      46.023  35.313  31.153  1.00  0.00     0.002 A 
ATOM     90  C   UNL A   1      44.999  36.222  29.149  1.00  0.00     0.091 A 
ATOM     91  F   UNL A   1      43.615  34.815  27.810  1.00  0.00    -0.205 F 
ATOM     92  C   UNL A   1      45.794  36.387  30.296  1.00  0.00     0.022 A 
BRANCH  90  93
ATOM     93  S   UNL A   1      44.839  37.634  28.051  1.00  0.00     0.127 S 
ATOM     94  O   UNL A   1      45.463  37.132  26.828  1.00  0.00    -0.237 OA
ATOM     95  O   UNL A   1      43.387  37.801  27.970  1.00  0.00    -0.237 OA
ATOM     96  O   UNL A   1      45.537  38.732  28.705  1.00  0.00    -0.744 OA
ENDBRANCH  90  93
ENDBRANCH  63  86
ENDBRANCH  37  38
ENDBRANCH  29  32
ENDBRANCH  27  28
ENDBRANCH  26  27
ENDBRANCH  25  26
ENDBRANCH   1  25
TORSDOF 22
ENDMDL
MODEL 3
REMARK VINA RESULT:     -10.5      2.290      8.066
REMARK SMILES C=CC[N@H+](CC(=O)NCCCCCCNC(=O)c1ccc(-c2c3nc(c(-c4cccc(S(=O)(=O)[O-])c4F)c4ccc([nH]4)c(-c4cccc(S(=O)(=O)[O-])c4F)c4nc(c(-c5cccc(S(=O)(=O)[O-])c5F)c5ccc2[nH]5)C=C4)C=C3)cc1)[C@H](C)c1ccc(F)cc1O
REMARK SMILES IDX 11 1 10 2 9 3 8 4 6 5 7 6 5 8 4 9 3 11 2 12 1 13 81 14 82 15
REMARK SMILES IDX 83 16 84 17 89 18 85 19 88 20 86 21 87 22 90 23 12 25 13 26
REMARK SMILES IDX 14 27 15 28 16 29 17 31 18 32 19 33 80 34 20 35 79 36 21 37
REMARK SMILES IDX 22 38 23 39 73 40 24 41 78 42 72 43 74 44 25 45 77 46 71 47
REMARK SMILES IDX 70 48 26 50 58 51 38 52 57 53 39 54 42 55 56 56 75 57 40 58
REMARK SMILES IDX 41 59 55 61 76 62 43 63 27 64 28 65 36 66 29 67 31 68 37 69
REMARK SMILES IDX 30 70 32 71 33 72 34 73 35 74 59 75 60 76 68 77 61 78 63 79
REMARK SMILES IDX 69 80 62 81 64 82 65 83 66 84 67 85 44 86 45 87 53 88 46 89
REMARK SMILES IDX 48 90 54 91 47 92 49 93 50 94 51 95 52 96
REMARK H PARENT 8 7 4 10 90 24 15 30 74 49 42 60
REMARK Flexibility Score: inf
ROOT
ATOM      1  C   UNL A   1      31.285  26.280  26.047  1.00  0.00     0.002 C 
ENDROOT
BRANCH   1   2
ATOM      2  C   UNL A   1      30.100  26.747  25.210  1.00  0.00     0.021 C 
BRANCH   2   3
ATOM      3  C   UNL A   1      29.655  25.777  24.102  1.00  0.00     0.116 C 
BRANCH   3   4
ATOM      4  N   UNL A   1      30.707  25.617  23.103  1.00  0.00    -0.351 N 
ATOM      5  C   UNL A   1      31.546  24.567  22.834  1.00  0.00     0.275 C 
ATOM      6  O   UNL A   1      32.470  24.768  22.039  1.00  0.00    -0.269 OA
ATOM      7  H   UNL A   1      30.835  26.400  22.521  1.00  0.00     0.163 HD
BRANCH   5   8
ATOM      8  C   UNL A   1      31.316  23.170  23.446  1.00  0.00     0.364 C 
BRANCH   8   9
ATOM      9  N   UNL A   1      32.398  22.722  24.391  1.00  0.00    -0.318 N 
ATOM     10  H   UNL A   1      33.152  23.405  24.467  1.00  0.00     0.349 HD
BRANCH   9  11
ATOM     11  C   UNL A   1      31.803  22.594  25.729  1.00  0.00     0.291 C 
BRANCH  11  12
ATOM     12  C   UNL A   1      32.530  22.951  26.987  1.00  0.00     0.025 C 
ATOM     13  C   UNL A   1      33.814  23.330  27.056  1.00  0.00     0.010 C 
ENDBRANCH  11  12
ENDBRANCH   9  11
BRANCH   9  14
ATOM     14  C   UNL A   1      33.077  21.493  23.866  1.00  0.00     0.216 C 
ATOM     15  C   UNL A   1      32.398  20.165  24.256  1.00  0.00     0.081 C 
BRANCH  14  16
ATOM     16  C   UNL A   1      34.589  21.537  24.117  1.00  0.00     0.051 A 
ATOM     17  C   UNL A   1      35.228  20.643  25.000  1.00  0.00     0.017 A 
ATOM     18  C   UNL A   1      35.366  22.578  23.568  1.00  0.00     0.127 A 
ATOM     19  C   UNL A   1      36.558  20.842  25.379  1.00  0.00     0.040 A 
ATOM     20  C   UNL A   1      36.698  22.765  23.923  1.00  0.00     0.085 A 
ATOM     21  C   UNL A   1      37.273  21.910  24.851  1.00  0.00     0.126 A 
ATOM     22  F   UNL A   1      38.525  22.134  25.271  1.00  0.00    -0.207 F 
BRANCH  18  23
ATOM     23  O   UNL A   1      34.810  23.524  22.747  1.00  0.00    -0.507 OA
ATOM     24  H   UNL A   1      35.041  24.426  22.847  1.00  0.00     0.293 HD
ENDBRANCH  18  23
ENDBRANCH  14  16
ENDBRANCH   9  14
ENDBRANCH   8   9
ENDBRANCH   5   8
ENDBRANCH   3   4
ENDBRANCH   2   3
ENDBRANCH   1   2
BRANCH   1  25
ATOM     25  C   UNL A   1      32.566  27.089  25.853  1.00  0.00     0.002 C 
BRANCH  25  26
ATOM     26  C   UNL A   1      32.518  28.151  24.749  1.00  0.00     0.021 C 
BRANCH  26  27
ATOM     27  C   UNL A   1      33.459  29.341  24.939  1.00  0.00     0.116 C 
BRANCH  27  28
ATOM     28  N   UNL A   1      32.802  30.457  25.604  1.00  0.00    -0.352 N 
ATOM     29  C   UNL A   1      33.117  31.077  26.783  1.00  0.00     0.251 C 
ATOM     30  H   UNL A   1      32.013  30.819  25.137  1.00  0.00     0.163 HD
ATOM     31  O   UNL A   1      32.307  31.849  27.306  1.00  0.00    -0.269 OA
BRANCH  29  32
ATOM     32  C   UNL A   1      34.416  30.821  27.436  1.00  0.00     0.039 A 
ATOM     33  C   UNL A   1      35.298  31.887  27.640  1.00  0.00     0.014 A 
ATOM     34  C   UNL A   1      34.775  29.529  27.828  1.00  0.00     0.014 A 
ATOM     35  C   UNL A   1      36.515  31.664  28.288  1.00  0.00     0.010 A 
ATOM     36  C   UNL A   1      35.957  29.322  28.536  1.00  0.00     0.010 A 
ATOM     37  C   UNL A   1      36.842  30.385  28.767  1.00  0.00    -0.014 A 
BRANCH  37  38
ATOM     38  C   UNL A   1      38.097  30.144  29.526  1.00  0.00     0.031 A 
ATOM     39  C   UNL A   1      39.170  29.255  28.960  1.00  0.00     0.074 A 
ATOM     40  C   UNL A   1      38.229  30.653  30.767  1.00  0.00     0.049 A 
ATOM     41  N   UNL A   1      40.304  28.886  29.498  1.00  0.00    -0.248 NA
ATOM     42  C   UNL A   1      38.929  28.682  27.626  1.00  0.00     0.031 C 
ATOM     43  C   UNL A   1      37.224  31.461  31.460  1.00  0.00     0.029 A 
ATOM     44  N   UNL A   1      39.250  30.542  31.678  1.00  0.00    -0.354 N 
ATOM     45  C   UNL A   1      40.891  28.013  28.591  1.00  0.00     0.074 A 
ATOM     46  C   UNL A   1      39.975  27.882  27.479  1.00  0.00     0.031 C 
ATOM     47  C   UNL A   1      37.676  31.772  32.685  1.00  0.00     0.029 A 
ATOM     48  C   UNL A   1      38.990  31.164  32.877  1.00  0.00     0.049 A 
ATOM     49  H   UNL A   1      40.089  30.063  31.490  1.00  0.00     0.167 HD
ATOM     50  C   UNL A   1      42.096  27.398  28.663  1.00  0.00     0.034 A 
ATOM     51  C   UNL A   1      39.720  31.231  34.007  1.00  0.00     0.034 A 
ATOM     52  C   UNL A   1      43.023  27.566  29.749  1.00  0.00     0.049 A 
ATOM     53  C   UNL A   1      41.076  30.579  34.041  1.00  0.00     0.074 A 
ATOM     54  C   UNL A   1      44.307  27.065  29.868  1.00  0.00     0.029 A 
ATOM     55  N   UNL A   1      42.763  28.281  30.907  1.00  0.00    -0.354 N 
ATOM     56  N   UNL A   1      41.686  29.897  33.102  1.00  0.00    -0.248 NA
ATOM     57  C   UNL A   1      41.860  30.738  35.274  1.00  0.00     0.031 C 
ATOM     58  C   UNL A   1      44.816  27.457  31.112  1.00  0.00     0.029 A 
ATOM     59  C   UNL A   1      43.858  28.226  31.753  1.00  0.00     0.049 A 
ATOM     60  H   UNL A   1      41.924  28.758  31.100  1.00  0.00     0.167 HD
ATOM     61  C   UNL A   1      42.937  29.574  33.617  1.00  0.00     0.074 A 
ATOM     62  C   UNL A   1      43.005  30.157  34.942  1.00  0.00     0.031 C 
ATOM     63  C   UNL A   1      43.934  28.852  33.049  1.00  0.00     0.034 A 
BRANCH  50  64
ATOM     64  C   UNL A   1      42.507  26.523  27.506  1.00  0.00     0.023 A 
ATOM     65  C   UNL A   1      43.254  27.076  26.445  1.00  0.00     0.012 A 
ATOM     66  C   UNL A   1      42.210  25.146  27.496  1.00  0.00     0.148 A 
ATOM     67  C   UNL A   1      43.667  26.282  25.375  1.00  0.00     0.002 A 
ATOM     68  C   UNL A   1      42.665  24.352  26.448  1.00  0.00     0.091 A 
ATOM     69  F   UNL A   1      41.482  24.640  28.501  1.00  0.00    -0.205 F 
ATOM     70  C   UNL A   1      43.381  24.920  25.383  1.00  0.00     0.022 A 
BRANCH  68  71
ATOM     71  S   UNL A   1      42.421  22.573  26.406  1.00  0.00     0.127 S 
ATOM     72  O   UNL A   1      42.760  22.263  25.017  1.00  0.00    -0.237 OA
ATOM     73  O   UNL A   1      43.400  22.105  27.389  1.00  0.00    -0.237 OA
ATOM     74  O   UNL A   1      41.033  22.348  26.777  1.00  0.00    -0.744 OA
ENDBRANCH  68  71
ENDBRANCH  50  64
BRANCH  51  75
ATOM     75  C   UNL A   1      39.210  32.002  35.176  1.00  0.00     0.023 A 
ATOM     76  C   UNL A   1      38.304  31.392  36.065  1.00  0.00     0.012 A 
ATOM     77  C   UNL A   1      39.642  33.317  35.432  1.00  0.00     0.148 A 
ATOM     78  C   UNL A   1      37.813  32.089  37.170  1.00  0.00     0.002 A 
ATOM     79  C   UNL A   1      39.194  33.985  36.565  1.00  0.00     0.091 A 
ATOM     80  F   UNL A   1      40.497  33.885  34.569  1.00  0.00    -0.205 F 
ATOM     81  C   UNL A   1      38.266  33.380  37.426  1.00  0.00     0.022 A 
BRANCH  79  82
ATOM     82  S   UNL A   1      39.830  35.596  37.046  1.00  0.00     0.127 S 
ATOM     83  O   UNL A   1      38.996  35.914  38.203  1.00  0.00    -0.237 OA
ATOM     84  O   UNL A   1      41.226  35.288  37.359  1.00  0.00    -0.237 OA
ATOM     85  O   UNL A   1      39.653  36.453  35.883  1.00  0.00    -0.744 OA
ENDBRANCH  79  82
ENDBRANCH  51  75
BRANCH  63  86
ATOM     86  C   UNL A   1      45.203  28.669  33.839  1.00  0.00     0.023 A 
ATOM     87  C   UNL A   1      46.247  29.607  33.717  1.00  0.00     0.012 A 
ATOM     88  C   UNL A   1      45.330  27.607  34.758  1.00  0.00     0.148 A 
ATOM     89  C   UNL A   1      47.410  29.475  34.475  1.00  0.00     0.002 A 
ATOM     90  C   UNL A   1      46.471  27.510  35.545  1.00  0.00     0.091 A 
ATOM     91  F   UNL A   1      44.334  26.714  34.845  1.00  0.00    -0.205 F 
ATOM     92  C   UNL A   1      47.517  28.436  35.396  1.00  0.00     0.022 A 
BRANCH  90  93
ATOM     93  S   UNL A   1      46.654  26.263  36.824  1.00  0.00     0.127 S 
ATOM     94  O   UNL A   1      45.546  26.591  37.720  1.00  0.00    -0.237 OA
ATOM     95  O   UNL A   1      46.483  25.020  36.073  1.00  0.00    -0.237 OA
ATOM     96  O   UNL A   1      47.986  26.453  37.382  1.00  0.00    -0.744 OA
ENDBRANCH  90  93
ENDBRANCH  63  86
ENDBRANCH  37  38
ENDBRANCH  29  32
ENDBRANCH  27  28
ENDBRANCH  26  27
ENDBRANCH  25  26
ENDBRANCH   1  25
TORSDOF 22
ENDMDL
