MODEL 1
REMARK VINA RESULT:     -12.7      0.000      0.000
REMARK SMILES O=C(NCCCCCCNC(=O)[C@]1(NC(=O)C2CCN(C(=O)C3CC3)CC2)CCCc2ccccc21)c1ccc(-c2c3nc(c(-c4cccc(S(=O)(=O)[O-])c4F)c4ccc([nH]4)c(-c4cccc(S(=O)(=O)[O-])c4F)c4nc(c(-c5cccc(S(=O)(=O)[O-])c5F)c5ccc2[nH]5)C=C4)C=C3)cc1
REMARK SMILES IDX 6 1 5 2 4 3 3 4 1 5 2 6 37 8 38 9 99 10 39 11 98 12 40 13
REMARK SMILES IDX 41 14 42 15 92 16 43 17 97 18 91 19 93 20 44 21 96 22 90 23
REMARK SMILES IDX 89 24 45 26 77 27 57 28 76 29 58 30 61 31 75 32 94 33 59 34
REMARK SMILES IDX 60 35 74 37 95 38 62 39 46 40 47 41 55 42 48 43 50 44 56 45
REMARK SMILES IDX 49 46 51 47 52 48 53 49 54 50 78 51 79 52 87 53 80 54 82 55
REMARK SMILES IDX 88 56 81 57 83 58 84 59 85 60 86 61 63 62 64 63 72 64 65 65
REMARK SMILES IDX 67 66 73 67 66 68 68 69 69 70 70 71 71 72 7 73 8 74 9 75
REMARK SMILES IDX 10 76 11 77 12 79 13 80 28 81 36 82 29 83 31 84 35 85 30 86
REMARK SMILES IDX 32 87 34 88 33 89 14 90 15 91 16 93 17 94 18 95 27 96 19 97
REMARK SMILES IDX 26 98 20 99 21 100 22 101 23 102 24 103 25 104
REMARK H PARENT 3 7 93 25 61 36 10 78 14 92
REMARK Flexibility Score: inf
ROOT
ATOM      1  C   UNL A   1      36.339  19.901  24.976  1.00  0.00     0.002 C 
ENDROOT
BRANCH   1   2
ATOM      2  C   UNL A   1      37.841  19.812  24.707  1.00  0.00     0.021 C 
BRANCH   2   3
ATOM      3  C   UNL A   1      38.744  20.290  25.830  1.00  0.00     0.116 C 
BRANCH   3   4
ATOM      4  N   UNL A   1      39.828  19.371  26.116  1.00  0.00    -0.352 N 
ATOM      5  O   UNL A   1      41.961  18.756  26.511  1.00  0.00    -0.269 OA
ATOM      6  C   UNL A   1      41.136  19.662  26.430  1.00  0.00     0.251 C 
ATOM      7  H   UNL A   1      39.598  18.414  26.084  1.00  0.00     0.163 HD
BRANCH   6   8
ATOM      8  C   UNL A   1      41.543  21.071  26.634  1.00  0.00     0.039 A 
ATOM      9  C   UNL A   1      41.656  21.600  27.921  1.00  0.00     0.014 A 
ATOM     10  C   UNL A   1      41.804  21.877  25.522  1.00  0.00     0.014 A 
ATOM     11  C   UNL A   1      41.888  22.960  28.092  1.00  0.00     0.010 A 
ATOM     12  C   UNL A   1      42.132  23.226  25.700  1.00  0.00     0.010 A 
ATOM     13  C   UNL A   1      42.153  23.785  26.986  1.00  0.00    -0.014 A 
BRANCH  13  14
ATOM     14  C   UNL A   1      42.554  25.196  27.226  1.00  0.00     0.031 A 
ATOM     15  C   UNL A   1      41.651  26.173  27.927  1.00  0.00     0.074 A 
ATOM     16  C   UNL A   1      43.780  25.581  26.817  1.00  0.00     0.049 A 
ATOM     17  N   UNL A   1      41.894  27.413  28.266  1.00  0.00    -0.248 NA
ATOM     18  C   UNL A   1      40.301  25.710  28.286  1.00  0.00     0.031 C 
ATOM     19  C   UNL A   1      44.718  24.736  26.070  1.00  0.00     0.029 A 
ATOM     20  N   UNL A   1      44.454  26.764  26.972  1.00  0.00    -0.354 N 
ATOM     21  C   UNL A   1      40.727  27.890  28.850  1.00  0.00     0.074 A 
ATOM     22  C   UNL A   1      39.767  26.806  28.812  1.00  0.00     0.031 C 
ATOM     23  C   UNL A   1      45.856  25.412  25.869  1.00  0.00     0.029 A 
ATOM     24  C   UNL A   1      45.716  26.752  26.424  1.00  0.00     0.049 A 
ATOM     25  H   UNL A   1      44.073  27.547  27.432  1.00  0.00     0.167 HD
ATOM     26  C   UNL A   1      40.486  29.111  29.385  1.00  0.00     0.034 A 
ATOM     27  C   UNL A   1      46.655  27.714  26.363  1.00  0.00     0.034 A 
ATOM     28  C   UNL A   1      41.456  30.175  29.445  1.00  0.00     0.049 A 
ATOM     29  C   UNL A   1      46.374  29.039  27.010  1.00  0.00     0.074 A 
ATOM     30  C   UNL A   1      41.319  31.435  30.004  1.00  0.00     0.029 A 
ATOM     31  N   UNL A   1      42.742  30.108  28.928  1.00  0.00    -0.354 N 
ATOM     32  N   UNL A   1      45.308  29.422  27.668  1.00  0.00    -0.248 NA
ATOM     33  C   UNL A   1      47.433  30.051  26.929  1.00  0.00     0.031 C 
ATOM     34  C   UNL A   1      42.519  32.130  29.820  1.00  0.00     0.029 A 
ATOM     35  C   UNL A   1      43.408  31.301  29.156  1.00  0.00     0.049 A 
ATOM     36  H   UNL A   1      43.125  29.327  28.467  1.00  0.00     0.167 HD
ATOM     37  C   UNL A   1      45.569  30.719  28.088  1.00  0.00     0.074 A 
ATOM     38  C   UNL A   1      46.915  31.036  27.650  1.00  0.00     0.031 C 
ATOM     39  C   UNL A   1      44.760  31.582  28.749  1.00  0.00     0.034 A 
BRANCH  26  40
ATOM     40  C   UNL A   1      39.135  29.359  30.006  1.00  0.00     0.023 A 
ATOM     41  C   UNL A   1      38.874  28.869  31.301  1.00  0.00     0.012 A 
ATOM     42  C   UNL A   1      38.166  30.152  29.359  1.00  0.00     0.148 A 
ATOM     43  C   UNL A   1      37.664  29.147  31.938  1.00  0.00     0.002 A 
ATOM     44  C   UNL A   1      36.976  30.454  30.014  1.00  0.00     0.091 A 
ATOM     45  F   UNL A   1      38.425  30.594  28.121  1.00  0.00    -0.205 F 
ATOM     46  C   UNL A   1      36.722  29.948  31.299  1.00  0.00     0.022 A 
BRANCH  44  47
ATOM     47  S   UNL A   1      35.724  31.535  29.309  1.00  0.00     0.127 S 
ATOM     48  O   UNL A   1      36.539  32.646  28.817  1.00  0.00    -0.237 OA
ATOM     49  O   UNL A   1      35.145  30.694  28.261  1.00  0.00    -0.237 OA
ATOM     50  O   UNL A   1      34.815  31.862  30.399  1.00  0.00    -0.744 OA
ENDBRANCH  44  47
ENDBRANCH  26  40
BRANCH  27  51
ATOM     51  C   UNL A   1      47.961  27.431  25.705  1.00  0.00     0.023 A 
ATOM     52  C   UNL A   1      49.028  26.914  26.465  1.00  0.00     0.012 A 
ATOM     53  C   UNL A   1      48.133  27.619  24.320  1.00  0.00     0.148 A 
ATOM     54  C   UNL A   1      50.250  26.615  25.860  1.00  0.00     0.002 A 
ATOM     55  C   UNL A   1      49.331  27.258  23.714  1.00  0.00     0.091 A 
ATOM     56  F   UNL A   1      47.117  28.134  23.614  1.00  0.00    -0.205 F 
ATOM     57  C   UNL A   1      50.397  26.773  24.485  1.00  0.00     0.022 A 
BRANCH  55  58
ATOM     58  S   UNL A   1      49.519  27.282  21.928  1.00  0.00     0.127 S 
ATOM     59  O   UNL A   1      49.272  28.686  21.618  1.00  0.00    -0.237 OA
ATOM     60  O   UNL A   1      50.906  26.848  21.754  1.00  0.00    -0.237 OA
ATOM     61  O   UNL A   1      48.535  26.328  21.434  1.00  0.00    -0.744 OA
ENDBRANCH  55  58
ENDBRANCH  27  51
BRANCH  39  62
ATOM     62  C   UNL A   1      45.314  32.953  29.034  1.00  0.00     0.023 A 
ATOM     63  C   UNL A   1      46.008  33.181  30.240  1.00  0.00     0.012 A 
ATOM     64  C   UNL A   1      45.180  34.000  28.104  1.00  0.00     0.148 A 
ATOM     65  C   UNL A   1      46.526  34.441  30.532  1.00  0.00     0.002 A 
ATOM     66  C   UNL A   1      45.737  35.242  28.382  1.00  0.00     0.091 A 
ATOM     67  F   UNL A   1      44.495  33.771  26.972  1.00  0.00    -0.205 F 
ATOM     68  C   UNL A   1      46.399  35.469  29.601  1.00  0.00     0.022 A 
BRANCH  66  69
ATOM     69  S   UNL A   1      45.689  36.594  27.200  1.00  0.00     0.127 S 
ATOM     70  O   UNL A   1      44.253  36.847  27.094  1.00  0.00    -0.237 OA
ATOM     71  O   UNL A   1      46.445  37.641  27.887  1.00  0.00    -0.237 OA
ATOM     72  O   UNL A   1      46.331  36.084  25.995  1.00  0.00    -0.744 OA
ENDBRANCH  66  69
ENDBRANCH  39  62
ENDBRANCH  13  14
ENDBRANCH   6   8
ENDBRANCH   3   4
ENDBRANCH   2   3
ENDBRANCH   1   2
BRANCH   1  73
ATOM     73  C   UNL A   1      35.507  18.648  24.686  1.00  0.00     0.002 C 
BRANCH  73  74
ATOM     74  C   UNL A   1      33.991  18.763  24.869  1.00  0.00     0.021 C 
BRANCH  74  75
ATOM     75  C   UNL A   1      33.373  20.098  24.480  1.00  0.00     0.116 C 
BRANCH  75  76
ATOM     76  N   UNL A   1      32.487  20.657  25.475  1.00  0.00    -0.354 N 
ATOM     77  C   UNL A   1      31.783  21.824  25.430  1.00  0.00     0.250 C 
ATOM     78  H   UNL A   1      32.377  20.123  26.296  1.00  0.00     0.163 HD
ATOM     79  O   UNL A   1      30.641  21.746  25.903  1.00  0.00    -0.272 OA
BRANCH  77  80
ATOM     80  C   UNL A   1      32.314  23.178  24.819  1.00  0.00     0.145 C 
ATOM     81  C   UNL A   1      31.715  23.246  23.377  1.00  0.00     0.044 C 
ATOM     82  C   UNL A   1      33.843  23.336  24.782  1.00  0.00    -0.010 A 
ATOM     83  C   UNL A   1      32.484  22.423  22.361  1.00  0.00     0.008 C 
ATOM     84  C   UNL A   1      34.573  23.217  23.573  1.00  0.00    -0.042 A 
ATOM     85  C   UNL A   1      34.565  23.560  25.971  1.00  0.00     0.007 A 
ATOM     86  C   UNL A   1      33.913  22.933  22.243  1.00  0.00     0.036 C 
ATOM     87  C   UNL A   1      35.975  23.334  23.586  1.00  0.00     0.004 A 
ATOM     88  C   UNL A   1      35.958  23.672  25.966  1.00  0.00     0.000 A 
ATOM     89  C   UNL A   1      36.662  23.555  24.775  1.00  0.00     0.000 A 
BRANCH  80  90
ATOM     90  N   UNL A   1      31.722  24.391  25.492  1.00  0.00    -0.338 N 
ATOM     91  C   UNL A   1      30.670  25.212  25.238  1.00  0.00     0.224 C 
ATOM     92  H   UNL A   1      32.213  24.648  26.306  1.00  0.00     0.164 HD
ATOM     93  O   UNL A   1      30.149  25.763  26.211  1.00  0.00    -0.275 OA
BRANCH  91  94
ATOM     94  C   UNL A   1      30.229  25.543  23.819  1.00  0.00     0.082 C 
ATOM     95  C   UNL A   1      31.310  26.396  23.124  1.00  0.00     0.035 C 
ATOM     96  C   UNL A   1      28.855  26.245  23.798  1.00  0.00     0.035 C 
ATOM     97  C   UNL A   1      31.250  27.874  23.501  1.00  0.00     0.120 C 
ATOM     98  C   UNL A   1      28.923  27.735  24.138  1.00  0.00     0.120 C 
ATOM     99  N   UNL A   1      29.905  28.392  23.284  1.00  0.00    -0.342 N 
ATOM    100  C   UNL A   1      29.721  29.316  22.256  1.00  0.00     0.225 C 
ATOM    101  O   UNL A   1      30.675  29.701  21.578  1.00  0.00    -0.275 OA
BRANCH 100 102
ATOM    102  C   UNL A   1      28.409  29.926  21.884  1.00  0.00     0.079 C 
ATOM    103  C   UNL A   1      27.571  30.872  22.692  1.00  0.00     0.014 C 
ATOM    104  C   UNL A   1      28.246  31.350  21.429  1.00  0.00     0.014 C 
ENDBRANCH 100 102
ENDBRANCH  91  94
ENDBRANCH  80  90
ENDBRANCH  77  80
ENDBRANCH  75  76
ENDBRANCH  74  75
ENDBRANCH  73  74
ENDBRANCH   1  73
TORSDOF 19
ENDMDL
MODEL 2
REMARK VINA RESULT:     -12.6      5.441     11.240
REMARK SMILES O=C(NCCCCCCNC(=O)[C@]1(NC(=O)C2CCN(C(=O)C3CC3)CC2)CCCc2ccccc21)c1ccc(-c2c3nc(c(-c4cccc(S(=O)(=O)[O-])c4F)c4ccc([nH]4)c(-c4cccc(S(=O)(=O)[O-])c4F)c4nc(c(-c5cccc(S(=O)(=O)[O-])c5F)c5ccc2[nH]5)C=C4)C=C3)cc1
REMARK SMILES IDX 6 1 5 2 4 3 3 4 1 5 2 6 37 8 38 9 99 10 39 11 98 12 40 13
REMARK SMILES IDX 41 14 42 15 92 16 43 17 97 18 91 19 93 20 44 21 96 22 90 23
REMARK SMILES IDX 89 24 45 26 77 27 57 28 76 29 58 30 61 31 75 32 94 33 59 34
REMARK SMILES IDX 60 35 74 37 95 38 62 39 46 40 47 41 55 42 48 43 50 44 56 45
REMARK SMILES IDX 49 46 51 47 52 48 53 49 54 50 78 51 79 52 87 53 80 54 82 55
REMARK SMILES IDX 88 56 81 57 83 58 84 59 85 60 86 61 63 62 64 63 72 64 65 65
REMARK SMILES IDX 67 66 73 67 66 68 68 69 69 70 70 71 71 72 7 73 8 74 9 75
REMARK SMILES IDX 10 76 11 77 12 79 13 80 28 81 36 82 29 83 31 84 35 85 30 86
REMARK SMILES IDX 32 87 34 88 33 89 14 90 15 91 16 93 17 94 18 95 27 96 19 97
REMARK SMILES IDX 26 98 20 99 21 100 22 101 23 102 24 103 25 104
REMARK H PARENT 3 7 93 25 61 36 10 78 14 92
REMARK Flexibility Score: inf
ROOT
ATOM      1  C   UNL A   1      30.953  31.161  25.360  1.00  0.00     0.002 C 
ENDROOT
BRANCH   1   2
ATOM      2  C   UNL A   1      31.112  31.844  26.718  1.00  0.00     0.021 C 
BRANCH   2   3
ATOM      3  C   UNL A   1      32.468  32.469  26.990  1.00  0.00     0.116 C 
BRANCH   3   4
ATOM      4  N   UNL A   1      32.379  33.844  27.441  1.00  0.00    -0.352 N 
ATOM      5  O   UNL A   1      32.836  35.618  28.756  1.00  0.00    -0.269 OA
ATOM      6  C   UNL A   1      33.134  34.482  28.398  1.00  0.00     0.251 C 
ATOM      7  H   UNL A   1      31.687  34.394  27.005  1.00  0.00     0.163 HD
BRANCH   6   8
ATOM      8  C   UNL A   1      34.284  33.777  29.011  1.00  0.00     0.039 A 
ATOM      9  C   UNL A   1      34.078  32.705  29.882  1.00  0.00     0.014 A 
ATOM     10  C   UNL A   1      35.583  34.201  28.720  1.00  0.00     0.014 A 
ATOM     11  C   UNL A   1      35.155  32.154  30.566  1.00  0.00     0.010 A 
ATOM     12  C   UNL A   1      36.675  33.581  29.338  1.00  0.00     0.010 A 
ATOM     13  C   UNL A   1      36.469  32.568  30.286  1.00  0.00    -0.014 A 
BRANCH  13  14
ATOM     14  C   UNL A   1      37.599  31.841  30.922  1.00  0.00     0.031 A 
ATOM     15  C   UNL A   1      38.404  30.813  30.177  1.00  0.00     0.074 A 
ATOM     16  C   UNL A   1      37.907  32.148  32.198  1.00  0.00     0.049 A 
ATOM     17  N   UNL A   1      39.458  30.151  30.582  1.00  0.00    -0.248 NA
ATOM     18  C   UNL A   1      37.974  30.474  28.811  1.00  0.00     0.031 C 
ATOM     19  C   UNL A   1      37.154  33.085  33.040  1.00  0.00     0.029 A 
ATOM     20  N   UNL A   1      38.927  31.723  33.009  1.00  0.00    -0.354 N 
ATOM     21  C   UNL A   1      39.802  29.299  29.539  1.00  0.00     0.074 A 
ATOM     22  C   UNL A   1      38.836  29.519  28.483  1.00  0.00     0.031 C 
ATOM     23  C   UNL A   1      37.760  33.193  34.229  1.00  0.00     0.029 A 
ATOM     24  C   UNL A   1      38.911  32.300  34.258  1.00  0.00     0.049 A 
ATOM     25  H   UNL A   1      39.605  31.069  32.725  1.00  0.00     0.167 HD
ATOM     26  C   UNL A   1      40.837  28.428  29.464  1.00  0.00     0.034 A 
ATOM     27  C   UNL A   1      39.726  32.125  35.315  1.00  0.00     0.034 A 
ATOM     28  C   UNL A   1      41.810  28.235  30.509  1.00  0.00     0.049 A 
ATOM     29  C   UNL A   1      40.892  31.191  35.180  1.00  0.00     0.074 A 
ATOM     30  C   UNL A   1      42.920  27.405  30.509  1.00  0.00     0.029 A 
ATOM     31  N   UNL A   1      41.794  28.877  31.738  1.00  0.00    -0.354 N 
ATOM     32  N   UNL A   1      41.268  30.491  34.139  1.00  0.00    -0.248 NA
ATOM     33  C   UNL A   1      41.759  31.043  36.355  1.00  0.00     0.031 C 
ATOM     34  C   UNL A   1      43.569  27.541  31.742  1.00  0.00     0.029 A 
ATOM     35  C   UNL A   1      42.872  28.464  32.504  1.00  0.00     0.049 A 
ATOM     36  H   UNL A   1      41.116  29.530  32.025  1.00  0.00     0.167 HD
ATOM     37  C   UNL A   1      42.422  29.824  34.528  1.00  0.00     0.074 A 
ATOM     38  C   UNL A   1      42.707  30.243  35.887  1.00  0.00     0.031 C 
ATOM     39  C   UNL A   1      43.162  28.922  33.838  1.00  0.00     0.034 A 
BRANCH  26  40
ATOM     40  C   UNL A   1      41.016  27.648  28.186  1.00  0.00     0.023 A 
ATOM     41  C   UNL A   1      41.616  28.276  27.077  1.00  0.00     0.012 A 
ATOM     42  C   UNL A   1      40.686  26.280  28.111  1.00  0.00     0.148 A 
ATOM     43  C   UNL A   1      41.870  27.561  25.905  1.00  0.00     0.002 A 
ATOM     44  C   UNL A   1      40.973  25.566  26.952  1.00  0.00     0.091 A 
ATOM     45  F   UNL A   1      40.101  25.705  29.171  1.00  0.00    -0.205 F 
ATOM     46  C   UNL A   1      41.558  26.206  25.848  1.00  0.00     0.022 A 
BRANCH  44  47
ATOM     47  S   UNL A   1      40.677  23.799  26.799  1.00  0.00     0.127 S 
ATOM     48  O   UNL A   1      41.135  23.310  28.100  1.00  0.00    -0.237 OA
ATOM     49  O   UNL A   1      39.228  23.745  26.603  1.00  0.00    -0.237 OA
ATOM     50  O   UNL A   1      41.463  23.358  25.655  1.00  0.00    -0.744 OA
ENDBRANCH  44  47
ENDBRANCH  26  40
BRANCH  27  51
ATOM     51  C   UNL A   1      39.484  32.893  36.569  1.00  0.00     0.023 A 
ATOM     52  C   UNL A   1      40.075  34.160  36.736  1.00  0.00     0.012 A 
ATOM     53  C   UNL A   1      38.628  32.397  37.571  1.00  0.00     0.148 A 
ATOM     54  C   UNL A   1      39.837  34.907  37.891  1.00  0.00     0.002 A 
ATOM     55  C   UNL A   1      38.344  33.174  38.688  1.00  0.00     0.091 A 
ATOM     56  F   UNL A   1      38.091  31.179  37.409  1.00  0.00    -0.205 F 
ATOM     57  C   UNL A   1      38.961  34.421  38.859  1.00  0.00     0.022 A 
BRANCH  55  58
ATOM     58  S   UNL A   1      37.099  32.675  39.882  1.00  0.00     0.127 S 
ATOM     59  O   UNL A   1      35.906  32.572  39.048  1.00  0.00    -0.237 OA
ATOM     60  O   UNL A   1      37.625  31.397  40.366  1.00  0.00    -0.237 OA
ATOM     61  O   UNL A   1      37.097  33.731  40.886  1.00  0.00    -0.744 OA
ENDBRANCH  55  58
ENDBRANCH  27  51
BRANCH  39  62
ATOM     62  C   UNL A   1      44.350  28.330  34.547  1.00  0.00     0.023 A 
ATOM     63  C   UNL A   1      45.608  28.954  34.427  1.00  0.00     0.012 A 
ATOM     64  C   UNL A   1      44.219  27.185  35.354  1.00  0.00     0.148 A 
ATOM     65  C   UNL A   1      46.726  28.424  35.068  1.00  0.00     0.002 A 
ATOM     66  C   UNL A   1      45.329  26.686  36.026  1.00  0.00     0.091 A 
ATOM     67  F   UNL A   1      43.019  26.590  35.436  1.00  0.00    -0.205 F 
ATOM     68  C   UNL A   1      46.586  27.297  35.874  1.00  0.00     0.022 A 
BRANCH  66  69
ATOM     69  S   UNL A   1      45.215  25.288  37.148  1.00  0.00     0.127 S 
ATOM     70  O   UNL A   1      44.690  24.244  36.270  1.00  0.00    -0.237 OA
ATOM     71  O   UNL A   1      46.607  25.098  37.557  1.00  0.00    -0.237 OA
ATOM     72  O   UNL A   1      44.329  25.718  38.221  1.00  0.00    -0.744 OA
ENDBRANCH  66  69
ENDBRANCH  39  62
ENDBRANCH  13  14
ENDBRANCH   6   8
ENDBRANCH   3   4
ENDBRANCH   2   3
ENDBRANCH   1   2
BRANCH   1  73
ATOM     73  C   UNL A   1      29.783  31.621  24.484  1.00  0.00     0.002 C 
BRANCH  73  74
ATOM     74  C   UNL A   1      29.138  30.569  23.578  1.00  0.00     0.021 C 
BRANCH  74  75
ATOM     75  C   UNL A   1      30.007  29.372  23.224  1.00  0.00     0.116 C 
BRANCH  75  76
ATOM     76  N   UNL A   1      29.278  28.135  23.057  1.00  0.00    -0.354 N 
ATOM     77  C   UNL A   1      29.425  26.962  23.738  1.00  0.00     0.250 C 
ATOM     78  H   UNL A   1      28.583  28.140  22.359  1.00  0.00     0.163 HD
ATOM     79  O   UNL A   1      28.357  26.393  24.000  1.00  0.00    -0.272 OA
BRANCH  77  80
ATOM     80  C   UNL A   1      30.803  26.348  24.197  1.00  0.00     0.145 C 
ATOM     81  C   UNL A   1      30.713  26.245  25.754  1.00  0.00     0.044 C 
ATOM     82  C   UNL A   1      32.055  27.135  23.775  1.00  0.00    -0.010 A 
ATOM     83  C   UNL A   1      30.996  27.554  26.466  1.00  0.00     0.008 C 
ATOM     84  C   UNL A   1      32.792  27.912  24.703  1.00  0.00    -0.042 A 
ATOM     85  C   UNL A   1      32.475  27.136  22.430  1.00  0.00     0.007 A 
ATOM     86  C   UNL A   1      32.411  28.024  26.161  1.00  0.00     0.036 C 
ATOM     87  C   UNL A   1      33.912  28.646  24.270  1.00  0.00     0.004 A 
ATOM     88  C   UNL A   1      33.589  27.872  22.017  1.00  0.00     0.000 A 
ATOM     89  C   UNL A   1      34.305  28.629  22.936  1.00  0.00     0.000 A 
BRANCH  80  90
ATOM     90  N   UNL A   1      30.972  24.912  23.769  1.00  0.00    -0.338 N 
ATOM     91  C   UNL A   1      31.551  23.810  24.313  1.00  0.00     0.224 C 
ATOM     92  H   UNL A   1      30.567  24.731  22.890  1.00  0.00     0.164 HD
ATOM     93  O   UNL A   1      31.082  22.717  23.982  1.00  0.00    -0.275 OA
BRANCH  91  94
ATOM     94  C   UNL A   1      32.795  23.899  25.185  1.00  0.00     0.082 C 
ATOM     95  C   UNL A   1      33.962  24.490  24.367  1.00  0.00     0.035 C 
ATOM     96  C   UNL A   1      33.166  22.530  25.792  1.00  0.00     0.035 C 
ATOM     97  C   UNL A   1      34.651  23.467  23.468  1.00  0.00     0.120 C 
ATOM     98  C   UNL A   1      33.901  21.607  24.817  1.00  0.00     0.120 C 
ATOM     99  N   UNL A   1      35.048  22.302  24.249  1.00  0.00    -0.342 N 
ATOM    100  C   UNL A   1      36.413  22.083  24.442  1.00  0.00     0.225 C 
ATOM    101  O   UNL A   1      37.248  22.836  23.939  1.00  0.00    -0.275 OA
BRANCH 100 102
ATOM    102  C   UNL A   1      36.990  20.956  25.234  1.00  0.00     0.079 C 
ATOM    103  C   UNL A   1      37.486  19.633  24.727  1.00  0.00     0.014 C 
ATOM    104  C   UNL A   1      38.460  20.639  25.292  1.00  0.00     0.014 C 
ENDBRANCH 100 102
ENDBRANCH  91  94
ENDBRANCH  80  90
ENDBRANCH  77  80
ENDBRANCH  75  76
ENDBRANCH  74  75
ENDBRANCH  73  74
ENDBRANCH   1  73
TORSDOF 19
ENDMDL
MODEL 3
REMARK VINA RESULT:     -12.6      5.762     11.389
REMARK SMILES O=C(NCCCCCCNC(=O)[C@]1(NC(=O)C2CCN(C(=O)C3CC3)CC2)CCCc2ccccc21)c1ccc(-c2c3nc(c(-c4cccc(S(=O)(=O)[O-])c4F)c4ccc([nH]4)c(-c4cccc(S(=O)(=O)[O-])c4F)c4nc(c(-c5cccc(S(=O)(=O)[O-])c5F)c5ccc2[nH]5)C=C4)C=C3)cc1
REMARK SMILES IDX 6 1 5 2 4 3 3 4 1 5 2 6 37 8 38 9 99 10 39 11 98 12 40 13
REMARK SMILES IDX 41 14 42 15 92 16 43 17 97 18 91 19 93 20 44 21 96 22 90 23
REMARK SMILES IDX 89 24 45 26 77 27 57 28 76 29 58 30 61 31 75 32 94 33 59 34
REMARK SMILES IDX 60 35 74 37 95 38 62 39 46 40 47 41 55 42 48 43 50 44 56 45
REMARK SMILES IDX 49 46 51 47 52 48 53 49 54 50 78 51 79 52 87 53 80 54 82 55
REMARK SMILES IDX 88 56 81 57 83 58 84 59 85 60 86 61 63 62 64 63 72 64 65 65
REMARK SMILES IDX 67 66 73 67 66 68 68 69 69 70 70 71 71 72 7 73 8 74 9 75
REMARK SMILES IDX 10 76 11 77 12 79 13 80 28 81 36 82 29 83 31 84 35 85 30 86
REMARK SMILES IDX 32 87 34 88 33 89 14 90 15 91 16 93 17 94 18 95 27 96 19 97
REMARK SMILES IDX 26 98 20 99 21 100 22 101 23 102 24 103 25 104
REMARK H PARENT 3 7 93 25 61 36 10 78 14 92
REMARK Flexibility Score: inf
ROOT
ATOM      1  C   UNL A   1      31.514  30.751  25.550  1.00  0.00     0.002 C 
ENDROOT
BRANCH   1   2
ATOM      2  C   UNL A   1      31.321  31.948  26.481  1.00  0.00     0.021 C 
BRANCH   2   3
ATOM      3  C   UNL A   1      32.581  32.490  27.133  1.00  0.00     0.116 C 
BRANCH   3   4
ATOM      4  N   UNL A   1      32.456  33.875  27.542  1.00  0.00    -0.352 N 
ATOM      5  O   UNL A   1      32.838  35.690  28.826  1.00  0.00    -0.269 OA
ATOM      6  C   UNL A   1      33.165  34.548  28.510  1.00  0.00     0.251 C 
ATOM      7  H   UNL A   1      31.777  34.403  27.064  1.00  0.00     0.163 HD
BRANCH   6   8
ATOM      8  C   UNL A   1      34.297  33.875  29.188  1.00  0.00     0.039 A 
ATOM      9  C   UNL A   1      34.067  32.864  30.124  1.00  0.00     0.014 A 
ATOM     10  C   UNL A   1      35.605  34.269  28.893  1.00  0.00     0.014 A 
ATOM     11  C   UNL A   1      35.127  32.350  30.861  1.00  0.00     0.010 A 
ATOM     12  C   UNL A   1      36.680  33.682  29.569  1.00  0.00     0.010 A 
ATOM     13  C   UNL A   1      36.449  32.734  30.578  1.00  0.00    -0.014 A 
BRANCH  13  14
ATOM     14  C   UNL A   1      37.561  32.041  31.280  1.00  0.00     0.031 A 
ATOM     15  C   UNL A   1      38.322  30.911  30.644  1.00  0.00     0.074 A 
ATOM     16  C   UNL A   1      37.895  32.474  32.512  1.00  0.00     0.049 A 
ATOM     17  N   UNL A   1      39.357  30.260  31.109  1.00  0.00    -0.248 NA
ATOM     18  C   UNL A   1      37.864  30.441  29.327  1.00  0.00     0.031 C 
ATOM     19  C   UNL A   1      37.185  33.522  33.253  1.00  0.00     0.029 A 
ATOM     20  N   UNL A   1      38.910  32.103  33.355  1.00  0.00    -0.354 N 
ATOM     21  C   UNL A   1      39.659  29.288  30.162  1.00  0.00     0.074 A 
ATOM     22  C   UNL A   1      38.688  29.427  29.096  1.00  0.00     0.031 C 
ATOM     23  C   UNL A   1      37.809  33.737  34.419  1.00  0.00     0.029 A 
ATOM     24  C   UNL A   1      38.929  32.812  34.534  1.00  0.00     0.049 A 
ATOM     25  H   UNL A   1      39.562  31.399  33.138  1.00  0.00     0.167 HD
ATOM     26  C   UNL A   1      40.663  28.378  30.173  1.00  0.00     0.034 A 
ATOM     27  C   UNL A   1      39.750  32.724  35.597  1.00  0.00     0.034 A 
ATOM     28  C   UNL A   1      41.642  28.265  31.225  1.00  0.00     0.049 A 
ATOM     29  C   UNL A   1      40.882  31.740  35.555  1.00  0.00     0.074 A 
ATOM     30  C   UNL A   1      42.722  27.402  31.306  1.00  0.00     0.029 A 
ATOM     31  N   UNL A   1      41.662  29.036  32.377  1.00  0.00    -0.354 N 
ATOM     32  N   UNL A   1      41.221  30.918  34.593  1.00  0.00    -0.248 NA
ATOM     33  C   UNL A   1      41.758  31.690  36.732  1.00  0.00     0.031 C 
ATOM     34  C   UNL A   1      43.390  27.647  32.511  1.00  0.00     0.029 A 
ATOM     35  C   UNL A   1      42.735  28.671  33.174  1.00  0.00     0.049 A 
ATOM     36  H   UNL A   1      41.011  29.741  32.597  1.00  0.00     0.167 HD
ATOM     37  C   UNL A   1      42.356  30.257  35.043  1.00  0.00     0.074 A 
ATOM     38  C   UNL A   1      42.672  30.811  36.345  1.00  0.00     0.031 C 
ATOM     39  C   UNL A   1      43.056  29.261  34.448  1.00  0.00     0.034 A 
BRANCH  26  40
ATOM     40  C   UNL A   1      40.800  27.458  28.986  1.00  0.00     0.023 A 
ATOM     41  C   UNL A   1      39.933  26.354  28.870  1.00  0.00     0.012 A 
ATOM     42  C   UNL A   1      41.709  27.736  27.946  1.00  0.00     0.148 A 
ATOM     43  C   UNL A   1      39.979  25.528  27.745  1.00  0.00     0.002 A 
ATOM     44  C   UNL A   1      41.726  26.929  26.813  1.00  0.00     0.091 A 
ATOM     45  F   UNL A   1      42.537  28.781  28.084  1.00  0.00    -0.205 F 
ATOM     46  C   UNL A   1      40.867  25.822  26.715  1.00  0.00     0.022 A 
BRANCH  44  47
ATOM     47  S   UNL A   1      42.781  27.261  25.396  1.00  0.00     0.127 S 
ATOM     48  O   UNL A   1      44.084  27.444  26.037  1.00  0.00    -0.237 OA
ATOM     49  O   UNL A   1      42.652  26.028  24.620  1.00  0.00    -0.237 OA
ATOM     50  O   UNL A   1      42.231  28.446  24.754  1.00  0.00    -0.744 OA
ENDBRANCH  44  47
ENDBRANCH  26  40
BRANCH  27  51
ATOM     51  C   UNL A   1      39.550  33.631  36.762  1.00  0.00     0.023 A 
ATOM     52  C   UNL A   1      39.893  34.992  36.654  1.00  0.00     0.012 A 
ATOM     53  C   UNL A   1      38.970  33.163  37.957  1.00  0.00     0.148 A 
ATOM     54  C   UNL A   1      39.686  35.863  37.724  1.00  0.00     0.002 A 
ATOM     55  C   UNL A   1      38.707  34.049  38.995  1.00  0.00     0.091 A 
ATOM     56  F   UNL A   1      38.670  31.860  38.054  1.00  0.00    -0.205 F 
ATOM     57  C   UNL A   1      39.080  35.396  38.888  1.00  0.00     0.022 A 
BRANCH  55  58
ATOM     58  S   UNL A   1      37.780  33.540  40.446  1.00  0.00     0.127 S 
ATOM     59  O   UNL A   1      37.741  34.773  41.226  1.00  0.00    -0.237 OA
ATOM     60  O   UNL A   1      36.497  33.134  39.871  1.00  0.00    -0.237 OA
ATOM     61  O   UNL A   1      38.547  32.440  41.015  1.00  0.00    -0.744 OA
ENDBRANCH  55  58
ENDBRANCH  27  51
BRANCH  39  62
ATOM     62  C   UNL A   1      44.232  28.707  35.207  1.00  0.00     0.023 A 
ATOM     63  C   UNL A   1      45.524  29.205  34.940  1.00  0.00     0.012 A 
ATOM     64  C   UNL A   1      44.060  27.726  36.201  1.00  0.00     0.148 A 
ATOM     65  C   UNL A   1      46.631  28.707  35.624  1.00  0.00     0.002 A 
ATOM     66  C   UNL A   1      45.163  27.265  36.910  1.00  0.00     0.091 A 
ATOM     67  F   UNL A   1      42.827  27.247  36.424  1.00  0.00    -0.205 F 
ATOM     68  C   UNL A   1      46.450  27.745  36.615  1.00  0.00     0.022 A 
BRANCH  66  69
ATOM     69  S   UNL A   1      45.004  26.088  38.257  1.00  0.00     0.127 S 
ATOM     70  O   UNL A   1      44.228  25.020  37.630  1.00  0.00    -0.237 OA
ATOM     71  O   UNL A   1      46.398  25.743  38.541  1.00  0.00    -0.237 OA
ATOM     72  O   UNL A   1      44.335  26.808  39.332  1.00  0.00    -0.744 OA
ENDBRANCH  66  69
ENDBRANCH  39  62
ENDBRANCH  13  14
ENDBRANCH   6   8
ENDBRANCH   3   4
ENDBRANCH   2   3
ENDBRANCH   1   2
BRANCH   1  73
ATOM     73  C   UNL A   1      30.323  30.356  24.672  1.00  0.00     0.002 C 
BRANCH  73  74
ATOM     74  C   UNL A   1      30.606  29.409  23.503  1.00  0.00     0.021 C 
BRANCH  74  75
ATOM     75  C   UNL A   1      32.073  29.152  23.195  1.00  0.00     0.116 C 
BRANCH  75  76
ATOM     76  N   UNL A   1      32.302  28.172  22.156  1.00  0.00    -0.354 N 
ATOM     77  C   UNL A   1      32.012  26.839  22.164  1.00  0.00     0.250 C 
ATOM     78  H   UNL A   1      32.723  28.513  21.333  1.00  0.00     0.163 HD
ATOM     79  O   UNL A   1      31.576  26.410  21.087  1.00  0.00    -0.272 OA
BRANCH  77  80
ATOM     80  C   UNL A   1      32.174  25.885  23.409  1.00  0.00     0.145 C 
ATOM     81  C   UNL A   1      30.853  25.051  23.467  1.00  0.00     0.044 C 
ATOM     82  C   UNL A   1      32.435  26.585  24.753  1.00  0.00    -0.010 A 
ATOM     83  C   UNL A   1      29.697  25.788  24.114  1.00  0.00     0.008 C 
ATOM     84  C   UNL A   1      31.426  26.693  25.743  1.00  0.00    -0.042 A 
ATOM     85  C   UNL A   1      33.684  27.179  25.016  1.00  0.00     0.007 A 
ATOM     86  C   UNL A   1      30.034  26.134  25.557  1.00  0.00     0.036 C 
ATOM     87  C   UNL A   1      31.694  27.372  26.946  1.00  0.00     0.004 A 
ATOM     88  C   UNL A   1      33.933  27.851  26.216  1.00  0.00     0.000 A 
ATOM     89  C   UNL A   1      32.937  27.949  27.179  1.00  0.00     0.000 A 
BRANCH  80  90
ATOM     90  N   UNL A   1      33.234  24.833  23.202  1.00  0.00    -0.338 N 
ATOM     91  C   UNL A   1      33.226  23.490  23.001  1.00  0.00     0.224 C 
ATOM     92  H   UNL A   1      34.144  25.207  23.214  1.00  0.00     0.164 HD
ATOM     93  O   UNL A   1      34.174  23.018  22.366  1.00  0.00    -0.275 OA
BRANCH  91  94
ATOM     94  C   UNL A   1      32.177  22.585  23.631  1.00  0.00     0.082 C 
ATOM     95  C   UNL A   1      32.533  22.327  25.110  1.00  0.00     0.035 C 
ATOM     96  C   UNL A   1      32.017  21.264  22.849  1.00  0.00     0.035 C 
ATOM     97  C   UNL A   1      33.595  21.247  25.298  1.00  0.00     0.120 C 
ATOM     98  C   UNL A   1      33.107  20.235  23.158  1.00  0.00     0.120 C 
ATOM     99  N   UNL A   1      33.200  20.031  24.597  1.00  0.00    -0.342 N 
ATOM    100  C   UNL A   1      32.863  18.917  25.367  1.00  0.00     0.225 C 
ATOM    101  O   UNL A   1      32.930  18.958  26.596  1.00  0.00    -0.275 OA
BRANCH 100 102
ATOM    102  C   UNL A   1      32.415  17.604  24.813  1.00  0.00     0.079 C 
ATOM    103  C   UNL A   1      33.213  16.627  23.999  1.00  0.00     0.014 C 
ATOM    104  C   UNL A   1      32.792  16.273  25.405  1.00  0.00     0.014 C 
ENDBRANCH 100 102
ENDBRANCH  91  94
ENDBRANCH  80  90
ENDBRANCH  77  80
ENDBRANCH  75  76
ENDBRANCH  74  75
ENDBRANCH  73  74
ENDBRANCH   1  73
TORSDOF 19
ENDMDL
