MODEL 1
REMARK VINA RESULT:     -11.7      0.000      0.000
REMARK SMILES C[C@@H](NS(=O)(=O)c1ccc2c(c1)CCC2)C(=O)NCCCCCCNC(=O)c1ccc(-c2c3nc(c(-c4cccc(S(=O)(=O)[O-])c4F)c4ccc([nH]4)c(-c4cccc(S(=O)(=O)[O-])c4F)c4nc(c(-c5cccc(S(=O)(=O)[O-])c5F)c5ccc2[nH]5)C=C4)C=C3)cc1
REMARK SMILES IDX 21 1 20 2 19 3 18 4 16 5 17 6 2 8 1 9 3 10 4 12 5 13 6 14
REMARK SMILES IDX 7 15 8 16 12 17 9 18 11 19 10 20 13 21 15 22 14 23 22 24
REMARK SMILES IDX 23 25 24 26 25 27 26 28 27 30 28 31 29 32 90 33 30 34 89 35
REMARK SMILES IDX 31 36 32 37 33 38 83 39 34 40 88 41 82 42 84 43 35 44 87 45
REMARK SMILES IDX 81 46 80 47 36 49 68 50 48 51 67 52 49 53 52 54 66 55 85 56
REMARK SMILES IDX 50 57 51 58 65 60 86 61 53 62 37 63 38 64 46 65 39 66 41 67
REMARK SMILES IDX 47 68 40 69 42 70 43 71 44 72 45 73 69 74 70 75 78 76 71 77
REMARK SMILES IDX 73 78 79 79 72 80 74 81 75 82 76 83 77 84 54 85 55 86 63 87
REMARK SMILES IDX 56 88 58 89 64 90 57 91 59 92 60 93 61 94 62 95
REMARK H PARENT 18 7 3 11 25 29 84 48 52 59
REMARK Flexibility Score: inf
ROOT
ATOM      1  C   UNL A   1      35.099  24.152  25.371  1.00  0.00     0.002 C 
ENDROOT
BRANCH   1   2
ATOM      2  C   UNL A   1      33.968  25.121  25.734  1.00  0.00     0.021 C 
BRANCH   2   3
ATOM      3  C   UNL A   1      34.145  26.534  25.178  1.00  0.00     0.116 C 
BRANCH   3   4
ATOM      4  N   UNL A   1      32.863  27.176  24.942  1.00  0.00    -0.355 N 
ATOM      5  C   UNL A   1      32.353  27.766  23.823  1.00  0.00     0.237 C 
ATOM      6  O   UNL A   1      31.205  28.217  23.891  1.00  0.00    -0.273 OA
ATOM      7  H   UNL A   1      32.262  27.188  25.722  1.00  0.00     0.163 HD
BRANCH   5   8
ATOM      8  C   UNL A   1      33.163  27.883  22.531  1.00  0.00     0.155 C 
ATOM      9  C   UNL A   1      34.341  28.840  22.674  1.00  0.00     0.036 C 
BRANCH   8  10
ATOM     10  N   UNL A   1      33.600  26.568  22.041  1.00  0.00    -0.199 NA
ATOM     11  H   UNL A   1      33.958  26.055  22.847  1.00  0.00     0.142 HD
BRANCH  10  12
ATOM     12  S   UNL A   1      32.494  25.559  21.274  1.00  0.00     0.241 S 
ATOM     13  O   UNL A   1      31.290  26.329  21.049  1.00  0.00    -0.207 OA
ATOM     14  O   UNL A   1      33.208  24.941  20.179  1.00  0.00    -0.207 OA
BRANCH  12  15
ATOM     15  C   UNL A   1      32.145  24.283  22.457  1.00  0.00     0.082 A 
ATOM     16  C   UNL A   1      31.219  24.533  23.486  1.00  0.00     0.022 A 
ATOM     17  C   UNL A   1      32.831  23.068  22.384  1.00  0.00     0.025 A 
ATOM     18  C   UNL A   1      30.997  23.574  24.479  1.00  0.00     0.005 A 
ATOM     19  C   UNL A   1      32.631  22.147  23.399  1.00  0.00    -0.043 A 
ATOM     20  C   UNL A   1      31.720  22.394  24.431  1.00  0.00    -0.045 A 
ATOM     21  C   UNL A   1      33.370  20.870  23.642  1.00  0.00     0.036 C 
ATOM     22  C   UNL A   1      31.738  21.287  25.439  1.00  0.00     0.036 C 
ATOM     23  C   UNL A   1      32.474  20.177  24.675  1.00  0.00     0.010 C 
ENDBRANCH  12  15
ENDBRANCH  10  12
ENDBRANCH   8  10
ENDBRANCH   5   8
ENDBRANCH   3   4
ENDBRANCH   2   3
ENDBRANCH   1   2
BRANCH   1  24
ATOM     24  C   UNL A   1      35.305  22.998  26.356  1.00  0.00     0.002 C 
BRANCH  24  25
ATOM     25  C   UNL A   1      35.761  21.673  25.747  1.00  0.00     0.021 C 
BRANCH  25  26
ATOM     26  C   UNL A   1      37.095  21.724  25.015  1.00  0.00     0.116 C 
BRANCH  26  27
ATOM     27  N   UNL A   1      37.972  20.616  25.362  1.00  0.00    -0.352 N 
ATOM     28  C   UNL A   1      39.189  20.646  25.999  1.00  0.00     0.251 C 
ATOM     29  H   UNL A   1      37.649  19.722  25.106  1.00  0.00     0.163 HD
ATOM     30  O   UNL A   1      39.862  19.625  26.097  1.00  0.00    -0.269 OA
BRANCH  28  31
ATOM     31  C   UNL A   1      39.693  21.927  26.539  1.00  0.00     0.039 A 
ATOM     32  C   UNL A   1      40.727  21.905  27.478  1.00  0.00     0.014 A 
ATOM     33  C   UNL A   1      39.175  23.143  26.085  1.00  0.00     0.014 A 
ATOM     34  C   UNL A   1      41.295  23.107  27.904  1.00  0.00     0.010 A 
ATOM     35  C   UNL A   1      39.789  24.334  26.454  1.00  0.00     0.010 A 
ATOM     36  C   UNL A   1      40.857  24.328  27.364  1.00  0.00    -0.014 A 
BRANCH  36  37
ATOM     37  C   UNL A   1      41.526  25.608  27.705  1.00  0.00     0.031 A 
ATOM     38  C   UNL A   1      40.772  26.693  28.422  1.00  0.00     0.074 A 
ATOM     39  C   UNL A   1      42.778  25.838  27.263  1.00  0.00     0.049 A 
ATOM     40  N   UNL A   1      41.163  27.901  28.732  1.00  0.00    -0.248 NA
ATOM     41  C   UNL A   1      39.385  26.391  28.813  1.00  0.00     0.031 C 
ATOM     42  C   UNL A   1      43.577  24.904  26.467  1.00  0.00     0.029 A 
ATOM     43  N   UNL A   1      43.583  26.942  27.385  1.00  0.00    -0.354 N 
ATOM     44  C   UNL A   1      40.066  28.513  29.325  1.00  0.00     0.074 A 
ATOM     45  C   UNL A   1      38.982  27.557  29.295  1.00  0.00     0.031 C 
ATOM     46  C   UNL A   1      44.752  25.478  26.163  1.00  0.00     0.029 A 
ATOM     47  C   UNL A   1      44.783  26.826  26.723  1.00  0.00     0.049 A 
ATOM     48  H   UNL A   1      43.327  27.742  27.899  1.00  0.00     0.167 HD
ATOM     49  C   UNL A   1      39.979  29.746  29.877  1.00  0.00     0.034 A 
ATOM     50  C   UNL A   1      45.791  27.706  26.575  1.00  0.00     0.034 A 
ATOM     51  C   UNL A   1      41.073  30.677  29.948  1.00  0.00     0.049 A 
ATOM     52  C   UNL A   1      45.695  29.049  27.244  1.00  0.00     0.074 A 
ATOM     53  C   UNL A   1      41.119  31.907  30.580  1.00  0.00     0.029 A 
ATOM     54  N   UNL A   1      42.313  30.484  29.358  1.00  0.00    -0.354 N 
ATOM     55  N   UNL A   1      44.714  29.543  27.960  1.00  0.00    -0.248 NA
ATOM     56  C   UNL A   1      46.856  29.941  27.117  1.00  0.00     0.031 C 
ATOM     57  C   UNL A   1      42.385  32.462  30.362  1.00  0.00     0.029 A 
ATOM     58  C   UNL A   1      43.130  31.576  29.602  1.00  0.00     0.049 A 
ATOM     59  H   UNL A   1      42.575  29.687  28.842  1.00  0.00     0.167 HD
ATOM     60  C   UNL A   1      45.144  30.794  28.384  1.00  0.00     0.074 A 
ATOM     61  C   UNL A   1      46.487  30.970  27.869  1.00  0.00     0.031 C 
ATOM     62  C   UNL A   1      44.479  31.721  29.117  1.00  0.00     0.034 A 
BRANCH  49  63
ATOM     63  C   UNL A   1      38.669  30.125  30.516  1.00  0.00     0.023 A 
ATOM     64  C   UNL A   1      38.405  29.717  31.839  1.00  0.00     0.012 A 
ATOM     65  C   UNL A   1      37.716  30.902  29.830  1.00  0.00     0.148 A 
ATOM     66  C   UNL A   1      37.199  30.041  32.458  1.00  0.00     0.002 A 
ATOM     67  C   UNL A   1      36.531  31.256  30.468  1.00  0.00     0.091 A 
ATOM     68  F   UNL A   1      37.967  31.259  28.562  1.00  0.00    -0.205 F 
ATOM     69  C   UNL A   1      36.267  30.817  31.776  1.00  0.00     0.022 A 
BRANCH  67  70
ATOM     70  S   UNL A   1      35.303  32.311  29.690  1.00  0.00     0.127 S 
ATOM     71  O   UNL A   1      34.786  31.439  28.638  1.00  0.00    -0.237 OA
ATOM     72  O   UNL A   1      34.366  32.563  30.788  1.00  0.00    -0.237 OA
ATOM     73  O   UNL A   1      36.028  33.490  29.238  1.00  0.00    -0.744 OA
ENDBRANCH  67  70
ENDBRANCH  49  63
BRANCH  50  74
ATOM     74  C   UNL A   1      47.004  27.305  25.808  1.00  0.00     0.023 A 
ATOM     75  C   UNL A   1      47.926  26.415  26.391  1.00  0.00     0.012 A 
ATOM     76  C   UNL A   1      47.208  27.740  24.484  1.00  0.00     0.148 A 
ATOM     77  C   UNL A   1      49.040  25.978  25.674  1.00  0.00     0.002 A 
ATOM     78  C   UNL A   1      48.291  27.258  23.758  1.00  0.00     0.091 A 
ATOM     79  F   UNL A   1      46.324  28.598  23.954  1.00  0.00    -0.205 F 
ATOM     80  C   UNL A   1      49.217  26.388  24.355  1.00  0.00     0.022 A 
BRANCH  78  81
ATOM     81  S   UNL A   1      48.512  27.621  22.012  1.00  0.00     0.127 S 
ATOM     82  O   UNL A   1      48.707  26.286  21.452  1.00  0.00    -0.237 OA
ATOM     83  O   UNL A   1      47.238  28.253  21.670  1.00  0.00    -0.237 OA
ATOM     84  O   UNL A   1      49.661  28.514  21.940  1.00  0.00    -0.744 OA
ENDBRANCH  78  81
ENDBRANCH  50  74
BRANCH  62  85
ATOM     85  C   UNL A   1      45.188  33.018  29.406  1.00  0.00     0.023 A 
ATOM     86  C   UNL A   1      46.014  33.116  30.543  1.00  0.00     0.012 A 
ATOM     87  C   UNL A   1      45.099  34.108  28.518  1.00  0.00     0.148 A 
ATOM     88  C   UNL A   1      46.723  34.286  30.806  1.00  0.00     0.002 A 
ATOM     89  C   UNL A   1      45.841  35.258  28.765  1.00  0.00     0.091 A 
ATOM     90  F   UNL A   1      44.290  34.003  27.454  1.00  0.00    -0.205 F 
ATOM     91  C   UNL A   1      46.646  35.352  29.912  1.00  0.00     0.022 A 
BRANCH  89  92
ATOM     92  S   UNL A   1      45.872  36.645  27.624  1.00  0.00     0.127 S 
ATOM     93  O   UNL A   1      44.447  36.933  27.466  1.00  0.00    -0.237 OA
ATOM     94  O   UNL A   1      46.618  37.654  28.377  1.00  0.00    -0.237 OA
ATOM     95  O   UNL A   1      46.551  36.163  26.428  1.00  0.00    -0.744 OA
ENDBRANCH  89  92
ENDBRANCH  62  85
ENDBRANCH  36  37
ENDBRANCH  28  31
ENDBRANCH  26  27
ENDBRANCH  25  26
ENDBRANCH  24  25
ENDBRANCH   1  24
TORSDOF 19
ENDMDL
MODEL 2
REMARK VINA RESULT:     -11.5      2.096      8.184
REMARK SMILES C[C@@H](NS(=O)(=O)c1ccc2c(c1)CCC2)C(=O)NCCCCCCNC(=O)c1ccc(-c2c3nc(c(-c4cccc(S(=O)(=O)[O-])c4F)c4ccc([nH]4)c(-c4cccc(S(=O)(=O)[O-])c4F)c4nc(c(-c5cccc(S(=O)(=O)[O-])c5F)c5ccc2[nH]5)C=C4)C=C3)cc1
REMARK SMILES IDX 21 1 20 2 19 3 18 4 16 5 17 6 2 8 1 9 3 10 4 12 5 13 6 14
REMARK SMILES IDX 7 15 8 16 12 17 9 18 11 19 10 20 13 21 15 22 14 23 22 24
REMARK SMILES IDX 23 25 24 26 25 27 26 28 27 30 28 31 29 32 90 33 30 34 89 35
REMARK SMILES IDX 31 36 32 37 33 38 83 39 34 40 88 41 82 42 84 43 35 44 87 45
REMARK SMILES IDX 81 46 80 47 36 49 68 50 48 51 67 52 49 53 52 54 66 55 85 56
REMARK SMILES IDX 50 57 51 58 65 60 86 61 53 62 37 63 38 64 46 65 39 66 41 67
REMARK SMILES IDX 47 68 40 69 42 70 43 71 44 72 45 73 69 74 70 75 78 76 71 77
REMARK SMILES IDX 73 78 79 79 72 80 74 81 75 82 76 83 77 84 54 85 55 86 63 87
REMARK SMILES IDX 56 88 58 89 64 90 57 91 59 92 60 93 61 94 62 95
REMARK H PARENT 18 7 3 11 25 29 84 48 52 59
REMARK Flexibility Score: inf
ROOT
ATOM      1  C   UNL A   1      33.125  21.693  25.108  1.00  0.00     0.002 C 
ENDROOT
BRANCH   1   2
ATOM      2  C   UNL A   1      33.142  21.973  23.601  1.00  0.00     0.021 C 
BRANCH   2   3
ATOM      3  C   UNL A   1      32.075  22.961  23.131  1.00  0.00     0.116 C 
BRANCH   3   4
ATOM      4  N   UNL A   1      32.620  23.924  22.189  1.00  0.00    -0.355 N 
ATOM      5  C   UNL A   1      33.228  25.127  22.395  1.00  0.00     0.237 C 
ATOM      6  O   UNL A   1      33.629  25.740  21.401  1.00  0.00    -0.273 OA
ATOM      7  H   UNL A   1      32.537  23.664  21.243  1.00  0.00     0.163 HD
BRANCH   5   8
ATOM      8  C   UNL A   1      33.402  25.715  23.797  1.00  0.00     0.155 C 
ATOM      9  C   UNL A   1      34.639  25.168  24.501  1.00  0.00     0.036 C 
BRANCH   8  10
ATOM     10  N   UNL A   1      33.407  27.185  23.774  1.00  0.00    -0.199 NA
ATOM     11  H   UNL A   1      32.935  27.469  22.915  1.00  0.00     0.142 HD
BRANCH  10  12
ATOM     12  S   UNL A   1      32.684  28.037  25.030  1.00  0.00     0.241 S 
ATOM     13  O   UNL A   1      32.452  27.102  26.110  1.00  0.00    -0.207 OA
ATOM     14  O   UNL A   1      33.487  29.224  25.223  1.00  0.00    -0.207 OA
BRANCH  12  15
ATOM     15  C   UNL A   1      31.118  28.564  24.383  1.00  0.00     0.082 A 
ATOM     16  C   UNL A   1      30.300  27.634  23.719  1.00  0.00     0.022 A 
ATOM     17  C   UNL A   1      30.742  29.905  24.495  1.00  0.00     0.025 A 
ATOM     18  C   UNL A   1      29.104  28.048  23.124  1.00  0.00     0.005 A 
ATOM     19  C   UNL A   1      29.577  30.307  23.863  1.00  0.00    -0.043 A 
ATOM     20  C   UNL A   1      28.764  29.389  23.191  1.00  0.00    -0.045 A 
ATOM     21  C   UNL A   1      29.060  31.699  23.684  1.00  0.00     0.036 C 
ATOM     22  C   UNL A   1      27.608  30.076  22.533  1.00  0.00     0.036 C 
ATOM     23  C   UNL A   1      27.619  31.446  23.227  1.00  0.00     0.010 C 
ENDBRANCH  12  15
ENDBRANCH  10  12
ENDBRANCH   8  10
ENDBRANCH   5   8
ENDBRANCH   3   4
ENDBRANCH   2   3
ENDBRANCH   1   2
BRANCH   1  24
ATOM     24  C   UNL A   1      34.492  21.757  25.795  1.00  0.00     0.002 C 
BRANCH  24  25
ATOM     25  C   UNL A   1      35.626  21.011  25.097  1.00  0.00     0.021 C 
BRANCH  25  26
ATOM     26  C   UNL A   1      37.011  21.614  25.292  1.00  0.00     0.116 C 
BRANCH  26  27
ATOM     27  N   UNL A   1      38.032  20.608  25.551  1.00  0.00    -0.352 N 
ATOM     28  C   UNL A   1      39.297  20.775  26.061  1.00  0.00     0.251 C 
ATOM     29  H   UNL A   1      37.782  19.682  25.329  1.00  0.00     0.163 HD
ATOM     30  O   UNL A   1      40.081  19.832  26.091  1.00  0.00    -0.269 OA
BRANCH  28  31
ATOM     31  C   UNL A   1      39.713  22.108  26.546  1.00  0.00     0.039 A 
ATOM     32  C   UNL A   1      40.736  22.195  27.494  1.00  0.00     0.014 A 
ATOM     33  C   UNL A   1      39.124  23.267  26.033  1.00  0.00     0.014 A 
ATOM     34  C   UNL A   1      41.222  23.449  27.869  1.00  0.00     0.010 A 
ATOM     35  C   UNL A   1      39.657  24.510  26.353  1.00  0.00     0.010 A 
ATOM     36  C   UNL A   1      40.713  24.613  27.271  1.00  0.00    -0.014 A 
BRANCH  36  37
ATOM     37  C   UNL A   1      41.296  25.948  27.559  1.00  0.00     0.031 A 
ATOM     38  C   UNL A   1      42.707  26.266  27.153  1.00  0.00     0.074 A 
ATOM     39  C   UNL A   1      40.590  26.832  28.292  1.00  0.00     0.049 A 
ATOM     40  N   UNL A   1      43.409  27.343  27.389  1.00  0.00    -0.248 NA
ATOM     41  C   UNL A   1      43.437  25.223  26.414  1.00  0.00     0.031 C 
ATOM     42  C   UNL A   1      39.249  26.601  28.833  1.00  0.00     0.029 A 
ATOM     43  N   UNL A   1      40.918  28.086  28.742  1.00  0.00    -0.354 N 
ATOM     44  C   UNL A   1      44.668  27.099  26.856  1.00  0.00     0.074 A 
ATOM     45  C   UNL A   1      44.646  25.755  26.320  1.00  0.00     0.031 C 
ATOM     46  C   UNL A   1      38.874  27.671  29.550  1.00  0.00     0.029 A 
ATOM     47  C   UNL A   1      39.952  28.655  29.538  1.00  0.00     0.049 A 
ATOM     48  H   UNL A   1      41.763  28.536  28.515  1.00  0.00     0.167 HD
ATOM     49  C   UNL A   1      45.735  27.929  26.786  1.00  0.00     0.034 A 
ATOM     50  C   UNL A   1      39.937  29.832  30.193  1.00  0.00     0.034 A 
ATOM     51  C   UNL A   1      45.739  29.280  27.276  1.00  0.00     0.049 A 
ATOM     52  C   UNL A   1      41.111  30.761  30.054  1.00  0.00     0.074 A 
ATOM     53  C   UNL A   1      46.730  30.238  27.158  1.00  0.00     0.029 A 
ATOM     54  N   UNL A   1      44.701  29.865  27.987  1.00  0.00    -0.354 N 
ATOM     55  N   UNL A   1      42.227  30.584  29.390  1.00  0.00    -0.248 NA
ATOM     56  C   UNL A   1      41.011  32.066  30.723  1.00  0.00     0.031 C 
ATOM     57  C   UNL A   1      46.296  31.399  27.809  1.00  0.00     0.029 A 
ATOM     58  C   UNL A   1      45.031  31.167  28.324  1.00  0.00     0.049 A 
ATOM     59  H   UNL A   1      43.853  29.420  28.218  1.00  0.00     0.167 HD
ATOM     60  C   UNL A   1      42.954  31.757  29.544  1.00  0.00     0.074 A 
ATOM     61  C   UNL A   1      42.139  32.651  30.342  1.00  0.00     0.031 C 
ATOM     62  C   UNL A   1      44.193  32.060  29.084  1.00  0.00     0.034 A 
BRANCH  49  63
ATOM     63  C   UNL A   1      46.965  27.414  26.084  1.00  0.00     0.023 A 
ATOM     64  C   UNL A   1      47.101  27.618  24.696  1.00  0.00     0.012 A 
ATOM     65  C   UNL A   1      47.993  26.761  26.790  1.00  0.00     0.148 A 
ATOM     66  C   UNL A   1      48.220  27.146  24.012  1.00  0.00     0.002 A 
ATOM     67  C   UNL A   1      49.126  26.328  26.109  1.00  0.00     0.091 A 
ATOM     68  F   UNL A   1      47.838  26.549  28.105  1.00  0.00    -0.205 F 
ATOM     69  C   UNL A   1      49.236  26.510  24.720  1.00  0.00     0.022 A 
BRANCH  67  70
ATOM     70  S   UNL A   1      50.516  25.561  26.950  1.00  0.00     0.127 S 
ATOM     71  O   UNL A   1      50.917  26.614  27.880  1.00  0.00    -0.237 OA
ATOM     72  O   UNL A   1      49.895  24.395  27.582  1.00  0.00    -0.237 OA
ATOM     73  O   UNL A   1      51.476  25.237  25.906  1.00  0.00    -0.744 OA
ENDBRANCH  67  70
ENDBRANCH  49  63
BRANCH  50  74
ATOM     74  C   UNL A   1      38.734  30.213  30.983  1.00  0.00     0.023 A 
ATOM     75  C   UNL A   1      38.674  29.887  32.351  1.00  0.00     0.012 A 
ATOM     76  C   UNL A   1      37.687  30.958  30.406  1.00  0.00     0.148 A 
ATOM     77  C   UNL A   1      37.584  30.281  33.128  1.00  0.00     0.002 A 
ATOM     78  C   UNL A   1      36.631  31.394  31.198  1.00  0.00     0.091 A 
ATOM     79  F   UNL A   1      37.758  31.247  29.098  1.00  0.00    -0.205 F 
ATOM     80  C   UNL A   1      36.570  31.045  32.556  1.00  0.00     0.022 A 
BRANCH  78  81
ATOM     81  S   UNL A   1      35.359  32.501  30.577  1.00  0.00     0.127 S 
ATOM     82  O   UNL A   1      35.061  31.913  29.273  1.00  0.00    -0.237 OA
ATOM     83  O   UNL A   1      34.305  32.345  31.580  1.00  0.00    -0.237 OA
ATOM     84  O   UNL A   1      35.968  33.824  30.552  1.00  0.00    -0.744 OA
ENDBRANCH  78  81
ENDBRANCH  50  74
BRANCH  62  85
ATOM     85  C   UNL A   1      44.754  33.413  29.433  1.00  0.00     0.023 A 
ATOM     86  C   UNL A   1      45.516  33.564  30.608  1.00  0.00     0.012 A 
ATOM     87  C   UNL A   1      44.593  34.512  28.566  1.00  0.00     0.148 A 
ATOM     88  C   UNL A   1      46.090  34.792  30.929  1.00  0.00     0.002 A 
ATOM     89  C   UNL A   1      45.204  35.723  28.871  1.00  0.00     0.091 A 
ATOM     90  F   UNL A   1      43.846  34.354  27.464  1.00  0.00    -0.205 F 
ATOM     91  C   UNL A   1      45.945  35.867  30.055  1.00  0.00     0.022 A 
BRANCH  89  92
ATOM     92  S   UNL A   1      45.143  37.136  27.763  1.00  0.00     0.127 S 
ATOM     93  O   UNL A   1      43.712  37.230  27.478  1.00  0.00    -0.237 OA
ATOM     94  O   UNL A   1      45.670  38.214  28.600  1.00  0.00    -0.237 OA
ATOM     95  O   UNL A   1      45.988  36.788  26.627  1.00  0.00    -0.744 OA
ENDBRANCH  89  92
ENDBRANCH  62  85
ENDBRANCH  36  37
ENDBRANCH  28  31
ENDBRANCH  26  27
ENDBRANCH  25  26
ENDBRANCH  24  25
ENDBRANCH   1  24
TORSDOF 19
ENDMDL
MODEL 3
REMARK VINA RESULT:     -11.4      5.482     10.522
REMARK SMILES C[C@@H](NS(=O)(=O)c1ccc2c(c1)CCC2)C(=O)NCCCCCCNC(=O)c1ccc(-c2c3nc(c(-c4cccc(S(=O)(=O)[O-])c4F)c4ccc([nH]4)c(-c4cccc(S(=O)(=O)[O-])c4F)c4nc(c(-c5cccc(S(=O)(=O)[O-])c5F)c5ccc2[nH]5)C=C4)C=C3)cc1
REMARK SMILES IDX 21 1 20 2 19 3 18 4 16 5 17 6 2 8 1 9 3 10 4 12 5 13 6 14
REMARK SMILES IDX 7 15 8 16 12 17 9 18 11 19 10 20 13 21 15 22 14 23 22 24
REMARK SMILES IDX 23 25 24 26 25 27 26 28 27 30 28 31 29 32 90 33 30 34 89 35
REMARK SMILES IDX 31 36 32 37 33 38 83 39 34 40 88 41 82 42 84 43 35 44 87 45
REMARK SMILES IDX 81 46 80 47 36 49 68 50 48 51 67 52 49 53 52 54 66 55 85 56
REMARK SMILES IDX 50 57 51 58 65 60 86 61 53 62 37 63 38 64 46 65 39 66 41 67
REMARK SMILES IDX 47 68 40 69 42 70 43 71 44 72 45 73 69 74 70 75 78 76 71 77
REMARK SMILES IDX 73 78 79 79 72 80 74 81 75 82 76 83 77 84 54 85 55 86 63 87
REMARK SMILES IDX 56 88 58 89 64 90 57 91 59 92 60 93 61 94 62 95
REMARK H PARENT 18 7 3 11 25 29 84 48 52 59
REMARK Flexibility Score: inf
ROOT
ATOM      1  C   UNL A   1      31.814  29.533  27.015  1.00  0.00     0.002 C 
ENDROOT
BRANCH   1   2
ATOM      2  C   UNL A   1      31.572  28.192  26.310  1.00  0.00     0.021 C 
BRANCH   2   3
ATOM      3  C   UNL A   1      32.829  27.342  26.124  1.00  0.00     0.116 C 
BRANCH   3   4
ATOM      4  N   UNL A   1      32.562  25.936  26.380  1.00  0.00    -0.355 N 
ATOM      5  C   UNL A   1      32.941  24.818  25.698  1.00  0.00     0.237 C 
ATOM      6  O   UNL A   1      32.594  23.726  26.159  1.00  0.00    -0.273 OA
ATOM      7  H   UNL A   1      32.015  25.763  27.180  1.00  0.00     0.163 HD
BRANCH   5   8
ATOM      8  C   UNL A   1      33.754  24.897  24.404  1.00  0.00     0.155 C 
ATOM      9  C   UNL A   1      34.823  23.813  24.329  1.00  0.00     0.036 C 
BRANCH   8  10
ATOM     10  N   UNL A   1      32.888  24.877  23.215  1.00  0.00    -0.199 NA
ATOM     11  H   UNL A   1      31.954  24.618  23.533  1.00  0.00     0.142 HD
BRANCH  10  12
ATOM     12  S   UNL A   1      32.718  26.270  22.290  1.00  0.00     0.241 S 
ATOM     13  O   UNL A   1      33.748  27.196  22.709  1.00  0.00    -0.207 OA
ATOM     14  O   UNL A   1      32.617  25.829  20.916  1.00  0.00    -0.207 OA
BRANCH  12  15
ATOM     15  C   UNL A   1      31.135  26.931  22.745  1.00  0.00     0.082 A 
ATOM     16  C   UNL A   1      30.224  26.117  23.441  1.00  0.00     0.022 A 
ATOM     17  C   UNL A   1      30.795  28.230  22.360  1.00  0.00     0.025 A 
ATOM     18  C   UNL A   1      28.940  26.588  23.729  1.00  0.00     0.005 A 
ATOM     19  C   UNL A   1      29.504  28.665  22.616  1.00  0.00    -0.043 A 
ATOM     20  C   UNL A   1      28.590  27.857  23.298  1.00  0.00    -0.045 A 
ATOM     21  C   UNL A   1      28.849  29.926  22.150  1.00  0.00     0.036 C 
ATOM     22  C   UNL A   1      27.249  28.518  23.385  1.00  0.00     0.036 C 
ATOM     23  C   UNL A   1      27.591  29.971  23.024  1.00  0.00     0.010 C 
ENDBRANCH  12  15
ENDBRANCH  10  12
ENDBRANCH   8  10
ENDBRANCH   5   8
ENDBRANCH   3   4
ENDBRANCH   2   3
ENDBRANCH   1   2
BRANCH   1  24
ATOM     24  C   UNL A   1      31.607  30.772  26.140  1.00  0.00     0.002 C 
BRANCH  24  25
ATOM     25  C   UNL A   1      31.450  32.096  26.883  1.00  0.00     0.021 C 
BRANCH  25  26
ATOM     26  C   UNL A   1      32.722  32.925  27.003  1.00  0.00     0.116 C 
BRANCH  26  27
ATOM     27  N   UNL A   1      32.524  34.156  27.753  1.00  0.00    -0.352 N 
ATOM     28  C   UNL A   1      33.201  34.610  28.859  1.00  0.00     0.251 C 
ATOM     29  H   UNL A   1      31.807  34.745  27.423  1.00  0.00     0.163 HD
ATOM     30  O   UNL A   1      32.817  35.614  29.452  1.00  0.00    -0.269 OA
BRANCH  28  31
ATOM     31  C   UNL A   1      34.378  33.861  29.347  1.00  0.00     0.039 A 
ATOM     32  C   UNL A   1      35.653  34.260  28.936  1.00  0.00     0.014 A 
ATOM     33  C   UNL A   1      34.224  32.797  30.240  1.00  0.00     0.014 A 
ATOM     34  C   UNL A   1      36.778  33.640  29.484  1.00  0.00     0.010 A 
ATOM     35  C   UNL A   1      35.344  32.231  30.838  1.00  0.00     0.010 A 
ATOM     36  C   UNL A   1      36.631  32.649  30.469  1.00  0.00    -0.014 A 
BRANCH  36  37
ATOM     37  C   UNL A   1      37.809  32.063  31.156  1.00  0.00     0.031 A 
ATOM     38  C   UNL A   1      38.553  30.911  30.541  1.00  0.00     0.074 A 
ATOM     39  C   UNL A   1      38.135  32.493  32.391  1.00  0.00     0.049 A 
ATOM     40  N   UNL A   1      39.551  30.220  31.028  1.00  0.00    -0.248 NA
ATOM     41  C   UNL A   1      38.094  30.454  29.219  1.00  0.00     0.031 C 
ATOM     42  C   UNL A   1      37.425  33.533  33.137  1.00  0.00     0.029 A 
ATOM     43  N   UNL A   1      39.121  32.081  33.252  1.00  0.00    -0.354 N 
ATOM     44  C   UNL A   1      39.820  29.231  30.091  1.00  0.00     0.074 A 
ATOM     45  C   UNL A   1      38.854  29.386  29.025  1.00  0.00     0.031 C 
ATOM     46  C   UNL A   1      37.990  33.671  34.346  1.00  0.00     0.029 A 
ATOM     47  C   UNL A   1      39.088  32.716  34.471  1.00  0.00     0.049 A 
ATOM     48  H   UNL A   1      39.788  31.396  33.019  1.00  0.00     0.167 HD
ATOM     49  C   UNL A   1      40.803  28.301  30.099  1.00  0.00     0.034 A 
ATOM     50  C   UNL A   1      39.848  32.544  35.570  1.00  0.00     0.034 A 
ATOM     51  C   UNL A   1      41.790  28.180  31.137  1.00  0.00     0.049 A 
ATOM     52  C   UNL A   1      40.970  31.544  35.534  1.00  0.00     0.074 A 
ATOM     53  C   UNL A   1      42.891  27.343  31.187  1.00  0.00     0.029 A 
ATOM     54  N   UNL A   1      41.793  28.913  32.314  1.00  0.00    -0.354 N 
ATOM     55  N   UNL A   1      41.324  30.739  34.562  1.00  0.00    -0.248 NA
ATOM     56  C   UNL A   1      41.819  31.453  36.730  1.00  0.00     0.031 C 
ATOM     57  C   UNL A   1      43.552  27.563  32.401  1.00  0.00     0.029 A 
ATOM     58  C   UNL A   1      42.869  28.543  33.103  1.00  0.00     0.049 A 
ATOM     59  H   UNL A   1      41.127  29.599  32.553  1.00  0.00     0.167 HD
ATOM     60  C   UNL A   1      42.446  30.059  35.019  1.00  0.00     0.074 A 
ATOM     61  C   UNL A   1      42.730  30.568  36.346  1.00  0.00     0.031 C 
ATOM     62  C   UNL A   1      43.163  29.086  34.404  1.00  0.00     0.034 A 
BRANCH  49  63
ATOM     63  C   UNL A   1      40.899  27.388  28.904  1.00  0.00     0.023 A 
ATOM     64  C   UNL A   1      40.025  26.286  28.810  1.00  0.00     0.012 A 
ATOM     65  C   UNL A   1      41.820  27.629  27.868  1.00  0.00     0.148 A 
ATOM     66  C   UNL A   1      40.091  25.414  27.725  1.00  0.00     0.002 A 
ATOM     67  C   UNL A   1      41.854  26.779  26.768  1.00  0.00     0.091 A 
ATOM     68  F   UNL A   1      42.664  28.665  27.985  1.00  0.00    -0.205 F 
ATOM     69  C   UNL A   1      41.000  25.666  26.700  1.00  0.00     0.022 A 
BRANCH  67  70
ATOM     70  S   UNL A   1      42.944  27.065  25.369  1.00  0.00     0.127 S 
ATOM     71  O   UNL A   1      44.226  27.293  26.033  1.00  0.00    -0.237 OA
ATOM     72  O   UNL A   1      42.853  25.801  24.637  1.00  0.00    -0.237 OA
ATOM     73  O   UNL A   1      42.384  28.209  24.663  1.00  0.00    -0.744 OA
ENDBRANCH  67  70
ENDBRANCH  49  63
BRANCH  50  74
ATOM     74  C   UNL A   1      39.603  33.395  36.767  1.00  0.00     0.023 A 
ATOM     75  C   UNL A   1      40.010  34.742  36.753  1.00  0.00     0.012 A 
ATOM     76  C   UNL A   1      38.905  32.898  37.886  1.00  0.00     0.148 A 
ATOM     77  C   UNL A   1      39.741  35.576  37.839  1.00  0.00     0.002 A 
ATOM     78  C   UNL A   1      38.594  33.748  38.940  1.00  0.00     0.091 A 
ATOM     79  F   UNL A   1      38.538  31.607  37.884  1.00  0.00    -0.205 F 
ATOM     80  C   UNL A   1      39.023  35.084  38.926  1.00  0.00     0.022 A 
BRANCH  78  81
ATOM     81  S   UNL A   1      37.550  33.235  40.310  1.00  0.00     0.127 S 
ATOM     82  O   UNL A   1      37.545  34.432  41.147  1.00  0.00    -0.237 OA
ATOM     83  O   UNL A   1      36.283  32.950  39.634  1.00  0.00    -0.237 OA
ATOM     84  O   UNL A   1      38.199  32.063  40.880  1.00  0.00    -0.744 OA
ENDBRANCH  78  81
ENDBRANCH  50  74
BRANCH  62  85
ATOM     85  C   UNL A   1      44.327  28.499  35.158  1.00  0.00     0.023 A 
ATOM     86  C   UNL A   1      44.128  27.356  35.956  1.00  0.00     0.012 A 
ATOM     87  C   UNL A   1      45.625  29.027  35.016  1.00  0.00     0.148 A 
ATOM     88  C   UNL A   1      45.197  26.760  36.622  1.00  0.00     0.002 A 
ATOM     89  C   UNL A   1      46.695  28.403  35.650  1.00  0.00     0.091 A 
ATOM     90  F   UNL A   1      45.791  30.128  34.269  1.00  0.00    -0.205 F 
ATOM     91  C   UNL A   1      46.481  27.275  36.460  1.00  0.00     0.022 A 
BRANCH  89  92
ATOM     92  S   UNL A   1      48.393  28.945  35.428  1.00  0.00     0.127 S 
ATOM     93  O   UNL A   1      48.358  30.283  36.016  1.00  0.00    -0.237 OA
ATOM     94  O   UNL A   1      49.141  27.957  36.205  1.00  0.00    -0.237 OA
ATOM     95  O   UNL A   1      48.642  28.896  33.993  1.00  0.00    -0.744 OA
ENDBRANCH  89  92
ENDBRANCH  62  85
ENDBRANCH  36  37
ENDBRANCH  28  31
ENDBRANCH  26  27
ENDBRANCH  25  26
ENDBRANCH  24  25
ENDBRANCH   1  24
TORSDOF 19
ENDMDL
