MODEL 1
REMARK VINA RESULT:     -12.0      0.000      0.000
REMARK SMILES CN1C(=O)C[C@@H](C(=O)NCCCCCCNC(=O)c2ccc(-c3c4nc(c(-c5cccc(S(=O)(=O)[O-])c5F)c5ccc([nH]5)c(-c5cccc(S(=O)(=O)[O-])c5F)c5nc(c(-c6cccc(S(=O)(=O)[O-])c6F)c6ccc3[nH]6)C=C5)C=C4)cc2)C12CCN(C(=O)c1ccccc1-n1cccn1)CC2
REMARK SMILES IDX 13 1 12 2 11 3 10 4 9 5 7 6 8 7 6 9 1 10 2 11 3 12 82 13
REMARK SMILES IDX 4 14 5 15 83 16 100 17 84 18 99 19 85 20 86 21 87 22 88 23
REMARK SMILES IDX 89 24 93 25 90 26 92 27 91 28 94 29 95 30 98 31 96 32 97 33
REMARK SMILES IDX 14 34 15 35 16 36 17 37 18 39 19 40 20 41 81 42 21 43 80 44
REMARK SMILES IDX 22 45 23 46 24 47 74 48 25 49 79 50 73 51 75 52 26 53 78 54
REMARK SMILES IDX 72 55 71 56 27 58 59 59 39 60 58 61 40 62 43 63 57 64 76 65
REMARK SMILES IDX 41 66 42 67 56 69 77 70 44 71 28 72 29 73 37 74 30 75 32 76
REMARK SMILES IDX 38 77 31 78 33 79 34 80 35 81 36 82 60 83 61 84 69 85 62 86
REMARK SMILES IDX 64 87 70 88 63 89 65 90 66 91 67 92 68 93 45 94 46 95 54 96
REMARK SMILES IDX 47 97 49 98 55 99 48 100 50 101 51 102 52 103 53 104
REMARK H PARENT 9 8 16 38 75 57 43 68
REMARK Flexibility Score: inf
ROOT
ATOM      1  C   UNL A   1      35.391  32.903  28.002  1.00  0.00     0.002 C 
ENDROOT
BRANCH   1   2
ATOM      2  C   UNL A   1      34.530  31.677  27.693  1.00  0.00     0.002 C 
BRANCH   2   3
ATOM      3  C   UNL A   1      35.108  30.360  28.211  1.00  0.00     0.021 C 
BRANCH   3   4
ATOM      4  C   UNL A   1      34.808  29.147  27.325  1.00  0.00     0.116 C 
BRANCH   4   5
ATOM      5  N   UNL A   1      33.484  28.579  27.534  1.00  0.00    -0.356 N 
ATOM      6  C   UNL A   1      32.486  28.197  26.697  1.00  0.00     0.226 C 
ATOM      7  O   UNL A   1      31.486  27.702  27.236  1.00  0.00    -0.275 OA
ATOM      8  H   UNL A   1      33.267  28.443  28.485  1.00  0.00     0.163 HD
BRANCH   6   9
ATOM      9  C   UNL A   1      32.476  28.370  25.171  1.00  0.00     0.113 C 
ATOM     10  C   UNL A   1      29.305  27.164  23.623  1.00  0.00     0.147 C 
ATOM     11  N   UNL A   1      30.487  27.875  24.071  1.00  0.00    -0.339 N 
ATOM     12  C   UNL A   1      30.513  29.265  24.146  1.00  0.00     0.223 C 
ATOM     13  C   UNL A   1      31.798  27.263  24.332  1.00  0.00     0.058 C 
ATOM     14  O   UNL A   1      29.619  30.030  23.841  1.00  0.00    -0.275 OA
ATOM     15  C   UNL A   1      31.834  29.683  24.728  1.00  0.00     0.116 C 
ATOM     16  C   UNL A   1      31.749  25.911  25.065  1.00  0.00     0.051 C 
ATOM     17  C   UNL A   1      32.506  27.043  22.957  1.00  0.00     0.051 C 
ATOM     18  C   UNL A   1      33.108  25.234  25.160  1.00  0.00     0.122 C 
ATOM     19  C   UNL A   1      33.795  26.218  23.035  1.00  0.00     0.122 C 
ATOM     20  N   UNL A   1      33.599  24.998  23.814  1.00  0.00    -0.338 N 
ATOM     21  C   UNL A   1      33.857  23.750  23.250  1.00  0.00     0.256 C 
ATOM     22  O   UNL A   1      34.293  23.594  22.113  1.00  0.00    -0.269 OA
BRANCH  21  23
ATOM     23  C   UNL A   1      33.658  22.527  24.068  1.00  0.00     0.065 A 
ATOM     24  C   UNL A   1      32.415  21.893  23.907  1.00  0.00     0.016 A 
ATOM     25  C   UNL A   1      34.633  21.938  24.889  1.00  0.00     0.077 A 
ATOM     26  C   UNL A   1      32.153  20.671  24.531  1.00  0.00     0.001 A 
ATOM     27  C   UNL A   1      34.377  20.679  25.468  1.00  0.00     0.029 A 
ATOM     28  C   UNL A   1      33.139  20.058  25.300  1.00  0.00     0.002 A 
BRANCH  25  29
ATOM     29  N   UNL A   1      35.877  22.549  25.180  1.00  0.00    -0.240 N 
ATOM     30  C   UNL A   1      37.112  22.308  24.619  1.00  0.00     0.115 A 
ATOM     31  N   UNL A   1      35.949  23.527  26.124  1.00  0.00    -0.177 NA
ATOM     32  C   UNL A   1      38.012  23.132  25.254  1.00  0.00     0.042 A 
ATOM     33  C   UNL A   1      37.242  23.846  26.185  1.00  0.00     0.135 A 
ENDBRANCH  25  29
ENDBRANCH  21  23
ENDBRANCH   6   9
ENDBRANCH   4   5
ENDBRANCH   3   4
ENDBRANCH   2   3
ENDBRANCH   1   2
BRANCH   1  34
ATOM     34  C   UNL A   1      34.618  34.224  28.083  1.00  0.00     0.021 C 
BRANCH  34  35
ATOM     35  C   UNL A   1      33.210  34.099  28.659  1.00  0.00     0.116 C 
BRANCH  35  36
ATOM     36  N   UNL A   1      32.977  35.074  29.713  1.00  0.00    -0.352 N 
ATOM     37  C   UNL A   1      33.505  35.121  30.977  1.00  0.00     0.251 C 
ATOM     38  H   UNL A   1      32.353  35.800  29.486  1.00  0.00     0.163 HD
ATOM     39  O   UNL A   1      33.004  35.853  31.825  1.00  0.00    -0.269 OA
BRANCH  37  40
ATOM     40  C   UNL A   1      34.675  34.284  31.311  1.00  0.00     0.039 A 
ATOM     41  C   UNL A   1      35.956  34.802  31.115  1.00  0.00     0.014 A 
ATOM     42  C   UNL A   1      34.504  32.986  31.801  1.00  0.00     0.014 A 
ATOM     43  C   UNL A   1      37.069  34.030  31.455  1.00  0.00     0.010 A 
ATOM     44  C   UNL A   1      35.612  32.249  32.209  1.00  0.00     0.010 A 
ATOM     45  C   UNL A   1      36.907  32.758  32.028  1.00  0.00    -0.014 A 
BRANCH  45  46
ATOM     46  C   UNL A   1      38.082  31.952  32.450  1.00  0.00     0.031 A 
ATOM     47  C   UNL A   1      38.809  32.280  33.728  1.00  0.00     0.074 A 
ATOM     48  C   UNL A   1      38.542  30.976  31.641  1.00  0.00     0.049 A 
ATOM     49  N   UNL A   1      39.877  31.719  34.231  1.00  0.00    -0.248 NA
ATOM     50  C   UNL A   1      38.286  33.397  34.533  1.00  0.00     0.031 C 
ATOM     51  C   UNL A   1      37.972  30.617  30.340  1.00  0.00     0.029 A 
ATOM     52  N   UNL A   1      39.610  30.125  31.779  1.00  0.00    -0.354 N 
ATOM     53  C   UNL A   1      40.180  32.438  35.381  1.00  0.00     0.074 A 
ATOM     54  C   UNL A   1      39.193  33.488  35.496  1.00  0.00     0.031 C 
ATOM     55  C   UNL A   1      38.698  29.626  29.798  1.00  0.00     0.029 A 
ATOM     56  C   UNL A   1      39.804  29.301  30.694  1.00  0.00     0.049 A 
ATOM     57  H   UNL A   1      40.184  30.106  32.579  1.00  0.00     0.167 HD
ATOM     58  C   UNL A   1      41.178  32.229  36.271  1.00  0.00     0.034 A 
ATOM     59  C   UNL A   1      40.773  28.399  30.439  1.00  0.00     0.034 A 
ATOM     60  C   UNL A   1      42.125  31.152  36.182  1.00  0.00     0.049 A 
ATOM     61  C   UNL A   1      41.840  28.162  31.475  1.00  0.00     0.074 A 
ATOM     62  C   UNL A   1      43.099  30.790  37.096  1.00  0.00     0.029 A 
ATOM     63  N   UNL A   1      42.233  30.277  35.114  1.00  0.00    -0.354 N 
ATOM     64  N   UNL A   1      41.997  28.732  32.645  1.00  0.00    -0.248 NA
ATOM     65  C   UNL A   1      42.843  27.131  31.173  1.00  0.00     0.031 C 
ATOM     66  C   UNL A   1      43.825  29.724  36.561  1.00  0.00     0.029 A 
ATOM     67  C   UNL A   1      43.272  29.390  35.336  1.00  0.00     0.049 A 
ATOM     68  H   UNL A   1      41.656  30.284  34.317  1.00  0.00     0.167 HD
ATOM     69  C   UNL A   1      43.087  28.101  33.233  1.00  0.00     0.074 A 
ATOM     70  C   UNL A   1      43.537  27.089  32.302  1.00  0.00     0.031 C 
ATOM     71  C   UNL A   1      43.673  28.347  34.429  1.00  0.00     0.034 A 
BRANCH  58  72
ATOM     72  C   UNL A   1      41.292  33.158  37.451  1.00  0.00     0.023 A 
ATOM     73  C   UNL A   1      40.585  32.877  38.637  1.00  0.00     0.012 A 
ATOM     74  C   UNL A   1      42.195  34.239  37.420  1.00  0.00     0.148 A 
ATOM     75  C   UNL A   1      40.764  33.669  39.772  1.00  0.00     0.002 A 
ATOM     76  C   UNL A   1      42.403  34.994  38.568  1.00  0.00     0.091 A 
ATOM     77  F   UNL A   1      42.842  34.498  36.275  1.00  0.00    -0.205 F 
ATOM     78  C   UNL A   1      41.681  34.715  39.741  1.00  0.00     0.022 A 
BRANCH  76  79
ATOM     79  S   UNL A   1      43.625  36.306  38.659  1.00  0.00     0.127 S 
ATOM     80  O   UNL A   1      44.853  35.590  38.315  1.00  0.00    -0.237 OA
ATOM     81  O   UNL A   1      43.153  37.233  37.630  1.00  0.00    -0.237 OA
ATOM     82  O   UNL A   1      43.569  36.820  40.020  1.00  0.00    -0.744 OA
ENDBRANCH  76  79
ENDBRANCH  58  72
BRANCH  59  83
ATOM     83  C   UNL A   1      40.775  27.630  29.162  1.00  0.00     0.023 A 
ATOM     84  C   UNL A   1      39.881  26.554  28.992  1.00  0.00     0.012 A 
ATOM     85  C   UNL A   1      41.674  27.944  28.125  1.00  0.00     0.148 A 
ATOM     86  C   UNL A   1      39.922  25.771  27.836  1.00  0.00     0.002 A 
ATOM     87  C   UNL A   1      41.667  27.200  26.952  1.00  0.00     0.091 A 
ATOM     88  F   UNL A   1      42.526  28.963  28.309  1.00  0.00    -0.205 F 
ATOM     89  C   UNL A   1      40.808  26.099  26.814  1.00  0.00     0.022 A 
BRANCH  87  90
ATOM     90  S   UNL A   1      42.682  27.636  25.537  1.00  0.00     0.127 S 
ATOM     91  O   UNL A   1      44.008  27.731  26.139  1.00  0.00    -0.237 OA
ATOM     92  O   UNL A   1      42.485  26.483  24.656  1.00  0.00    -0.237 OA
ATOM     93  O   UNL A   1      42.122  28.880  25.026  1.00  0.00    -0.744 OA
ENDBRANCH  87  90
ENDBRANCH  59  83
BRANCH  71  94
ATOM     94  C   UNL A   1      44.830  27.474  34.838  1.00  0.00     0.023 A 
ATOM     95  C   UNL A   1      46.153  27.915  34.641  1.00  0.00     0.012 A 
ATOM     96  C   UNL A   1      44.600  26.245  35.486  1.00  0.00     0.148 A 
ATOM     97  C   UNL A   1      47.229  27.127  35.047  1.00  0.00     0.002 A 
ATOM     98  C   UNL A   1      45.675  25.492  35.939  1.00  0.00     0.091 A 
ATOM     99  F   UNL A   1      43.333  25.837  35.650  1.00  0.00    -0.205 F 
ATOM    100  C   UNL A   1      46.990  25.923  35.707  1.00  0.00     0.022 A 
BRANCH  98 101
ATOM    101  S   UNL A   1      45.460  23.982  36.888  1.00  0.00     0.127 S 
ATOM    102  O   UNL A   1      44.816  24.482  38.102  1.00  0.00    -0.237 OA
ATOM    103  O   UNL A   1      44.590  23.191  36.016  1.00  0.00    -0.237 OA
ATOM    104  O   UNL A   1      46.795  23.429  37.074  1.00  0.00    -0.744 OA
ENDBRANCH  98 101
ENDBRANCH  71  94
ENDBRANCH  45  46
ENDBRANCH  37  40
ENDBRANCH  35  36
ENDBRANCH  34  35
ENDBRANCH   1  34
TORSDOF 18
ENDMDL
MODEL 2
REMARK VINA RESULT:     -11.6      1.633      7.179
REMARK SMILES CN1C(=O)C[C@@H](C(=O)NCCCCCCNC(=O)c2ccc(-c3c4nc(c(-c5cccc(S(=O)(=O)[O-])c5F)c5ccc([nH]5)c(-c5cccc(S(=O)(=O)[O-])c5F)c5nc(c(-c6cccc(S(=O)(=O)[O-])c6F)c6ccc3[nH]6)C=C5)C=C4)cc2)C12CCN(C(=O)c1ccccc1-n1cccn1)CC2
REMARK SMILES IDX 13 1 12 2 11 3 10 4 9 5 7 6 8 7 6 9 1 10 2 11 3 12 82 13
REMARK SMILES IDX 4 14 5 15 83 16 100 17 84 18 99 19 85 20 86 21 87 22 88 23
REMARK SMILES IDX 89 24 93 25 90 26 92 27 91 28 94 29 95 30 98 31 96 32 97 33
REMARK SMILES IDX 14 34 15 35 16 36 17 37 18 39 19 40 20 41 81 42 21 43 80 44
REMARK SMILES IDX 22 45 23 46 24 47 74 48 25 49 79 50 73 51 75 52 26 53 78 54
REMARK SMILES IDX 72 55 71 56 27 58 59 59 39 60 58 61 40 62 43 63 57 64 76 65
REMARK SMILES IDX 41 66 42 67 56 69 77 70 44 71 28 72 29 73 37 74 30 75 32 76
REMARK SMILES IDX 38 77 31 78 33 79 34 80 35 81 36 82 60 83 61 84 69 85 62 86
REMARK SMILES IDX 64 87 70 88 63 89 65 90 66 91 67 92 68 93 45 94 46 95 54 96
REMARK SMILES IDX 47 97 49 98 55 99 48 100 50 101 51 102 52 103 53 104
REMARK H PARENT 9 8 16 38 75 57 43 68
REMARK Flexibility Score: inf
ROOT
ATOM      1  C   UNL A   1      35.393  32.528  27.901  1.00  0.00     0.002 C 
ENDROOT
BRANCH   1   2
ATOM      2  C   UNL A   1      34.561  31.249  27.812  1.00  0.00     0.002 C 
BRANCH   2   3
ATOM      3  C   UNL A   1      35.364  29.965  28.022  1.00  0.00     0.021 C 
BRANCH   3   4
ATOM      4  C   UNL A   1      34.831  28.753  27.249  1.00  0.00     0.116 C 
BRANCH   4   5
ATOM      5  N   UNL A   1      33.419  28.486  27.477  1.00  0.00    -0.356 N 
ATOM      6  C   UNL A   1      32.357  28.298  26.652  1.00  0.00     0.226 C 
ATOM      7  O   UNL A   1      31.278  28.044  27.207  1.00  0.00    -0.275 OA
ATOM      8  H   UNL A   1      33.184  28.431  28.431  1.00  0.00     0.163 HD
BRANCH   6   9
ATOM      9  C   UNL A   1      32.374  28.418  25.121  1.00  0.00     0.113 C 
ATOM     10  C   UNL A   1      29.242  27.133  23.557  1.00  0.00     0.147 C 
ATOM     11  N   UNL A   1      30.410  27.869  24.002  1.00  0.00    -0.339 N 
ATOM     12  C   UNL A   1      30.424  29.261  24.030  1.00  0.00     0.223 C 
ATOM     13  C   UNL A   1      31.721  27.277  24.308  1.00  0.00     0.058 C 
ATOM     14  O   UNL A   1      29.530  30.007  23.682  1.00  0.00    -0.275 OA
ATOM     15  C   UNL A   1      31.730  29.710  24.622  1.00  0.00     0.116 C 
ATOM     16  C   UNL A   1      31.669  25.951  25.086  1.00  0.00     0.051 C 
ATOM     17  C   UNL A   1      32.456  27.016  22.955  1.00  0.00     0.051 C 
ATOM     18  C   UNL A   1      33.032  25.289  25.229  1.00  0.00     0.122 C 
ATOM     19  C   UNL A   1      33.751  26.205  23.085  1.00  0.00     0.122 C 
ATOM     20  N   UNL A   1      33.549  25.011  23.902  1.00  0.00    -0.338 N 
ATOM     21  C   UNL A   1      33.828  23.747  23.386  1.00  0.00     0.256 C 
ATOM     22  O   UNL A   1      34.286  23.556  22.264  1.00  0.00    -0.269 OA
BRANCH  21  23
ATOM     23  C   UNL A   1      33.624  22.551  24.242  1.00  0.00     0.065 A 
ATOM     24  C   UNL A   1      32.356  21.952  24.144  1.00  0.00     0.016 A 
ATOM     25  C   UNL A   1      34.611  21.952  25.041  1.00  0.00     0.077 A 
ATOM     26  C   UNL A   1      32.082  20.755  24.808  1.00  0.00     0.001 A 
ATOM     27  C   UNL A   1      34.339  20.717  25.661  1.00  0.00     0.029 A 
ATOM     28  C   UNL A   1      33.077  20.131  25.555  1.00  0.00     0.002 A 
BRANCH  25  29
ATOM     29  N   UNL A   1      35.883  22.531  25.269  1.00  0.00    -0.240 N 
ATOM     30  C   UNL A   1      37.107  22.159  24.761  1.00  0.00     0.115 A 
ATOM     31  N   UNL A   1      35.998  23.616  26.083  1.00  0.00    -0.177 NA
ATOM     32  C   UNL A   1      38.044  23.011  25.300  1.00  0.00     0.042 A 
ATOM     33  C   UNL A   1      37.305  23.874  26.122  1.00  0.00     0.135 A 
ENDBRANCH  25  29
ENDBRANCH  21  23
ENDBRANCH   6   9
ENDBRANCH   4   5
ENDBRANCH   3   4
ENDBRANCH   2   3
ENDBRANCH   1   2
BRANCH   1  34
ATOM     34  C   UNL A   1      34.601  33.823  27.687  1.00  0.00     0.021 C 
BRANCH  34  35
ATOM     35  C   UNL A   1      33.143  33.754  28.134  1.00  0.00     0.116 C 
BRANCH  35  36
ATOM     36  N   UNL A   1      32.818  34.832  29.055  1.00  0.00    -0.352 N 
ATOM     37  C   UNL A   1      33.299  35.063  30.318  1.00  0.00     0.251 C 
ATOM     38  H   UNL A   1      32.160  35.485  28.725  1.00  0.00     0.163 HD
ATOM     39  O   UNL A   1      32.727  35.859  31.057  1.00  0.00    -0.269 OA
BRANCH  37  40
ATOM     40  C   UNL A   1      34.504  34.347  30.782  1.00  0.00     0.039 A 
ATOM     41  C   UNL A   1      35.761  34.892  30.514  1.00  0.00     0.014 A 
ATOM     42  C   UNL A   1      34.391  33.133  31.467  1.00  0.00     0.014 A 
ATOM     43  C   UNL A   1      36.906  34.239  30.973  1.00  0.00     0.010 A 
ATOM     44  C   UNL A   1      35.529  32.525  31.988  1.00  0.00     0.010 A 
ATOM     45  C   UNL A   1      36.799  33.064  31.736  1.00  0.00    -0.014 A 
BRANCH  45  46
ATOM     46  C   UNL A   1      38.007  32.392  32.282  1.00  0.00     0.031 A 
ATOM     47  C   UNL A   1      38.656  31.264  31.524  1.00  0.00     0.074 A 
ATOM     48  C   UNL A   1      38.471  32.746  33.498  1.00  0.00     0.049 A 
ATOM     49  N   UNL A   1      39.684  30.532  31.864  1.00  0.00    -0.248 NA
ATOM     50  C   UNL A   1      38.061  30.892  30.229  1.00  0.00     0.031 C 
ATOM     51  C   UNL A   1      37.880  33.768  34.365  1.00  0.00     0.029 A 
ATOM     52  N   UNL A   1      39.529  32.265  34.229  1.00  0.00    -0.354 N 
ATOM     53  C   UNL A   1      39.833  29.589  30.854  1.00  0.00     0.074 A 
ATOM     54  C   UNL A   1      38.779  29.828  29.893  1.00  0.00     0.031 C 
ATOM     55  C   UNL A   1      38.579  33.835  35.509  1.00  0.00     0.029 A 
ATOM     56  C   UNL A   1      39.645  32.839  35.474  1.00  0.00     0.049 A 
ATOM     57  H   UNL A   1      40.146  31.576  33.894  1.00  0.00     0.167 HD
ATOM     58  C   UNL A   1      40.773  28.624  30.728  1.00  0.00     0.034 A 
ATOM     59  C   UNL A   1      40.501  32.579  36.483  1.00  0.00     0.034 A 
ATOM     60  C   UNL A   1      41.851  28.422  31.658  1.00  0.00     0.049 A 
ATOM     61  C   UNL A   1      41.563  31.530  36.288  1.00  0.00     0.074 A 
ATOM     62  C   UNL A   1      42.917  27.547  31.557  1.00  0.00     0.029 A 
ATOM     63  N   UNL A   1      41.991  29.086  32.865  1.00  0.00    -0.354 N 
ATOM     64  N   UNL A   1      41.795  30.775  35.243  1.00  0.00    -0.248 NA
ATOM     65  C   UNL A   1      42.504  31.322  37.398  1.00  0.00     0.031 C 
ATOM     66  C   UNL A   1      43.678  27.649  32.723  1.00  0.00     0.029 A 
ATOM     67  C   UNL A   1      43.114  28.624  33.529  1.00  0.00     0.049 A 
ATOM     68  H   UNL A   1      41.383  29.783  33.201  1.00  0.00     0.167 HD
ATOM     69  C   UNL A   1      42.931  30.036  35.552  1.00  0.00     0.074 A 
ATOM     70  C   UNL A   1      43.354  30.451  36.872  1.00  0.00     0.031 C 
ATOM     71  C   UNL A   1      43.559  29.087  34.816  1.00  0.00     0.034 A 
BRANCH  58  72
ATOM     72  C   UNL A   1      40.717  27.719  29.525  1.00  0.00     0.023 A 
ATOM     73  C   UNL A   1      39.744  26.704  29.455  1.00  0.00     0.012 A 
ATOM     74  C   UNL A   1      41.552  27.959  28.417  1.00  0.00     0.148 A 
ATOM     75  C   UNL A   1      39.612  25.928  28.303  1.00  0.00     0.002 A 
ATOM     76  C   UNL A   1      41.384  27.214  27.256  1.00  0.00     0.091 A 
ATOM     77  F   UNL A   1      42.483  28.919  28.514  1.00  0.00    -0.205 F 
ATOM     78  C   UNL A   1      40.420  26.193  27.201  1.00  0.00     0.022 A 
BRANCH  76  79
ATOM     79  S   UNL A   1      42.314  27.535  25.754  1.00  0.00     0.127 S 
ATOM     80  O   UNL A   1      43.692  27.396  26.224  1.00  0.00    -0.237 OA
ATOM     81  O   UNL A   1      41.858  26.456  24.877  1.00  0.00    -0.237 OA
ATOM     82  O   UNL A   1      41.940  28.875  25.323  1.00  0.00    -0.744 OA
ENDBRANCH  76  79
ENDBRANCH  58  72
BRANCH  59  83
ATOM     83  C   UNL A   1      40.413  33.336  37.765  1.00  0.00     0.023 A 
ATOM     84  C   UNL A   1      41.285  34.418  38.000  1.00  0.00     0.012 A 
ATOM     85  C   UNL A   1      39.486  32.976  38.761  1.00  0.00     0.148 A 
ATOM     86  C   UNL A   1      41.273  35.089  39.224  1.00  0.00     0.002 A 
ATOM     87  C   UNL A   1      39.437  33.687  39.953  1.00  0.00     0.091 A 
ATOM     88  F   UNL A   1      38.672  31.937  38.526  1.00  0.00    -0.205 F 
ATOM     89  C   UNL A   1      40.345  34.729  40.197  1.00  0.00     0.022 A 
BRANCH  87  90
ATOM     90  S   UNL A   1      38.186  33.375  41.203  1.00  0.00     0.127 S 
ATOM     91  O   UNL A   1      38.625  32.096  41.751  1.00  0.00    -0.237 OA
ATOM     92  O   UNL A   1      38.357  34.523  42.096  1.00  0.00    -0.237 OA
ATOM     93  O   UNL A   1      36.917  33.362  40.487  1.00  0.00    -0.744 OA
ENDBRANCH  87  90
ENDBRANCH  59  83
BRANCH  71  94
ATOM     94  C   UNL A   1      44.808  28.467  35.387  1.00  0.00     0.023 A 
ATOM     95  C   UNL A   1      46.064  29.055  35.143  1.00  0.00     0.012 A 
ATOM     96  C   UNL A   1      44.722  27.340  36.227  1.00  0.00     0.148 A 
ATOM     97  C   UNL A   1      47.220  28.506  35.696  1.00  0.00     0.002 A 
ATOM     98  C   UNL A   1      45.871  26.832  36.820  1.00  0.00     0.091 A 
ATOM     99  F   UNL A   1      43.518  26.786  36.433  1.00  0.00    -0.205 F 
ATOM    100  C   UNL A   1      47.122  27.404  36.543  1.00  0.00     0.022 A 
BRANCH  98 101
ATOM    101  S   UNL A   1      45.827  25.482  38.003  1.00  0.00     0.127 S 
ATOM    102  O   UNL A   1      44.991  26.043  39.064  1.00  0.00    -0.237 OA
ATOM    103  O   UNL A   1      45.195  24.413  37.228  1.00  0.00    -0.237 OA
ATOM    104  O   UNL A   1      47.212  25.224  38.373  1.00  0.00    -0.744 OA
ENDBRANCH  98 101
ENDBRANCH  71  94
ENDBRANCH  45  46
ENDBRANCH  37  40
ENDBRANCH  35  36
ENDBRANCH  34  35
ENDBRANCH   1  34
TORSDOF 18
ENDMDL
MODEL 3
REMARK VINA RESULT:     -11.0      2.842      7.937
REMARK SMILES CN1C(=O)C[C@@H](C(=O)NCCCCCCNC(=O)c2ccc(-c3c4nc(c(-c5cccc(S(=O)(=O)[O-])c5F)c5ccc([nH]5)c(-c5cccc(S(=O)(=O)[O-])c5F)c5nc(c(-c6cccc(S(=O)(=O)[O-])c6F)c6ccc3[nH]6)C=C5)C=C4)cc2)C12CCN(C(=O)c1ccccc1-n1cccn1)CC2
REMARK SMILES IDX 13 1 12 2 11 3 10 4 9 5 7 6 8 7 6 9 1 10 2 11 3 12 82 13
REMARK SMILES IDX 4 14 5 15 83 16 100 17 84 18 99 19 85 20 86 21 87 22 88 23
REMARK SMILES IDX 89 24 93 25 90 26 92 27 91 28 94 29 95 30 98 31 96 32 97 33
REMARK SMILES IDX 14 34 15 35 16 36 17 37 18 39 19 40 20 41 81 42 21 43 80 44
REMARK SMILES IDX 22 45 23 46 24 47 74 48 25 49 79 50 73 51 75 52 26 53 78 54
REMARK SMILES IDX 72 55 71 56 27 58 59 59 39 60 58 61 40 62 43 63 57 64 76 65
REMARK SMILES IDX 41 66 42 67 56 69 77 70 44 71 28 72 29 73 37 74 30 75 32 76
REMARK SMILES IDX 38 77 31 78 33 79 34 80 35 81 36 82 60 83 61 84 69 85 62 86
REMARK SMILES IDX 64 87 70 88 63 89 65 90 66 91 67 92 68 93 45 94 46 95 54 96
REMARK SMILES IDX 47 97 49 98 55 99 48 100 50 101 51 102 52 103 53 104
REMARK H PARENT 9 8 16 38 75 57 43 68
REMARK Flexibility Score: inf
ROOT
ATOM      1  C   UNL A   1      33.855  29.282  25.318  1.00  0.00     0.002 C 
ENDROOT
BRANCH   1   2
ATOM      2  C   UNL A   1      34.043  28.195  24.260  1.00  0.00     0.002 C 
BRANCH   2   3
ATOM      3  C   UNL A   1      33.621  28.613  22.851  1.00  0.00     0.021 C 
BRANCH   3   4
ATOM      4  C   UNL A   1      32.456  27.802  22.274  1.00  0.00     0.116 C 
BRANCH   4   5
ATOM      5  N   UNL A   1      32.855  26.523  21.706  1.00  0.00    -0.356 N 
ATOM      6  C   UNL A   1      32.485  25.238  21.941  1.00  0.00     0.226 C 
ATOM      7  O   UNL A   1      33.016  24.381  21.220  1.00  0.00    -0.275 OA
ATOM      8  H   UNL A   1      33.538  26.608  21.002  1.00  0.00     0.163 HD
BRANCH   6   9
ATOM      9  C   UNL A   1      31.518  24.766  23.037  1.00  0.00     0.113 C 
ATOM     10  C   UNL A   1      32.539  25.925  26.432  1.00  0.00     0.147 C 
ATOM     11  N   UNL A   1      31.882  25.586  25.183  1.00  0.00    -0.339 N 
ATOM     12  C   UNL A   1      30.824  26.344  24.690  1.00  0.00     0.223 C 
ATOM     13  C   UNL A   1      32.125  24.365  24.401  1.00  0.00     0.058 C 
ATOM     14  O   UNL A   1      30.316  27.317  25.214  1.00  0.00    -0.275 OA
ATOM     15  C   UNL A   1      30.431  25.793  23.349  1.00  0.00     0.116 C 
ATOM     16  C   UNL A   1      33.602  23.947  24.291  1.00  0.00     0.051 C 
ATOM     17  C   UNL A   1      31.341  23.197  25.079  1.00  0.00     0.051 C 
ATOM     18  C   UNL A   1      33.791  22.592  23.624  1.00  0.00     0.122 C 
ATOM     19  C   UNL A   1      31.657  21.809  24.511  1.00  0.00     0.122 C 
ATOM     20  N   UNL A   1      33.098  21.591  24.414  1.00  0.00    -0.338 N 
ATOM     21  C   UNL A   1      33.694  20.511  25.062  1.00  0.00     0.256 C 
ATOM     22  O   UNL A   1      33.069  19.672  25.703  1.00  0.00    -0.269 OA
BRANCH  21  23
ATOM     23  C   UNL A   1      35.160  20.307  24.938  1.00  0.00     0.065 A 
ATOM     24  C   UNL A   1      35.942  21.465  25.093  1.00  0.00     0.016 A 
ATOM     25  C   UNL A   1      35.791  19.064  24.775  1.00  0.00     0.077 A 
ATOM     26  C   UNL A   1      37.336  21.383  25.115  1.00  0.00     0.001 A 
ATOM     27  C   UNL A   1      37.196  18.988  24.854  1.00  0.00     0.029 A 
ATOM     28  C   UNL A   1      37.962  20.144  25.010  1.00  0.00     0.002 A 
BRANCH  25  29
ATOM     29  N   UNL A   1      35.086  17.862  24.524  1.00  0.00    -0.240 N 
ATOM     30  C   UNL A   1      34.994  16.732  25.306  1.00  0.00     0.115 A 
ATOM     31  N   UNL A   1      34.364  17.725  23.378  1.00  0.00    -0.177 NA
ATOM     32  C   UNL A   1      34.220  15.826  24.619  1.00  0.00     0.042 A 
ATOM     33  C   UNL A   1      33.877  16.485  23.429  1.00  0.00     0.135 A 
ENDBRANCH  25  29
ENDBRANCH  21  23
ENDBRANCH   6   9
ENDBRANCH   4   5
ENDBRANCH   3   4
ENDBRANCH   2   3
ENDBRANCH   1   2
BRANCH   1  34
ATOM     34  C   UNL A   1      32.455  29.903  25.356  1.00  0.00     0.021 C 
BRANCH  34  35
ATOM     35  C   UNL A   1      32.042  30.451  26.719  1.00  0.00     0.116 C 
BRANCH  35  36
ATOM     36  N   UNL A   1      31.977  31.904  26.712  1.00  0.00    -0.352 N 
ATOM     37  C   UNL A   1      32.769  32.806  27.374  1.00  0.00     0.251 C 
ATOM     38  H   UNL A   1      31.266  32.293  26.155  1.00  0.00     0.163 HD
ATOM     39  O   UNL A   1      32.417  33.978  27.472  1.00  0.00    -0.269 OA
BRANCH  37  40
ATOM     40  C   UNL A   1      34.044  32.358  27.971  1.00  0.00     0.039 A 
ATOM     41  C   UNL A   1      35.118  33.249  28.023  1.00  0.00     0.014 A 
ATOM     42  C   UNL A   1      34.181  31.056  28.462  1.00  0.00     0.014 A 
ATOM     43  C   UNL A   1      36.318  32.846  28.611  1.00  0.00     0.010 A 
ATOM     44  C   UNL A   1      35.352  30.683  29.114  1.00  0.00     0.010 A 
ATOM     45  C   UNL A   1      36.438  31.569  29.184  1.00  0.00    -0.014 A 
BRANCH  45  46
ATOM     46  C   UNL A   1      37.690  31.149  29.865  1.00  0.00     0.031 A 
ATOM     47  C   UNL A   1      38.646  30.206  29.183  1.00  0.00     0.074 A 
ATOM     48  C   UNL A   1      37.926  31.555  31.130  1.00  0.00     0.049 A 
ATOM     49  N   UNL A   1      39.760  29.695  29.639  1.00  0.00    -0.248 NA
ATOM     50  C   UNL A   1      38.296  29.757  27.825  1.00  0.00     0.031 C 
ATOM     51  C   UNL A   1      37.036  32.404  31.926  1.00  0.00     0.029 A 
ATOM     52  N   UNL A   1      38.971  31.285  31.978  1.00  0.00    -0.354 N 
ATOM     53  C   UNL A   1      40.220  28.836  28.649  1.00  0.00     0.074 A 
ATOM     54  C   UNL A   1      39.256  28.878  27.571  1.00  0.00     0.031 C 
ATOM     55  C   UNL A   1      37.569  32.581  33.145  1.00  0.00     0.029 A 
ATOM     56  C   UNL A   1      38.818  31.832  33.232  1.00  0.00     0.049 A 
ATOM     57  H   UNL A   1      39.754  30.751  31.715  1.00  0.00     0.167 HD
ATOM     58  C   UNL A   1      41.351  28.094  28.630  1.00  0.00     0.034 A 
ATOM     59  C   UNL A   1      39.588  31.727  34.334  1.00  0.00     0.034 A 
ATOM     60  C   UNL A   1      42.333  28.095  29.680  1.00  0.00     0.049 A 
ATOM     61  C   UNL A   1      40.864  30.930  34.261  1.00  0.00     0.074 A 
ATOM     62  C   UNL A   1      43.565  27.466  29.701  1.00  0.00     0.029 A 
ATOM     63  N   UNL A   1      42.190  28.737  30.899  1.00  0.00    -0.354 N 
ATOM     64  N   UNL A   1      41.370  30.273  33.246  1.00  0.00    -0.248 NA
ATOM     65  C   UNL A   1      41.694  30.891  35.473  1.00  0.00     0.031 C 
ATOM     66  C   UNL A   1      44.148  27.691  30.950  1.00  0.00     0.029 A 
ATOM     67  C   UNL A   1      43.301  28.500  31.689  1.00  0.00     0.049 A 
ATOM     68  H   UNL A   1      41.414  29.280  31.164  1.00  0.00     0.167 HD
ATOM     69  C   UNL A   1      42.593  29.780  33.684  1.00  0.00     0.074 A 
ATOM     70  C   UNL A   1      42.764  30.234  35.046  1.00  0.00     0.031 C 
ATOM     71  C   UNL A   1      43.488  29.007  33.022  1.00  0.00     0.034 A 
BRANCH  58  72
ATOM     72  C   UNL A   1      41.626  27.235  27.424  1.00  0.00     0.023 A 
ATOM     73  C   UNL A   1      42.221  27.801  26.280  1.00  0.00     0.012 A 
ATOM     74  C   UNL A   1      41.405  25.845  27.476  1.00  0.00     0.148 A 
ATOM     75  C   UNL A   1      42.578  26.998  25.197  1.00  0.00     0.002 A 
ATOM     76  C   UNL A   1      41.806  25.045  26.413  1.00  0.00     0.091 A 
ATOM     77  F   UNL A   1      40.820  25.331  28.568  1.00  0.00    -0.205 F 
ATOM     78  C   UNL A   1      42.385  25.621  25.270  1.00  0.00     0.022 A 
BRANCH  76  79
ATOM     79  S   UNL A   1      41.681  23.254  26.445  1.00  0.00     0.127 S 
ATOM     80  O   UNL A   1      42.335  22.935  27.714  1.00  0.00    -0.237 OA
ATOM     81  O   UNL A   1      40.232  23.050  26.439  1.00  0.00    -0.237 OA
ATOM     82  O   UNL A   1      42.373  22.777  25.256  1.00  0.00    -0.744 OA
ENDBRANCH  76  79
ENDBRANCH  58  72
BRANCH  59  83
ATOM     83  C   UNL A   1      39.195  32.410  35.600  1.00  0.00     0.023 A 
ATOM     84  C   UNL A   1      39.595  33.742  35.830  1.00  0.00     0.012 A 
ATOM     85  C   UNL A   1      38.449  31.739  36.587  1.00  0.00     0.148 A 
ATOM     86  C   UNL A   1      39.306  34.372  37.042  1.00  0.00     0.002 A 
ATOM     87  C   UNL A   1      38.111  32.393  37.765  1.00  0.00     0.091 A 
ATOM     88  F   UNL A   1      38.087  30.469  36.357  1.00  0.00    -0.205 F 
ATOM     89  C   UNL A   1      38.558  33.701  38.005  1.00  0.00     0.022 A 
BRANCH  87  90
ATOM     90  S   UNL A   1      37.040  31.649  38.999  1.00  0.00     0.127 S 
ATOM     91  O   UNL A   1      35.810  32.415  38.827  1.00  0.00    -0.237 OA
ATOM     92  O   UNL A   1      36.971  30.259  38.542  1.00  0.00    -0.237 OA
ATOM     93  O   UNL A   1      37.730  31.826  40.270  1.00  0.00    -0.744 OA
ENDBRANCH  87  90
ENDBRANCH  59  83
BRANCH  71  94
ATOM     94  C   UNL A   1      44.766  28.646  33.733  1.00  0.00     0.023 A 
ATOM     95  C   UNL A   1      45.880  29.504  33.665  1.00  0.00     0.012 A 
ATOM     96  C   UNL A   1      44.832  27.486  34.530  1.00  0.00     0.148 A 
ATOM     97  C   UNL A   1      47.055  29.193  34.348  1.00  0.00     0.002 A 
ATOM     98  C   UNL A   1      45.986  27.212  35.254  1.00  0.00     0.091 A 
ATOM     99  F   UNL A   1      43.765  26.675  34.569  1.00  0.00    -0.205 F 
ATOM    100  C   UNL A   1      47.103  28.055  35.152  1.00  0.00     0.022 A 
BRANCH  98 101
ATOM    101  S   UNL A   1      46.102  25.828  36.392  1.00  0.00     0.127 S 
ATOM    102  O   UNL A   1      44.996  26.102  37.308  1.00  0.00    -0.237 OA
ATOM    103  O   UNL A   1      45.891  24.682  35.506  1.00  0.00    -0.237 OA
ATOM    104  O   UNL A   1      47.432  25.900  36.982  1.00  0.00    -0.744 OA
ENDBRANCH  98 101
ENDBRANCH  71  94
ENDBRANCH  45  46
ENDBRANCH  37  40
ENDBRANCH  35  36
ENDBRANCH  34  35
ENDBRANCH   1  34
TORSDOF 18
ENDMDL
