MODEL 1
REMARK VINA RESULT:     -11.5      0.000      0.000
REMARK SMILES O=C(NCCCCCCNC(=O)[C@H]1COCCN1C(=O)c1ccc(Br)nc1)c1ccc(-c2c3nc(c(-c4cccc(S(=O)(=O)[O-])c4F)c4ccc([nH]4)c(-c4cccc(S(=O)(=O)[O-])c4F)c4nc(c(-c5cccc(S(=O)(=O)[O-])c5F)c5ccc2[nH]5)C=C4)C=C3)cc1
REMARK SMILES IDX 6 1 5 2 4 3 3 4 1 5 2 6 28 8 29 9 90 10 30 11 89 12 31 13
REMARK SMILES IDX 32 14 33 15 83 16 34 17 88 18 82 19 84 20 35 21 87 22 81 23
REMARK SMILES IDX 80 24 36 26 68 27 48 28 67 29 49 30 52 31 66 32 85 33 50 34
REMARK SMILES IDX 51 35 65 37 86 38 53 39 37 40 38 41 46 42 39 43 41 44 47 45
REMARK SMILES IDX 40 46 42 47 43 48 44 49 45 50 69 51 70 52 78 53 71 54 73 55
REMARK SMILES IDX 79 56 72 57 74 58 75 59 76 60 77 61 54 62 55 63 63 64 56 65
REMARK SMILES IDX 58 66 64 67 57 68 59 69 60 70 61 71 62 72 7 73 8 74 9 75
REMARK SMILES IDX 10 76 11 77 12 79 13 80 14 81 18 82 15 83 17 84 16 85 19 86
REMARK SMILES IDX 20 87 21 88 22 89 27 90 23 91 26 92 24 93 25 94
REMARK H PARENT 3 7 84 25 52 36 10 78
REMARK Flexibility Score: inf
ROOT
ATOM      1  C   UNL A   1      31.139  29.400  23.727  1.00  0.00     0.002 C 
ENDROOT
BRANCH   1   2
ATOM      2  C   UNL A   1      32.464  28.723  24.074  1.00  0.00     0.021 C 
BRANCH   2   3
ATOM      3  C   UNL A   1      33.209  29.315  25.264  1.00  0.00     0.116 C 
BRANCH   3   4
ATOM      4  N   UNL A   1      32.612  30.545  25.751  1.00  0.00    -0.352 N 
ATOM      5  O   UNL A   1      32.266  32.249  27.183  1.00  0.00    -0.269 OA
ATOM      6  C   UNL A   1      32.972  31.304  26.839  1.00  0.00     0.251 C 
ATOM      7  H   UNL A   1      31.847  30.881  25.230  1.00  0.00     0.163 HD
BRANCH   6   8
ATOM      8  C   UNL A   1      34.189  30.958  27.607  1.00  0.00     0.039 A 
ATOM      9  C   UNL A   1      35.171  31.919  27.865  1.00  0.00     0.014 A 
ATOM     10  C   UNL A   1      34.349  29.650  28.075  1.00  0.00     0.014 A 
ATOM     11  C   UNL A   1      36.363  31.544  28.474  1.00  0.00     0.010 A 
ATOM     12  C   UNL A   1      35.515  29.294  28.758  1.00  0.00     0.010 A 
ATOM     13  C   UNL A   1      36.544  30.231  28.941  1.00  0.00    -0.014 A 
BRANCH  13  14
ATOM     14  C   UNL A   1      37.779  29.888  29.693  1.00  0.00     0.031 A 
ATOM     15  C   UNL A   1      38.035  30.425  31.073  1.00  0.00     0.074 A 
ATOM     16  C   UNL A   1      38.682  29.080  29.102  1.00  0.00     0.049 A 
ATOM     17  N   UNL A   1      39.047  30.191  31.869  1.00  0.00    -0.248 NA
ATOM     18  C   UNL A   1      37.035  31.347  31.635  1.00  0.00     0.031 C 
ATOM     19  C   UNL A   1      38.566  28.543  27.745  1.00  0.00     0.029 A 
ATOM     20  N   UNL A   1      39.870  28.572  29.560  1.00  0.00    -0.354 N 
ATOM     21  C   UNL A   1      38.830  30.960  33.005  1.00  0.00     0.074 A 
ATOM     22  C   UNL A   1      37.588  31.674  32.796  1.00  0.00     0.031 C 
ATOM     23  C   UNL A   1      39.624  27.763  27.487  1.00  0.00     0.029 A 
ATOM     24  C   UNL A   1      40.517  27.780  28.640  1.00  0.00     0.049 A 
ATOM     25  H   UNL A   1      40.226  28.756  30.458  1.00  0.00     0.167 HD
ATOM     26  C   UNL A   1      39.586  31.047  34.126  1.00  0.00     0.034 A 
ATOM     27  C   UNL A   1      41.703  27.145  28.709  1.00  0.00     0.034 A 
ATOM     28  C   UNL A   1      40.802  30.305  34.342  1.00  0.00     0.049 A 
ATOM     29  C   UNL A   1      42.501  27.235  29.976  1.00  0.00     0.074 A 
ATOM     30  C   UNL A   1      41.601  30.273  35.472  1.00  0.00     0.029 A 
ATOM     31  N   UNL A   1      41.400  29.472  33.408  1.00  0.00    -0.354 N 
ATOM     32  N   UNL A   1      42.205  27.854  31.094  1.00  0.00    -0.248 NA
ATOM     33  C   UNL A   1      43.784  26.519  30.004  1.00  0.00     0.031 C 
ATOM     34  C   UNL A   1      42.689  29.431  35.216  1.00  0.00     0.029 A 
ATOM     35  C   UNL A   1      42.561  28.928  33.932  1.00  0.00     0.049 A 
ATOM     36  H   UNL A   1      41.050  29.294  32.505  1.00  0.00     0.167 HD
ATOM     37  C   UNL A   1      43.253  27.587  31.964  1.00  0.00     0.074 A 
ATOM     38  C   UNL A   1      44.176  26.724  31.255  1.00  0.00     0.031 C 
ATOM     39  C   UNL A   1      43.445  28.034  33.229  1.00  0.00     0.034 A 
BRANCH  26  40
ATOM     40  C   UNL A   1      39.101  31.940  35.237  1.00  0.00     0.023 A 
ATOM     41  C   UNL A   1      39.214  33.339  35.097  1.00  0.00     0.012 A 
ATOM     42  C   UNL A   1      38.462  31.410  36.375  1.00  0.00     0.148 A 
ATOM     43  C   UNL A   1      38.720  34.194  36.082  1.00  0.00     0.002 A 
ATOM     44  C   UNL A   1      37.940  32.269  37.335  1.00  0.00     0.091 A 
ATOM     45  F   UNL A   1      38.382  30.077  36.501  1.00  0.00    -0.205 F 
ATOM     46  C   UNL A   1      38.074  33.660  37.195  1.00  0.00     0.022 A 
BRANCH  44  47
ATOM     47  S   UNL A   1      37.029  31.680  38.768  1.00  0.00     0.127 S 
ATOM     48  O   UNL A   1      37.997  31.897  39.842  1.00  0.00    -0.237 OA
ATOM     49  O   UNL A   1      35.876  32.581  38.796  1.00  0.00    -0.237 OA
ATOM     50  O   UNL A   1      36.702  30.289  38.487  1.00  0.00    -0.744 OA
ENDBRANCH  44  47
ENDBRANCH  26  40
BRANCH  27  51
ATOM     51  C   UNL A   1      42.164  26.325  27.555  1.00  0.00     0.023 A 
ATOM     52  C   UNL A   1      43.021  26.900  26.597  1.00  0.00     0.012 A 
ATOM     53  C   UNL A   1      41.812  24.967  27.436  1.00  0.00     0.148 A 
ATOM     54  C   UNL A   1      43.504  26.140  25.530  1.00  0.00     0.002 A 
ATOM     55  C   UNL A   1      42.345  24.201  26.406  1.00  0.00     0.091 A 
ATOM     56  F   UNL A   1      40.979  24.442  28.347  1.00  0.00    -0.205 F 
ATOM     57  C   UNL A   1      43.179  24.789  25.443  1.00  0.00     0.022 A 
BRANCH  55  58
ATOM     58  S   UNL A   1      42.094  22.425  26.317  1.00  0.00     0.127 S 
ATOM     59  O   UNL A   1      40.646  22.334  26.158  1.00  0.00    -0.237 OA
ATOM     60  O   UNL A   1      42.868  22.065  25.127  1.00  0.00    -0.237 OA
ATOM     61  O   UNL A   1      42.638  21.897  27.561  1.00  0.00    -0.744 OA
ENDBRANCH  55  58
ENDBRANCH  27  51
BRANCH  39  62
ATOM     62  C   UNL A   1      44.698  27.589  33.935  1.00  0.00     0.023 A 
ATOM     63  C   UNL A   1      45.864  28.376  33.840  1.00  0.00     0.012 A 
ATOM     64  C   UNL A   1      44.707  26.431  34.735  1.00  0.00     0.148 A 
ATOM     65  C   UNL A   1      47.028  28.000  34.508  1.00  0.00     0.002 A 
ATOM     66  C   UNL A   1      45.859  26.086  35.432  1.00  0.00     0.091 A 
ATOM     67  F   UNL A   1      43.595  25.683  34.793  1.00  0.00    -0.205 F 
ATOM     68  C   UNL A   1      47.023  26.863  35.313  1.00  0.00     0.022 A 
BRANCH  66  69
ATOM     69  S   UNL A   1      45.910  24.686  36.558  1.00  0.00     0.127 S 
ATOM     70  O   UNL A   1      44.801  24.989  37.460  1.00  0.00    -0.237 OA
ATOM     71  O   UNL A   1      45.674  23.554  35.661  1.00  0.00    -0.237 OA
ATOM     72  O   UNL A   1      47.236  24.710  37.159  1.00  0.00    -0.744 OA
ENDBRANCH  66  69
ENDBRANCH  39  62
ENDBRANCH  13  14
ENDBRANCH   6   8
ENDBRANCH   3   4
ENDBRANCH   2   3
ENDBRANCH   1   2
BRANCH   1  73
ATOM     73  C   UNL A   1      30.196  28.598  22.824  1.00  0.00     0.002 C 
BRANCH  73  74
ATOM     74  C   UNL A   1      29.137  27.749  23.538  1.00  0.00     0.021 C 
BRANCH  74  75
ATOM     75  C   UNL A   1      29.552  26.317  23.861  1.00  0.00     0.116 C 
BRANCH  75  76
ATOM     76  N   UNL A   1      30.119  26.197  25.188  1.00  0.00    -0.354 N 
ATOM     77  C   UNL A   1      31.134  25.405  25.644  1.00  0.00     0.245 C 
ATOM     78  H   UNL A   1      29.708  26.777  25.870  1.00  0.00     0.163 HD
ATOM     79  O   UNL A   1      31.390  25.471  26.849  1.00  0.00    -0.273 OA
BRANCH  77  80
ATOM     80  C   UNL A   1      31.873  24.448  24.673  1.00  0.00     0.200 C 
ATOM     81  C   UNL A   1      33.040  25.149  23.955  1.00  0.00     0.195 C 
ATOM     82  N   UNL A   1      32.384  23.239  25.376  1.00  0.00    -0.322 N 
ATOM     83  O   UNL A   1      34.140  25.428  24.832  1.00  0.00    -0.377 OA
ATOM     84  C   UNL A   1      33.576  23.477  26.200  1.00  0.00     0.149 C 
ATOM     85  C   UNL A   1      34.653  24.221  25.411  1.00  0.00     0.181 C 
BRANCH  82  86
ATOM     86  C   UNL A   1      31.723  22.026  25.518  1.00  0.00     0.256 C 
ATOM     87  O   UNL A   1      30.648  21.905  26.101  1.00  0.00    -0.269 OA
BRANCH  86  88
ATOM     88  C   UNL A   1      32.327  20.788  24.999  1.00  0.00     0.058 A 
ATOM     89  C   UNL A   1      32.900  19.826  25.831  1.00  0.00     0.018 A 
ATOM     90  C   UNL A   1      32.206  20.500  23.648  1.00  0.00     0.126 A 
ATOM     91  C   UNL A   1      33.385  18.644  25.269  1.00  0.00     0.037 A 
ATOM     92  N   UNL A   1      32.669  19.360  23.077  1.00  0.00    -0.249 NA
ATOM     93  C   UNL A   1      33.249  18.457  23.899  1.00  0.00     0.106 A 
ATOM     94  Br  UNL A   1      33.893  16.850  23.127  1.00  0.00    -0.029 Br
ENDBRANCH  86  88
ENDBRANCH  82  86
ENDBRANCH  77  80
ENDBRANCH  75  76
ENDBRANCH  74  75
ENDBRANCH  73  74
ENDBRANCH   1  73
TORSDOF 18
ENDMDL
MODEL 2
REMARK VINA RESULT:     -11.4      5.898      8.638
REMARK SMILES O=C(NCCCCCCNC(=O)[C@H]1COCCN1C(=O)c1ccc(Br)nc1)c1ccc(-c2c3nc(c(-c4cccc(S(=O)(=O)[O-])c4F)c4ccc([nH]4)c(-c4cccc(S(=O)(=O)[O-])c4F)c4nc(c(-c5cccc(S(=O)(=O)[O-])c5F)c5ccc2[nH]5)C=C4)C=C3)cc1
REMARK SMILES IDX 6 1 5 2 4 3 3 4 1 5 2 6 28 8 29 9 90 10 30 11 89 12 31 13
REMARK SMILES IDX 32 14 33 15 83 16 34 17 88 18 82 19 84 20 35 21 87 22 81 23
REMARK SMILES IDX 80 24 36 26 68 27 48 28 67 29 49 30 52 31 66 32 85 33 50 34
REMARK SMILES IDX 51 35 65 37 86 38 53 39 37 40 38 41 46 42 39 43 41 44 47 45
REMARK SMILES IDX 40 46 42 47 43 48 44 49 45 50 69 51 70 52 78 53 71 54 73 55
REMARK SMILES IDX 79 56 72 57 74 58 75 59 76 60 77 61 54 62 55 63 63 64 56 65
REMARK SMILES IDX 58 66 64 67 57 68 59 69 60 70 61 71 62 72 7 73 8 74 9 75
REMARK SMILES IDX 10 76 11 77 12 79 13 80 14 81 18 82 15 83 17 84 16 85 19 86
REMARK SMILES IDX 20 87 21 88 22 89 27 90 23 91 26 92 24 93 25 94
REMARK H PARENT 3 7 84 25 52 36 10 78
REMARK Flexibility Score: inf
ROOT
ATOM      1  C   UNL A   1      39.619  22.519  26.812  1.00  0.00     0.002 C 
ENDROOT
BRANCH   1   2
ATOM      2  C   UNL A   1      39.642  21.196  26.046  1.00  0.00     0.021 C 
BRANCH   2   3
ATOM      3  C   UNL A   1      40.169  19.998  26.826  1.00  0.00     0.116 C 
BRANCH   3   4
ATOM      4  N   UNL A   1      41.206  19.271  26.118  1.00  0.00    -0.352 N 
ATOM      5  O   UNL A   1      43.116  19.005  24.952  1.00  0.00    -0.269 OA
ATOM      6  C   UNL A   1      42.415  19.731  25.653  1.00  0.00     0.251 C 
ATOM      7  H   UNL A   1      41.018  18.320  25.948  1.00  0.00     0.163 HD
BRANCH   6   8
ATOM      8  C   UNL A   1      42.849  21.110  25.974  1.00  0.00     0.039 A 
ATOM      9  C   UNL A   1      43.189  21.468  27.281  1.00  0.00     0.014 A 
ATOM     10  C   UNL A   1      42.915  22.058  24.949  1.00  0.00     0.014 A 
ATOM     11  C   UNL A   1      43.470  22.796  27.585  1.00  0.00     0.010 A 
ATOM     12  C   UNL A   1      43.275  23.376  25.243  1.00  0.00     0.010 A 
ATOM     13  C   UNL A   1      43.529  23.763  26.568  1.00  0.00    -0.014 A 
BRANCH  13  14
ATOM     14  C   UNL A   1      43.946  25.149  26.903  1.00  0.00     0.031 A 
ATOM     15  C   UNL A   1      42.992  26.129  27.525  1.00  0.00     0.074 A 
ATOM     16  C   UNL A   1      45.212  25.520  26.626  1.00  0.00     0.049 A 
ATOM     17  N   UNL A   1      43.214  27.362  27.905  1.00  0.00    -0.248 NA
ATOM     18  C   UNL A   1      41.608  25.677  27.748  1.00  0.00     0.031 C 
ATOM     19  C   UNL A   1      46.210  24.671  25.972  1.00  0.00     0.029 A 
ATOM     20  N   UNL A   1      45.876  26.698  26.855  1.00  0.00    -0.354 N 
ATOM     21  C   UNL A   1      41.999  27.845  28.375  1.00  0.00     0.074 A 
ATOM     22  C   UNL A   1      41.037  26.773  28.229  1.00  0.00     0.031 C 
ATOM     23  C   UNL A   1      47.365  25.345  25.873  1.00  0.00     0.029 A 
ATOM     24  C   UNL A   1      47.178  26.686  26.413  1.00  0.00     0.049 A 
ATOM     25  H   UNL A   1      45.461  27.475  27.292  1.00  0.00     0.167 HD
ATOM     26  C   UNL A   1      41.718  29.064  28.897  1.00  0.00     0.034 A 
ATOM     27  C   UNL A   1      48.118  27.651  26.429  1.00  0.00     0.034 A 
ATOM     28  C   UNL A   1      42.689  30.113  29.073  1.00  0.00     0.049 A 
ATOM     29  C   UNL A   1      47.784  28.979  27.042  1.00  0.00     0.074 A 
ATOM     30  C   UNL A   1      42.515  31.357  29.655  1.00  0.00     0.029 A 
ATOM     31  N   UNL A   1      44.012  30.048  28.660  1.00  0.00    -0.354 N 
ATOM     32  N   UNL A   1      46.668  29.366  27.611  1.00  0.00    -0.248 NA
ATOM     33  C   UNL A   1      48.846  29.995  27.041  1.00  0.00     0.031 C 
ATOM     34  C   UNL A   1      43.730  32.048  29.584  1.00  0.00     0.029 A 
ATOM     35  C   UNL A   1      44.664  31.230  28.968  1.00  0.00     0.049 A 
ATOM     36  H   UNL A   1      44.426  29.274  28.215  1.00  0.00     0.167 HD
ATOM     37  C   UNL A   1      46.897  30.662  28.054  1.00  0.00     0.074 A 
ATOM     38  C   UNL A   1      48.269  30.983  27.715  1.00  0.00     0.031 C 
ATOM     39  C   UNL A   1      46.043  31.517  28.666  1.00  0.00     0.034 A 
BRANCH  26  40
ATOM     40  C   UNL A   1      40.311  29.322  29.366  1.00  0.00     0.023 A 
ATOM     41  C   UNL A   1      39.337  29.739  28.435  1.00  0.00     0.012 A 
ATOM     42  C   UNL A   1      39.928  29.076  30.700  1.00  0.00     0.148 A 
ATOM     43  C   UNL A   1      38.013  29.929  28.827  1.00  0.00     0.002 A 
ATOM     44  C   UNL A   1      38.599  29.233  31.075  1.00  0.00     0.091 A 
ATOM     45  F   UNL A   1      40.871  28.701  31.576  1.00  0.00    -0.205 F 
ATOM     46  C   UNL A   1      37.641  29.666  30.144  1.00  0.00     0.022 A 
BRANCH  44  47
ATOM     47  S   UNL A   1      38.010  28.851  32.730  1.00  0.00     0.127 S 
ATOM     48  O   UNL A   1      38.130  27.395  32.756  1.00  0.00    -0.237 OA
ATOM     49  O   UNL A   1      38.975  29.557  33.574  1.00  0.00    -0.237 OA
ATOM     50  O   UNL A   1      36.652  29.372  32.799  1.00  0.00    -0.744 OA
ENDBRANCH  44  47
ENDBRANCH  26  40
BRANCH  27  51
ATOM     51  C   UNL A   1      49.476  27.361  25.893  1.00  0.00     0.023 A 
ATOM     52  C   UNL A   1      50.455  26.815  26.746  1.00  0.00     0.012 A 
ATOM     53  C   UNL A   1      49.784  27.562  24.533  1.00  0.00     0.148 A 
ATOM     54  C   UNL A   1      51.722  26.493  26.257  1.00  0.00     0.002 A 
ATOM     55  C   UNL A   1      51.027  27.182  24.041  1.00  0.00     0.091 A 
ATOM     56  F   UNL A   1      48.846  28.101  23.741  1.00  0.00    -0.205 F 
ATOM     57  C   UNL A   1      52.003  26.661  24.904  1.00  0.00     0.022 A 
BRANCH  55  58
ATOM     58  S   UNL A   1      51.406  27.228  22.286  1.00  0.00     0.127 S 
ATOM     59  O   UNL A   1      51.617  28.654  22.062  1.00  0.00    -0.237 OA
ATOM     60  O   UNL A   1      52.617  26.406  22.212  1.00  0.00    -0.237 OA
ATOM     61  O   UNL A   1      50.248  26.638  21.627  1.00  0.00    -0.744 OA
ENDBRANCH  55  58
ENDBRANCH  27  51
BRANCH  39  62
ATOM     62  C   UNL A   1      46.568  32.883  29.019  1.00  0.00     0.023 A 
ATOM     63  C   UNL A   1      47.247  33.071  30.239  1.00  0.00     0.012 A 
ATOM     64  C   UNL A   1      46.444  33.961  28.121  1.00  0.00     0.148 A 
ATOM     65  C   UNL A   1      47.767  34.320  30.575  1.00  0.00     0.002 A 
ATOM     66  C   UNL A   1      47.003  35.192  28.445  1.00  0.00     0.091 A 
ATOM     67  F   UNL A   1      45.775  33.767  26.975  1.00  0.00    -0.205 F 
ATOM     68  C   UNL A   1      47.656  35.376  29.674  1.00  0.00     0.022 A 
BRANCH  66  69
ATOM     69  S   UNL A   1      46.980  36.579  27.303  1.00  0.00     0.127 S 
ATOM     70  O   UNL A   1      45.551  36.875  27.223  1.00  0.00    -0.237 OA
ATOM     71  O   UNL A   1      47.771  37.584  28.015  1.00  0.00    -0.237 OA
ATOM     72  O   UNL A   1      47.592  36.092  26.075  1.00  0.00    -0.744 OA
ENDBRANCH  66  69
ENDBRANCH  39  62
ENDBRANCH  13  14
ENDBRANCH   6   8
ENDBRANCH   3   4
ENDBRANCH   2   3
ENDBRANCH   1   2
BRANCH   1  73
ATOM     73  C   UNL A   1      38.811  23.649  26.166  1.00  0.00     0.002 C 
BRANCH  73  74
ATOM     74  C   UNL A   1      37.303  23.643  26.441  1.00  0.00     0.021 C 
BRANCH  74  75
ATOM     75  C   UNL A   1      36.419  23.313  25.241  1.00  0.00     0.116 C 
BRANCH  75  76
ATOM     76  N   UNL A   1      35.344  24.269  25.072  1.00  0.00    -0.354 N 
ATOM     77  C   UNL A   1      34.006  24.141  25.311  1.00  0.00     0.245 C 
ATOM     78  H   UNL A   1      35.622  25.149  24.729  1.00  0.00     0.163 HD
ATOM     79  O   UNL A   1      33.299  25.113  25.035  1.00  0.00    -0.273 OA
BRANCH  77  80
ATOM     80  C   UNL A   1      33.434  22.808  25.859  1.00  0.00     0.200 C 
ATOM     81  C   UNL A   1      32.938  22.951  27.310  1.00  0.00     0.195 C 
ATOM     82  N   UNL A   1      32.327  22.294  25.009  1.00  0.00    -0.322 N 
ATOM     83  O   UNL A   1      31.740  23.734  27.407  1.00  0.00    -0.377 OA
ATOM     84  C   UNL A   1      31.057  23.014  25.169  1.00  0.00     0.149 C 
ATOM     85  C   UNL A   1      30.678  23.145  26.644  1.00  0.00     0.181 C 
BRANCH  82  86
ATOM     86  C   UNL A   1      32.444  21.406  23.948  1.00  0.00     0.256 C 
ATOM     87  O   UNL A   1      32.482  21.760  22.771  1.00  0.00    -0.269 OA
BRANCH  86  88
ATOM     88  C   UNL A   1      32.483  19.955  24.195  1.00  0.00     0.058 A 
ATOM     89  C   UNL A   1      32.623  19.022  23.167  1.00  0.00     0.018 A 
ATOM     90  C   UNL A   1      32.517  19.500  25.505  1.00  0.00     0.126 A 
ATOM     91  C   UNL A   1      32.727  17.668  23.489  1.00  0.00     0.037 A 
ATOM     92  N   UNL A   1      32.617  18.191  25.844  1.00  0.00    -0.249 NA
ATOM     93  C   UNL A   1      32.718  17.303  24.830  1.00  0.00     0.106 A 
ATOM     94  Br  UNL A   1      32.871  15.468  25.279  1.00  0.00    -0.029 Br
ENDBRANCH  86  88
ENDBRANCH  82  86
ENDBRANCH  77  80
ENDBRANCH  75  76
ENDBRANCH  74  75
ENDBRANCH  73  74
ENDBRANCH   1  73
TORSDOF 18
ENDMDL
MODEL 3
REMARK VINA RESULT:     -11.3      2.969      4.428
REMARK SMILES O=C(NCCCCCCNC(=O)[C@H]1COCCN1C(=O)c1ccc(Br)nc1)c1ccc(-c2c3nc(c(-c4cccc(S(=O)(=O)[O-])c4F)c4ccc([nH]4)c(-c4cccc(S(=O)(=O)[O-])c4F)c4nc(c(-c5cccc(S(=O)(=O)[O-])c5F)c5ccc2[nH]5)C=C4)C=C3)cc1
REMARK SMILES IDX 6 1 5 2 4 3 3 4 1 5 2 6 28 8 29 9 90 10 30 11 89 12 31 13
REMARK SMILES IDX 32 14 33 15 83 16 34 17 88 18 82 19 84 20 35 21 87 22 81 23
REMARK SMILES IDX 80 24 36 26 68 27 48 28 67 29 49 30 52 31 66 32 85 33 50 34
REMARK SMILES IDX 51 35 65 37 86 38 53 39 37 40 38 41 46 42 39 43 41 44 47 45
REMARK SMILES IDX 40 46 42 47 43 48 44 49 45 50 69 51 70 52 78 53 71 54 73 55
REMARK SMILES IDX 79 56 72 57 74 58 75 59 76 60 77 61 54 62 55 63 63 64 56 65
REMARK SMILES IDX 58 66 64 67 57 68 59 69 60 70 61 71 62 72 7 73 8 74 9 75
REMARK SMILES IDX 10 76 11 77 12 79 13 80 14 81 18 82 15 83 17 84 16 85 19 86
REMARK SMILES IDX 20 87 21 88 22 89 27 90 23 91 26 92 24 93 25 94
REMARK H PARENT 3 7 84 25 52 36 10 78
REMARK Flexibility Score: inf
ROOT
ATOM      1  C   UNL A   1      35.629  32.510  27.876  1.00  0.00     0.002 C 
ENDROOT
BRANCH   1   2
ATOM      2  C   UNL A   1      34.772  33.775  27.864  1.00  0.00     0.021 C 
BRANCH   2   3
ATOM      3  C   UNL A   1      33.332  33.594  28.326  1.00  0.00     0.116 C 
BRANCH   3   4
ATOM      4  N   UNL A   1      32.902  34.622  29.256  1.00  0.00    -0.352 N 
ATOM      5  O   UNL A   1      32.817  35.733  31.214  1.00  0.00    -0.269 OA
ATOM      6  C   UNL A   1      33.393  34.911  30.507  1.00  0.00     0.251 C 
ATOM      7  H   UNL A   1      32.157  35.189  28.949  1.00  0.00     0.163 HD
BRANCH   6   8
ATOM      8  C   UNL A   1      34.596  34.205  31.005  1.00  0.00     0.039 A 
ATOM      9  C   UNL A   1      35.872  34.742  30.814  1.00  0.00     0.014 A 
ATOM     10  C   UNL A   1      34.441  32.986  31.672  1.00  0.00     0.014 A 
ATOM     11  C   UNL A   1      36.994  34.004  31.174  1.00  0.00     0.010 A 
ATOM     12  C   UNL A   1      35.569  32.283  32.105  1.00  0.00     0.010 A 
ATOM     13  C   UNL A   1      36.856  32.772  31.836  1.00  0.00    -0.014 A 
BRANCH  13  14
ATOM     14  C   UNL A   1      38.070  32.061  32.314  1.00  0.00     0.031 A 
ATOM     15  C   UNL A   1      38.714  32.400  33.629  1.00  0.00     0.074 A 
ATOM     16  C   UNL A   1      38.596  31.098  31.531  1.00  0.00     0.049 A 
ATOM     17  N   UNL A   1      39.756  31.848  34.198  1.00  0.00    -0.248 NA
ATOM     18  C   UNL A   1      38.123  33.501  34.407  1.00  0.00     0.031 C 
ATOM     19  C   UNL A   1      38.088  30.722  30.209  1.00  0.00     0.029 A 
ATOM     20  N   UNL A   1      39.667  30.265  31.725  1.00  0.00    -0.354 N 
ATOM     21  C   UNL A   1      39.969  32.552  35.376  1.00  0.00     0.074 A 
ATOM     22  C   UNL A   1      38.950  33.578  35.442  1.00  0.00     0.031 C 
ATOM     23  C   UNL A   1      38.830  29.719  29.722  1.00  0.00     0.029 A 
ATOM     24  C   UNL A   1      39.892  29.410  30.672  1.00  0.00     0.049 A 
ATOM     25  H   UNL A   1      40.219  30.276  32.539  1.00  0.00     0.167 HD
ATOM     26  C   UNL A   1      40.916  32.349  36.324  1.00  0.00     0.034 A 
ATOM     27  C   UNL A   1      40.854  28.486  30.483  1.00  0.00     0.034 A 
ATOM     28  C   UNL A   1      41.905  31.303  36.270  1.00  0.00     0.049 A 
ATOM     29  C   UNL A   1      41.869  28.263  31.565  1.00  0.00     0.074 A 
ATOM     30  C   UNL A   1      42.862  30.973  37.214  1.00  0.00     0.029 A 
ATOM     31  N   UNL A   1      42.071  30.422  35.211  1.00  0.00    -0.354 N 
ATOM     32  N   UNL A   1      41.964  28.844  32.736  1.00  0.00    -0.248 NA
ATOM     33  C   UNL A   1      42.893  27.239  31.314  1.00  0.00     0.031 C 
ATOM     34  C   UNL A   1      43.615  29.902  36.721  1.00  0.00     0.029 A 
ATOM     35  C   UNL A   1      43.119  29.555  35.474  1.00  0.00     0.049 A 
ATOM     36  H   UNL A   1      41.525  30.414  34.392  1.00  0.00     0.167 HD
ATOM     37  C   UNL A   1      43.045  28.246  33.371  1.00  0.00     0.074 A 
ATOM     38  C   UNL A   1      43.552  27.234  32.465  1.00  0.00     0.031 C 
ATOM     39  C   UNL A   1      43.582  28.523  34.583  1.00  0.00     0.034 A 
BRANCH  26  40
ATOM     40  C   UNL A   1      40.906  33.244  37.535  1.00  0.00     0.023 A 
ATOM     41  C   UNL A   1      40.040  32.945  38.607  1.00  0.00     0.012 A 
ATOM     42  C   UNL A   1      41.803  34.324  37.653  1.00  0.00     0.148 A 
ATOM     43  C   UNL A   1      40.050  33.721  39.766  1.00  0.00     0.002 A 
ATOM     44  C   UNL A   1      41.832  35.071  38.826  1.00  0.00     0.091 A 
ATOM     45  F   UNL A   1      42.604  34.606  36.615  1.00  0.00    -0.205 F 
ATOM     46  C   UNL A   1      40.952  34.776  39.880  1.00  0.00     0.022 A 
BRANCH  44  47
ATOM     47  S   UNL A   1      43.007  36.404  39.095  1.00  0.00     0.127 S 
ATOM     48  O   UNL A   1      42.623  36.870  40.426  1.00  0.00    -0.237 OA
ATOM     49  O   UNL A   1      44.290  35.702  39.042  1.00  0.00    -0.237 OA
ATOM     50  O   UNL A   1      42.790  37.350  38.010  1.00  0.00    -0.744 OA
ENDBRANCH  44  47
ENDBRANCH  26  40
BRANCH  27  51
ATOM     51  C   UNL A   1      40.854  27.671  29.236  1.00  0.00     0.023 A 
ATOM     52  C   UNL A   1      39.912  26.635  29.087  1.00  0.00     0.012 A 
ATOM     53  C   UNL A   1      41.737  27.957  28.177  1.00  0.00     0.148 A 
ATOM     54  C   UNL A   1      39.862  25.886  27.911  1.00  0.00     0.002 A 
ATOM     55  C   UNL A   1      41.641  27.247  26.986  1.00  0.00     0.091 A 
ATOM     56  F   UNL A   1      42.640  28.933  28.345  1.00  0.00    -0.205 F 
ATOM     57  C   UNL A   1      40.715  26.201  26.856  1.00  0.00     0.022 A 
BRANCH  55  58
ATOM     58  S   UNL A   1      42.599  27.696  25.534  1.00  0.00     0.127 S 
ATOM     59  O   UNL A   1      43.949  27.787  26.082  1.00  0.00    -0.237 OA
ATOM     60  O   UNL A   1      42.368  26.553  24.648  1.00  0.00    -0.237 OA
ATOM     61  O   UNL A   1      42.014  28.942  25.058  1.00  0.00    -0.744 OA
ENDBRANCH  55  58
ENDBRANCH  27  51
BRANCH  39  62
ATOM     62  C   UNL A   1      44.778  27.714  35.009  1.00  0.00     0.023 A 
ATOM     63  C   UNL A   1      46.074  28.209  34.764  1.00  0.00     0.012 A 
ATOM     64  C   UNL A   1      44.620  26.497  35.701  1.00  0.00     0.148 A 
ATOM     65  C   UNL A   1      47.196  27.491  35.174  1.00  0.00     0.002 A 
ATOM     66  C   UNL A   1      45.743  25.808  36.144  1.00  0.00     0.091 A 
ATOM     67  F   UNL A   1      43.379  26.031  35.903  1.00  0.00    -0.205 F 
ATOM     68  C   UNL A   1      47.031  26.298  35.874  1.00  0.00     0.022 A 
BRANCH  66  69
ATOM     69  S   UNL A   1      45.616  24.309  37.127  1.00  0.00     0.127 S 
ATOM     70  O   UNL A   1      44.993  23.385  36.181  1.00  0.00    -0.237 OA
ATOM     71  O   UNL A   1      47.017  24.016  37.434  1.00  0.00    -0.237 OA
ATOM     72  O   UNL A   1      44.808  24.663  38.286  1.00  0.00    -0.744 OA
ENDBRANCH  66  69
ENDBRANCH  39  62
ENDBRANCH  13  14
ENDBRANCH   6   8
ENDBRANCH   3   4
ENDBRANCH   2   3
ENDBRANCH   1   2
BRANCH   1  73
ATOM     73  C   UNL A   1      34.924  31.230  28.337  1.00  0.00     0.002 C 
BRANCH  73  74
ATOM     74  C   UNL A   1      35.299  29.945  27.589  1.00  0.00     0.021 C 
BRANCH  74  75
ATOM     75  C   UNL A   1      34.137  29.203  26.936  1.00  0.00     0.116 C 
BRANCH  75  76
ATOM     76  N   UNL A   1      34.199  29.249  25.490  1.00  0.00    -0.354 N 
ATOM     77  C   UNL A   1      33.223  29.038  24.559  1.00  0.00     0.245 C 
ATOM     78  H   UNL A   1      35.085  29.467  25.119  1.00  0.00     0.163 HD
ATOM     79  O   UNL A   1      33.563  29.099  23.375  1.00  0.00    -0.273 OA
BRANCH  77  80
ATOM     80  C   UNL A   1      31.779  28.693  25.006  1.00  0.00     0.200 C 
ATOM     81  C   UNL A   1      30.731  29.550  24.272  1.00  0.00     0.195 C 
ATOM     82  N   UNL A   1      31.468  27.253  24.800  1.00  0.00    -0.322 N 
ATOM     83  O   UNL A   1      30.599  29.191  22.889  1.00  0.00    -0.377 OA
ATOM     84  C   UNL A   1      31.225  26.880  23.401  1.00  0.00     0.149 C 
ATOM     85  C   UNL A   1      30.210  27.819  22.748  1.00  0.00     0.181 C 
BRANCH  82  86
ATOM     86  C   UNL A   1      31.629  26.232  25.728  1.00  0.00     0.256 C 
ATOM     87  O   UNL A   1      30.957  26.137  26.752  1.00  0.00    -0.269 OA
BRANCH  86  88
ATOM     88  C   UNL A   1      32.677  25.215  25.537  1.00  0.00     0.058 A 
ATOM     89  C   UNL A   1      34.035  25.534  25.508  1.00  0.00     0.018 A 
ATOM     90  C   UNL A   1      32.315  23.877  25.519  1.00  0.00     0.126 A 
ATOM     91  C   UNL A   1      34.971  24.505  25.399  1.00  0.00     0.037 A 
ATOM     92  N   UNL A   1      33.205  22.859  25.413  1.00  0.00    -0.249 NA
ATOM     93  C   UNL A   1      34.513  23.194  25.353  1.00  0.00     0.106 A 
ATOM     94  Br  UNL A   1      35.776  21.787  25.216  1.00  0.00    -0.029 Br
ENDBRANCH  86  88
ENDBRANCH  82  86
ENDBRANCH  77  80
ENDBRANCH  75  76
ENDBRANCH  74  75
ENDBRANCH  73  74
ENDBRANCH   1  73
TORSDOF 18
ENDMDL
