MODEL 1
REMARK VINA RESULT:     -12.2      0.000      0.000
REMARK SMILES CS(=O)(=O)c1ccc(/C=C(/C(=O)NCCCCCCNC(=O)c2ccc(-c3c4nc(c(-c5cccc(S(=O)(=O)[O-])c5F)c5ccc([nH]5)c(-c5cccc(S(=O)(=O)[O-])c5F)c5nc(c(-c6cccc(S(=O)(=O)[O-])c6F)c6ccc3[nH]6)C=C5)C=C4)cc2)c2ccc(O)cc2)cc1
REMARK SMILES IDX 17 1 16 2 15 3 14 4 13 5 11 6 12 7 10 9 9 10 8 11 5 12 6 13
REMARK SMILES IDX 94 14 7 15 93 16 2 17 1 18 3 19 4 20 86 21 87 22 92 23 88 24
REMARK SMILES IDX 91 25 89 26 90 27 18 29 19 30 20 31 21 32 22 34 23 35 24 36
REMARK SMILES IDX 85 37 25 38 84 39 26 40 27 41 28 42 78 43 29 44 83 45 77 46
REMARK SMILES IDX 79 47 30 48 82 49 76 50 75 51 31 53 63 54 43 55 62 56 44 57
REMARK SMILES IDX 47 58 61 59 80 60 45 61 46 62 60 64 81 65 48 66 32 67 33 68
REMARK SMILES IDX 41 69 34 70 36 71 42 72 35 73 37 74 38 75 39 76 40 77 64 78
REMARK SMILES IDX 65 79 73 80 66 81 68 82 74 83 67 84 69 85 70 86 71 87 72 88
REMARK SMILES IDX 49 89 50 90 58 91 51 92 53 93 59 94 52 95 54 96 55 97 56 98
REMARK SMILES IDX 57 99
REMARK H PARENT 13 8 90 28 20 33 79 52 47 63
REMARK Flexibility Score: inf
ROOT
ATOM      1  C   UNL A   1      32.159  27.196  26.696  1.00  0.00     0.002 C 
ENDROOT
BRANCH   1   2
ATOM      2  C   UNL A   1      31.128  26.205  26.143  1.00  0.00     0.002 C 
BRANCH   2   3
ATOM      3  C   UNL A   1      30.534  26.581  24.774  1.00  0.00     0.021 C 
BRANCH   3   4
ATOM      4  C   UNL A   1      30.476  25.409  23.790  1.00  0.00     0.116 C 
BRANCH   4   5
ATOM      5  N   UNL A   1      31.457  25.610  22.740  1.00  0.00    -0.352 N 
ATOM      6  C   UNL A   1      32.610  24.985  22.387  1.00  0.00     0.251 C 
ATOM      7  O   UNL A   1      33.249  25.512  21.472  1.00  0.00    -0.269 OA
ATOM      8  H   UNL A   1      31.238  26.368  22.151  1.00  0.00     0.163 HD
BRANCH   6   9
ATOM      9  C   UNL A   1      33.060  23.668  22.978  1.00  0.00     0.047 C 
ATOM     10  C   UNL A   1      32.216  22.621  23.124  1.00  0.00     0.022 C 
BRANCH  10  11
ATOM     11  C   UNL A   1      32.525  21.232  23.530  1.00  0.00    -0.025 A 
ATOM     12  C   UNL A   1      33.244  18.566  24.057  1.00  0.00     0.067 A 
ATOM     13  C   UNL A   1      33.500  19.561  25.004  1.00  0.00     0.021 A 
ATOM     14  C   UNL A   1      32.586  18.879  22.868  1.00  0.00     0.021 A 
ATOM     15  C   UNL A   1      33.121  20.883  24.747  1.00  0.00     0.009 A 
ATOM     16  C   UNL A   1      32.227  20.208  22.613  1.00  0.00     0.009 A 
BRANCH  12  17
ATOM     17  S   UNL A   1      33.798  16.908  24.379  1.00  0.00     0.175 S 
ATOM     18  C   UNL A   1      32.820  16.314  25.730  1.00  0.00     0.163 C 
ATOM     19  O   UNL A   1      35.169  17.005  24.859  1.00  0.00    -0.224 OA
ATOM     20  O   UNL A   1      33.483  16.130  23.200  1.00  0.00    -0.224 OA
ENDBRANCH  12  17
ENDBRANCH  10  11
BRANCH   9  21
ATOM     21  C   UNL A   1      34.431  23.631  23.551  1.00  0.00    -0.013 A 
ATOM     22  C   UNL A   1      34.648  24.224  24.808  1.00  0.00     0.013 A 
ATOM     23  C   UNL A   1      35.492  22.963  22.927  1.00  0.00     0.013 A 
ATOM     24  C   UNL A   1      35.884  24.124  25.443  1.00  0.00     0.047 A 
ATOM     25  C   UNL A   1      36.728  22.845  23.573  1.00  0.00     0.047 A 
ATOM     26  C   UNL A   1      36.907  23.416  24.832  1.00  0.00     0.115 A 
BRANCH  26  27
ATOM     27  O   UNL A   1      38.081  23.289  25.512  1.00  0.00    -0.508 OA
ATOM     28  H   UNL A   1      38.440  22.437  25.672  1.00  0.00     0.293 HD
ENDBRANCH  26  27
ENDBRANCH   9  21
ENDBRANCH   6   9
ENDBRANCH   4   5
ENDBRANCH   3   4
ENDBRANCH   2   3
ENDBRANCH   1   2
BRANCH   1  29
ATOM     29  C   UNL A   1      32.867  28.049  25.641  1.00  0.00     0.021 C 
BRANCH  29  30
ATOM     30  C   UNL A   1      34.113  28.771  26.144  1.00  0.00     0.116 C 
BRANCH  30  31
ATOM     31  N   UNL A   1      33.811  30.115  26.609  1.00  0.00    -0.352 N 
ATOM     32  C   UNL A   1      34.440  30.856  27.579  1.00  0.00     0.251 C 
ATOM     33  H   UNL A   1      33.050  30.555  26.167  1.00  0.00     0.163 HD
ATOM     34  O   UNL A   1      33.927  31.893  27.989  1.00  0.00    -0.269 OA
BRANCH  32  35
ATOM     35  C   UNL A   1      35.729  30.393  28.137  1.00  0.00     0.039 A 
ATOM     36  C   UNL A   1      35.727  29.628  29.306  1.00  0.00     0.014 A 
ATOM     37  C   UNL A   1      36.936  30.723  27.513  1.00  0.00     0.014 A 
ATOM     38  C   UNL A   1      36.934  29.151  29.823  1.00  0.00     0.010 A 
ATOM     39  C   UNL A   1      38.130  30.193  27.993  1.00  0.00     0.010 A 
ATOM     40  C   UNL A   1      38.143  29.409  29.156  1.00  0.00    -0.014 A 
BRANCH  40  41
ATOM     41  C   UNL A   1      39.431  28.864  29.656  1.00  0.00     0.031 A 
ATOM     42  C   UNL A   1      40.163  29.554  30.775  1.00  0.00     0.074 A 
ATOM     43  C   UNL A   1      39.987  27.801  29.042  1.00  0.00     0.049 A 
ATOM     44  N   UNL A   1      41.325  29.267  31.302  1.00  0.00    -0.248 NA
ATOM     45  C   UNL A   1      39.519  30.743  31.360  1.00  0.00     0.031 C 
ATOM     46  C   UNL A   1      39.416  27.094  27.894  1.00  0.00     0.029 A 
ATOM     47  N   UNL A   1      41.170  27.148  29.279  1.00  0.00    -0.354 N 
ATOM     48  C   UNL A   1      41.568  30.252  32.250  1.00  0.00     0.074 A 
ATOM     49  C   UNL A   1      40.447  31.167  32.205  1.00  0.00     0.031 C 
ATOM     50  C   UNL A   1      40.249  26.107  27.526  1.00  0.00     0.029 A 
ATOM     51  C   UNL A   1      41.423  26.125  28.394  1.00  0.00     0.049 A 
ATOM     52  H   UNL A   1      41.781  27.388  30.013  1.00  0.00     0.167 HD
ATOM     53  C   UNL A   1      42.613  30.370  33.104  1.00  0.00     0.034 A 
ATOM     54  C   UNL A   1      42.482  25.298  28.290  1.00  0.00     0.034 A 
ATOM     55  C   UNL A   1      43.698  29.430  33.183  1.00  0.00     0.049 A 
ATOM     56  C   UNL A   1      43.603  25.416  29.286  1.00  0.00     0.074 A 
ATOM     57  C   UNL A   1      44.754  29.409  34.076  1.00  0.00     0.029 A 
ATOM     58  N   UNL A   1      43.869  28.346  32.336  1.00  0.00    -0.354 N 
ATOM     59  N   UNL A   1      43.734  26.257  30.284  1.00  0.00    -0.248 NA
ATOM     60  C   UNL A   1      44.702  24.447  29.168  1.00  0.00     0.031 C 
ATOM     61  C   UNL A   1      45.573  28.319  33.760  1.00  0.00     0.029 A 
ATOM     62  C   UNL A   1      45.016  27.652  32.680  1.00  0.00     0.049 A 
ATOM     63  H   UNL A   1      43.264  28.106  31.597  1.00  0.00     0.167 HD
ATOM     64  C   UNL A   1      44.910  25.899  30.932  1.00  0.00     0.074 A 
ATOM     65  C   UNL A   1      45.443  24.751  30.227  1.00  0.00     0.031 C 
ATOM     66  C   UNL A   1      45.505  26.479  32.004  1.00  0.00     0.034 A 
BRANCH  53  67
ATOM     67  C   UNL A   1      42.602  31.527  34.068  1.00  0.00     0.023 A 
ATOM     68  C   UNL A   1      43.216  32.742  33.700  1.00  0.00     0.012 A 
ATOM     69  C   UNL A   1      41.938  31.436  35.306  1.00  0.00     0.148 A 
ATOM     70  C   UNL A   1      43.199  33.837  34.562  1.00  0.00     0.002 A 
ATOM     71  C   UNL A   1      41.888  32.546  36.143  1.00  0.00     0.091 A 
ATOM     72  F   UNL A   1      41.379  30.267  35.649  1.00  0.00    -0.205 F 
ATOM     73  C   UNL A   1      42.527  33.743  35.777  1.00  0.00     0.022 A 
BRANCH  71  74
ATOM     74  S   UNL A   1      40.983  32.548  37.695  1.00  0.00     0.127 S 
ATOM     75  O   UNL A   1      40.869  33.979  37.969  1.00  0.00    -0.237 OA
ATOM     76  O   UNL A   1      39.726  31.897  37.320  1.00  0.00    -0.237 OA
ATOM     77  O   UNL A   1      41.799  31.793  38.635  1.00  0.00    -0.744 OA
ENDBRANCH  71  74
ENDBRANCH  53  67
BRANCH  54  78
ATOM     78  C   UNL A   1      42.493  24.237  27.244  1.00  0.00     0.023 A 
ATOM     79  C   UNL A   1      43.362  24.362  26.143  1.00  0.00     0.012 A 
ATOM     80  C   UNL A   1      41.680  23.092  27.351  1.00  0.00     0.148 A 
ATOM     81  C   UNL A   1      43.400  23.382  25.152  1.00  0.00     0.002 A 
ATOM     82  C   UNL A   1      41.762  22.093  26.388  1.00  0.00     0.091 A 
ATOM     83  F   UNL A   1      40.849  22.998  28.398  1.00  0.00    -0.205 F 
ATOM     84  C   UNL A   1      42.610  22.243  25.279  1.00  0.00     0.022 A 
BRANCH  82  85
ATOM     85  S   UNL A   1      40.879  20.536  26.545  1.00  0.00     0.127 S 
ATOM     86  O   UNL A   1      39.523  20.920  26.164  1.00  0.00    -0.237 OA
ATOM     87  O   UNL A   1      41.578  19.691  25.574  1.00  0.00    -0.237 OA
ATOM     88  O   UNL A   1      41.058  20.124  27.932  1.00  0.00    -0.744 OA
ENDBRANCH  82  85
ENDBRANCH  54  78
BRANCH  66  89
ATOM     89  C   UNL A   1      46.787  25.869  32.506  1.00  0.00     0.023 A 
ATOM     90  C   UNL A   1      48.023  26.383  32.068  1.00  0.00     0.012 A 
ATOM     91  C   UNL A   1      46.766  24.842  33.470  1.00  0.00     0.148 A 
ATOM     92  C   UNL A   1      49.220  25.865  32.560  1.00  0.00     0.002 A 
ATOM     93  C   UNL A   1      47.963  24.362  33.991  1.00  0.00     0.091 A 
ATOM     94  F   UNL A   1      45.581  24.353  33.860  1.00  0.00    -0.205 F 
ATOM     95  C   UNL A   1      49.190  24.865  33.529  1.00  0.00     0.022 A 
BRANCH  93  96
ATOM     96  S   UNL A   1      48.017  23.143  35.309  1.00  0.00     0.127 S 
ATOM     97  O   UNL A   1      47.127  22.105  34.791  1.00  0.00    -0.237 OA
ATOM     98  O   UNL A   1      49.433  22.776  35.337  1.00  0.00    -0.237 OA
ATOM     99  O   UNL A   1      47.549  23.829  36.506  1.00  0.00    -0.744 OA
ENDBRANCH  93  96
ENDBRANCH  66  89
ENDBRANCH  40  41
ENDBRANCH  32  35
ENDBRANCH  30  31
ENDBRANCH  29  30
ENDBRANCH   1  29
TORSDOF 20
ENDMDL
MODEL 2
REMARK VINA RESULT:     -12.1      1.914      7.712
REMARK SMILES CS(=O)(=O)c1ccc(/C=C(/C(=O)NCCCCCCNC(=O)c2ccc(-c3c4nc(c(-c5cccc(S(=O)(=O)[O-])c5F)c5ccc([nH]5)c(-c5cccc(S(=O)(=O)[O-])c5F)c5nc(c(-c6cccc(S(=O)(=O)[O-])c6F)c6ccc3[nH]6)C=C5)C=C4)cc2)c2ccc(O)cc2)cc1
REMARK SMILES IDX 17 1 16 2 15 3 14 4 13 5 11 6 12 7 10 9 9 10 8 11 5 12 6 13
REMARK SMILES IDX 94 14 7 15 93 16 2 17 1 18 3 19 4 20 86 21 87 22 92 23 88 24
REMARK SMILES IDX 91 25 89 26 90 27 18 29 19 30 20 31 21 32 22 34 23 35 24 36
REMARK SMILES IDX 85 37 25 38 84 39 26 40 27 41 28 42 78 43 29 44 83 45 77 46
REMARK SMILES IDX 79 47 30 48 82 49 76 50 75 51 31 53 63 54 43 55 62 56 44 57
REMARK SMILES IDX 47 58 61 59 80 60 45 61 46 62 60 64 81 65 48 66 32 67 33 68
REMARK SMILES IDX 41 69 34 70 36 71 42 72 35 73 37 74 38 75 39 76 40 77 64 78
REMARK SMILES IDX 65 79 73 80 66 81 68 82 74 83 67 84 69 85 70 86 71 87 72 88
REMARK SMILES IDX 49 89 50 90 58 91 51 92 53 93 59 94 52 95 54 96 55 97 56 98
REMARK SMILES IDX 57 99
REMARK H PARENT 13 8 90 28 20 33 79 52 47 63
REMARK Flexibility Score: inf
ROOT
ATOM      1  C   UNL A   1      32.512  26.720  26.095  1.00  0.00     0.002 C 
ENDROOT
BRANCH   1   2
ATOM      2  C   UNL A   1      31.491  25.576  26.103  1.00  0.00     0.002 C 
BRANCH   2   3
ATOM      3  C   UNL A   1      30.225  25.827  25.265  1.00  0.00     0.021 C 
BRANCH   3   4
ATOM      4  C   UNL A   1      30.138  24.951  24.011  1.00  0.00     0.116 C 
BRANCH   4   5
ATOM      5  N   UNL A   1      31.167  25.350  23.069  1.00  0.00    -0.352 N 
ATOM      6  C   UNL A   1      32.396  24.870  22.745  1.00  0.00     0.251 C 
ATOM      7  O   UNL A   1      33.045  25.548  21.944  1.00  0.00    -0.269 OA
ATOM      8  H   UNL A   1      30.920  26.148  22.547  1.00  0.00     0.163 HD
BRANCH   6   9
ATOM      9  C   UNL A   1      32.924  23.539  23.228  1.00  0.00     0.047 C 
ATOM     10  C   UNL A   1      32.122  22.459  23.380  1.00  0.00     0.022 C 
BRANCH  10  11
ATOM     11  C   UNL A   1      32.498  21.061  23.686  1.00  0.00    -0.025 A 
ATOM     12  C   UNL A   1      33.336  18.399  24.017  1.00  0.00     0.067 A 
ATOM     13  C   UNL A   1      33.592  19.343  25.015  1.00  0.00     0.021 A 
ATOM     14  C   UNL A   1      32.620  18.758  22.875  1.00  0.00     0.021 A 
ATOM     15  C   UNL A   1      33.154  20.662  24.855  1.00  0.00     0.009 A 
ATOM     16  C   UNL A   1      32.202  20.085  22.718  1.00  0.00     0.009 A 
BRANCH  12  17
ATOM     17  S   UNL A   1      33.964  16.748  24.213  1.00  0.00     0.175 S 
ATOM     18  C   UNL A   1      32.837  15.916  25.298  1.00  0.00     0.163 C 
ATOM     19  O   UNL A   1      35.230  16.857  24.922  1.00  0.00    -0.224 OA
ATOM     20  O   UNL A   1      33.899  16.122  22.909  1.00  0.00    -0.224 OA
ENDBRANCH  12  17
ENDBRANCH  10  11
BRANCH   9  21
ATOM     21  C   UNL A   1      34.335  23.514  23.696  1.00  0.00    -0.013 A 
ATOM     22  C   UNL A   1      34.614  23.940  25.007  1.00  0.00     0.013 A 
ATOM     23  C   UNL A   1      35.381  23.012  22.912  1.00  0.00     0.013 A 
ATOM     24  C   UNL A   1      35.899  23.837  25.536  1.00  0.00     0.047 A 
ATOM     25  C   UNL A   1      36.668  22.888  23.449  1.00  0.00     0.047 A 
ATOM     26  C   UNL A   1      36.911  23.290  24.761  1.00  0.00     0.115 A 
BRANCH  26  27
ATOM     27  O   UNL A   1      38.139  23.148  25.334  1.00  0.00    -0.508 OA
ATOM     28  H   UNL A   1      38.826  23.750  25.124  1.00  0.00     0.293 HD
ENDBRANCH  26  27
ENDBRANCH   9  21
ENDBRANCH   6   9
ENDBRANCH   4   5
ENDBRANCH   3   4
ENDBRANCH   2   3
ENDBRANCH   1   2
BRANCH   1  29
ATOM     29  C   UNL A   1      31.916  28.116  25.894  1.00  0.00     0.021 C 
BRANCH  29  30
ATOM     30  C   UNL A   1      32.939  29.198  25.560  1.00  0.00     0.116 C 
BRANCH  30  31
ATOM     31  N   UNL A   1      32.478  30.520  25.954  1.00  0.00    -0.352 N 
ATOM     32  C   UNL A   1      32.976  31.355  26.924  1.00  0.00     0.251 C 
ATOM     33  H   UNL A   1      31.703  30.864  25.456  1.00  0.00     0.163 HD
ATOM     34  O   UNL A   1      32.341  32.349  27.265  1.00  0.00    -0.269 OA
BRANCH  32  35
ATOM     35  C   UNL A   1      34.272  31.046  27.566  1.00  0.00     0.039 A 
ATOM     36  C   UNL A   1      35.202  32.072  27.748  1.00  0.00     0.014 A 
ATOM     37  C   UNL A   1      34.571  29.743  27.976  1.00  0.00     0.014 A 
ATOM     38  C   UNL A   1      36.414  31.802  28.389  1.00  0.00     0.010 A 
ATOM     39  C   UNL A   1      35.751  29.490  28.671  1.00  0.00     0.010 A 
ATOM     40  C   UNL A   1      36.687  30.514  28.877  1.00  0.00    -0.014 A 
BRANCH  40  41
ATOM     41  C   UNL A   1      37.944  30.218  29.612  1.00  0.00     0.031 A 
ATOM     42  C   UNL A   1      38.966  29.287  29.019  1.00  0.00     0.074 A 
ATOM     43  C   UNL A   1      38.123  30.715  30.852  1.00  0.00     0.049 A 
ATOM     44  N   UNL A   1      40.090  28.859  29.535  1.00  0.00    -0.248 NA
ATOM     45  C   UNL A   1      38.675  28.739  27.683  1.00  0.00     0.031 C 
ATOM     46  C   UNL A   1      37.169  31.562  31.568  1.00  0.00     0.029 A 
ATOM     47  N   UNL A   1      39.157  30.554  31.740  1.00  0.00    -0.354 N 
ATOM     48  C   UNL A   1      40.620  27.970  28.609  1.00  0.00     0.074 A 
ATOM     49  C   UNL A   1      39.680  27.893  27.511  1.00  0.00     0.031 C 
ATOM     50  C   UNL A   1      37.660  31.847  32.785  1.00  0.00     0.029 A 
ATOM     51  C   UNL A   1      38.951  31.183  32.946  1.00  0.00     0.049 A 
ATOM     52  H   UNL A   1      39.969  30.037  31.534  1.00  0.00     0.167 HD
ATOM     53  C   UNL A   1      41.798  27.302  28.651  1.00  0.00     0.034 A 
ATOM     54  C   UNL A   1      39.712  31.219  34.057  1.00  0.00     0.034 A 
ATOM     55  C   UNL A   1      42.754  27.422  29.718  1.00  0.00     0.049 A 
ATOM     56  C   UNL A   1      41.041  30.513  34.056  1.00  0.00     0.074 A 
ATOM     57  C   UNL A   1      44.016  26.861  29.809  1.00  0.00     0.029 A 
ATOM     58  N   UNL A   1      42.555  28.151  30.880  1.00  0.00    -0.354 N 
ATOM     59  N   UNL A   1      41.600  29.809  33.101  1.00  0.00    -0.248 NA
ATOM     60  C   UNL A   1      41.862  30.638  35.269  1.00  0.00     0.031 C 
ATOM     61  C   UNL A   1      44.574  27.240  31.035  1.00  0.00     0.029 A 
ATOM     62  C   UNL A   1      43.667  28.050  31.699  1.00  0.00     0.049 A 
ATOM     63  H   UNL A   1      41.742  28.665  31.092  1.00  0.00     0.167 HD
ATOM     64  C   UNL A   1      42.849  29.436  33.583  1.00  0.00     0.074 A 
ATOM     65  C   UNL A   1      42.974  30.010  34.907  1.00  0.00     0.031 C 
ATOM     66  C   UNL A   1      43.800  28.673  32.990  1.00  0.00     0.034 A 
BRANCH  53  67
ATOM     67  C   UNL A   1      42.148  26.426  27.477  1.00  0.00     0.023 A 
ATOM     68  C   UNL A   1      42.809  26.987  26.366  1.00  0.00     0.012 A 
ATOM     69  C   UNL A   1      41.877  25.043  27.494  1.00  0.00     0.148 A 
ATOM     70  C   UNL A   1      43.167  26.195  25.276  1.00  0.00     0.002 A 
ATOM     71  C   UNL A   1      42.275  24.252  26.421  1.00  0.00     0.091 A 
ATOM     72  F   UNL A   1      41.227  24.531  28.548  1.00  0.00    -0.205 F 
ATOM     73  C   UNL A   1      42.910  24.828  25.309  1.00  0.00     0.022 A 
BRANCH  71  74
ATOM     74  S   UNL A   1      42.056  22.469  26.402  1.00  0.00     0.127 S 
ATOM     75  O   UNL A   1      42.636  22.115  25.108  1.00  0.00    -0.237 OA
ATOM     76  O   UNL A   1      42.846  22.048  27.560  1.00  0.00    -0.237 OA
ATOM     77  O   UNL A   1      40.624  22.240  26.531  1.00  0.00    -0.744 OA
ENDBRANCH  71  74
ENDBRANCH  53  67
BRANCH  54  78
ATOM     78  C   UNL A   1      39.267  32.015  35.235  1.00  0.00     0.023 A 
ATOM     79  C   UNL A   1      38.423  31.416  36.191  1.00  0.00     0.012 A 
ATOM     80  C   UNL A   1      39.700  33.339  35.434  1.00  0.00     0.148 A 
ATOM     81  C   UNL A   1      37.994  32.133  37.308  1.00  0.00     0.002 A 
ATOM     82  C   UNL A   1      39.314  34.029  36.577  1.00  0.00     0.091 A 
ATOM     83  F   UNL A   1      40.492  33.895  34.506  1.00  0.00    -0.205 F 
ATOM     84  C   UNL A   1      38.448  33.434  37.508  1.00  0.00     0.022 A 
BRANCH  82  85
ATOM     85  S   UNL A   1      39.959  35.658  36.977  1.00  0.00     0.127 S 
ATOM     86  O   UNL A   1      39.279  35.949  38.236  1.00  0.00    -0.237 OA
ATOM     87  O   UNL A   1      41.395  35.395  37.096  1.00  0.00    -0.237 OA
ATOM     88  O   UNL A   1      39.600  36.508  35.849  1.00  0.00    -0.744 OA
ENDBRANCH  82  85
ENDBRANCH  54  78
BRANCH  66  89
ATOM     89  C   UNL A   1      45.077  28.433  33.751  1.00  0.00     0.023 A 
ATOM     90  C   UNL A   1      46.142  29.348  33.633  1.00  0.00     0.012 A 
ATOM     91  C   UNL A   1      45.192  27.347  34.641  1.00  0.00     0.148 A 
ATOM     92  C   UNL A   1      47.313  29.170  34.369  1.00  0.00     0.002 A 
ATOM     93  C   UNL A   1      46.344  27.202  35.405  1.00  0.00     0.091 A 
ATOM     94  F   UNL A   1      44.176  26.477  34.724  1.00  0.00    -0.205 F 
ATOM     95  C   UNL A   1      47.409  28.106  35.262  1.00  0.00     0.022 A 
BRANCH  93  96
ATOM     96  S   UNL A   1      46.517  25.917  36.649  1.00  0.00     0.127 S 
ATOM     97  O   UNL A   1      47.846  26.199  37.186  1.00  0.00    -0.237 OA
ATOM     98  O   UNL A   1      45.413  26.216  37.562  1.00  0.00    -0.237 OA
ATOM     99  O   UNL A   1      46.383  24.653  35.937  1.00  0.00    -0.744 OA
ENDBRANCH  93  96
ENDBRANCH  66  89
ENDBRANCH  40  41
ENDBRANCH  32  35
ENDBRANCH  30  31
ENDBRANCH  29  30
ENDBRANCH   1  29
TORSDOF 20
ENDMDL
MODEL 3
REMARK VINA RESULT:     -12.0      1.818      2.479
REMARK SMILES CS(=O)(=O)c1ccc(/C=C(/C(=O)NCCCCCCNC(=O)c2ccc(-c3c4nc(c(-c5cccc(S(=O)(=O)[O-])c5F)c5ccc([nH]5)c(-c5cccc(S(=O)(=O)[O-])c5F)c5nc(c(-c6cccc(S(=O)(=O)[O-])c6F)c6ccc3[nH]6)C=C5)C=C4)cc2)c2ccc(O)cc2)cc1
REMARK SMILES IDX 17 1 16 2 15 3 14 4 13 5 11 6 12 7 10 9 9 10 8 11 5 12 6 13
REMARK SMILES IDX 94 14 7 15 93 16 2 17 1 18 3 19 4 20 86 21 87 22 92 23 88 24
REMARK SMILES IDX 91 25 89 26 90 27 18 29 19 30 20 31 21 32 22 34 23 35 24 36
REMARK SMILES IDX 85 37 25 38 84 39 26 40 27 41 28 42 78 43 29 44 83 45 77 46
REMARK SMILES IDX 79 47 30 48 82 49 76 50 75 51 31 53 63 54 43 55 62 56 44 57
REMARK SMILES IDX 47 58 61 59 80 60 45 61 46 62 60 64 81 65 48 66 32 67 33 68
REMARK SMILES IDX 41 69 34 70 36 71 42 72 35 73 37 74 38 75 39 76 40 77 64 78
REMARK SMILES IDX 65 79 73 80 66 81 68 82 74 83 67 84 69 85 70 86 71 87 72 88
REMARK SMILES IDX 49 89 50 90 58 91 51 92 53 93 59 94 52 95 54 96 55 97 56 98
REMARK SMILES IDX 57 99
REMARK H PARENT 13 8 90 28 20 33 79 52 47 63
REMARK Flexibility Score: inf
ROOT
ATOM      1  C   UNL A   1      32.438  27.066  25.872  1.00  0.00     0.002 C 
ENDROOT
BRANCH   1   2
ATOM      2  C   UNL A   1      31.168  26.233  26.086  1.00  0.00     0.002 C 
BRANCH   2   3
ATOM      3  C   UNL A   1      30.151  26.289  24.932  1.00  0.00     0.021 C 
BRANCH   3   4
ATOM      4  C   UNL A   1      30.274  25.117  23.952  1.00  0.00     0.116 C 
BRANCH   4   5
ATOM      5  N   UNL A   1      31.259  25.436  22.936  1.00  0.00    -0.352 N 
ATOM      6  C   UNL A   1      32.457  24.908  22.576  1.00  0.00     0.251 C 
ATOM      7  O   UNL A   1      33.077  25.523  21.705  1.00  0.00    -0.269 OA
ATOM      8  H   UNL A   1      31.001  26.209  22.383  1.00  0.00     0.163 HD
BRANCH   6   9
ATOM      9  C   UNL A   1      32.982  23.594  23.108  1.00  0.00     0.047 C 
ATOM     10  C   UNL A   1      32.190  22.504  23.240  1.00  0.00     0.022 C 
BRANCH  10  11
ATOM     11  C   UNL A   1      32.572  21.118  23.588  1.00  0.00    -0.025 A 
ATOM     12  C   UNL A   1      33.393  18.460  23.988  1.00  0.00     0.067 A 
ATOM     13  C   UNL A   1      33.775  19.454  24.892  1.00  0.00     0.021 A 
ATOM     14  C   UNL A   1      32.561  18.768  22.912  1.00  0.00     0.021 A 
ATOM     15  C   UNL A   1      33.347  20.773  24.700  1.00  0.00     0.009 A 
ATOM     16  C   UNL A   1      32.152  20.093  22.721  1.00  0.00     0.009 A 
BRANCH  12  17
ATOM     17  S   UNL A   1      34.008  16.807  24.215  1.00  0.00     0.175 S 
ATOM     18  C   UNL A   1      32.814  15.969  25.220  1.00  0.00     0.163 C 
ATOM     19  O   UNL A   1      35.226  16.913  25.005  1.00  0.00    -0.224 OA
ATOM     20  O   UNL A   1      34.028  16.189  22.906  1.00  0.00    -0.224 OA
ENDBRANCH  12  17
ENDBRANCH  10  11
BRANCH   9  21
ATOM     21  C   UNL A   1      34.369  23.599  23.643  1.00  0.00    -0.013 A 
ATOM     22  C   UNL A   1      34.591  24.134  24.925  1.00  0.00     0.013 A 
ATOM     23  C   UNL A   1      35.445  23.025  22.955  1.00  0.00     0.013 A 
ATOM     24  C   UNL A   1      35.848  24.067  25.521  1.00  0.00     0.047 A 
ATOM     25  C   UNL A   1      36.704  22.939  23.561  1.00  0.00     0.047 A 
ATOM     26  C   UNL A   1      36.889  23.449  24.845  1.00  0.00     0.115 A 
BRANCH  26  27
ATOM     27  O   UNL A   1      38.087  23.349  25.486  1.00  0.00    -0.508 OA
ATOM     28  H   UNL A   1      38.247  23.850  26.262  1.00  0.00     0.293 HD
ENDBRANCH  26  27
ENDBRANCH   9  21
ENDBRANCH   6   9
ENDBRANCH   4   5
ENDBRANCH   3   4
ENDBRANCH   2   3
ENDBRANCH   1   2
BRANCH   1  29
ATOM     29  C   UNL A   1      32.310  28.185  24.835  1.00  0.00     0.021 C 
BRANCH  29  30
ATOM     30  C   UNL A   1      33.334  29.306  24.987  1.00  0.00     0.116 C 
BRANCH  30  31
ATOM     31  N   UNL A   1      32.764  30.477  25.634  1.00  0.00    -0.352 N 
ATOM     32  C   UNL A   1      33.125  31.071  26.818  1.00  0.00     0.251 C 
ATOM     33  H   UNL A   1      32.018  30.904  25.156  1.00  0.00     0.163 HD
ATOM     34  O   UNL A   1      32.405  31.930  27.319  1.00  0.00    -0.269 OA
BRANCH  32  35
ATOM     35  C   UNL A   1      34.374  30.661  27.495  1.00  0.00     0.039 A 
ATOM     36  C   UNL A   1      35.407  31.591  27.636  1.00  0.00     0.014 A 
ATOM     37  C   UNL A   1      34.528  29.359  27.980  1.00  0.00     0.014 A 
ATOM     38  C   UNL A   1      36.577  31.229  28.309  1.00  0.00     0.010 A 
ATOM     39  C   UNL A   1      35.667  29.021  28.706  1.00  0.00     0.010 A 
ATOM     40  C   UNL A   1      36.706  29.949  28.870  1.00  0.00    -0.014 A 
BRANCH  40  41
ATOM     41  C   UNL A   1      37.917  29.562  29.639  1.00  0.00     0.031 A 
ATOM     42  C   UNL A   1      38.170  30.150  31.000  1.00  0.00     0.074 A 
ATOM     43  C   UNL A   1      38.835  28.754  29.072  1.00  0.00     0.049 A 
ATOM     44  N   UNL A   1      39.198  29.984  31.792  1.00  0.00    -0.248 NA
ATOM     45  C   UNL A   1      37.148  31.069  31.531  1.00  0.00     0.031 C 
ATOM     46  C   UNL A   1      38.744  28.186  27.726  1.00  0.00     0.029 A 
ATOM     47  N   UNL A   1      40.038  28.294  29.546  1.00  0.00    -0.354 N 
ATOM     48  C   UNL A   1      38.967  30.800  32.892  1.00  0.00     0.074 A 
ATOM     49  C   UNL A   1      37.715  31.487  32.653  1.00  0.00     0.031 C 
ATOM     50  C   UNL A   1      39.843  27.455  27.481  1.00  0.00     0.029 A 
ATOM     51  C   UNL A   1      40.728  27.522  28.641  1.00  0.00     0.049 A 
ATOM     52  H   UNL A   1      40.375  28.499  30.448  1.00  0.00     0.167 HD
ATOM     53  C   UNL A   1      39.711  30.942  34.015  1.00  0.00     0.034 A 
ATOM     54  C   UNL A   1      41.938  26.936  28.733  1.00  0.00     0.034 A 
ATOM     55  C   UNL A   1      40.926  30.218  34.274  1.00  0.00     0.049 A 
ATOM     56  C   UNL A   1      42.719  27.065  30.013  1.00  0.00     0.074 A 
ATOM     57  C   UNL A   1      41.702  30.221  35.419  1.00  0.00     0.029 A 
ATOM     58  N   UNL A   1      41.544  29.364  33.374  1.00  0.00    -0.354 N 
ATOM     59  N   UNL A   1      42.402  27.712  31.109  1.00  0.00    -0.248 NA
ATOM     60  C   UNL A   1      44.002  26.353  30.085  1.00  0.00     0.031 C 
ATOM     61  C   UNL A   1      42.798  29.378  35.206  1.00  0.00     0.029 A 
ATOM     62  C   UNL A   1      42.695  28.838  33.934  1.00  0.00     0.049 A 
ATOM     63  H   UNL A   1      41.213  29.161  32.469  1.00  0.00     0.167 HD
ATOM     64  C   UNL A   1      43.429  27.458  32.011  1.00  0.00     0.074 A 
ATOM     65  C   UNL A   1      44.366  26.581  31.340  1.00  0.00     0.031 C 
ATOM     66  C   UNL A   1      43.590  27.922  33.275  1.00  0.00     0.034 A 
BRANCH  53  67
ATOM     67  C   UNL A   1      39.197  31.874  35.081  1.00  0.00     0.023 A 
ATOM     68  C   UNL A   1      38.194  31.429  35.966  1.00  0.00     0.012 A 
ATOM     69  C   UNL A   1      39.742  33.162  35.246  1.00  0.00     0.148 A 
ATOM     70  C   UNL A   1      37.717  32.261  36.978  1.00  0.00     0.002 A 
ATOM     71  C   UNL A   1      39.292  33.971  36.285  1.00  0.00     0.091 A 
ATOM     72  F   UNL A   1      40.679  33.578  34.382  1.00  0.00    -0.205 F 
ATOM     73  C   UNL A   1      38.273  33.526  37.144  1.00  0.00     0.022 A 
BRANCH  71  74
ATOM     74  S   UNL A   1      39.997  35.588  36.626  1.00  0.00     0.127 S 
ATOM     75  O   UNL A   1      41.417  35.267  36.762  1.00  0.00    -0.237 OA
ATOM     76  O   UNL A   1      39.654  36.337  35.416  1.00  0.00    -0.237 OA
ATOM     77  O   UNL A   1      39.344  36.062  37.838  1.00  0.00    -0.744 OA
ENDBRANCH  71  74
ENDBRANCH  53  67
BRANCH  54  78
ATOM     78  C   UNL A   1      42.450  26.112  27.602  1.00  0.00     0.023 A 
ATOM     79  C   UNL A   1      43.376  26.675  26.702  1.00  0.00     0.012 A 
ATOM     80  C   UNL A   1      42.058  24.770  27.434  1.00  0.00     0.148 A 
ATOM     81  C   UNL A   1      43.878  25.926  25.638  1.00  0.00     0.002 A 
ATOM     82  C   UNL A   1      42.604  24.013  26.404  1.00  0.00     0.091 A 
ATOM     83  F   UNL A   1      41.166  24.257  28.293  1.00  0.00    -0.205 F 
ATOM     84  C   UNL A   1      43.502  24.594  25.495  1.00  0.00     0.022 A 
BRANCH  82  85
ATOM     85  S   UNL A   1      42.276  22.255  26.229  1.00  0.00     0.127 S 
ATOM     86  O   UNL A   1      43.016  21.931  25.013  1.00  0.00    -0.237 OA
ATOM     87  O   UNL A   1      42.848  21.715  27.464  1.00  0.00    -0.237 OA
ATOM     88  O   UNL A   1      40.826  22.136  26.142  1.00  0.00    -0.744 OA
ENDBRANCH  82  85
ENDBRANCH  54  78
BRANCH  66  89
ATOM     89  C   UNL A   1      44.810  27.472  34.035  1.00  0.00     0.023 A 
ATOM     90  C   UNL A   1      45.980  28.255  34.003  1.00  0.00     0.012 A 
ATOM     91  C   UNL A   1      44.770  26.318  34.841  1.00  0.00     0.148 A 
ATOM     92  C   UNL A   1      47.102  27.882  34.740  1.00  0.00     0.002 A 
ATOM     93  C   UNL A   1      45.877  25.977  35.610  1.00  0.00     0.091 A 
ATOM     94  F   UNL A   1      43.654  25.576  34.843  1.00  0.00    -0.205 F 
ATOM     95  C   UNL A   1      47.048  26.751  35.552  1.00  0.00     0.022 A 
BRANCH  93  96
ATOM     96  S   UNL A   1      45.862  24.593  36.755  1.00  0.00     0.127 S 
ATOM     97  O   UNL A   1      47.043  24.868  37.571  1.00  0.00    -0.237 OA
ATOM     98  O   UNL A   1      44.586  24.775  37.447  1.00  0.00    -0.237 OA
ATOM     99  O   UNL A   1      45.934  23.394  35.931  1.00  0.00    -0.744 OA
ENDBRANCH  93  96
ENDBRANCH  66  89
ENDBRANCH  40  41
ENDBRANCH  32  35
ENDBRANCH  30  31
ENDBRANCH  29  30
ENDBRANCH   1  29
TORSDOF 20
ENDMDL
