MODEL 1
REMARK VINA RESULT:     -11.4      0.000      0.000
REMARK SMILES CCOc1cccc(-c2ccc([C@@H](C)C(=O)NCCCCCCNC(=O)c3ccc(-c4c5nc(c(-c6cccc(S(=O)(=O)[O-])c6F)c6ccc([nH]6)c(-c6cccc(S(=O)(=O)[O-])c6F)c6nc(c(-c7cccc(S(=O)(=O)[O-])c7F)c7ccc4[nH]7)C=C6)C=C5)cc3)cc2F)c1
REMARK SMILES IDX 20 1 19 2 18 3 17 4 15 5 16 6 13 8 14 9 12 10 9 11 10 12
REMARK SMILES IDX 91 13 11 14 90 15 92 16 8 17 4 18 5 19 93 20 6 21 7 22 3 23
REMARK SMILES IDX 2 24 1 25 21 26 22 27 23 28 24 29 25 30 26 32 27 33 28 34
REMARK SMILES IDX 89 35 29 36 88 37 30 38 31 39 32 40 82 41 33 42 87 43 81 44
REMARK SMILES IDX 83 45 34 46 86 47 80 48 79 49 35 51 67 52 47 53 66 54 48 55
REMARK SMILES IDX 51 56 65 57 84 58 49 59 50 60 64 62 85 63 52 64 36 65 37 66
REMARK SMILES IDX 45 67 38 68 40 69 46 70 39 71 41 72 42 73 43 74 44 75 68 76
REMARK SMILES IDX 69 77 77 78 70 79 72 80 78 81 71 82 73 83 74 84 75 85 76 86
REMARK SMILES IDX 53 87 54 88 62 89 55 90 57 91 63 92 56 93 58 94 59 95 60 96
REMARK SMILES IDX 61 97
REMARK H PARENT 17 7 24 31 83 50 51 61
REMARK Flexibility Score: inf
ROOT
ATOM      1  C   UNL A   1      34.051  25.829  24.548  1.00  0.00     0.002 C 
ENDROOT
BRANCH   1   2
ATOM      2  C   UNL A   1      34.298  24.995  23.287  1.00  0.00     0.021 C 
BRANCH   2   3
ATOM      3  C   UNL A   1      34.786  23.574  23.578  1.00  0.00     0.116 C 
BRANCH   3   4
ATOM      4  N   UNL A   1      34.727  23.274  24.993  1.00  0.00    -0.356 N 
ATOM      5  C   UNL A   1      33.715  22.808  25.773  1.00  0.00     0.227 C 
ATOM      6  O   UNL A   1      33.938  22.753  26.988  1.00  0.00    -0.274 OA
ATOM      7  H   UNL A   1      35.569  23.437  25.476  1.00  0.00     0.163 HD
BRANCH   5   8
ATOM      8  C   UNL A   1      32.359  22.339  25.222  1.00  0.00     0.105 C 
ATOM      9  C   UNL A   1      32.452  21.170  24.243  1.00  0.00     0.023 C 
BRANCH   8  10
ATOM     10  C   UNL A   1      31.434  23.473  24.809  1.00  0.00    -0.033 A 
ATOM     11  C   UNL A   1      29.797  25.725  24.103  1.00  0.00     0.018 A 
ATOM     12  C   UNL A   1      30.226  24.790  23.148  1.00  0.00     0.012 A 
ATOM     13  C   UNL A   1      30.177  25.465  25.431  1.00  0.00     0.131 A 
ATOM     14  C   UNL A   1      30.994  23.671  23.499  1.00  0.00     0.005 A 
ATOM     15  C   UNL A   1      30.996  24.384  25.777  1.00  0.00     0.044 A 
ATOM     16  F   UNL A   1      29.763  26.254  26.435  1.00  0.00    -0.206 F 
BRANCH  11  17
ATOM     17  C   UNL A   1      29.024  26.928  23.703  1.00  0.00    -0.012 A 
ATOM     18  C   UNL A   1      28.936  29.150  22.676  1.00  0.00     0.119 A 
ATOM     19  C   UNL A   1      27.562  29.211  22.858  1.00  0.00     0.046 A 
ATOM     20  C   UNL A   1      29.656  28.035  23.107  1.00  0.00     0.055 A 
ATOM     21  C   UNL A   1      26.904  28.136  23.450  1.00  0.00     0.004 A 
ATOM     22  C   UNL A   1      27.629  27.012  23.869  1.00  0.00     0.009 A 
BRANCH  18  23
ATOM     23  O   UNL A   1      29.582  30.251  22.182  1.00  0.00    -0.494 OA
BRANCH  23  24
ATOM     24  C   UNL A   1      28.690  31.217  21.613  1.00  0.00     0.226 C 
ATOM     25  C   UNL A   1      28.753  32.551  22.345  1.00  0.00     0.049 C 
ENDBRANCH  23  24
ENDBRANCH  18  23
ENDBRANCH  11  17
ENDBRANCH   8  10
ENDBRANCH   5   8
ENDBRANCH   3   4
ENDBRANCH   2   3
ENDBRANCH   1   2
BRANCH   1  26
ATOM     26  C   UNL A   1      33.258  27.124  24.321  1.00  0.00     0.002 C 
BRANCH  26  27
ATOM     27  C   UNL A   1      32.882  27.893  25.591  1.00  0.00     0.021 C 
BRANCH  27  28
ATOM     28  C   UNL A   1      34.069  28.465  26.363  1.00  0.00     0.116 C 
BRANCH  28  29
ATOM     29  N   UNL A   1      33.859  29.863  26.711  1.00  0.00    -0.352 N 
ATOM     30  C   UNL A   1      34.546  30.654  27.596  1.00  0.00     0.251 C 
ATOM     31  H   UNL A   1      33.113  30.305  26.242  1.00  0.00     0.163 HD
ATOM     32  O   UNL A   1      34.074  31.731  27.949  1.00  0.00    -0.269 OA
BRANCH  30  33
ATOM     33  C   UNL A   1      35.853  30.209  28.124  1.00  0.00     0.039 A 
ATOM     34  C   UNL A   1      35.914  29.635  29.397  1.00  0.00     0.014 A 
ATOM     35  C   UNL A   1      37.019  30.381  27.374  1.00  0.00     0.014 A 
ATOM     36  C   UNL A   1      37.139  29.189  29.897  1.00  0.00     0.010 A 
ATOM     37  C   UNL A   1      38.227  29.872  27.845  1.00  0.00     0.010 A 
ATOM     38  C   UNL A   1      38.302  29.280  29.113  1.00  0.00    -0.014 A 
BRANCH  38  39
ATOM     39  C   UNL A   1      39.604  28.758  29.601  1.00  0.00     0.031 A 
ATOM     40  C   UNL A   1      40.338  29.465  30.708  1.00  0.00     0.074 A 
ATOM     41  C   UNL A   1      40.165  27.697  28.987  1.00  0.00     0.049 A 
ATOM     42  N   UNL A   1      41.510  29.195  31.224  1.00  0.00    -0.248 NA
ATOM     43  C   UNL A   1      39.684  30.647  31.295  1.00  0.00     0.031 C 
ATOM     44  C   UNL A   1      39.588  26.974  27.853  1.00  0.00     0.029 A 
ATOM     45  N   UNL A   1      41.361  27.062  29.213  1.00  0.00    -0.354 N 
ATOM     46  C   UNL A   1      41.748  30.189  32.167  1.00  0.00     0.074 A 
ATOM     47  C   UNL A   1      40.616  31.088  32.128  1.00  0.00     0.031 C 
ATOM     48  C   UNL A   1      40.427  25.993  27.483  1.00  0.00     0.029 A 
ATOM     49  C   UNL A   1      41.613  26.035  28.333  1.00  0.00     0.049 A 
ATOM     50  H   UNL A   1      41.979  27.316  29.937  1.00  0.00     0.167 HD
ATOM     51  C   UNL A   1      42.800  30.324  33.010  1.00  0.00     0.034 A 
ATOM     52  C   UNL A   1      42.684  25.225  28.217  1.00  0.00     0.034 A 
ATOM     53  C   UNL A   1      43.903  29.404  33.074  1.00  0.00     0.049 A 
ATOM     54  C   UNL A   1      43.822  25.373  29.191  1.00  0.00     0.074 A 
ATOM     55  C   UNL A   1      44.973  29.405  33.951  1.00  0.00     0.029 A 
ATOM     56  N   UNL A   1      44.083  28.325  32.224  1.00  0.00    -0.354 N 
ATOM     57  N   UNL A   1      43.955  26.223  30.180  1.00  0.00    -0.248 NA
ATOM     58  C   UNL A   1      44.939  24.429  29.056  1.00  0.00     0.031 C 
ATOM     59  C   UNL A   1      45.814  28.338  33.614  1.00  0.00     0.029 A 
ATOM     60  C   UNL A   1      45.252  27.656  32.548  1.00  0.00     0.049 A 
ATOM     61  H   UNL A   1      43.470  28.070  31.496  1.00  0.00     0.167 HD
ATOM     62  C   UNL A   1      45.150  25.894  30.808  1.00  0.00     0.074 A 
ATOM     63  C   UNL A   1      45.692  24.752  30.099  1.00  0.00     0.031 C 
ATOM     64  C   UNL A   1      45.752  26.489  31.867  1.00  0.00     0.034 A 
BRANCH  51  65
ATOM     65  C   UNL A   1      42.783  31.485  33.971  1.00  0.00     0.023 A 
ATOM     66  C   UNL A   1      43.355  32.715  33.585  1.00  0.00     0.012 A 
ATOM     67  C   UNL A   1      42.153  31.380  35.226  1.00  0.00     0.148 A 
ATOM     68  C   UNL A   1      43.333  33.811  34.447  1.00  0.00     0.002 A 
ATOM     69  C   UNL A   1      42.094  32.491  36.061  1.00  0.00     0.091 A 
ATOM     70  F   UNL A   1      41.633  30.198  35.585  1.00  0.00    -0.205 F 
ATOM     71  C   UNL A   1      42.693  33.703  35.678  1.00  0.00     0.022 A 
BRANCH  69  72
ATOM     72  S   UNL A   1      41.225  32.477  37.633  1.00  0.00     0.127 S 
ATOM     73  O   UNL A   1      42.081  31.603  38.435  1.00  0.00    -0.237 OA
ATOM     74  O   UNL A   1      41.264  33.888  38.019  1.00  0.00    -0.237 OA
ATOM     75  O   UNL A   1      39.893  31.960  37.351  1.00  0.00    -0.744 OA
ENDBRANCH  69  72
ENDBRANCH  51  65
BRANCH  52  76
ATOM     76  C   UNL A   1      42.700  24.156  27.179  1.00  0.00     0.023 A 
ATOM     77  C   UNL A   1      43.378  24.381  25.964  1.00  0.00     0.012 A 
ATOM     78  C   UNL A   1      42.075  22.914  27.396  1.00  0.00     0.148 A 
ATOM     79  C   UNL A   1      43.403  23.401  24.971  1.00  0.00     0.002 A 
ATOM     80  C   UNL A   1      42.151  21.920  26.425  1.00  0.00     0.091 A 
ATOM     81  F   UNL A   1      41.426  22.722  28.553  1.00  0.00    -0.205 F 
ATOM     82  C   UNL A   1      42.799  22.168  25.205  1.00  0.00     0.022 A 
BRANCH  80  83
ATOM     83  S   UNL A   1      41.520  20.261  26.696  1.00  0.00     0.127 S 
ATOM     84  O   UNL A   1      41.880  19.596  25.447  1.00  0.00    -0.237 OA
ATOM     85  O   UNL A   1      42.287  19.832  27.867  1.00  0.00    -0.237 OA
ATOM     86  O   UNL A   1      40.093  20.418  26.943  1.00  0.00    -0.744 OA
ENDBRANCH  80  83
ENDBRANCH  52  76
BRANCH  64  87
ATOM     87  C   UNL A   1      47.048  25.899  32.357  1.00  0.00     0.023 A 
ATOM     88  C   UNL A   1      48.273  26.373  31.848  1.00  0.00     0.012 A 
ATOM     89  C   UNL A   1      47.053  24.927  33.377  1.00  0.00     0.148 A 
ATOM     90  C   UNL A   1      49.482  25.866  32.324  1.00  0.00     0.002 A 
ATOM     91  C   UNL A   1      48.262  24.464  33.883  1.00  0.00     0.091 A 
ATOM     92  F   UNL A   1      45.876  24.475  33.835  1.00  0.00    -0.205 F 
ATOM     93  C   UNL A   1      49.477  24.922  33.347  1.00  0.00     0.022 A 
BRANCH  91  94
ATOM     94  S   UNL A   1      48.353  23.322  35.266  1.00  0.00     0.127 S 
ATOM     95  O   UNL A   1      49.562  23.779  35.950  1.00  0.00    -0.237 OA
ATOM     96  O   UNL A   1      47.106  23.601  35.980  1.00  0.00    -0.237 OA
ATOM     97  O   UNL A   1      48.430  21.990  34.683  1.00  0.00    -0.744 OA
ENDBRANCH  91  94
ENDBRANCH  64  87
ENDBRANCH  38  39
ENDBRANCH  30  33
ENDBRANCH  28  29
ENDBRANCH  27  28
ENDBRANCH  26  27
ENDBRANCH   1  26
TORSDOF 20
ENDMDL
MODEL 2
REMARK VINA RESULT:     -11.4      5.215      8.031
REMARK SMILES CCOc1cccc(-c2ccc([C@@H](C)C(=O)NCCCCCCNC(=O)c3ccc(-c4c5nc(c(-c6cccc(S(=O)(=O)[O-])c6F)c6ccc([nH]6)c(-c6cccc(S(=O)(=O)[O-])c6F)c6nc(c(-c7cccc(S(=O)(=O)[O-])c7F)c7ccc4[nH]7)C=C6)C=C5)cc3)cc2F)c1
REMARK SMILES IDX 20 1 19 2 18 3 17 4 15 5 16 6 13 8 14 9 12 10 9 11 10 12
REMARK SMILES IDX 91 13 11 14 90 15 92 16 8 17 4 18 5 19 93 20 6 21 7 22 3 23
REMARK SMILES IDX 2 24 1 25 21 26 22 27 23 28 24 29 25 30 26 32 27 33 28 34
REMARK SMILES IDX 89 35 29 36 88 37 30 38 31 39 32 40 82 41 33 42 87 43 81 44
REMARK SMILES IDX 83 45 34 46 86 47 80 48 79 49 35 51 67 52 47 53 66 54 48 55
REMARK SMILES IDX 51 56 65 57 84 58 49 59 50 60 64 62 85 63 52 64 36 65 37 66
REMARK SMILES IDX 45 67 38 68 40 69 46 70 39 71 41 72 42 73 43 74 44 75 68 76
REMARK SMILES IDX 69 77 77 78 70 79 72 80 78 81 71 82 73 83 74 84 75 85 76 86
REMARK SMILES IDX 53 87 54 88 62 89 55 90 57 91 63 92 56 93 58 94 59 95 60 96
REMARK SMILES IDX 61 97
REMARK H PARENT 17 7 24 31 83 50 51 61
REMARK Flexibility Score: inf
ROOT
ATOM      1  C   UNL A   1      34.354  25.582  25.292  1.00  0.00     0.002 C 
ENDROOT
BRANCH   1   2
ATOM      2  C   UNL A   1      33.682  26.735  26.044  1.00  0.00     0.021 C 
BRANCH   2   3
ATOM      3  C   UNL A   1      32.787  27.604  25.158  1.00  0.00     0.116 C 
BRANCH   3   4
ATOM      4  N   UNL A   1      33.486  28.044  23.970  1.00  0.00    -0.356 N 
ATOM      5  C   UNL A   1      33.306  27.742  22.656  1.00  0.00     0.227 C 
ATOM      6  O   UNL A   1      34.144  28.197  21.867  1.00  0.00    -0.274 OA
ATOM      7  H   UNL A   1      34.223  28.674  24.143  1.00  0.00     0.163 HD
BRANCH   5   8
ATOM      8  C   UNL A   1      32.132  26.905  22.126  1.00  0.00     0.105 C 
ATOM      9  C   UNL A   1      30.756  27.501  22.418  1.00  0.00     0.023 C 
BRANCH   8  10
ATOM     10  C   UNL A   1      32.271  25.413  22.381  1.00  0.00    -0.033 A 
ATOM     11  C   UNL A   1      32.368  22.575  22.820  1.00  0.00     0.018 A 
ATOM     12  C   UNL A   1      33.279  23.228  21.974  1.00  0.00     0.012 A 
ATOM     13  C   UNL A   1      31.438  23.401  23.474  1.00  0.00     0.131 A 
ATOM     14  C   UNL A   1      33.255  24.618  21.790  1.00  0.00     0.005 A 
ATOM     15  C   UNL A   1      31.370  24.779  23.245  1.00  0.00     0.044 A 
ATOM     16  F   UNL A   1      30.567  22.893  24.360  1.00  0.00    -0.206 F 
BRANCH  11  17
ATOM     17  C   UNL A   1      32.382  21.098  22.964  1.00  0.00    -0.012 A 
ATOM     18  C   UNL A   1      32.563  19.104  24.376  1.00  0.00     0.119 A 
ATOM     19  C   UNL A   1      32.339  18.277  23.284  1.00  0.00     0.046 A 
ATOM     20  C   UNL A   1      32.600  20.490  24.214  1.00  0.00     0.055 A 
ATOM     21  C   UNL A   1      32.126  18.844  22.031  1.00  0.00     0.004 A 
ATOM     22  C   UNL A   1      32.151  20.236  21.875  1.00  0.00     0.009 A 
BRANCH  18  23
ATOM     23  O   UNL A   1      32.866  18.532  25.581  1.00  0.00    -0.494 OA
BRANCH  23  24
ATOM     24  C   UNL A   1      32.571  17.131  25.629  1.00  0.00     0.226 C 
ATOM     25  C   UNL A   1      33.835  16.283  25.668  1.00  0.00     0.049 C 
ENDBRANCH  23  24
ENDBRANCH  18  23
ENDBRANCH  11  17
ENDBRANCH   8  10
ENDBRANCH   5   8
ENDBRANCH   3   4
ENDBRANCH   2   3
ENDBRANCH   1   2
BRANCH   1  26
ATOM     26  C   UNL A   1      33.984  24.179  25.795  1.00  0.00     0.002 C 
BRANCH  26  27
ATOM     27  C   UNL A   1      34.916  23.052  25.339  1.00  0.00     0.021 C 
BRANCH  27  28
ATOM     28  C   UNL A   1      35.579  22.278  26.477  1.00  0.00     0.116 C 
BRANCH  28  29
ATOM     29  N   UNL A   1      36.511  21.279  25.973  1.00  0.00    -0.352 N 
ATOM     30  C   UNL A   1      37.849  21.397  25.692  1.00  0.00     0.251 C 
ATOM     31  H   UNL A   1      36.124  20.388  25.808  1.00  0.00     0.163 HD
ATOM     32  O   UNL A   1      38.416  20.527  25.039  1.00  0.00    -0.269 OA
BRANCH  30  33
ATOM     33  C   UNL A   1      38.604  22.571  26.178  1.00  0.00     0.039 A 
ATOM     34  C   UNL A   1      39.683  22.376  27.044  1.00  0.00     0.014 A 
ATOM     35  C   UNL A   1      38.232  23.864  25.799  1.00  0.00     0.014 A 
ATOM     36  C   UNL A   1      40.419  23.476  27.491  1.00  0.00     0.010 A 
ATOM     37  C   UNL A   1      39.009  24.951  26.189  1.00  0.00     0.010 A 
ATOM     38  C   UNL A   1      40.104  24.771  27.046  1.00  0.00    -0.014 A 
BRANCH  38  39
ATOM     39  C   UNL A   1      40.909  25.947  27.461  1.00  0.00     0.031 A 
ATOM     40  C   UNL A   1      40.274  27.063  28.247  1.00  0.00     0.074 A 
ATOM     41  C   UNL A   1      42.190  26.051  27.054  1.00  0.00     0.049 A 
ATOM     42  N   UNL A   1      40.799  28.193  28.645  1.00  0.00    -0.248 NA
ATOM     43  C   UNL A   1      38.856  26.900  28.611  1.00  0.00     0.031 C 
ATOM     44  C   UNL A   1      42.895  25.073  26.223  1.00  0.00     0.029 A 
ATOM     45  N   UNL A   1      43.118  27.042  27.260  1.00  0.00    -0.354 N 
ATOM     46  C   UNL A   1      39.771  28.889  29.272  1.00  0.00     0.074 A 
ATOM     47  C   UNL A   1      38.584  28.069  29.172  1.00  0.00     0.031 C 
ATOM     48  C   UNL A   1      44.144  25.510  25.993  1.00  0.00     0.029 A 
ATOM     49  C   UNL A   1      44.320  26.810  26.632  1.00  0.00     0.049 A 
ATOM     50  H   UNL A   1      42.940  27.842  27.806  1.00  0.00     0.167 HD
ATOM     51  C   UNL A   1      39.819  30.088  29.901  1.00  0.00     0.034 A 
ATOM     52  C   UNL A   1      45.435  27.565  26.571  1.00  0.00     0.034 A 
ATOM     53  C   UNL A   1      41.012  30.879  30.035  1.00  0.00     0.049 A 
ATOM     54  C   UNL A   1      45.473  28.875  27.310  1.00  0.00     0.074 A 
ATOM     55  C   UNL A   1      41.184  32.064  30.727  1.00  0.00     0.029 A 
ATOM     56  N   UNL A   1      42.235  30.571  29.459  1.00  0.00    -0.354 N 
ATOM     57  N   UNL A   1      44.536  29.441  28.032  1.00  0.00    -0.248 NA
ATOM     58  C   UNL A   1      46.731  29.632  27.258  1.00  0.00     0.031 C 
ATOM     59  C   UNL A   1      42.507  32.486  30.549  1.00  0.00     0.029 A 
ATOM     60  C   UNL A   1      43.165  31.547  29.772  1.00  0.00     0.049 A 
ATOM     61  H   UNL A   1      42.416  29.774  28.909  1.00  0.00     0.167 HD
ATOM     62  C   UNL A   1      45.102  30.600  28.550  1.00  0.00     0.074 A 
ATOM     63  C   UNL A   1      46.470  30.644  28.075  1.00  0.00     0.031 C 
ATOM     64  C   UNL A   1      44.538  31.551  29.336  1.00  0.00     0.034 A 
BRANCH  51  65
ATOM     65  C   UNL A   1      38.552  30.595  30.541  1.00  0.00     0.023 A 
ATOM     66  C   UNL A   1      38.310  30.334  31.905  1.00  0.00     0.012 A 
ATOM     67  C   UNL A   1      37.633  31.375  29.813  1.00  0.00     0.148 A 
ATOM     68  C   UNL A   1      37.156  30.809  32.527  1.00  0.00     0.002 A 
ATOM     69  C   UNL A   1      36.507  31.885  30.452  1.00  0.00     0.091 A 
ATOM     70  F   UNL A   1      37.868  31.595  28.512  1.00  0.00    -0.205 F 
ATOM     71  C   UNL A   1      36.262  31.594  31.805  1.00  0.00     0.022 A 
BRANCH  69  72
ATOM     72  S   UNL A   1      35.336  32.971  29.631  1.00  0.00     0.127 S 
ATOM     73  O   UNL A   1      36.185  34.107  29.276  1.00  0.00    -0.237 OA
ATOM     74  O   UNL A   1      34.902  32.155  28.496  1.00  0.00    -0.237 OA
ATOM     75  O   UNL A   1      34.294  33.252  30.610  1.00  0.00    -0.744 OA
ENDBRANCH  69  72
ENDBRANCH  51  65
BRANCH  52  76
ATOM     76  C   UNL A   1      46.631  27.066  25.835  1.00  0.00     0.023 A 
ATOM     77  C   UNL A   1      47.430  26.060  26.415  1.00  0.00     0.012 A 
ATOM     78  C   UNL A   1      46.966  27.559  24.560  1.00  0.00     0.148 A 
ATOM     79  C   UNL A   1      48.560  25.579  25.753  1.00  0.00     0.002 A 
ATOM     80  C   UNL A   1      48.062  27.036  23.881  1.00  0.00     0.091 A 
ATOM     81  F   UNL A   1      46.201  28.523  24.030  1.00  0.00    -0.205 F 
ATOM     82  C   UNL A   1      48.870  26.059  24.484  1.00  0.00     0.022 A 
BRANCH  80  83
ATOM     83  S   UNL A   1      48.455  27.498  22.191  1.00  0.00     0.127 S 
ATOM     84  O   UNL A   1      48.653  26.194  21.563  1.00  0.00    -0.237 OA
ATOM     85  O   UNL A   1      47.240  28.203  21.779  1.00  0.00    -0.237 OA
ATOM     86  O   UNL A   1      49.636  28.345  22.279  1.00  0.00    -0.744 OA
ENDBRANCH  80  83
ENDBRANCH  52  76
BRANCH  64  87
ATOM     87  C   UNL A   1      45.404  32.703  29.770  1.00  0.00     0.023 A 
ATOM     88  C   UNL A   1      46.223  32.578  30.909  1.00  0.00     0.012 A 
ATOM     89  C   UNL A   1      45.463  33.885  29.003  1.00  0.00     0.148 A 
ATOM     90  C   UNL A   1      47.062  33.622  31.298  1.00  0.00     0.002 A 
ATOM     91  C   UNL A   1      46.339  34.900  29.366  1.00  0.00     0.091 A 
ATOM     92  F   UNL A   1      44.662  33.992  27.932  1.00  0.00    -0.205 F 
ATOM     93  C   UNL A   1      47.129  34.776  30.521  1.00  0.00     0.022 A 
BRANCH  91  94
ATOM     94  S   UNL A   1      46.564  36.379  28.372  1.00  0.00     0.127 S 
ATOM     95  O   UNL A   1      47.619  37.075  29.109  1.00  0.00    -0.237 OA
ATOM     96  O   UNL A   1      46.983  35.826  27.084  1.00  0.00    -0.237 OA
ATOM     97  O   UNL A   1      45.271  37.049  28.351  1.00  0.00    -0.744 OA
ENDBRANCH  91  94
ENDBRANCH  64  87
ENDBRANCH  38  39
ENDBRANCH  30  33
ENDBRANCH  28  29
ENDBRANCH  27  28
ENDBRANCH  26  27
ENDBRANCH   1  26
TORSDOF 20
ENDMDL
MODEL 3
REMARK VINA RESULT:     -11.2      4.363      9.779
REMARK SMILES CCOc1cccc(-c2ccc([C@@H](C)C(=O)NCCCCCCNC(=O)c3ccc(-c4c5nc(c(-c6cccc(S(=O)(=O)[O-])c6F)c6ccc([nH]6)c(-c6cccc(S(=O)(=O)[O-])c6F)c6nc(c(-c7cccc(S(=O)(=O)[O-])c7F)c7ccc4[nH]7)C=C6)C=C5)cc3)cc2F)c1
REMARK SMILES IDX 20 1 19 2 18 3 17 4 15 5 16 6 13 8 14 9 12 10 9 11 10 12
REMARK SMILES IDX 91 13 11 14 90 15 92 16 8 17 4 18 5 19 93 20 6 21 7 22 3 23
REMARK SMILES IDX 2 24 1 25 21 26 22 27 23 28 24 29 25 30 26 32 27 33 28 34
REMARK SMILES IDX 89 35 29 36 88 37 30 38 31 39 32 40 82 41 33 42 87 43 81 44
REMARK SMILES IDX 83 45 34 46 86 47 80 48 79 49 35 51 67 52 47 53 66 54 48 55
REMARK SMILES IDX 51 56 65 57 84 58 49 59 50 60 64 62 85 63 52 64 36 65 37 66
REMARK SMILES IDX 45 67 38 68 40 69 46 70 39 71 41 72 42 73 43 74 44 75 68 76
REMARK SMILES IDX 69 77 77 78 70 79 72 80 78 81 71 82 73 83 74 84 75 85 76 86
REMARK SMILES IDX 53 87 54 88 62 89 55 90 57 91 63 92 56 93 58 94 59 95 60 96
REMARK SMILES IDX 61 97
REMARK H PARENT 17 7 24 31 83 50 51 61
REMARK Flexibility Score: inf
ROOT
ATOM      1  C   UNL A   1      34.489  24.809  23.632  1.00  0.00     0.002 C 
ENDROOT
BRANCH   1   2
ATOM      2  C   UNL A   1      33.781  25.990  22.960  1.00  0.00     0.021 C 
BRANCH   2   3
ATOM      3  C   UNL A   1      33.236  27.021  23.951  1.00  0.00     0.116 C 
BRANCH   3   4
ATOM      4  N   UNL A   1      31.856  27.351  23.665  1.00  0.00    -0.356 N 
ATOM      5  C   UNL A   1      30.699  27.003  24.290  1.00  0.00     0.227 C 
ATOM      6  O   UNL A   1      29.649  27.355  23.740  1.00  0.00    -0.274 OA
ATOM      7  H   UNL A   1      31.732  27.929  22.878  1.00  0.00     0.163 HD
BRANCH   5   8
ATOM      8  C   UNL A   1      30.646  26.235  25.621  1.00  0.00     0.105 C 
ATOM      9  C   UNL A   1      31.105  27.046  26.830  1.00  0.00     0.023 C 
BRANCH   8  10
ATOM     10  C   UNL A   1      31.181  24.815  25.537  1.00  0.00    -0.033 A 
ATOM     11  C   UNL A   1      32.286  22.180  25.241  1.00  0.00     0.018 A 
ATOM     12  C   UNL A   1      32.351  22.880  26.456  1.00  0.00     0.012 A 
ATOM     13  C   UNL A   1      31.607  22.826  24.195  1.00  0.00     0.131 A 
ATOM     14  C   UNL A   1      31.778  24.151  26.611  1.00  0.00     0.005 A 
ATOM     15  C   UNL A   1      31.089  24.119  24.325  1.00  0.00     0.044 A 
ATOM     16  F   UNL A   1      31.423  22.219  23.011  1.00  0.00    -0.206 F 
BRANCH  11  17
ATOM     17  C   UNL A   1      32.940  20.856  25.087  1.00  0.00    -0.012 A 
ATOM     18  C   UNL A   1      32.780  18.420  24.875  1.00  0.00     0.119 A 
ATOM     19  C   UNL A   1      34.155  18.316  24.717  1.00  0.00     0.046 A 
ATOM     20  C   UNL A   1      32.186  19.668  25.074  1.00  0.00     0.055 A 
ATOM     21  C   UNL A   1      34.933  19.470  24.730  1.00  0.00     0.004 A 
ATOM     22  C   UNL A   1      34.331  20.722  24.916  1.00  0.00     0.009 A 
BRANCH  18  23
ATOM     23  O   UNL A   1      32.040  17.273  24.956  1.00  0.00    -0.494 OA
BRANCH  23  24
ATOM     24  C   UNL A   1      32.827  16.085  24.812  1.00  0.00     0.226 C 
ATOM     25  C   UNL A   1      32.414  15.004  25.801  1.00  0.00     0.049 C 
ENDBRANCH  23  24
ENDBRANCH  18  23
ENDBRANCH  11  17
ENDBRANCH   8  10
ENDBRANCH   5   8
ENDBRANCH   3   4
ENDBRANCH   2   3
ENDBRANCH   1   2
BRANCH   1  26
ATOM     26  C   UNL A   1      34.894  25.045  25.094  1.00  0.00     0.002 C 
BRANCH  26  27
ATOM     27  C   UNL A   1      35.821  23.985  25.696  1.00  0.00     0.021 C 
BRANCH  27  28
ATOM     28  C   UNL A   1      36.991  23.582  24.800  1.00  0.00     0.116 C 
BRANCH  28  29
ATOM     29  N   UNL A   1      37.834  22.581  25.438  1.00  0.00    -0.352 N 
ATOM     30  C   UNL A   1      38.987  22.745  26.163  1.00  0.00     0.251 C 
ATOM     31  H   UNL A   1      37.533  21.649  25.332  1.00  0.00     0.163 HD
ATOM     32  O   UNL A   1      39.699  21.777  26.409  1.00  0.00    -0.269 OA
BRANCH  30  33
ATOM     33  C   UNL A   1      39.369  24.089  26.648  1.00  0.00     0.039 A 
ATOM     34  C   UNL A   1      39.013  24.473  27.944  1.00  0.00     0.014 A 
ATOM     35  C   UNL A   1      40.054  24.978  25.815  1.00  0.00     0.014 A 
ATOM     36  C   UNL A   1      39.388  25.730  28.421  1.00  0.00     0.010 A 
ATOM     37  C   UNL A   1      40.488  26.202  26.316  1.00  0.00     0.010 A 
ATOM     38  C   UNL A   1      40.152  26.595  27.619  1.00  0.00    -0.014 A 
BRANCH  38  39
ATOM     39  C   UNL A   1      40.613  27.913  28.127  1.00  0.00     0.031 A 
ATOM     40  C   UNL A   1      42.084  28.223  28.205  1.00  0.00     0.074 A 
ATOM     41  C   UNL A   1      39.710  28.795  28.600  1.00  0.00     0.049 A 
ATOM     42  N   UNL A   1      42.677  29.290  28.675  1.00  0.00    -0.248 NA
ATOM     43  C   UNL A   1      43.012  27.188  27.716  1.00  0.00     0.031 C 
ATOM     44  C   UNL A   1      38.263  28.578  28.650  1.00  0.00     0.029 A 
ATOM     45  N   UNL A   1      39.879  30.039  29.155  1.00  0.00    -0.354 N 
ATOM     46  C   UNL A   1      44.041  29.043  28.572  1.00  0.00     0.074 A 
ATOM     47  C   UNL A   1      44.189  27.711  28.028  1.00  0.00     0.031 C 
ATOM     48  C   UNL A   1      37.676  29.652  29.202  1.00  0.00     0.029 A 
ATOM     49  C   UNL A   1      38.704  30.620  29.572  1.00  0.00     0.049 A 
ATOM     50  H   UNL A   1      40.758  30.474  29.246  1.00  0.00     0.167 HD
ATOM     51  C   UNL A   1      45.077  29.861  28.876  1.00  0.00     0.034 A 
ATOM     52  C   UNL A   1      38.481  31.795  30.192  1.00  0.00     0.034 A 
ATOM     53  C   UNL A   1      44.924  31.200  29.377  1.00  0.00     0.049 A 
ATOM     54  C   UNL A   1      39.647  32.702  30.482  1.00  0.00     0.074 A 
ATOM     55  C   UNL A   1      45.907  32.139  29.633  1.00  0.00     0.029 A 
ATOM     56  N   UNL A   1      43.714  31.788  29.706  1.00  0.00    -0.354 N 
ATOM     57  N   UNL A   1      40.919  32.514  30.231  1.00  0.00    -0.248 NA
ATOM     58  C   UNL A   1      39.342  33.996  31.108  1.00  0.00     0.031 C 
ATOM     59  C   UNL A   1      45.291  33.289  30.141  1.00  0.00     0.029 A 
ATOM     60  C   UNL A   1      43.923  33.075  30.172  1.00  0.00     0.049 A 
ATOM     61  H   UNL A   1      42.833  31.355  29.621  1.00  0.00     0.167 HD
ATOM     62  C   UNL A   1      41.563  33.678  30.632  1.00  0.00     0.074 A 
ATOM     63  C   UNL A   1      40.537  34.574  31.124  1.00  0.00     0.031 C 
ATOM     64  C   UNL A   1      42.887  33.975  30.609  1.00  0.00     0.034 A 
BRANCH  51  65
ATOM     65  C   UNL A   1      46.472  29.349  28.623  1.00  0.00     0.023 A 
ATOM     66  C   UNL A   1      47.116  29.658  27.407  1.00  0.00     0.012 A 
ATOM     67  C   UNL A   1      47.167  28.617  29.605  1.00  0.00     0.148 A 
ATOM     68  C   UNL A   1      48.414  29.215  27.156  1.00  0.00     0.002 A 
ATOM     69  C   UNL A   1      48.478  28.219  29.367  1.00  0.00     0.091 A 
ATOM     70  F   UNL A   1      46.533  28.315  30.747  1.00  0.00    -0.205 F 
ATOM     71  C   UNL A   1      49.099  28.507  28.140  1.00  0.00     0.022 A 
BRANCH  69  72
ATOM     72  S   UNL A   1      49.473  27.371  30.599  1.00  0.00     0.127 S 
ATOM     73  O   UNL A   1      49.590  28.394  31.638  1.00  0.00    -0.237 OA
ATOM     74  O   UNL A   1      48.621  26.236  30.955  1.00  0.00    -0.237 OA
ATOM     75  O   UNL A   1      50.717  27.012  29.933  1.00  0.00    -0.744 OA
ENDBRANCH  69  72
ENDBRANCH  51  65
BRANCH  52  76
ATOM     76  C   UNL A   1      37.087  32.213  30.517  1.00  0.00     0.023 A 
ATOM     77  C   UNL A   1      36.582  31.984  31.813  1.00  0.00     0.012 A 
ATOM     78  C   UNL A   1      36.273  32.855  29.566  1.00  0.00     0.148 A 
ATOM     79  C   UNL A   1      35.279  32.357  32.144  1.00  0.00     0.002 A 
ATOM     80  C   UNL A   1      34.995  33.276  29.919  1.00  0.00     0.091 A 
ATOM     81  F   UNL A   1      36.768  33.054  28.336  1.00  0.00    -0.205 F 
ATOM     82  C   UNL A   1      34.489  33.011  31.201  1.00  0.00     0.022 A 
BRANCH  80  83
ATOM     83  S   UNL A   1      33.961  34.243  28.813  1.00  0.00     0.127 S 
ATOM     84  O   UNL A   1      33.589  33.251  27.808  1.00  0.00    -0.237 OA
ATOM     85  O   UNL A   1      32.874  34.659  29.702  1.00  0.00    -0.237 OA
ATOM     86  O   UNL A   1      34.802  35.336  28.345  1.00  0.00    -0.744 OA
ENDBRANCH  80  83
ENDBRANCH  52  76
BRANCH  64  87
ATOM     87  C   UNL A   1      43.305  35.339  31.092  1.00  0.00     0.023 A 
ATOM     88  C   UNL A   1      43.643  35.532  32.445  1.00  0.00     0.012 A 
ATOM     89  C   UNL A   1      43.436  36.411  30.186  1.00  0.00     0.148 A 
ATOM     90  C   UNL A   1      44.073  36.780  32.898  1.00  0.00     0.002 A 
ATOM     91  C   UNL A   1      43.915  37.636  30.633  1.00  0.00     0.091 A 
ATOM     92  F   UNL A   1      43.092  36.212  28.906  1.00  0.00    -0.205 F 
ATOM     93  C   UNL A   1      44.220  37.826  31.991  1.00  0.00     0.022 A 
BRANCH  91  94
ATOM     94  S   UNL A   1      44.230  39.011  29.521  1.00  0.00     0.127 S 
ATOM     95  O   UNL A   1      44.711  40.037  30.445  1.00  0.00    -0.237 OA
ATOM     96  O   UNL A   1      45.255  38.462  28.633  1.00  0.00    -0.237 OA
ATOM     97  O   UNL A   1      42.959  39.301  28.872  1.00  0.00    -0.744 OA
ENDBRANCH  91  94
ENDBRANCH  64  87
ENDBRANCH  38  39
ENDBRANCH  30  33
ENDBRANCH  28  29
ENDBRANCH  27  28
ENDBRANCH  26  27
ENDBRANCH   1  26
TORSDOF 20
ENDMDL
