MODEL 1
REMARK VINA RESULT:     -11.6      0.000      0.000
REMARK SMILES O=C(NCc1ccc(C(=O)NCCCCCCNC(=O)c2ccc(-c3c4nc(c(-c5cccc(S(=O)(=O)[O-])c5F)c5ccc([nH]5)c(-c5cccc(S(=O)(=O)[O-])c5F)c5nc(c(-c6cccc(S(=O)(=O)[O-])c6F)c6ccc3[nH]6)C=C5)C=C4)cc2)cc1)Nc1ccccc1Br
REMARK SMILES IDX 14 1 13 2 12 3 11 4 9 5 10 6 8 8 5 9 6 10 85 11 7 12 84 13
REMARK SMILES IDX 4 14 3 15 1 16 2 17 86 18 87 21 88 22 92 23 89 24 91 25
REMARK SMILES IDX 93 26 90 27 15 28 16 29 17 30 18 31 19 32 20 34 21 35 22 36
REMARK SMILES IDX 83 37 23 38 82 39 24 40 25 41 26 42 76 43 27 44 81 45 75 46
REMARK SMILES IDX 77 47 28 48 80 49 74 50 73 51 29 53 61 54 41 55 60 56 42 57
REMARK SMILES IDX 45 58 59 59 78 60 43 61 44 62 58 64 79 65 46 66 30 67 31 68
REMARK SMILES IDX 39 69 32 70 34 71 40 72 33 73 35 74 36 75 37 76 38 77 62 78
REMARK SMILES IDX 63 79 71 80 64 81 66 82 72 83 65 84 67 85 68 86 69 87 70 88
REMARK SMILES IDX 47 89 48 90 56 91 49 92 51 93 57 94 50 95 52 96 53 97 54 98
REMARK SMILES IDX 55 99
REMARK H PARENT 11 7 3 19 86 20 18 33 77 52 45 63
REMARK Flexibility Score: inf
ROOT
ATOM      1  C   UNL A   1      34.727  32.708  29.164  1.00  0.00     0.002 C 
ENDROOT
BRANCH   1   2
ATOM      2  C   UNL A   1      35.466  31.695  28.280  1.00  0.00     0.021 C 
BRANCH   2   3
ATOM      3  C   UNL A   1      34.520  30.714  27.585  1.00  0.00     0.116 C 
BRANCH   3   4
ATOM      4  N   UNL A   1      33.297  31.400  27.211  1.00  0.00    -0.352 N 
ATOM      5  C   UNL A   1      32.108  30.954  26.699  1.00  0.00     0.251 C 
ATOM      6  O   UNL A   1      31.241  31.794  26.451  1.00  0.00    -0.269 OA
ATOM      7  H   UNL A   1      33.328  32.374  27.353  1.00  0.00     0.163 HD
BRANCH   5   8
ATOM      8  C   UNL A   1      31.796  29.512  26.502  1.00  0.00     0.039 A 
ATOM      9  C   UNL A   1      31.032  26.846  25.950  1.00  0.00    -0.029 A 
ATOM     10  C   UNL A   1      31.163  27.777  24.912  1.00  0.00     0.006 A 
ATOM     11  C   UNL A   1      31.323  27.256  27.258  1.00  0.00     0.006 A 
ATOM     12  C   UNL A   1      31.537  29.095  25.188  1.00  0.00     0.014 A 
ATOM     13  C   UNL A   1      31.747  28.561  27.523  1.00  0.00     0.014 A 
BRANCH   9  14
ATOM     14  C   UNL A   1      30.526  25.455  25.662  1.00  0.00     0.153 C 
BRANCH  14  15
ATOM     15  N   UNL A   1      30.918  24.510  26.685  1.00  0.00    -0.334 N 
ATOM     16  O   UNL A   1      32.008  22.841  27.655  1.00  0.00    -0.248 OA
ATOM     17  C   UNL A   1      31.975  23.656  26.738  1.00  0.00     0.319 C 
ATOM     18  N   UNL A   1      32.942  23.834  25.791  1.00  0.00    -0.307 N 
ATOM     19  H   UNL A   1      30.324  24.482  27.470  1.00  0.00     0.165 HD
ATOM     20  H   UNL A   1      32.867  24.622  25.206  1.00  0.00     0.171 HD
BRANCH  18  21
ATOM     21  C   UNL A   1      34.046  22.972  25.587  1.00  0.00     0.057 A 
ATOM     22  C   UNL A   1      35.302  23.506  25.919  1.00  0.00     0.027 A 
ATOM     23  C   UNL A   1      33.982  21.666  25.071  1.00  0.00     0.041 A 
ATOM     24  C   UNL A   1      36.459  22.730  25.828  1.00  0.00     0.002 A 
ATOM     25  C   UNL A   1      35.148  20.895  24.979  1.00  0.00     0.018 A 
ATOM     26  Br  UNL A   1      32.423  20.928  24.267  1.00  0.00    -0.049 Br
ATOM     27  C   UNL A   1      36.380  21.419  25.374  1.00  0.00     0.001 A 
ENDBRANCH  18  21
ENDBRANCH  14  15
ENDBRANCH   9  14
ENDBRANCH   5   8
ENDBRANCH   3   4
ENDBRANCH   2   3
ENDBRANCH   1   2
BRANCH   1  28
ATOM     28  C   UNL A   1      34.708  34.138  28.610  1.00  0.00     0.002 C 
BRANCH  28  29
ATOM     29  C   UNL A   1      33.407  34.902  28.863  1.00  0.00     0.021 C 
BRANCH  29  30
ATOM     30  C   UNL A   1      33.592  36.176  29.677  1.00  0.00     0.116 C 
BRANCH  30  31
ATOM     31  N   UNL A   1      32.553  36.313  30.689  1.00  0.00    -0.352 N 
ATOM     32  C   UNL A   1      32.443  35.676  31.900  1.00  0.00     0.251 C 
ATOM     33  H   UNL A   1      31.832  36.949  30.475  1.00  0.00     0.163 HD
ATOM     34  O   UNL A   1      31.389  35.703  32.522  1.00  0.00    -0.269 OA
BRANCH  32  35
ATOM     35  C   UNL A   1      33.614  34.954  32.437  1.00  0.00     0.039 A 
ATOM     36  C   UNL A   1      33.433  33.708  33.041  1.00  0.00     0.014 A 
ATOM     37  C   UNL A   1      34.891  35.511  32.328  1.00  0.00     0.014 A 
ATOM     38  C   UNL A   1      34.546  32.994  33.489  1.00  0.00     0.010 A 
ATOM     39  C   UNL A   1      36.001  34.765  32.701  1.00  0.00     0.010 A 
ATOM     40  C   UNL A   1      35.840  33.505  33.297  1.00  0.00    -0.014 A 
BRANCH  40  41
ATOM     41  C   UNL A   1      37.048  32.750  33.715  1.00  0.00     0.031 A 
ATOM     42  C   UNL A   1      37.818  33.187  34.931  1.00  0.00     0.074 A 
ATOM     43  C   UNL A   1      37.504  31.742  32.948  1.00  0.00     0.049 A 
ATOM     44  N   UNL A   1      38.948  32.729  35.401  1.00  0.00    -0.248 NA
ATOM     45  C   UNL A   1      37.259  34.310  35.704  1.00  0.00     0.031 C 
ATOM     46  C   UNL A   1      36.879  31.268  31.711  1.00  0.00     0.029 A 
ATOM     47  N   UNL A   1      38.620  30.953  33.078  1.00  0.00    -0.354 N 
ATOM     48  C   UNL A   1      39.255  33.528  36.495  1.00  0.00     0.074 A 
ATOM     49  C   UNL A   1      38.213  34.524  36.598  1.00  0.00     0.031 C 
ATOM     50  C   UNL A   1      37.619  30.272  31.198  1.00  0.00     0.029 A 
ATOM     51  C   UNL A   1      38.789  30.063  32.044  1.00  0.00     0.049 A 
ATOM     52  H   UNL A   1      39.241  31.020  33.839  1.00  0.00     0.167 HD
ATOM     53  C   UNL A   1      40.298  33.427  37.354  1.00  0.00     0.034 A 
ATOM     54  C   UNL A   1      39.784  29.188  31.796  1.00  0.00     0.034 A 
ATOM     55  C   UNL A   1      41.313  32.414  37.264  1.00  0.00     0.049 A 
ATOM     56  C   UNL A   1      40.925  29.085  32.771  1.00  0.00     0.074 A 
ATOM     57  C   UNL A   1      42.367  32.174  38.127  1.00  0.00     0.029 A 
ATOM     58  N   UNL A   1      41.410  31.480  36.243  1.00  0.00    -0.354 N 
ATOM     59  N   UNL A   1      41.126  29.756  33.880  1.00  0.00    -0.248 NA
ATOM     60  C   UNL A   1      41.961  28.083  32.482  1.00  0.00     0.031 C 
ATOM     61  C   UNL A   1      43.122  31.117  37.608  1.00  0.00     0.029 A 
ATOM     62  C   UNL A   1      42.513  30.670  36.446  1.00  0.00     0.049 A 
ATOM     63  H   UNL A   1      40.787  31.405  35.485  1.00  0.00     0.167 HD
ATOM     64  C   UNL A   1      42.282  29.228  34.443  1.00  0.00     0.074 A 
ATOM     65  C   UNL A   1      42.733  28.175  33.557  1.00  0.00     0.031 C 
ATOM     66  C   UNL A   1      42.918  29.588  35.585  1.00  0.00     0.034 A 
BRANCH  53  67
ATOM     67  C   UNL A   1      40.369  34.418  38.487  1.00  0.00     0.023 A 
ATOM     68  C   UNL A   1      41.161  35.579  38.352  1.00  0.00     0.012 A 
ATOM     69  C   UNL A   1      39.622  34.226  39.664  1.00  0.00     0.148 A 
ATOM     70  C   UNL A   1      41.243  36.508  39.388  1.00  0.00     0.002 A 
ATOM     71  C   UNL A   1      39.670  35.182  40.673  1.00  0.00     0.091 A 
ATOM     72  F   UNL A   1      38.890  33.109  39.784  1.00  0.00    -0.205 F 
ATOM     73  C   UNL A   1      40.491  36.315  40.543  1.00  0.00     0.022 A 
BRANCH  71  74
ATOM     74  S   UNL A   1      38.673  35.069  42.162  1.00  0.00     0.127 S 
ATOM     75  O   UNL A   1      39.222  33.870  42.794  1.00  0.00    -0.237 OA
ATOM     76  O   UNL A   1      39.000  36.320  42.847  1.00  0.00    -0.237 OA
ATOM     77  O   UNL A   1      37.291  34.963  41.716  1.00  0.00    -0.744 OA
ENDBRANCH  71  74
ENDBRANCH  53  67
BRANCH  54  78
ATOM     78  C   UNL A   1      39.716  28.300  30.600  1.00  0.00     0.023 A 
ATOM     79  C   UNL A   1      38.901  27.151  30.641  1.00  0.00     0.012 A 
ATOM     80  C   UNL A   1      40.425  28.599  29.422  1.00  0.00     0.148 A 
ATOM     81  C   UNL A   1      38.822  26.297  29.541  1.00  0.00     0.002 A 
ATOM     82  C   UNL A   1      40.298  27.773  28.310  1.00  0.00     0.091 A 
ATOM     83  F   UNL A   1      41.197  29.694  29.406  1.00  0.00    -0.205 F 
ATOM     84  C   UNL A   1      39.512  26.612  28.373  1.00  0.00     0.022 A 
BRANCH  82  85
ATOM     85  S   UNL A   1      41.049  28.162  26.726  1.00  0.00     0.127 S 
ATOM     86  O   UNL A   1      42.420  28.482  27.113  1.00  0.00    -0.237 OA
ATOM     87  O   UNL A   1      40.891  26.900  26.001  1.00  0.00    -0.237 OA
ATOM     88  O   UNL A   1      40.274  29.269  26.181  1.00  0.00    -0.744 OA
ENDBRANCH  82  85
ENDBRANCH  54  78
BRANCH  66  89
ATOM     89  C   UNL A   1      44.139  28.805  35.989  1.00  0.00     0.023 A 
ATOM     90  C   UNL A   1      45.416  29.209  35.554  1.00  0.00     0.012 A 
ATOM     91  C   UNL A   1      44.023  27.722  36.884  1.00  0.00     0.148 A 
ATOM     92  C   UNL A   1      46.557  28.530  35.982  1.00  0.00     0.002 A 
ATOM     93  C   UNL A   1      45.165  27.086  37.348  1.00  0.00     0.091 A 
ATOM     94  F   UNL A   1      42.796  27.345  37.272  1.00  0.00    -0.205 F 
ATOM     95  C   UNL A   1      46.433  27.479  36.889  1.00  0.00     0.022 A 
BRANCH  93  96
ATOM     96  S   UNL A   1      45.112  25.792  38.594  1.00  0.00     0.127 S 
ATOM     97  O   UNL A   1      46.505  25.748  39.036  1.00  0.00    -0.237 OA
ATOM     98  O   UNL A   1      44.178  26.347  39.574  1.00  0.00    -0.237 OA
ATOM     99  O   UNL A   1      44.638  24.595  37.914  1.00  0.00    -0.744 OA
ENDBRANCH  93  96
ENDBRANCH  66  89
ENDBRANCH  40  41
ENDBRANCH  32  35
ENDBRANCH  30  31
ENDBRANCH  29  30
ENDBRANCH  28  29
ENDBRANCH   1  28
TORSDOF 19
ENDMDL
MODEL 2
REMARK VINA RESULT:     -11.1      1.679      2.073
REMARK SMILES O=C(NCc1ccc(C(=O)NCCCCCCNC(=O)c2ccc(-c3c4nc(c(-c5cccc(S(=O)(=O)[O-])c5F)c5ccc([nH]5)c(-c5cccc(S(=O)(=O)[O-])c5F)c5nc(c(-c6cccc(S(=O)(=O)[O-])c6F)c6ccc3[nH]6)C=C5)C=C4)cc2)cc1)Nc1ccccc1Br
REMARK SMILES IDX 14 1 13 2 12 3 11 4 9 5 10 6 8 8 5 9 6 10 85 11 7 12 84 13
REMARK SMILES IDX 4 14 3 15 1 16 2 17 86 18 87 21 88 22 92 23 89 24 91 25
REMARK SMILES IDX 93 26 90 27 15 28 16 29 17 30 18 31 19 32 20 34 21 35 22 36
REMARK SMILES IDX 83 37 23 38 82 39 24 40 25 41 26 42 76 43 27 44 81 45 75 46
REMARK SMILES IDX 77 47 28 48 80 49 74 50 73 51 29 53 61 54 41 55 60 56 42 57
REMARK SMILES IDX 45 58 59 59 78 60 43 61 44 62 58 64 79 65 46 66 30 67 31 68
REMARK SMILES IDX 39 69 32 70 34 71 40 72 33 73 35 74 36 75 37 76 38 77 62 78
REMARK SMILES IDX 63 79 71 80 64 81 66 82 72 83 65 84 67 85 68 86 69 87 70 88
REMARK SMILES IDX 47 89 48 90 56 91 49 92 51 93 57 94 50 95 52 96 53 97 54 98
REMARK SMILES IDX 55 99
REMARK H PARENT 11 7 3 19 86 20 18 33 77 52 45 63
REMARK Flexibility Score: inf
ROOT
ATOM      1  C   UNL A   1      35.107  30.832  28.474  1.00  0.00     0.002 C 
ENDROOT
BRANCH   1   2
ATOM      2  C   UNL A   1      35.542  29.720  27.510  1.00  0.00     0.021 C 
BRANCH   2   3
ATOM      3  C   UNL A   1      34.357  29.015  26.845  1.00  0.00     0.116 C 
BRANCH   3   4
ATOM      4  N   UNL A   1      33.278  29.964  26.645  1.00  0.00    -0.352 N 
ATOM      5  C   UNL A   1      32.106  29.893  25.940  1.00  0.00     0.251 C 
ATOM      6  O   UNL A   1      31.382  30.890  25.932  1.00  0.00    -0.269 OA
ATOM      7  H   UNL A   1      33.413  30.824  27.105  1.00  0.00     0.163 HD
BRANCH   5   8
ATOM      8  C   UNL A   1      31.641  28.655  25.255  1.00  0.00     0.039 A 
ATOM      9  C   UNL A   1      30.911  26.174  24.113  1.00  0.00    -0.029 A 
ATOM     10  C   UNL A   1      31.093  26.293  25.497  1.00  0.00     0.006 A 
ATOM     11  C   UNL A   1      31.062  27.317  23.317  1.00  0.00     0.006 A 
ATOM     12  C   UNL A   1      31.457  27.520  26.058  1.00  0.00     0.014 A 
ATOM     13  C   UNL A   1      31.376  28.553  23.889  1.00  0.00     0.014 A 
BRANCH   9  14
ATOM     14  C   UNL A   1      30.623  24.827  23.500  1.00  0.00     0.153 C 
BRANCH  14  15
ATOM     15  N   UNL A   1      31.565  24.493  22.453  1.00  0.00    -0.334 N 
ATOM     16  O   UNL A   1      33.437  23.785  21.501  1.00  0.00    -0.248 OA
ATOM     17  C   UNL A   1      32.737  23.806  22.509  1.00  0.00     0.319 C 
ATOM     18  N   UNL A   1      32.993  23.143  23.675  1.00  0.00    -0.307 N 
ATOM     19  H   UNL A   1      31.318  24.817  21.557  1.00  0.00     0.165 HD
ATOM     20  H   UNL A   1      32.278  23.117  24.351  1.00  0.00     0.171 HD
BRANCH  18  21
ATOM     21  C   UNL A   1      34.209  22.488  23.984  1.00  0.00     0.057 A 
ATOM     22  C   UNL A   1      35.377  23.164  23.595  1.00  0.00     0.027 A 
ATOM     23  C   UNL A   1      34.329  21.237  24.614  1.00  0.00     0.041 A 
ATOM     24  C   UNL A   1      36.639  22.654  23.907  1.00  0.00     0.002 A 
ATOM     25  C   UNL A   1      35.600  20.730  24.919  1.00  0.00     0.018 A 
ATOM     26  Br  UNL A   1      32.864  20.055  24.893  1.00  0.00    -0.049 Br
ATOM     27  C   UNL A   1      36.750  21.444  24.583  1.00  0.00     0.001 A 
ENDBRANCH  18  21
ENDBRANCH  14  15
ENDBRANCH   9  14
ENDBRANCH   5   8
ENDBRANCH   3   4
ENDBRANCH   2   3
ENDBRANCH   1   2
BRANCH   1  28
ATOM     28  C   UNL A   1      35.373  32.254  27.964  1.00  0.00     0.002 C 
BRANCH  28  29
ATOM     29  C   UNL A   1      34.121  33.119  27.811  1.00  0.00     0.021 C 
BRANCH  29  30
ATOM     30  C   UNL A   1      34.387  34.613  27.948  1.00  0.00     0.116 C 
BRANCH  30  31
ATOM     31  N   UNL A   1      33.546  35.208  28.977  1.00  0.00    -0.352 N 
ATOM     32  C   UNL A   1      33.535  34.962  30.327  1.00  0.00     0.251 C 
ATOM     33  H   UNL A   1      32.896  35.878  28.661  1.00  0.00     0.163 HD
ATOM     34  O   UNL A   1      32.603  35.348  31.021  1.00  0.00    -0.269 OA
BRANCH  32  35
ATOM     35  C   UNL A   1      34.661  34.221  30.928  1.00  0.00     0.039 A 
ATOM     36  C   UNL A   1      34.412  33.029  31.612  1.00  0.00     0.014 A 
ATOM     37  C   UNL A   1      35.967  34.705  30.799  1.00  0.00     0.014 A 
ATOM     38  C   UNL A   1      35.482  32.292  32.123  1.00  0.00     0.010 A 
ATOM     39  C   UNL A   1      37.033  33.931  31.237  1.00  0.00     0.010 A 
ATOM     40  C   UNL A   1      36.802  32.724  31.914  1.00  0.00    -0.014 A 
BRANCH  40  41
ATOM     41  C   UNL A   1      37.965  31.940  32.399  1.00  0.00     0.031 A 
ATOM     42  C   UNL A   1      38.619  32.302  33.705  1.00  0.00     0.074 A 
ATOM     43  C   UNL A   1      38.491  30.974  31.621  1.00  0.00     0.049 A 
ATOM     44  N   UNL A   1      39.700  31.811  34.251  1.00  0.00    -0.248 NA
ATOM     45  C   UNL A   1      37.991  33.382  34.485  1.00  0.00     0.031 C 
ATOM     46  C   UNL A   1      37.984  30.576  30.306  1.00  0.00     0.029 A 
ATOM     47  N   UNL A   1      39.590  30.173  31.809  1.00  0.00    -0.354 N 
ATOM     48  C   UNL A   1      39.904  32.544  35.412  1.00  0.00     0.074 A 
ATOM     49  C   UNL A   1      38.857  33.539  35.475  1.00  0.00     0.031 C 
ATOM     50  C   UNL A   1      38.769  29.606  29.807  1.00  0.00     0.029 A 
ATOM     51  C   UNL A   1      39.855  29.343  30.745  1.00  0.00     0.049 A 
ATOM     52  H   UNL A   1      40.138  30.192  32.626  1.00  0.00     0.167 HD
ATOM     53  C   UNL A   1      40.862  32.388  36.357  1.00  0.00     0.034 A 
ATOM     54  C   UNL A   1      40.868  28.478  30.541  1.00  0.00     0.034 A 
ATOM     55  C   UNL A   1      41.881  31.376  36.304  1.00  0.00     0.049 A 
ATOM     56  C   UNL A   1      41.913  28.313  31.611  1.00  0.00     0.074 A 
ATOM     57  C   UNL A   1      42.850  31.081  37.246  1.00  0.00     0.029 A 
ATOM     58  N   UNL A   1      42.073  30.502  35.244  1.00  0.00    -0.354 N 
ATOM     59  N   UNL A   1      42.010  28.918  32.770  1.00  0.00    -0.248 NA
ATOM     60  C   UNL A   1      42.971  27.323  31.362  1.00  0.00     0.031 C 
ATOM     61  C   UNL A   1      43.650  30.052  36.740  1.00  0.00     0.029 A 
ATOM     62  C   UNL A   1      43.152  29.676  35.503  1.00  0.00     0.049 A 
ATOM     63  H   UNL A   1      41.523  30.474  34.429  1.00  0.00     0.167 HD
ATOM     64  C   UNL A   1      43.109  28.352  33.407  1.00  0.00     0.074 A 
ATOM     65  C   UNL A   1      43.640  27.349  32.507  1.00  0.00     0.031 C 
ATOM     66  C   UNL A   1      43.635  28.642  34.623  1.00  0.00     0.034 A 
BRANCH  53  67
ATOM     67  C   UNL A   1      40.828  33.313  37.547  1.00  0.00     0.023 A 
ATOM     68  C   UNL A   1      41.734  34.392  37.620  1.00  0.00     0.012 A 
ATOM     69  C   UNL A   1      39.875  33.142  38.569  1.00  0.00     0.148 A 
ATOM     70  C   UNL A   1      41.721  35.258  38.713  1.00  0.00     0.002 A 
ATOM     71  C   UNL A   1      39.835  34.040  39.630  1.00  0.00     0.091 A 
ATOM     72  F   UNL A   1      39.034  32.101  38.493  1.00  0.00    -0.205 F 
ATOM     73  C   UNL A   1      40.766  35.088  39.711  1.00  0.00     0.022 A 
BRANCH  71  74
ATOM     74  S   UNL A   1      38.590  33.957  40.921  1.00  0.00     0.127 S 
ATOM     75  O   UNL A   1      39.226  33.062  41.887  1.00  0.00    -0.237 OA
ATOM     76  O   UNL A   1      38.502  35.353  41.353  1.00  0.00    -0.237 OA
ATOM     77  O   UNL A   1      37.386  33.441  40.288  1.00  0.00    -0.744 OA
ENDBRANCH  71  74
ENDBRANCH  53  67
BRANCH  54  78
ATOM     78  C   UNL A   1      40.911  27.660  29.295  1.00  0.00     0.023 A 
ATOM     79  C   UNL A   1      40.089  26.521  29.190  1.00  0.00     0.012 A 
ATOM     80  C   UNL A   1      41.735  28.016  28.210  1.00  0.00     0.148 A 
ATOM     81  C   UNL A   1      40.113  25.731  28.040  1.00  0.00     0.002 A 
ATOM     82  C   UNL A   1      41.712  27.257  27.046  1.00  0.00     0.091 A 
ATOM     83  F   UNL A   1      42.512  29.102  28.333  1.00  0.00    -0.205 F 
ATOM     84  C   UNL A   1      40.915  26.104  26.965  1.00  0.00     0.022 A 
BRANCH  82  85
ATOM     85  S   UNL A   1      42.617  27.726  25.567  1.00  0.00     0.127 S 
ATOM     86  O   UNL A   1      43.969  27.907  26.088  1.00  0.00    -0.237 OA
ATOM     87  O   UNL A   1      42.434  26.548  24.717  1.00  0.00    -0.237 OA
ATOM     88  O   UNL A   1      41.967  28.932  25.071  1.00  0.00    -0.744 OA
ENDBRANCH  82  85
ENDBRANCH  54  78
BRANCH  66  89
ATOM     89  C   UNL A   1      44.813  27.831  35.092  1.00  0.00     0.023 A 
ATOM     90  C   UNL A   1      46.123  28.318  34.920  1.00  0.00     0.012 A 
ATOM     91  C   UNL A   1      44.609  26.626  35.794  1.00  0.00     0.148 A 
ATOM     92  C   UNL A   1      47.214  27.604  35.417  1.00  0.00     0.002 A 
ATOM     93  C   UNL A   1      45.694  25.948  36.332  1.00  0.00     0.091 A 
ATOM     94  F   UNL A   1      43.354  26.173  35.932  1.00  0.00    -0.205 F 
ATOM     95  C   UNL A   1      46.999  26.428  36.134  1.00  0.00     0.022 A 
BRANCH  93  96
ATOM     96  S   UNL A   1      45.508  24.484  37.356  1.00  0.00     0.127 S 
ATOM     97  O   UNL A   1      44.915  23.536  36.414  1.00  0.00    -0.237 OA
ATOM     98  O   UNL A   1      46.893  24.190  37.727  1.00  0.00    -0.237 OA
ATOM     99  O   UNL A   1      44.652  24.874  38.468  1.00  0.00    -0.744 OA
ENDBRANCH  93  96
ENDBRANCH  66  89
ENDBRANCH  40  41
ENDBRANCH  32  35
ENDBRANCH  30  31
ENDBRANCH  29  30
ENDBRANCH  28  29
ENDBRANCH   1  28
TORSDOF 19
ENDMDL
MODEL 3
REMARK VINA RESULT:     -11.0      6.571     12.636
REMARK SMILES O=C(NCc1ccc(C(=O)NCCCCCCNC(=O)c2ccc(-c3c4nc(c(-c5cccc(S(=O)(=O)[O-])c5F)c5ccc([nH]5)c(-c5cccc(S(=O)(=O)[O-])c5F)c5nc(c(-c6cccc(S(=O)(=O)[O-])c6F)c6ccc3[nH]6)C=C5)C=C4)cc2)cc1)Nc1ccccc1Br
REMARK SMILES IDX 14 1 13 2 12 3 11 4 9 5 10 6 8 8 5 9 6 10 85 11 7 12 84 13
REMARK SMILES IDX 4 14 3 15 1 16 2 17 86 18 87 21 88 22 92 23 89 24 91 25
REMARK SMILES IDX 93 26 90 27 15 28 16 29 17 30 18 31 19 32 20 34 21 35 22 36
REMARK SMILES IDX 83 37 23 38 82 39 24 40 25 41 26 42 76 43 27 44 81 45 75 46
REMARK SMILES IDX 77 47 28 48 80 49 74 50 73 51 29 53 61 54 41 55 60 56 42 57
REMARK SMILES IDX 45 58 59 59 78 60 43 61 44 62 58 64 79 65 46 66 30 67 31 68
REMARK SMILES IDX 39 69 32 70 34 71 40 72 33 73 35 74 36 75 37 76 38 77 62 78
REMARK SMILES IDX 63 79 71 80 64 81 66 82 72 83 65 84 67 85 68 86 69 87 70 88
REMARK SMILES IDX 47 89 48 90 56 91 49 92 51 93 57 94 50 95 52 96 53 97 54 98
REMARK SMILES IDX 55 99
REMARK H PARENT 11 7 3 19 86 20 18 33 77 52 45 63
REMARK Flexibility Score: inf
ROOT
ATOM      1  C   UNL A   1      39.690  22.528  26.545  1.00  0.00     0.002 C 
ENDROOT
BRANCH   1   2
ATOM      2  C   UNL A   1      38.985  23.887  26.451  1.00  0.00     0.021 C 
BRANCH   2   3
ATOM      3  C   UNL A   1      37.513  23.763  26.048  1.00  0.00     0.116 C 
BRANCH   3   4
ATOM      4  N   UNL A   1      37.418  23.548  24.616  1.00  0.00    -0.352 N 
ATOM      5  C   UNL A   1      36.382  23.165  23.808  1.00  0.00     0.251 C 
ATOM      6  O   UNL A   1      36.612  23.037  22.603  1.00  0.00    -0.269 OA
ATOM      7  H   UNL A   1      38.261  23.708  24.133  1.00  0.00     0.163 HD
BRANCH   5   8
ATOM      8  C   UNL A   1      34.991  22.972  24.302  1.00  0.00     0.039 A 
ATOM      9  C   UNL A   1      32.272  22.753  25.046  1.00  0.00    -0.029 A 
ATOM     10  C   UNL A   1      32.643  22.726  23.696  1.00  0.00     0.006 A 
ATOM     11  C   UNL A   1      33.278  22.854  26.015  1.00  0.00     0.006 A 
ATOM     12  C   UNL A   1      33.987  22.838  23.331  1.00  0.00     0.014 A 
ATOM     13  C   UNL A   1      34.625  22.913  25.648  1.00  0.00     0.014 A 
BRANCH   9  14
ATOM     14  C   UNL A   1      30.813  22.740  25.431  1.00  0.00     0.153 C 
BRANCH  14  15
ATOM     15  N   UNL A   1      30.442  23.911  26.194  1.00  0.00    -0.334 N 
ATOM     16  O   UNL A   1      30.151  26.051  26.694  1.00  0.00    -0.248 OA
ATOM     17  C   UNL A   1      30.340  25.214  25.817  1.00  0.00     0.319 C 
ATOM     18  N   UNL A   1      30.393  25.459  24.475  1.00  0.00    -0.307 N 
ATOM     19  H   UNL A   1      30.229  23.737  27.140  1.00  0.00     0.165 HD
ATOM     20  H   UNL A   1      30.395  24.682  23.870  1.00  0.00     0.171 HD
BRANCH  18  21
ATOM     21  C   UNL A   1      30.444  26.745  23.887  1.00  0.00     0.057 A 
ATOM     22  C   UNL A   1      29.215  27.255  23.438  1.00  0.00     0.027 A 
ATOM     23  C   UNL A   1      31.604  27.517  23.704  1.00  0.00     0.041 A 
ATOM     24  C   UNL A   1      29.123  28.542  22.904  1.00  0.00     0.002 A 
ATOM     25  C   UNL A   1      31.504  28.807  23.163  1.00  0.00     0.018 A 
ATOM     26  Br  UNL A   1      33.367  26.842  23.943  1.00  0.00    -0.049 Br
ATOM     27  C   UNL A   1      30.266  29.324  22.781  1.00  0.00     0.001 A 
ENDBRANCH  18  21
ENDBRANCH  14  15
ENDBRANCH   9  14
ENDBRANCH   5   8
ENDBRANCH   3   4
ENDBRANCH   2   3
ENDBRANCH   1   2
BRANCH   1  28
ATOM     28  C   UNL A   1      38.891  21.357  25.959  1.00  0.00     0.002 C 
BRANCH  28  29
ATOM     29  C   UNL A   1      39.653  20.031  25.904  1.00  0.00     0.021 C 
BRANCH  29  30
ATOM     30  C   UNL A   1      40.946  20.033  26.710  1.00  0.00     0.116 C 
BRANCH  30  31
ATOM     31  N   UNL A   1      42.015  19.350  25.995  1.00  0.00    -0.352 N 
ATOM     32  C   UNL A   1      43.121  19.888  25.384  1.00  0.00     0.251 C 
ATOM     33  H   UNL A   1      41.934  18.370  25.943  1.00  0.00     0.163 HD
ATOM     34  O   UNL A   1      43.790  19.216  24.609  1.00  0.00    -0.269 OA
BRANCH  32  35
ATOM     35  C   UNL A   1      43.488  21.289  25.671  1.00  0.00     0.039 A 
ATOM     36  C   UNL A   1      43.337  22.256  24.675  1.00  0.00     0.014 A 
ATOM     37  C   UNL A   1      43.967  21.641  26.936  1.00  0.00     0.014 A 
ATOM     38  C   UNL A   1      43.619  23.591  24.966  1.00  0.00     0.010 A 
ATOM     39  C   UNL A   1      44.170  22.980  27.246  1.00  0.00     0.010 A 
ATOM     40  C   UNL A   1      44.010  23.967  26.262  1.00  0.00    -0.014 A 
BRANCH  40  41
ATOM     41  C   UNL A   1      44.269  25.384  26.619  1.00  0.00     0.031 A 
ATOM     42  C   UNL A   1      45.659  25.946  26.491  1.00  0.00     0.074 A 
ATOM     43  C   UNL A   1      43.282  26.130  27.151  1.00  0.00     0.049 A 
ATOM     44  N   UNL A   1      46.111  27.119  26.845  1.00  0.00    -0.248 NA
ATOM     45  C   UNL A   1      46.684  25.057  25.916  1.00  0.00     0.031 C 
ATOM     46  C   UNL A   1      41.909  25.676  27.385  1.00  0.00     0.029 A 
ATOM     47  N   UNL A   1      43.290  27.419  27.623  1.00  0.00    -0.354 N 
ATOM     48  C   UNL A   1      47.474  27.098  26.575  1.00  0.00     0.074 A 
ATOM     49  C   UNL A   1      47.783  25.782  26.062  1.00  0.00     0.031 C 
ATOM     50  C   UNL A   1      41.208  26.671  27.953  1.00  0.00     0.029 A 
ATOM     51  C   UNL A   1      42.088  27.816  28.161  1.00  0.00     0.049 A 
ATOM     52  H   UNL A   1      44.080  28.004  27.581  1.00  0.00     0.167 HD
ATOM     53  C   UNL A   1      48.383  28.091  26.717  1.00  0.00     0.034 A 
ATOM     54  C   UNL A   1      41.739  28.966  28.770  1.00  0.00     0.034 A 
ATOM     55  C   UNL A   1      48.061  29.407  27.197  1.00  0.00     0.049 A 
ATOM     56  C   UNL A   1      42.763  30.061  28.904  1.00  0.00     0.074 A 
ATOM     57  C   UNL A   1      48.890  30.510  27.304  1.00  0.00     0.029 A 
ATOM     58  N   UNL A   1      46.815  29.796  27.665  1.00  0.00    -0.354 N 
ATOM     59  N   UNL A   1      44.015  30.072  28.514  1.00  0.00    -0.248 NA
ATOM     60  C   UNL A   1      42.321  31.314  29.531  1.00  0.00     0.031 C 
ATOM     61  C   UNL A   1      48.153  31.555  27.869  1.00  0.00     0.029 A 
ATOM     62  C   UNL A   1      46.854  31.117  28.073  1.00  0.00     0.049 A 
ATOM     63  H   UNL A   1      46.020  29.217  27.700  1.00  0.00     0.167 HD
ATOM     64  C   UNL A   1      44.496  31.343  28.806  1.00  0.00     0.074 A 
ATOM     65  C   UNL A   1      43.397  32.078  29.398  1.00  0.00     0.031 C 
ATOM     66  C   UNL A   1      45.737  31.853  28.608  1.00  0.00     0.034 A 
BRANCH  53  67
ATOM     67  C   UNL A   1      49.805  27.801  26.312  1.00  0.00     0.023 A 
ATOM     68  C   UNL A   1      50.770  27.513  27.301  1.00  0.00     0.012 A 
ATOM     69  C   UNL A   1      50.179  27.770  24.955  1.00  0.00     0.148 A 
ATOM     70  C   UNL A   1      52.092  27.244  26.948  1.00  0.00     0.002 A 
ATOM     71  C   UNL A   1      51.487  27.451  24.608  1.00  0.00     0.091 A 
ATOM     72  F   UNL A   1      49.255  28.065  24.029  1.00  0.00    -0.205 F 
ATOM     73  C   UNL A   1      52.447  27.203  25.603  1.00  0.00     0.022 A 
BRANCH  71  74
ATOM     74  S   UNL A   1      52.025  27.289  22.903  1.00  0.00     0.127 S 
ATOM     75  O   UNL A   1      52.635  28.596  22.660  1.00  0.00    -0.237 OA
ATOM     76  O   UNL A   1      52.977  26.180  22.985  1.00  0.00    -0.237 OA
ATOM     77  O   UNL A   1      50.827  27.005  22.127  1.00  0.00    -0.744 OA
ENDBRANCH  71  74
ENDBRANCH  53  67
BRANCH  54  78
ATOM     78  C   UNL A   1      40.341  29.163  29.248  1.00  0.00     0.023 A 
ATOM     79  C   UNL A   1      39.348  29.559  28.330  1.00  0.00     0.012 A 
ATOM     80  C   UNL A   1      39.984  28.935  30.591  1.00  0.00     0.148 A 
ATOM     81  C   UNL A   1      38.032  29.758  28.748  1.00  0.00     0.002 A 
ATOM     82  C   UNL A   1      38.660  29.081  30.989  1.00  0.00     0.091 A 
ATOM     83  F   UNL A   1      40.945  28.563  31.448  1.00  0.00    -0.205 F 
ATOM     84  C   UNL A   1      37.686  29.511  30.074  1.00  0.00     0.022 A 
BRANCH  82  85
ATOM     85  S   UNL A   1      38.097  28.668  32.643  1.00  0.00     0.127 S 
ATOM     86  O   UNL A   1      36.730  29.180  32.632  1.00  0.00    -0.237 OA
ATOM     87  O   UNL A   1      38.209  27.208  32.642  1.00  0.00    -0.237 OA
ATOM     88  O   UNL A   1      39.013  29.341  33.554  1.00  0.00    -0.744 OA
ENDBRANCH  82  85
ENDBRANCH  54  78
BRANCH  66  89
ATOM     89  C   UNL A   1      45.973  33.294  28.977  1.00  0.00     0.023 A 
ATOM     90  C   UNL A   1      46.518  33.624  30.233  1.00  0.00     0.012 A 
ATOM     91  C   UNL A   1      45.743  34.314  28.032  1.00  0.00     0.148 A 
ATOM     92  C   UNL A   1      46.804  34.951  30.552  1.00  0.00     0.002 A 
ATOM     93  C   UNL A   1      46.081  35.625  28.336  1.00  0.00     0.091 A 
ATOM     94  F   UNL A   1      45.208  33.978  26.849  1.00  0.00    -0.205 F 
ATOM     95  C   UNL A   1      46.600  35.949  29.601  1.00  0.00     0.022 A 
BRANCH  93  96
ATOM     96  S   UNL A   1      45.949  36.959  27.140  1.00  0.00     0.127 S 
ATOM     97  O   UNL A   1      46.710  36.424  26.013  1.00  0.00    -0.237 OA
ATOM     98  O   UNL A   1      44.504  37.035  26.921  1.00  0.00    -0.237 OA
ATOM     99  O   UNL A   1      46.528  38.133  27.778  1.00  0.00    -0.744 OA
ENDBRANCH  93  96
ENDBRANCH  66  89
ENDBRANCH  40  41
ENDBRANCH  32  35
ENDBRANCH  30  31
ENDBRANCH  29  30
ENDBRANCH  28  29
ENDBRANCH   1  28
TORSDOF 19
ENDMDL
