MODEL 1
REMARK VINA RESULT:     -10.9      0.000      0.000
REMARK SMILES CC[C@](C)(NC(=O)Cc1cccc(F)c1)C(=O)NCCCCCCNC(=O)c1ccc(-c2c3nc(c(-c4cccc(S(=O)(=O)[O-])c4F)c4ccc([nH]4)c(-c4cccc(S(=O)(=O)[O-])c4F)c4nc(c(-c5cccc(S(=O)(=O)[O-])c5F)c5ccc2[nH]5)C=C4)C=C3)cc1
REMARK SMILES IDX 21 1 20 2 19 3 18 4 16 5 17 6 3 8 4 9 2 10 1 11 5 12 6 13
REMARK SMILES IDX 7 15 8 16 9 17 10 18 15 19 11 20 13 21 12 22 14 23 22 24
REMARK SMILES IDX 23 25 24 26 25 27 26 28 27 30 28 31 29 32 90 33 30 34 89 35
REMARK SMILES IDX 31 36 32 37 33 38 83 39 34 40 88 41 82 42 84 43 35 44 87 45
REMARK SMILES IDX 81 46 80 47 36 49 68 50 48 51 67 52 49 53 52 54 66 55 85 56
REMARK SMILES IDX 50 57 51 58 65 60 86 61 53 62 37 63 38 64 46 65 39 66 41 67
REMARK SMILES IDX 47 68 40 69 42 70 43 71 44 72 45 73 69 74 70 75 78 76 71 77
REMARK SMILES IDX 73 78 79 79 72 80 74 81 75 82 76 83 77 84 54 85 55 86 63 87
REMARK SMILES IDX 56 88 58 89 64 90 57 91 59 92 60 93 61 94 62 95
REMARK H PARENT 18 7 5 14 25 29 84 48 52 59
REMARK Flexibility Score: inf
ROOT
ATOM      1  C   UNL A   1      31.192  26.906  25.774  1.00  0.00     0.002 C 
ENDROOT
BRANCH   1   2
ATOM      2  C   UNL A   1      31.237  26.260  24.386  1.00  0.00     0.021 C 
BRANCH   2   3
ATOM      3  C   UNL A   1      31.639  24.786  24.357  1.00  0.00     0.116 C 
BRANCH   3   4
ATOM      4  N   UNL A   1      32.619  24.448  23.336  1.00  0.00    -0.354 N 
ATOM      5  C   UNL A   1      33.706  23.620  23.369  1.00  0.00     0.245 C 
ATOM      6  O   UNL A   1      34.200  23.321  22.276  1.00  0.00    -0.272 OA
ATOM      7  H   UNL A   1      32.474  24.894  22.471  1.00  0.00     0.163 HD
BRANCH   5   8
ATOM      8  C   UNL A   1      34.190  22.956  24.690  1.00  0.00     0.116 C 
ATOM      9  C   UNL A   1      34.810  23.969  25.670  1.00  0.00     0.045 C 
BRANCH   8  10
ATOM     10  C   UNL A   1      35.302  21.937  24.263  1.00  0.00     0.035 C 
ATOM     11  C   UNL A   1      35.784  20.998  25.372  1.00  0.00     0.007 C 
ENDBRANCH   8  10
BRANCH   8  12
ATOM     12  N   UNL A   1      33.110  22.233  25.414  1.00  0.00    -0.342 N 
ATOM     13  C   UNL A   1      32.118  21.418  24.937  1.00  0.00     0.225 C 
ATOM     14  H   UNL A   1      33.109  22.359  26.390  1.00  0.00     0.164 HD
ATOM     15  O   UNL A   1      31.059  21.394  25.572  1.00  0.00    -0.275 OA
BRANCH  13  16
ATOM     16  C   UNL A   1      32.326  20.477  23.755  1.00  0.00     0.135 C 
BRANCH  16  17
ATOM     17  C   UNL A   1      32.738  19.071  24.089  1.00  0.00    -0.036 A 
ATOM     18  C   UNL A   1      32.495  18.553  25.371  1.00  0.00     0.004 A 
ATOM     19  C   UNL A   1      33.357  18.252  23.139  1.00  0.00     0.043 A 
ATOM     20  C   UNL A   1      32.957  17.290  25.738  1.00  0.00     0.003 A 
ATOM     21  C   UNL A   1      33.773  16.974  23.501  1.00  0.00     0.123 A 
ATOM     22  C   UNL A   1      33.605  16.499  24.797  1.00  0.00     0.039 A 
ATOM     23  F   UNL A   1      34.355  16.188  22.586  1.00  0.00    -0.207 F 
ENDBRANCH  16  17
ENDBRANCH  13  16
ENDBRANCH   8  12
ENDBRANCH   5   8
ENDBRANCH   3   4
ENDBRANCH   2   3
ENDBRANCH   1   2
BRANCH   1  24
ATOM     24  C   UNL A   1      32.534  26.953  26.506  1.00  0.00     0.002 C 
BRANCH  24  25
ATOM     25  C   UNL A   1      32.809  28.253  27.261  1.00  0.00     0.021 C 
BRANCH  25  26
ATOM     26  C   UNL A   1      33.746  29.215  26.543  1.00  0.00     0.116 C 
BRANCH  26  27
ATOM     27  N   UNL A   1      33.598  30.578  27.025  1.00  0.00    -0.352 N 
ATOM     28  C   UNL A   1      34.378  31.247  27.936  1.00  0.00     0.251 C 
ATOM     29  H   UNL A   1      32.842  31.085  26.651  1.00  0.00     0.163 HD
ATOM     30  O   UNL A   1      34.004  32.317  28.401  1.00  0.00    -0.269 OA
BRANCH  28  31
ATOM     31  C   UNL A   1      35.665  30.654  28.360  1.00  0.00     0.039 A 
ATOM     32  C   UNL A   1      36.824  30.976  27.653  1.00  0.00     0.014 A 
ATOM     33  C   UNL A   1      35.724  29.790  29.458  1.00  0.00     0.014 A 
ATOM     34  C   UNL A   1      38.050  30.453  28.067  1.00  0.00     0.010 A 
ATOM     35  C   UNL A   1      36.956  29.339  29.919  1.00  0.00     0.010 A 
ATOM     36  C   UNL A   1      38.129  29.645  29.214  1.00  0.00    -0.014 A 
BRANCH  36  37
ATOM     37  C   UNL A   1      39.429  29.093  29.674  1.00  0.00     0.031 A 
ATOM     38  C   UNL A   1      40.168  29.744  30.811  1.00  0.00     0.074 A 
ATOM     39  C   UNL A   1      39.976  28.044  29.030  1.00  0.00     0.049 A 
ATOM     40  N   UNL A   1      41.313  29.409  31.345  1.00  0.00    -0.248 NA
ATOM     41  C   UNL A   1      39.558  30.944  31.409  1.00  0.00     0.031 C 
ATOM     42  C   UNL A   1      39.401  27.380  27.859  1.00  0.00     0.029 A 
ATOM     43  N   UNL A   1      41.149  27.366  29.254  1.00  0.00    -0.354 N 
ATOM     44  C   UNL A   1      41.579  30.375  32.309  1.00  0.00     0.074 A 
ATOM     45  C   UNL A   1      40.496  31.331  32.261  1.00  0.00     0.031 C 
ATOM     46  C   UNL A   1      40.212  26.382  27.479  1.00  0.00     0.029 A 
ATOM     47  C   UNL A   1      41.379  26.351  28.356  1.00  0.00     0.049 A 
ATOM     48  H   UNL A   1      41.766  27.586  29.989  1.00  0.00     0.167 HD
ATOM     49  C   UNL A   1      42.614  30.442  33.178  1.00  0.00     0.034 A 
ATOM     50  C   UNL A   1      42.412  25.492  28.246  1.00  0.00     0.034 A 
ATOM     51  C   UNL A   1      43.657  29.456  33.258  1.00  0.00     0.049 A 
ATOM     52  C   UNL A   1      43.529  25.553  29.251  1.00  0.00     0.074 A 
ATOM     53  C   UNL A   1      44.679  29.367  34.187  1.00  0.00     0.029 A 
ATOM     54  N   UNL A   1      43.823  28.402  32.374  1.00  0.00    -0.354 N 
ATOM     55  N   UNL A   1      43.672  26.364  30.271  1.00  0.00    -0.248 NA
ATOM     56  C   UNL A   1      44.611  24.567  29.114  1.00  0.00     0.031 C 
ATOM     57  C   UNL A   1      45.488  28.282  33.837  1.00  0.00     0.029 A 
ATOM     58  C   UNL A   1      44.949  27.673  32.714  1.00  0.00     0.049 A 
ATOM     59  H   UNL A   1      43.228  28.203  31.616  1.00  0.00     0.167 HD
ATOM     60  C   UNL A   1      44.845  25.979  30.908  1.00  0.00     0.074 A 
ATOM     61  C   UNL A   1      45.366  24.845  30.171  1.00  0.00     0.031 C 
ATOM     62  C   UNL A   1      45.441  26.525  31.997  1.00  0.00     0.034 A 
BRANCH  49  63
ATOM     63  C   UNL A   1      42.647  31.591  34.151  1.00  0.00     0.023 A 
ATOM     64  C   UNL A   1      43.230  32.816  33.769  1.00  0.00     0.012 A 
ATOM     65  C   UNL A   1      42.034  31.483  35.415  1.00  0.00     0.148 A 
ATOM     66  C   UNL A   1      43.236  33.904  34.640  1.00  0.00     0.002 A 
ATOM     67  C   UNL A   1      41.999  32.587  36.259  1.00  0.00     0.091 A 
ATOM     68  F   UNL A   1      41.503  30.305  35.770  1.00  0.00    -0.205 F 
ATOM     69  C   UNL A   1      42.610  33.793  35.879  1.00  0.00     0.022 A 
BRANCH  67  70
ATOM     70  S   UNL A   1      41.137  32.574  37.835  1.00  0.00     0.127 S 
ATOM     71  O   UNL A   1      39.814  32.089  37.444  1.00  0.00    -0.237 OA
ATOM     72  O   UNL A   1      41.931  31.621  38.612  1.00  0.00    -0.237 OA
ATOM     73  O   UNL A   1      41.180  33.944  38.327  1.00  0.00    -0.744 OA
ENDBRANCH  67  70
ENDBRANCH  49  63
BRANCH  50  74
ATOM     74  C   UNL A   1      42.380  24.458  27.174  1.00  0.00     0.023 A 
ATOM     75  C   UNL A   1      43.254  24.573  26.076  1.00  0.00     0.012 A 
ATOM     76  C   UNL A   1      41.571  23.311  27.294  1.00  0.00     0.148 A 
ATOM     77  C   UNL A   1      43.319  23.565  25.113  1.00  0.00     0.002 A 
ATOM     78  C   UNL A   1      41.683  22.285  26.363  1.00  0.00     0.091 A 
ATOM     79  F   UNL A   1      40.744  23.227  28.346  1.00  0.00    -0.205 F 
ATOM     80  C   UNL A   1      42.547  22.416  25.264  1.00  0.00     0.022 A 
BRANCH  78  81
ATOM     81  S   UNL A   1      40.844  20.708  26.555  1.00  0.00     0.127 S 
ATOM     82  O   UNL A   1      39.515  21.009  26.026  1.00  0.00    -0.237 OA
ATOM     83  O   UNL A   1      41.660  19.834  25.712  1.00  0.00    -0.237 OA
ATOM     84  O   UNL A   1      40.896  20.399  27.977  1.00  0.00    -0.744 OA
ENDBRANCH  78  81
ENDBRANCH  50  74
BRANCH  62  85
ATOM     85  C   UNL A   1      46.735  25.924  32.482  1.00  0.00     0.023 A 
ATOM     86  C   UNL A   1      47.959  26.464  32.042  1.00  0.00     0.012 A 
ATOM     87  C   UNL A   1      46.735  24.933  33.485  1.00  0.00     0.148 A 
ATOM     88  C   UNL A   1      49.164  26.022  32.586  1.00  0.00     0.002 A 
ATOM     89  C   UNL A   1      47.936  24.534  34.058  1.00  0.00     0.091 A 
ATOM     90  F   UNL A   1      45.559  24.425  33.880  1.00  0.00    -0.205 F 
ATOM     91  C   UNL A   1      49.152  25.070  33.603  1.00  0.00     0.022 A 
BRANCH  89  92
ATOM     92  S   UNL A   1      48.017  23.396  35.447  1.00  0.00     0.127 S 
ATOM     93  O   UNL A   1      46.626  22.960  35.556  1.00  0.00    -0.237 OA
ATOM     94  O   UNL A   1      48.940  22.374  34.953  1.00  0.00    -0.237 OA
ATOM     95  O   UNL A   1      48.513  24.170  36.576  1.00  0.00    -0.744 OA
ENDBRANCH  89  92
ENDBRANCH  62  85
ENDBRANCH  36  37
ENDBRANCH  28  31
ENDBRANCH  26  27
ENDBRANCH  25  26
ENDBRANCH  24  25
ENDBRANCH   1  24
TORSDOF 20
ENDMDL
MODEL 2
REMARK VINA RESULT:     -10.9      2.056      2.925
REMARK SMILES CC[C@](C)(NC(=O)Cc1cccc(F)c1)C(=O)NCCCCCCNC(=O)c1ccc(-c2c3nc(c(-c4cccc(S(=O)(=O)[O-])c4F)c4ccc([nH]4)c(-c4cccc(S(=O)(=O)[O-])c4F)c4nc(c(-c5cccc(S(=O)(=O)[O-])c5F)c5ccc2[nH]5)C=C4)C=C3)cc1
REMARK SMILES IDX 21 1 20 2 19 3 18 4 16 5 17 6 3 8 4 9 2 10 1 11 5 12 6 13
REMARK SMILES IDX 7 15 8 16 9 17 10 18 15 19 11 20 13 21 12 22 14 23 22 24
REMARK SMILES IDX 23 25 24 26 25 27 26 28 27 30 28 31 29 32 90 33 30 34 89 35
REMARK SMILES IDX 31 36 32 37 33 38 83 39 34 40 88 41 82 42 84 43 35 44 87 45
REMARK SMILES IDX 81 46 80 47 36 49 68 50 48 51 67 52 49 53 52 54 66 55 85 56
REMARK SMILES IDX 50 57 51 58 65 60 86 61 53 62 37 63 38 64 46 65 39 66 41 67
REMARK SMILES IDX 47 68 40 69 42 70 43 71 44 72 45 73 69 74 70 75 78 76 71 77
REMARK SMILES IDX 73 78 79 79 72 80 74 81 75 82 76 83 77 84 54 85 55 86 63 87
REMARK SMILES IDX 56 88 58 89 64 90 57 91 59 92 60 93 61 94 62 95
REMARK H PARENT 18 7 5 14 25 29 84 48 52 59
REMARK Flexibility Score: inf
ROOT
ATOM      1  C   UNL A   1      30.646  27.364  25.430  1.00  0.00     0.002 C 
ENDROOT
BRANCH   1   2
ATOM      2  C   UNL A   1      29.920  26.376  24.512  1.00  0.00     0.021 C 
BRANCH   2   3
ATOM      3  C   UNL A   1      30.569  24.999  24.381  1.00  0.00     0.116 C 
BRANCH   3   4
ATOM      4  N   UNL A   1      30.295  24.095  25.487  1.00  0.00    -0.354 N 
ATOM      5  C   UNL A   1      31.126  23.507  26.398  1.00  0.00     0.245 C 
ATOM      6  O   UNL A   1      30.585  23.000  27.387  1.00  0.00    -0.272 OA
ATOM      7  H   UNL A   1      29.344  23.866  25.597  1.00  0.00     0.163 HD
BRANCH   5   8
ATOM      8  C   UNL A   1      32.674  23.618  26.286  1.00  0.00     0.116 C 
ATOM      9  C   UNL A   1      33.407  22.804  27.369  1.00  0.00     0.045 C 
BRANCH   8  10
ATOM     10  C   UNL A   1      33.001  25.136  26.502  1.00  0.00     0.035 C 
ATOM     11  C   UNL A   1      34.114  25.694  25.613  1.00  0.00     0.007 C 
ENDBRANCH   8  10
BRANCH   8  12
ATOM     12  N   UNL A   1      33.200  23.184  24.964  1.00  0.00    -0.342 N 
ATOM     13  C   UNL A   1      34.064  22.170  24.645  1.00  0.00     0.225 C 
ATOM     14  H   UNL A   1      32.874  23.708  24.197  1.00  0.00     0.164 HD
ATOM     15  O   UNL A   1      34.776  22.334  23.648  1.00  0.00    -0.275 OA
BRANCH  13  16
ATOM     16  C   UNL A   1      34.078  20.839  25.388  1.00  0.00     0.135 C 
BRANCH  16  17
ATOM     17  C   UNL A   1      33.711  19.624  24.584  1.00  0.00    -0.036 A 
ATOM     18  C   UNL A   1      32.570  19.640  23.768  1.00  0.00     0.004 A 
ATOM     19  C   UNL A   1      34.495  18.467  24.623  1.00  0.00     0.043 A 
ATOM     20  C   UNL A   1      32.151  18.495  23.092  1.00  0.00     0.003 A 
ATOM     21  C   UNL A   1      34.095  17.342  23.907  1.00  0.00     0.123 A 
ATOM     22  C   UNL A   1      32.916  17.337  23.167  1.00  0.00     0.039 A 
ATOM     23  F   UNL A   1      34.853  16.238  23.935  1.00  0.00    -0.207 F 
ENDBRANCH  16  17
ENDBRANCH  13  16
ENDBRANCH   8  12
ENDBRANCH   5   8
ENDBRANCH   3   4
ENDBRANCH   2   3
ENDBRANCH   1   2
BRANCH   1  24
ATOM     24  C   UNL A   1      31.141  28.638  24.743  1.00  0.00     0.002 C 
BRANCH  24  25
ATOM     25  C   UNL A   1      32.593  28.590  24.270  1.00  0.00     0.021 C 
BRANCH  25  26
ATOM     26  C   UNL A   1      33.548  29.468  25.070  1.00  0.00     0.116 C 
BRANCH  26  27
ATOM     27  N   UNL A   1      32.878  30.632  25.623  1.00  0.00    -0.352 N 
ATOM     28  C   UNL A   1      33.111  31.257  26.824  1.00  0.00     0.251 C 
ATOM     29  H   UNL A   1      32.167  31.023  25.066  1.00  0.00     0.163 HD
ATOM     30  O   UNL A   1      32.325  32.096  27.246  1.00  0.00    -0.269 OA
BRANCH  28  31
ATOM     31  C   UNL A   1      34.313  30.894  27.606  1.00  0.00     0.039 A 
ATOM     32  C   UNL A   1      34.429  29.597  28.106  1.00  0.00     0.014 A 
ATOM     33  C   UNL A   1      35.323  31.834  27.837  1.00  0.00     0.014 A 
ATOM     34  C   UNL A   1      35.576  29.232  28.813  1.00  0.00     0.010 A 
ATOM     35  C   UNL A   1      36.500  31.444  28.467  1.00  0.00     0.010 A 
ATOM     36  C   UNL A   1      36.629  30.147  28.985  1.00  0.00    -0.014 A 
BRANCH  36  37
ATOM     37  C   UNL A   1      37.860  29.768  29.723  1.00  0.00     0.031 A 
ATOM     38  C   UNL A   1      38.113  30.313  31.102  1.00  0.00     0.074 A 
ATOM     39  C   UNL A   1      38.781  28.984  29.131  1.00  0.00     0.049 A 
ATOM     40  N   UNL A   1      39.130  30.099  31.896  1.00  0.00    -0.248 NA
ATOM     41  C   UNL A   1      37.110  31.240  31.653  1.00  0.00     0.031 C 
ATOM     42  C   UNL A   1      38.692  28.464  27.766  1.00  0.00     0.029 A 
ATOM     43  N   UNL A   1      39.982  28.505  29.593  1.00  0.00    -0.354 N 
ATOM     44  C   UNL A   1      38.910  30.892  33.016  1.00  0.00     0.074 A 
ATOM     45  C   UNL A   1      37.684  31.622  32.785  1.00  0.00     0.031 C 
ATOM     46  C   UNL A   1      39.782  27.726  27.506  1.00  0.00     0.029 A 
ATOM     47  C   UNL A   1      40.662  27.743  28.672  1.00  0.00     0.049 A 
ATOM     48  H   UNL A   1      40.323  28.689  30.498  1.00  0.00     0.167 HD
ATOM     49  C   UNL A   1      39.645  30.981  34.149  1.00  0.00     0.034 A 
ATOM     50  C   UNL A   1      41.859  27.128  28.752  1.00  0.00     0.034 A 
ATOM     51  C   UNL A   1      40.832  30.209  34.395  1.00  0.00     0.049 A 
ATOM     52  C   UNL A   1      42.638  27.200  30.037  1.00  0.00     0.074 A 
ATOM     53  C   UNL A   1      41.577  30.133  35.559  1.00  0.00     0.029 A 
ATOM     54  N   UNL A   1      41.458  29.396  33.463  1.00  0.00    -0.354 N 
ATOM     55  N   UNL A   1      42.324  27.811  31.154  1.00  0.00    -0.248 NA
ATOM     56  C   UNL A   1      43.917  26.477  30.089  1.00  0.00     0.031 C 
ATOM     57  C   UNL A   1      42.676  29.305  35.317  1.00  0.00     0.029 A 
ATOM     58  C   UNL A   1      42.597  28.836  34.015  1.00  0.00     0.049 A 
ATOM     59  H   UNL A   1      41.139  29.240  32.546  1.00  0.00     0.167 HD
ATOM     60  C   UNL A   1      43.353  27.534  32.045  1.00  0.00     0.074 A 
ATOM     61  C   UNL A   1      44.292  26.680  31.346  1.00  0.00     0.031 C 
ATOM     62  C   UNL A   1      43.508  27.959  33.324  1.00  0.00     0.034 A 
BRANCH  49  63
ATOM     63  C   UNL A   1      39.162  31.906  35.234  1.00  0.00     0.023 A 
ATOM     64  C   UNL A   1      38.224  31.445  36.181  1.00  0.00     0.012 A 
ATOM     65  C   UNL A   1      39.690  33.206  35.362  1.00  0.00     0.148 A 
ATOM     66  C   UNL A   1      37.793  32.274  37.216  1.00  0.00     0.002 A 
ATOM     67  C   UNL A   1      39.294  34.008  36.426  1.00  0.00     0.091 A 
ATOM     68  F   UNL A   1      40.564  33.635  34.441  1.00  0.00    -0.205 F 
ATOM     69  C   UNL A   1      38.337  33.548  37.345  1.00  0.00     0.022 A 
BRANCH  67  70
ATOM     70  S   UNL A   1      40.003  35.629  36.733  1.00  0.00     0.127 S 
ATOM     71  O   UNL A   1      39.350  36.003  37.988  1.00  0.00    -0.237 OA
ATOM     72  O   UNL A   1      41.429  35.323  36.856  1.00  0.00    -0.237 OA
ATOM     73  O   UNL A   1      39.654  36.446  35.579  1.00  0.00    -0.744 OA
ENDBRANCH  67  70
ENDBRANCH  49  63
BRANCH  50  74
ATOM     74  C   UNL A   1      42.342  26.334  27.588  1.00  0.00     0.023 A 
ATOM     75  C   UNL A   1      43.283  26.899  26.707  1.00  0.00     0.012 A 
ATOM     76  C   UNL A   1      41.957  24.989  27.416  1.00  0.00     0.148 A 
ATOM     77  C   UNL A   1      43.831  26.140  25.672  1.00  0.00     0.002 A 
ATOM     78  C   UNL A   1      42.549  24.222  26.420  1.00  0.00     0.091 A 
ATOM     79  F   UNL A   1      41.056  24.475  28.265  1.00  0.00    -0.205 F 
ATOM     80  C   UNL A   1      43.476  24.800  25.538  1.00  0.00     0.022 A 
BRANCH  78  81
ATOM     81  S   UNL A   1      42.272  22.455  26.264  1.00  0.00     0.127 S 
ATOM     82  O   UNL A   1      40.819  22.391  26.118  1.00  0.00    -0.237 OA
ATOM     83  O   UNL A   1      43.028  22.141  25.052  1.00  0.00    -0.237 OA
ATOM     84  O   UNL A   1      42.804  21.858  27.481  1.00  0.00    -0.744 OA
ENDBRANCH  78  81
ENDBRANCH  50  74
BRANCH  62  85
ATOM     85  C   UNL A   1      44.739  27.527  34.078  1.00  0.00     0.023 A 
ATOM     86  C   UNL A   1      45.865  28.372  34.112  1.00  0.00     0.012 A 
ATOM     87  C   UNL A   1      44.721  26.363  34.874  1.00  0.00     0.148 A 
ATOM     88  C   UNL A   1      46.958  28.062  34.919  1.00  0.00     0.002 A 
ATOM     89  C   UNL A   1      45.793  26.087  35.713  1.00  0.00     0.091 A 
ATOM     90  F   UNL A   1      43.643  25.568  34.816  1.00  0.00    -0.205 F 
ATOM     91  C   UNL A   1      46.916  26.930  35.730  1.00  0.00     0.022 A 
BRANCH  89  92
ATOM     92  S   UNL A   1      45.787  24.715  36.874  1.00  0.00     0.127 S 
ATOM     93  O   UNL A   1      47.030  24.941  37.609  1.00  0.00    -0.237 OA
ATOM     94  O   UNL A   1      44.568  24.970  37.643  1.00  0.00    -0.237 OA
ATOM     95  O   UNL A   1      45.756  23.502  36.069  1.00  0.00    -0.744 OA
ENDBRANCH  89  92
ENDBRANCH  62  85
ENDBRANCH  36  37
ENDBRANCH  28  31
ENDBRANCH  26  27
ENDBRANCH  25  26
ENDBRANCH  24  25
ENDBRANCH   1  24
TORSDOF 20
ENDMDL
MODEL 3
REMARK VINA RESULT:     -10.7      5.364      8.934
REMARK SMILES CC[C@](C)(NC(=O)Cc1cccc(F)c1)C(=O)NCCCCCCNC(=O)c1ccc(-c2c3nc(c(-c4cccc(S(=O)(=O)[O-])c4F)c4ccc([nH]4)c(-c4cccc(S(=O)(=O)[O-])c4F)c4nc(c(-c5cccc(S(=O)(=O)[O-])c5F)c5ccc2[nH]5)C=C4)C=C3)cc1
REMARK SMILES IDX 21 1 20 2 19 3 18 4 16 5 17 6 3 8 4 9 2 10 1 11 5 12 6 13
REMARK SMILES IDX 7 15 8 16 9 17 10 18 15 19 11 20 13 21 12 22 14 23 22 24
REMARK SMILES IDX 23 25 24 26 25 27 26 28 27 30 28 31 29 32 90 33 30 34 89 35
REMARK SMILES IDX 31 36 32 37 33 38 83 39 34 40 88 41 82 42 84 43 35 44 87 45
REMARK SMILES IDX 81 46 80 47 36 49 68 50 48 51 67 52 49 53 52 54 66 55 85 56
REMARK SMILES IDX 50 57 51 58 65 60 86 61 53 62 37 63 38 64 46 65 39 66 41 67
REMARK SMILES IDX 47 68 40 69 42 70 43 71 44 72 45 73 69 74 70 75 78 76 71 77
REMARK SMILES IDX 73 78 79 79 72 80 74 81 75 82 76 83 77 84 54 85 55 86 63 87
REMARK SMILES IDX 56 88 58 89 64 90 57 91 59 92 60 93 61 94 62 95
REMARK H PARENT 18 7 5 14 25 29 84 48 52 59
REMARK Flexibility Score: inf
ROOT
ATOM      1  C   UNL A   1      36.983  21.752  25.080  1.00  0.00     0.002 C 
ENDROOT
BRANCH   1   2
ATOM      2  C   UNL A   1      36.846  22.528  23.767  1.00  0.00     0.021 C 
BRANCH   2   3
ATOM      3  C   UNL A   1      35.444  23.042  23.447  1.00  0.00     0.116 C 
BRANCH   3   4
ATOM      4  N   UNL A   1      34.975  24.103  24.324  1.00  0.00    -0.354 N 
ATOM      5  C   UNL A   1      33.858  24.198  25.107  1.00  0.00     0.245 C 
ATOM      6  O   UNL A   1      33.855  25.103  25.949  1.00  0.00    -0.272 OA
ATOM      7  H   UNL A   1      35.564  24.890  24.360  1.00  0.00     0.163 HD
BRANCH   5   8
ATOM      8  C   UNL A   1      32.731  23.128  25.059  1.00  0.00     0.116 C 
ATOM      9  C   UNL A   1      33.159  21.787  25.684  1.00  0.00     0.045 C 
BRANCH   8  10
ATOM     10  C   UNL A   1      32.442  22.892  23.536  1.00  0.00     0.035 C 
ATOM     11  C   UNL A   1      32.176  21.437  23.142  1.00  0.00     0.007 C 
ENDBRANCH   8  10
BRANCH   8  12
ATOM     12  N   UNL A   1      31.480  23.561  25.736  1.00  0.00    -0.342 N 
ATOM     13  C   UNL A   1      30.650  24.618  25.469  1.00  0.00     0.225 C 
ATOM     14  H   UNL A   1      31.204  22.999  26.496  1.00  0.00     0.164 HD
ATOM     15  O   UNL A   1      30.043  25.109  26.427  1.00  0.00    -0.275 OA
BRANCH  13  16
ATOM     16  C   UNL A   1      30.370  25.104  24.052  1.00  0.00     0.135 C 
BRANCH  16  17
ATOM     17  C   UNL A   1      30.946  26.440  23.679  1.00  0.00    -0.036 A 
ATOM     18  C   UNL A   1      30.259  27.618  24.010  1.00  0.00     0.004 A 
ATOM     19  C   UNL A   1      32.171  26.540  23.012  1.00  0.00     0.043 A 
ATOM     20  C   UNL A   1      30.720  28.864  23.588  1.00  0.00     0.003 A 
ATOM     21  C   UNL A   1      32.647  27.793  22.635  1.00  0.00     0.123 A 
ATOM     22  C   UNL A   1      31.919  28.950  22.891  1.00  0.00     0.039 A 
ATOM     23  F   UNL A   1      33.826  27.888  22.006  1.00  0.00    -0.207 F 
ENDBRANCH  16  17
ENDBRANCH  13  16
ENDBRANCH   8  12
ENDBRANCH   5   8
ENDBRANCH   3   4
ENDBRANCH   2   3
ENDBRANCH   1   2
BRANCH   1  24
ATOM     24  C   UNL A   1      36.840  20.235  24.950  1.00  0.00     0.002 C 
BRANCH  24  25
ATOM     25  C   UNL A   1      38.154  19.458  25.015  1.00  0.00     0.021 C 
BRANCH  25  26
ATOM     26  C   UNL A   1      39.180  20.029  25.986  1.00  0.00     0.116 C 
BRANCH  26  27
ATOM     27  N   UNL A   1      40.355  19.182  26.093  1.00  0.00    -0.352 N 
ATOM     28  C   UNL A   1      41.669  19.561  26.216  1.00  0.00     0.251 C 
ATOM     29  H   UNL A   1      40.187  18.212  26.075  1.00  0.00     0.163 HD
ATOM     30  O   UNL A   1      42.565  18.737  26.082  1.00  0.00    -0.269 OA
BRANCH  28  31
ATOM     31  C   UNL A   1      41.989  20.978  26.498  1.00  0.00     0.039 A 
ATOM     32  C   UNL A   1      42.225  21.370  27.816  1.00  0.00     0.014 A 
ATOM     33  C   UNL A   1      42.063  21.912  25.459  1.00  0.00     0.014 A 
ATOM     34  C   UNL A   1      42.565  22.695  28.089  1.00  0.00     0.010 A 
ATOM     35  C   UNL A   1      42.484  23.210  25.724  1.00  0.00     0.010 A 
ATOM     36  C   UNL A   1      42.715  23.623  27.043  1.00  0.00    -0.014 A 
BRANCH  36  37
ATOM     37  C   UNL A   1      43.091  25.033  27.319  1.00  0.00     0.031 A 
ATOM     38  C   UNL A   1      42.103  25.967  27.964  1.00  0.00     0.074 A 
ATOM     39  C   UNL A   1      44.297  25.492  26.934  1.00  0.00     0.049 A 
ATOM     40  N   UNL A   1      42.248  27.228  28.276  1.00  0.00    -0.248 NA
ATOM     41  C   UNL A   1      40.769  25.425  28.274  1.00  0.00     0.031 C 
ATOM     42  C   UNL A   1      45.308  24.710  26.222  1.00  0.00     0.029 A 
ATOM     43  N   UNL A   1      44.869  26.734  27.067  1.00  0.00    -0.354 N 
ATOM     44  C   UNL A   1      41.019  27.638  28.779  1.00  0.00     0.074 A 
ATOM     45  C   UNL A   1      40.127  26.504  28.695  1.00  0.00     0.031 C 
ATOM     46  C   UNL A   1      46.381  25.483  25.996  1.00  0.00     0.029 A 
ATOM     47  C   UNL A   1      46.126  26.822  26.518  1.00  0.00     0.049 A 
ATOM     48  H   UNL A   1      44.421  27.488  27.514  1.00  0.00     0.167 HD
ATOM     49  C   UNL A   1      40.673  28.840  29.294  1.00  0.00     0.034 A 
ATOM     50  C   UNL A   1      46.978  27.864  26.438  1.00  0.00     0.034 A 
ATOM     51  C   UNL A   1      41.582  29.946  29.427  1.00  0.00     0.049 A 
ATOM     52  C   UNL A   1      46.594  29.178  27.059  1.00  0.00     0.074 A 
ATOM     53  C   UNL A   1      41.364  31.162  30.050  1.00  0.00     0.029 A 
ATOM     54  N   UNL A   1      42.871  29.979  28.918  1.00  0.00    -0.354 N 
ATOM     55  N   UNL A   1      45.491  29.495  27.694  1.00  0.00    -0.248 NA
ATOM     56  C   UNL A   1      47.575  30.270  26.985  1.00  0.00     0.031 C 
ATOM     57  C   UNL A   1      42.508  31.947  29.881  1.00  0.00     0.029 A 
ATOM     58  C   UNL A   1      43.452  31.206  29.186  1.00  0.00     0.049 A 
ATOM     59  H   UNL A   1      43.307  29.240  28.438  1.00  0.00     0.167 HD
ATOM     60  C   UNL A   1      45.650  30.811  28.109  1.00  0.00     0.074 A 
ATOM     61  C   UNL A   1      46.967  31.229  27.673  1.00  0.00     0.031 C 
ATOM     62  C   UNL A   1      44.777  31.603  28.779  1.00  0.00     0.034 A 
BRANCH  49  63
ATOM     63  C   UNL A   1      39.266  29.013  29.803  1.00  0.00     0.023 A 
ATOM     64  C   UNL A   1      38.953  28.655  31.130  1.00  0.00     0.012 A 
ATOM     65  C   UNL A   1      38.273  29.598  28.992  1.00  0.00     0.148 A 
ATOM     66  C   UNL A   1      37.666  28.843  31.632  1.00  0.00     0.002 A 
ATOM     67  C   UNL A   1      37.006  29.829  29.516  1.00  0.00     0.091 A 
ATOM     68  F   UNL A   1      38.582  29.912  27.727  1.00  0.00    -0.205 F 
ATOM     69  C   UNL A   1      36.698  29.440  30.830  1.00  0.00     0.022 A 
BRANCH  67  70
ATOM     70  S   UNL A   1      35.717  30.676  28.596  1.00  0.00     0.127 S 
ATOM     71  O   UNL A   1      35.108  31.504  29.636  1.00  0.00    -0.237 OA
ATOM     72  O   UNL A   1      36.488  31.419  27.599  1.00  0.00    -0.237 OA
ATOM     73  O   UNL A   1      34.863  29.631  28.048  1.00  0.00    -0.744 OA
ENDBRANCH  67  70
ENDBRANCH  49  63
BRANCH  50  74
ATOM     74  C   UNL A   1      48.309  27.660  25.801  1.00  0.00     0.023 A 
ATOM     75  C   UNL A   1      49.408  27.286  26.598  1.00  0.00     0.012 A 
ATOM     76  C   UNL A   1      48.463  27.727  24.402  1.00  0.00     0.148 A 
ATOM     77  C   UNL A   1      50.639  26.985  26.012  1.00  0.00     0.002 A 
ATOM     78  C   UNL A   1      49.675  27.370  23.821  1.00  0.00     0.091 A 
ATOM     79  F   UNL A   1      47.404  28.090  23.665  1.00  0.00    -0.205 F 
ATOM     80  C   UNL A   1      50.768  27.012  24.626  1.00  0.00     0.022 A 
BRANCH  78  81
ATOM     81  S   UNL A   1      49.893  27.228  22.044  1.00  0.00     0.127 S 
ATOM     82  O   UNL A   1      49.746  28.617  21.612  1.00  0.00    -0.237 OA
ATOM     83  O   UNL A   1      51.251  26.694  21.953  1.00  0.00    -0.237 OA
ATOM     84  O   UNL A   1      48.853  26.317  21.586  1.00  0.00    -0.744 OA
ENDBRANCH  78  81
ENDBRANCH  50  74
BRANCH  62  85
ATOM     85  C   UNL A   1      45.190  33.017  29.095  1.00  0.00     0.023 A 
ATOM     86  C   UNL A   1      45.989  33.270  30.227  1.00  0.00     0.012 A 
ATOM     87  C   UNL A   1      44.917  34.064  28.191  1.00  0.00     0.148 A 
ATOM     88  C   UNL A   1      46.503  34.545  30.460  1.00  0.00     0.002 A 
ATOM     89  C   UNL A   1      45.474  35.319  28.403  1.00  0.00     0.091 A 
ATOM     90  F   UNL A   1      44.144  33.802  27.127  1.00  0.00    -0.205 F 
ATOM     91  C   UNL A   1      46.259  35.564  29.541  1.00  0.00     0.022 A 
BRANCH  89  92
ATOM     92  S   UNL A   1      45.309  36.664  27.223  1.00  0.00     0.127 S 
ATOM     93  O   UNL A   1      45.969  37.761  27.928  1.00  0.00    -0.237 OA
ATOM     94  O   UNL A   1      46.043  36.151  26.067  1.00  0.00    -0.237 OA
ATOM     95  O   UNL A   1      43.879  36.840  27.006  1.00  0.00    -0.744 OA
ENDBRANCH  89  92
ENDBRANCH  62  85
ENDBRANCH  36  37
ENDBRANCH  28  31
ENDBRANCH  26  27
ENDBRANCH  25  26
ENDBRANCH  24  25
ENDBRANCH   1  24
TORSDOF 20
ENDMDL
