MODEL 1
REMARK VINA RESULT:      -8.6      0.000      0.000
REMARK SMILES C[NH+](C)[C@H](CC(=O)Nc1ccc(/N=N/c2ccccc2)cc1)C(=O)NCCCCCCNC(=O)c1ccc(-c2c3nc(c(-c4cccc(S(=O)(=O)[O-])c4F)c4ccc([nH]4)c(-c4cccc(S(=O)(=O)[O-])c4F)c4nc(c(-c5cccc(S(=O)(=O)[O-])c5F)c5ccc2[nH]5)C=C4)C=C3)cc1
REMARK SMILES IDX 27 1 26 2 25 3 23 4 24 5 4 7 2 8 1 9 3 10 5 12 6 13 7 14
REMARK SMILES IDX 8 15 9 17 10 18 22 19 11 20 21 21 12 22 13 23 14 24 15 25
REMARK SMILES IDX 16 26 20 27 17 28 19 29 18 30 28 31 29 32 30 33 31 34 32 35
REMARK SMILES IDX 33 36 34 38 35 39 36 40 97 41 37 42 96 43 38 44 39 45 40 46
REMARK SMILES IDX 90 47 41 48 95 49 89 50 91 51 42 52 94 53 88 54 87 55 43 57
REMARK SMILES IDX 75 58 55 59 74 60 56 61 59 62 73 63 92 64 57 65 58 66 72 68
REMARK SMILES IDX 93 69 60 70 44 71 45 72 53 73 46 74 48 75 54 76 47 77 49 78
REMARK SMILES IDX 50 79 51 80 52 81 76 82 77 83 85 84 78 85 80 86 86 87 79 88
REMARK SMILES IDX 81 89 82 90 83 91 84 92 61 93 62 94 70 95 63 96 65 97 71 98
REMARK SMILES IDX 64 99 66 100 67 101 68 102 69 103
REMARK H PARENT 25 6 2 11 8 16 32 37 91 56 59 67
REMARK Flexibility Score: inf
ROOT
ATOM      1  C   UNL A   1      46.210  27.720  24.569  1.00  0.00     0.021 C 
ENDROOT
BRANCH   1   2
ATOM      2  C   UNL A   1      45.305  26.748  25.315  1.00  0.00     0.116 C 
BRANCH   2   3
ATOM      3  N   UNL A   1      43.926  26.845  24.898  1.00  0.00    -0.351 N 
ATOM      4  C   UNL A   1      42.843  26.113  25.261  1.00  0.00     0.278 C 
ATOM      5  O   UNL A   1      41.739  26.571  24.936  1.00  0.00    -0.268 OA
ATOM      6  H   UNL A   1      43.742  27.558  24.244  1.00  0.00     0.163 HD
BRANCH   4   7
ATOM      7  C   UNL A   1      42.940  24.791  26.055  1.00  0.00     0.283 C 
BRANCH   7   8
ATOM      8  N   UNL A   1      42.728  23.600  25.166  1.00  0.00    -0.329 N 
ATOM      9  C   UNL A   1      42.167  22.419  25.810  1.00  0.00     0.333 C 
ATOM     10  C   UNL A   1      43.907  23.235  24.382  1.00  0.00     0.333 C 
ATOM     11  H   UNL A   1      42.009  23.942  24.528  1.00  0.00     0.348 HD
ENDBRANCH   7   8
BRANCH   7  12
ATOM     12  C   UNL A   1      42.402  24.716  27.499  1.00  0.00     0.175 C 
BRANCH  12  13
ATOM     13  C   UNL A   1      43.033  25.456  28.661  1.00  0.00     0.230 C 
ATOM     14  O   UNL A   1      44.095  25.014  29.126  1.00  0.00    -0.274 OA
ATOM     15  N   UNL A   1      42.559  26.572  29.262  1.00  0.00    -0.326 N 
ATOM     16  H   UNL A   1      43.105  26.849  30.033  1.00  0.00     0.169 HD
BRANCH  15  17
ATOM     17  C   UNL A   1      41.474  27.418  29.037  1.00  0.00     0.041 A 
ATOM     18  C   UNL A   1      41.628  28.389  28.036  1.00  0.00     0.028 A 
ATOM     19  C   UNL A   1      40.278  27.341  29.728  1.00  0.00     0.028 A 
ATOM     20  C   UNL A   1      40.615  29.319  27.782  1.00  0.00     0.032 A 
ATOM     21  C   UNL A   1      39.271  28.273  29.478  1.00  0.00     0.032 A 
ATOM     22  C   UNL A   1      39.430  29.283  28.516  1.00  0.00     0.086 A 
BRANCH  22  23
ATOM     23  N   UNL A   1      38.382  30.159  28.175  1.00  0.00    -0.151 NA
ATOM     24  N   UNL A   1      38.228  31.043  29.044  1.00  0.00    -0.151 NA
BRANCH  24  25
ATOM     25  C   UNL A   1      36.909  31.536  29.091  1.00  0.00     0.086 A 
ATOM     26  C   UNL A   1      35.974  31.004  28.198  1.00  0.00     0.030 A 
ATOM     27  C   UNL A   1      36.526  32.624  29.892  1.00  0.00     0.030 A 
ATOM     28  C   UNL A   1      34.685  31.538  28.112  1.00  0.00     0.002 A 
ATOM     29  C   UNL A   1      35.240  33.158  29.811  1.00  0.00     0.002 A 
ATOM     30  C   UNL A   1      34.321  32.615  28.919  1.00  0.00     0.000 A 
ENDBRANCH  24  25
ENDBRANCH  22  23
ENDBRANCH  15  17
ENDBRANCH  12  13
ENDBRANCH   7  12
ENDBRANCH   4   7
ENDBRANCH   2   3
ENDBRANCH   1   2
BRANCH   1  31
ATOM     31  C   UNL A   1      47.700  27.374  24.583  1.00  0.00     0.002 C 
BRANCH  31  32
ATOM     32  C   UNL A   1      48.399  27.424  23.225  1.00  0.00     0.002 C 
BRANCH  32  33
ATOM     33  C   UNL A   1      49.742  26.698  23.150  1.00  0.00     0.021 C 
BRANCH  33  34
ATOM     34  C   UNL A   1      50.820  27.225  24.087  1.00  0.00     0.116 C 
BRANCH  34  35
ATOM     35  N   UNL A   1      51.569  26.159  24.724  1.00  0.00    -0.352 N 
ATOM     36  C   UNL A   1      51.440  25.664  25.996  1.00  0.00     0.251 C 
ATOM     37  H   UNL A   1      52.262  25.733  24.168  1.00  0.00     0.163 HD
ATOM     38  O   UNL A   1      52.262  24.869  26.436  1.00  0.00    -0.269 OA
BRANCH  36  39
ATOM     39  C   UNL A   1      50.314  26.121  26.839  1.00  0.00     0.039 A 
ATOM     40  C   UNL A   1      50.447  27.322  27.537  1.00  0.00     0.014 A 
ATOM     41  C   UNL A   1      49.132  25.379  26.924  1.00  0.00     0.014 A 
ATOM     42  C   UNL A   1      49.376  27.798  28.294  1.00  0.00     0.010 A 
ATOM     43  C   UNL A   1      48.039  25.896  27.616  1.00  0.00     0.010 A 
ATOM     44  C   UNL A   1      48.155  27.101  28.322  1.00  0.00    -0.014 A 
BRANCH  44  45
ATOM     45  C   UNL A   1      47.000  27.642  29.080  1.00  0.00     0.031 A 
ATOM     46  C   UNL A   1      46.358  28.942  28.678  1.00  0.00     0.074 A 
ATOM     47  C   UNL A   1      46.553  26.976  30.164  1.00  0.00     0.049 A 
ATOM     48  N   UNL A   1      45.304  29.529  29.183  1.00  0.00    -0.248 NA
ATOM     49  C   UNL A   1      46.995  29.694  27.586  1.00  0.00     0.031 C 
ATOM     50  C   UNL A   1      47.147  25.753  30.707  1.00  0.00     0.029 A 
ATOM     51  N   UNL A   1      45.502  27.237  31.006  1.00  0.00    -0.354 N 
ATOM     52  C   UNL A   1      45.170  30.730  28.497  1.00  0.00     0.074 A 
ATOM     53  C   UNL A   1      46.273  30.805  27.563  1.00  0.00     0.031 C 
ATOM     54  C   UNL A   1      46.432  25.352  31.772  1.00  0.00     0.029 A 
ATOM     55  C   UNL A   1      45.347  26.301  32.001  1.00  0.00     0.049 A 
ATOM     56  H   UNL A   1      44.914  28.022  30.908  1.00  0.00     0.167 HD
ATOM     57  C   UNL A   1      44.204  31.672  28.612  1.00  0.00     0.034 A 
ATOM     58  C   UNL A   1      44.426  26.209  32.979  1.00  0.00     0.034 A 
ATOM     59  C   UNL A   1      43.090  31.574  29.517  1.00  0.00     0.049 A 
ATOM     60  C   UNL A   1      43.334  27.242  33.052  1.00  0.00     0.074 A 
ATOM     61  C   UNL A   1      42.000  32.418  29.637  1.00  0.00     0.029 A 
ATOM     62  N   UNL A   1      42.933  30.582  30.473  1.00  0.00    -0.354 N 
ATOM     63  N   UNL A   1      43.117  28.271  32.270  1.00  0.00    -0.248 NA
ATOM     64  C   UNL A   1      42.339  27.076  34.120  1.00  0.00     0.031 C 
ATOM     65  C   UNL A   1      41.202  31.955  30.690  1.00  0.00     0.029 A 
ATOM     66  C   UNL A   1      41.777  30.803  31.203  1.00  0.00     0.049 A 
ATOM     67  H   UNL A   1      43.552  29.829  30.614  1.00  0.00     0.167 HD
ATOM     68  C   UNL A   1      41.943  28.858  32.730  1.00  0.00     0.074 A 
ATOM     69  C   UNL A   1      41.482  28.049  33.841  1.00  0.00     0.031 C 
ATOM     70  C   UNL A   1      41.311  29.973  32.284  1.00  0.00     0.034 A 
BRANCH  57  71
ATOM     71  C   UNL A   1      44.292  32.877  27.709  1.00  0.00     0.023 A 
ATOM     72  C   UNL A   1      43.881  32.777  26.364  1.00  0.00     0.012 A 
ATOM     73  C   UNL A   1      44.741  34.118  28.202  1.00  0.00     0.148 A 
ATOM     74  C   UNL A   1      43.957  33.880  25.513  1.00  0.00     0.002 A 
ATOM     75  C   UNL A   1      44.767  35.224  27.361  1.00  0.00     0.091 A 
ATOM     76  F   UNL A   1      45.150  34.191  29.477  1.00  0.00    -0.205 F 
ATOM     77  C   UNL A   1      44.390  35.104  26.013  1.00  0.00     0.022 A 
BRANCH  75  78
ATOM     78  S   UNL A   1      45.231  36.863  27.933  1.00  0.00     0.127 S 
ATOM     79  O   UNL A   1      46.629  36.660  28.308  1.00  0.00    -0.237 OA
ATOM     80  O   UNL A   1      45.034  37.676  26.732  1.00  0.00    -0.237 OA
ATOM     81  O   UNL A   1      44.325  37.175  29.030  1.00  0.00    -0.744 OA
ENDBRANCH  75  78
ENDBRANCH  57  71
BRANCH  58  82
ATOM     82  C   UNL A   1      44.444  25.047  33.910  1.00  0.00     0.023 A 
ATOM     83  C   UNL A   1      43.863  23.828  33.504  1.00  0.00     0.012 A 
ATOM     84  C   UNL A   1      45.057  25.127  35.176  1.00  0.00     0.148 A 
ATOM     85  C   UNL A   1      43.864  22.722  34.353  1.00  0.00     0.002 A 
ATOM     86  C   UNL A   1      45.103  24.004  35.993  1.00  0.00     0.091 A 
ATOM     87  F   UNL A   1      45.596  26.297  35.545  1.00  0.00    -0.205 F 
ATOM     88  C   UNL A   1      44.492  22.806  35.592  1.00  0.00     0.022 A 
BRANCH  86  89
ATOM     89  S   UNL A   1      46.002  23.979  37.548  1.00  0.00     0.127 S 
ATOM     90  O   UNL A   1      45.777  22.609  38.002  1.00  0.00    -0.237 OA
ATOM     91  O   UNL A   1      47.368  24.268  37.110  1.00  0.00    -0.237 OA
ATOM     92  O   UNL A   1      45.401  25.023  38.369  1.00  0.00    -0.744 OA
ENDBRANCH  86  89
ENDBRANCH  58  82
BRANCH  70  93
ATOM     93  C   UNL A   1      40.038  30.371  32.987  1.00  0.00     0.023 A 
ATOM     94  C   UNL A   1      38.793  29.943  32.483  1.00  0.00     0.012 A 
ATOM     95  C   UNL A   1      40.076  31.136  34.169  1.00  0.00     0.148 A 
ATOM     96  C   UNL A   1      37.606  30.313  33.114  1.00  0.00     0.002 A 
ATOM     97  C   UNL A   1      38.892  31.455  34.824  1.00  0.00     0.091 A 
ATOM     98  F   UNL A   1      41.266  31.551  34.627  1.00  0.00    -0.205 F 
ATOM     99  C   UNL A   1      37.656  31.058  34.289  1.00  0.00     0.022 A 
BRANCH  97 100
ATOM    100  S   UNL A   1      38.869  32.325  36.395  1.00  0.00     0.127 S 
ATOM    101  O   UNL A   1      37.602  31.877  36.967  1.00  0.00    -0.237 OA
ATOM    102  O   UNL A   1      40.060  31.796  37.062  1.00  0.00    -0.237 OA
ATOM    103  O   UNL A   1      38.945  33.742  36.066  1.00  0.00    -0.744 OA
ENDBRANCH  97 100
ENDBRANCH  70  93
ENDBRANCH  44  45
ENDBRANCH  36  39
ENDBRANCH  34  35
ENDBRANCH  33  34
ENDBRANCH  32  33
ENDBRANCH  31  32
ENDBRANCH   1  31
TORSDOF 22
ENDMDL
MODEL 2
REMARK VINA RESULT:      -7.6      5.900      9.926
REMARK SMILES C[NH+](C)[C@H](CC(=O)Nc1ccc(/N=N/c2ccccc2)cc1)C(=O)NCCCCCCNC(=O)c1ccc(-c2c3nc(c(-c4cccc(S(=O)(=O)[O-])c4F)c4ccc([nH]4)c(-c4cccc(S(=O)(=O)[O-])c4F)c4nc(c(-c5cccc(S(=O)(=O)[O-])c5F)c5ccc2[nH]5)C=C4)C=C3)cc1
REMARK SMILES IDX 27 1 26 2 25 3 23 4 24 5 4 7 2 8 1 9 3 10 5 12 6 13 7 14
REMARK SMILES IDX 8 15 9 17 10 18 22 19 11 20 21 21 12 22 13 23 14 24 15 25
REMARK SMILES IDX 16 26 20 27 17 28 19 29 18 30 28 31 29 32 30 33 31 34 32 35
REMARK SMILES IDX 33 36 34 38 35 39 36 40 97 41 37 42 96 43 38 44 39 45 40 46
REMARK SMILES IDX 90 47 41 48 95 49 89 50 91 51 42 52 94 53 88 54 87 55 43 57
REMARK SMILES IDX 75 58 55 59 74 60 56 61 59 62 73 63 92 64 57 65 58 66 72 68
REMARK SMILES IDX 93 69 60 70 44 71 45 72 53 73 46 74 48 75 54 76 47 77 49 78
REMARK SMILES IDX 50 79 51 80 52 81 76 82 77 83 85 84 78 85 80 86 86 87 79 88
REMARK SMILES IDX 81 89 82 90 83 91 84 92 61 93 62 94 70 95 63 96 65 97 71 98
REMARK SMILES IDX 64 99 66 100 67 101 68 102 69 103
REMARK H PARENT 25 6 2 11 8 16 32 37 91 56 59 67
REMARK Flexibility Score: inf
ROOT
ATOM      1  C   UNL A   1      44.430  30.494  27.868  1.00  0.00     0.021 C 
ENDROOT
BRANCH   1   2
ATOM      2  C   UNL A   1      43.229  29.572  27.695  1.00  0.00     0.116 C 
BRANCH   2   3
ATOM      3  N   UNL A   1      42.990  29.227  26.314  1.00  0.00    -0.351 N 
ATOM      4  C   UNL A   1      42.868  28.015  25.717  1.00  0.00     0.278 C 
ATOM      5  O   UNL A   1      42.421  28.016  24.563  1.00  0.00    -0.268 OA
ATOM      6  H   UNL A   1      42.901  29.997  25.706  1.00  0.00     0.163 HD
BRANCH   4   7
ATOM      7  C   UNL A   1      43.234  26.686  26.416  1.00  0.00     0.283 C 
BRANCH   7   8
ATOM      8  N   UNL A   1      44.674  26.325  26.187  1.00  0.00    -0.329 N 
ATOM      9  C   UNL A   1      44.910  25.061  25.501  1.00  0.00     0.333 C 
ATOM     10  C   UNL A   1      45.497  26.406  27.393  1.00  0.00     0.333 C 
ATOM     11  H   UNL A   1      44.972  27.057  25.542  1.00  0.00     0.348 HD
ENDBRANCH   7   8
BRANCH   7  12
ATOM     12  C   UNL A   1      42.206  25.538  26.478  1.00  0.00     0.175 C 
BRANCH  12  13
ATOM     13  C   UNL A   1      41.805  24.850  27.768  1.00  0.00     0.230 C 
ATOM     14  O   UNL A   1      42.434  25.133  28.799  1.00  0.00    -0.274 OA
ATOM     15  N   UNL A   1      40.814  23.942  27.926  1.00  0.00    -0.326 N 
ATOM     16  H   UNL A   1      40.767  23.587  28.843  1.00  0.00     0.169 HD
BRANCH  15  17
ATOM     17  C   UNL A   1      39.844  23.397  27.086  1.00  0.00     0.041 A 
ATOM     18  C   UNL A   1      38.812  24.253  26.674  1.00  0.00     0.028 A 
ATOM     19  C   UNL A   1      39.858  22.087  26.639  1.00  0.00     0.028 A 
ATOM     20  C   UNL A   1      37.765  23.776  25.879  1.00  0.00     0.032 A 
ATOM     21  C   UNL A   1      38.808  21.612  25.852  1.00  0.00     0.032 A 
ATOM     22  C   UNL A   1      37.742  22.442  25.474  1.00  0.00     0.086 A 
BRANCH  22  23
ATOM     23  N   UNL A   1      36.736  22.008  24.590  1.00  0.00    -0.151 NA
ATOM     24  N   UNL A   1      35.976  22.946  24.270  1.00  0.00    -0.151 NA
BRANCH  24  25
ATOM     25  C   UNL A   1      34.684  22.506  23.922  1.00  0.00     0.086 A 
ATOM     26  C   UNL A   1      34.186  21.361  24.552  1.00  0.00     0.030 A 
ATOM     27  C   UNL A   1      33.934  23.077  22.881  1.00  0.00     0.030 A 
ATOM     28  C   UNL A   1      32.965  20.806  24.162  1.00  0.00     0.002 A 
ATOM     29  C   UNL A   1      32.713  22.527  22.490  1.00  0.00     0.002 A 
ATOM     30  C   UNL A   1      32.231  21.389  23.129  1.00  0.00     0.000 A 
ENDBRANCH  24  25
ENDBRANCH  22  23
ENDBRANCH  15  17
ENDBRANCH  12  13
ENDBRANCH   7  12
ENDBRANCH   4   7
ENDBRANCH   2   3
ENDBRANCH   1   2
BRANCH   1  31
ATOM     31  C   UNL A   1      44.210  31.948  27.448  1.00  0.00     0.002 C 
BRANCH  31  32
ATOM     32  C   UNL A   1      45.005  32.406  26.227  1.00  0.00     0.002 C 
BRANCH  32  33
ATOM     33  C   UNL A   1      44.196  33.128  25.149  1.00  0.00     0.021 C 
BRANCH  33  34
ATOM     34  C   UNL A   1      44.158  34.645  25.271  1.00  0.00     0.116 C 
BRANCH  34  35
ATOM     35  N   UNL A   1      45.484  35.234  25.266  1.00  0.00    -0.352 N 
ATOM     36  C   UNL A   1      46.131  35.892  26.280  1.00  0.00     0.251 C 
ATOM     37  H   UNL A   1      45.986  35.149  24.423  1.00  0.00     0.163 HD
ATOM     38  O   UNL A   1      47.187  36.474  26.063  1.00  0.00    -0.269 OA
BRANCH  36  39
ATOM     39  C   UNL A   1      45.528  35.914  27.629  1.00  0.00     0.039 A 
ATOM     40  C   UNL A   1      44.544  36.864  27.906  1.00  0.00     0.014 A 
ATOM     41  C   UNL A   1      45.918  34.993  28.607  1.00  0.00     0.014 A 
ATOM     42  C   UNL A   1      43.923  36.866  29.156  1.00  0.00     0.010 A 
ATOM     43  C   UNL A   1      45.242  34.947  29.824  1.00  0.00     0.010 A 
ATOM     44  C   UNL A   1      44.250  35.893  30.117  1.00  0.00    -0.014 A 
BRANCH  44  45
ATOM     45  C   UNL A   1      43.545  35.861  31.423  1.00  0.00     0.031 A 
ATOM     46  C   UNL A   1      42.274  35.075  31.590  1.00  0.00     0.074 A 
ATOM     47  C   UNL A   1      44.033  36.582  32.452  1.00  0.00     0.049 A 
ATOM     48  N   UNL A   1      41.563  34.882  32.671  1.00  0.00    -0.248 NA
ATOM     49  C   UNL A   1      41.713  34.443  30.385  1.00  0.00     0.031 C 
ATOM     50  C   UNL A   1      45.206  37.455  32.391  1.00  0.00     0.029 A 
ATOM     51  N   UNL A   1      43.599  36.699  33.749  1.00  0.00    -0.354 N 
ATOM     52  C   UNL A   1      40.457  34.140  32.273  1.00  0.00     0.074 A 
ATOM     53  C   UNL A   1      40.574  33.946  30.844  1.00  0.00     0.031 C 
ATOM     54  C   UNL A   1      45.419  37.993  33.603  1.00  0.00     0.029 A 
ATOM     55  C   UNL A   1      44.384  37.524  34.520  1.00  0.00     0.049 A 
ATOM     56  H   UNL A   1      42.801  36.237  34.095  1.00  0.00     0.167 HD
ATOM     57  C   UNL A   1      39.452  33.639  33.030  1.00  0.00     0.034 A 
ATOM     58  C   UNL A   1      44.290  37.854  35.822  1.00  0.00     0.034 A 
ATOM     59  C   UNL A   1      39.362  33.805  34.456  1.00  0.00     0.049 A 
ATOM     60  C   UNL A   1      43.193  37.243  36.651  1.00  0.00     0.074 A 
ATOM     61  C   UNL A   1      38.446  33.249  35.332  1.00  0.00     0.029 A 
ATOM     62  N   UNL A   1      40.207  34.599  35.216  1.00  0.00    -0.354 N 
ATOM     63  N   UNL A   1      42.266  36.389  36.294  1.00  0.00    -0.248 NA
ATOM     64  C   UNL A   1      43.155  37.614  38.072  1.00  0.00     0.031 C 
ATOM     65  C   UNL A   1      38.715  33.738  36.616  1.00  0.00     0.029 A 
ATOM     66  C   UNL A   1      39.821  34.569  36.545  1.00  0.00     0.049 A 
ATOM     67  H   UNL A   1      40.970  35.112  34.862  1.00  0.00     0.167 HD
ATOM     68  C   UNL A   1      41.553  36.094  37.452  1.00  0.00     0.074 A 
ATOM     69  C   UNL A   1      42.179  36.840  38.525  1.00  0.00     0.031 C 
ATOM     70  C   UNL A   1      40.471  35.290  37.611  1.00  0.00     0.034 A 
BRANCH  57  71
ATOM     71  C   UNL A   1      38.385  32.834  32.331  1.00  0.00     0.023 A 
ATOM     72  C   UNL A   1      38.476  31.427  32.299  1.00  0.00     0.012 A 
ATOM     73  C   UNL A   1      37.272  33.466  31.744  1.00  0.00     0.148 A 
ATOM     74  C   UNL A   1      37.500  30.666  31.655  1.00  0.00     0.002 A 
ATOM     75  C   UNL A   1      36.278  32.698  31.148  1.00  0.00     0.091 A 
ATOM     76  F   UNL A   1      37.211  34.806  31.763  1.00  0.00    -0.205 F 
ATOM     77  C   UNL A   1      36.398  31.299  31.090  1.00  0.00     0.022 A 
BRANCH  75  78
ATOM     78  S   UNL A   1      34.780  33.415  30.464  1.00  0.00     0.127 S 
ATOM     79  O   UNL A   1      35.323  34.394  29.524  1.00  0.00    -0.237 OA
ATOM     80  O   UNL A   1      34.142  32.256  29.837  1.00  0.00    -0.237 OA
ATOM     81  O   UNL A   1      34.050  33.969  31.596  1.00  0.00    -0.744 OA
ENDBRANCH  75  78
ENDBRANCH  57  71
BRANCH  58  82
ATOM     82  C   UNL A   1      45.317  38.737  36.442  1.00  0.00     0.023 A 
ATOM     83  C   UNL A   1      46.474  38.160  37.004  1.00  0.00     0.012 A 
ATOM     84  C   UNL A   1      45.175  40.138  36.450  1.00  0.00     0.148 A 
ATOM     85  C   UNL A   1      47.455  38.959  37.591  1.00  0.00     0.002 A 
ATOM     86  C   UNL A   1      46.182  40.931  36.987  1.00  0.00     0.091 A 
ATOM     87  F   UNL A   1      44.064  40.665  35.918  1.00  0.00    -0.205 F 
ATOM     88  C   UNL A   1      47.314  40.344  37.574  1.00  0.00     0.022 A 
BRANCH  86  89
ATOM     89  S   UNL A   1      46.151  42.724  36.894  1.00  0.00     0.127 S 
ATOM     90  O   UNL A   1      44.944  43.042  37.653  1.00  0.00    -0.237 OA
ATOM     91  O   UNL A   1      47.407  43.081  37.553  1.00  0.00    -0.237 OA
ATOM     92  O   UNL A   1      46.105  43.045  35.473  1.00  0.00    -0.744 OA
ENDBRANCH  86  89
ENDBRANCH  58  82
BRANCH  70  93
ATOM     93  C   UNL A   1      39.907  35.161  39.003  1.00  0.00     0.023 A 
ATOM     94  C   UNL A   1      39.125  36.200  39.544  1.00  0.00     0.012 A 
ATOM     95  C   UNL A   1      40.118  33.992  39.760  1.00  0.00     0.148 A 
ATOM     96  C   UNL A   1      38.605  36.101  40.834  1.00  0.00     0.002 A 
ATOM     97  C   UNL A   1      39.552  33.876  41.024  1.00  0.00     0.091 A 
ATOM     98  F   UNL A   1      40.879  33.018  39.239  1.00  0.00    -0.205 F 
ATOM     99  C   UNL A   1      38.809  34.936  41.569  1.00  0.00     0.022 A 
BRANCH  97 100
ATOM    100  S   UNL A   1      39.680  32.373  41.999  1.00  0.00     0.127 S 
ATOM    101  O   UNL A   1      41.127  32.227  42.134  1.00  0.00    -0.237 OA
ATOM    102  O   UNL A   1      38.986  32.743  43.234  1.00  0.00    -0.237 OA
ATOM    103  O   UNL A   1      39.012  31.337  41.223  1.00  0.00    -0.744 OA
ENDBRANCH  97 100
ENDBRANCH  70  93
ENDBRANCH  44  45
ENDBRANCH  36  39
ENDBRANCH  34  35
ENDBRANCH  33  34
ENDBRANCH  32  33
ENDBRANCH  31  32
ENDBRANCH   1  31
TORSDOF 22
ENDMDL
MODEL 3
REMARK VINA RESULT:      -7.4      1.194      7.368
REMARK SMILES C[NH+](C)[C@H](CC(=O)Nc1ccc(/N=N/c2ccccc2)cc1)C(=O)NCCCCCCNC(=O)c1ccc(-c2c3nc(c(-c4cccc(S(=O)(=O)[O-])c4F)c4ccc([nH]4)c(-c4cccc(S(=O)(=O)[O-])c4F)c4nc(c(-c5cccc(S(=O)(=O)[O-])c5F)c5ccc2[nH]5)C=C4)C=C3)cc1
REMARK SMILES IDX 27 1 26 2 25 3 23 4 24 5 4 7 2 8 1 9 3 10 5 12 6 13 7 14
REMARK SMILES IDX 8 15 9 17 10 18 22 19 11 20 21 21 12 22 13 23 14 24 15 25
REMARK SMILES IDX 16 26 20 27 17 28 19 29 18 30 28 31 29 32 30 33 31 34 32 35
REMARK SMILES IDX 33 36 34 38 35 39 36 40 97 41 37 42 96 43 38 44 39 45 40 46
REMARK SMILES IDX 90 47 41 48 95 49 89 50 91 51 42 52 94 53 88 54 87 55 43 57
REMARK SMILES IDX 75 58 55 59 74 60 56 61 59 62 73 63 92 64 57 65 58 66 72 68
REMARK SMILES IDX 93 69 60 70 44 71 45 72 53 73 46 74 48 75 54 76 47 77 49 78
REMARK SMILES IDX 50 79 51 80 52 81 76 82 77 83 85 84 78 85 80 86 86 87 79 88
REMARK SMILES IDX 81 89 82 90 83 91 84 92 61 93 62 94 70 95 63 96 65 97 71 98
REMARK SMILES IDX 64 99 66 100 67 101 68 102 69 103
REMARK H PARENT 25 6 2 11 8 16 32 37 91 56 59 67
REMARK Flexibility Score: inf
ROOT
ATOM      1  C   UNL A   1      48.062  25.950  24.260  1.00  0.00     0.021 C 
ENDROOT
BRANCH   1   2
ATOM      2  C   UNL A   1      46.877  25.752  25.196  1.00  0.00     0.116 C 
BRANCH   2   3
ATOM      3  N   UNL A   1      46.827  24.421  25.754  1.00  0.00    -0.351 N 
ATOM      4  C   UNL A   1      45.782  23.710  26.244  1.00  0.00     0.278 C 
ATOM      5  O   UNL A   1      45.981  22.503  26.431  1.00  0.00    -0.268 OA
ATOM      6  H   UNL A   1      47.694  23.955  25.784  1.00  0.00     0.163 HD
BRANCH   4   7
ATOM      7  C   UNL A   1      44.398  24.332  26.541  1.00  0.00     0.283 C 
BRANCH   7   8
ATOM      8  N   UNL A   1      43.466  24.175  25.375  1.00  0.00    -0.329 N 
ATOM      9  C   UNL A   1      42.448  25.209  25.233  1.00  0.00     0.333 C 
ATOM     10  C   UNL A   1      42.854  22.850  25.288  1.00  0.00     0.333 C 
ATOM     11  H   UNL A   1      44.099  24.293  24.585  1.00  0.00     0.348 HD
ENDBRANCH   7   8
BRANCH   7  12
ATOM     12  C   UNL A   1      44.296  25.626  27.376  1.00  0.00     0.175 C 
BRANCH  12  13
ATOM     13  C   UNL A   1      44.010  25.634  28.865  1.00  0.00     0.230 C 
ATOM     14  O   UNL A   1      44.774  24.998  29.608  1.00  0.00    -0.274 OA
ATOM     15  N   UNL A   1      42.994  26.273  29.489  1.00  0.00    -0.326 N 
ATOM     16  H   UNL A   1      42.972  26.095  30.457  1.00  0.00     0.169 HD
BRANCH  15  17
ATOM     17  C   UNL A   1      41.973  27.126  29.074  1.00  0.00     0.041 A 
ATOM     18  C   UNL A   1      40.767  27.062  29.788  1.00  0.00     0.028 A 
ATOM     19  C   UNL A   1      42.094  28.021  28.024  1.00  0.00     0.028 A 
ATOM     20  C   UNL A   1      39.670  27.839  29.404  1.00  0.00     0.032 A 
ATOM     21  C   UNL A   1      40.995  28.789  27.639  1.00  0.00     0.032 A 
ATOM     22  C   UNL A   1      39.766  28.699  28.311  1.00  0.00     0.086 A 
BRANCH  22  23
ATOM     23  N   UNL A   1      38.685  29.548  28.005  1.00  0.00    -0.151 NA
ATOM     24  N   UNL A   1      38.838  30.679  28.512  1.00  0.00    -0.151 NA
BRANCH  24  25
ATOM     25  C   UNL A   1      37.616  31.332  28.764  1.00  0.00     0.086 A 
ATOM     26  C   UNL A   1      37.637  32.493  29.543  1.00  0.00     0.030 A 
ATOM     27  C   UNL A   1      36.371  30.800  28.389  1.00  0.00     0.030 A 
ATOM     28  C   UNL A   1      36.446  33.114  29.930  1.00  0.00     0.002 A 
ATOM     29  C   UNL A   1      35.181  31.418  28.771  1.00  0.00     0.002 A 
ATOM     30  C   UNL A   1      35.220  32.575  29.544  1.00  0.00     0.000 A 
ENDBRANCH  24  25
ENDBRANCH  22  23
ENDBRANCH  15  17
ENDBRANCH  12  13
ENDBRANCH   7  12
ENDBRANCH   4   7
ENDBRANCH   2   3
ENDBRANCH   1   2
BRANCH   1  31
ATOM     31  C   UNL A   1      49.173  26.858  24.788  1.00  0.00     0.002 C 
BRANCH  31  32
ATOM     32  C   UNL A   1      50.507  26.169  25.069  1.00  0.00     0.002 C 
BRANCH  32  33
ATOM     33  C   UNL A   1      51.754  27.000  24.761  1.00  0.00     0.021 C 
BRANCH  33  34
ATOM     34  C   UNL A   1      52.244  27.883  25.900  1.00  0.00     0.116 C 
BRANCH  34  35
ATOM     35  N   UNL A   1      53.054  27.153  26.857  1.00  0.00    -0.352 N 
ATOM     36  C   UNL A   1      52.757  26.826  28.155  1.00  0.00     0.251 C 
ATOM     37  H   UNL A   1      53.934  26.852  26.532  1.00  0.00     0.163 HD
ATOM     38  O   UNL A   1      53.617  26.347  28.884  1.00  0.00    -0.269 OA
BRANCH  36  39
ATOM     39  C   UNL A   1      51.395  27.082  28.672  1.00  0.00     0.039 A 
ATOM     40  C   UNL A   1      51.181  28.217  29.455  1.00  0.00     0.014 A 
ATOM     41  C   UNL A   1      50.337  26.219  28.371  1.00  0.00     0.014 A 
ATOM     42  C   UNL A   1      49.893  28.506  29.907  1.00  0.00     0.010 A 
ATOM     43  C   UNL A   1      49.041  26.551  28.757  1.00  0.00     0.010 A 
ATOM     44  C   UNL A   1      48.808  27.689  29.542  1.00  0.00    -0.014 A 
BRANCH  44  45
ATOM     45  C   UNL A   1      47.431  28.033  29.975  1.00  0.00     0.031 A 
ATOM     46  C   UNL A   1      46.740  27.232  31.045  1.00  0.00     0.074 A 
ATOM     47  C   UNL A   1      46.783  29.048  29.368  1.00  0.00     0.049 A 
ATOM     48  N   UNL A   1      45.567  27.429  31.591  1.00  0.00    -0.248 NA
ATOM     49  C   UNL A   1      47.441  26.042  31.550  1.00  0.00     0.031 C 
ATOM     50  C   UNL A   1      47.311  29.842  28.258  1.00  0.00     0.029 A 
ATOM     51  N   UNL A   1      45.540  29.581  29.596  1.00  0.00    -0.354 N 
ATOM     52  C   UNL A   1      45.376  26.375  32.476  1.00  0.00     0.074 A 
ATOM     53  C   UNL A   1      46.539  25.521  32.368  1.00  0.00     0.031 C 
ATOM     54  C   UNL A   1      46.412  30.781  27.922  1.00  0.00     0.029 A 
ATOM     55  C   UNL A   1      45.236  30.641  28.775  1.00  0.00     0.049 A 
ATOM     56  H   UNL A   1      44.923  29.237  30.283  1.00  0.00     0.167 HD
ATOM     57  C   UNL A   1      44.343  26.151  33.323  1.00  0.00     0.034 A 
ATOM     58  C   UNL A   1      44.140  31.421  28.724  1.00  0.00     0.034 A 
ATOM     59  C   UNL A   1      43.207  27.025  33.451  1.00  0.00     0.049 A 
ATOM     60  C   UNL A   1      43.029  31.182  29.710  1.00  0.00     0.074 A 
ATOM     61  C   UNL A   1      42.160  26.949  34.353  1.00  0.00     0.029 A 
ATOM     62  N   UNL A   1      42.958  28.123  32.643  1.00  0.00    -0.354 N 
ATOM     63  N   UNL A   1      42.952  30.293  30.669  1.00  0.00    -0.248 NA
ATOM     64  C   UNL A   1      41.870  32.082  29.629  1.00  0.00     0.031 C 
ATOM     65  C   UNL A   1      41.259  27.981  34.064  1.00  0.00     0.029 A 
ATOM     66  C   UNL A   1      41.763  28.721  33.007  1.00  0.00     0.049 A 
ATOM     67  H   UNL A   1      43.545  28.433  31.915  1.00  0.00     0.167 HD
ATOM     68  C   UNL A   1      41.753  30.545  31.328  1.00  0.00     0.074 A 
ATOM     69  C   UNL A   1      41.153  31.691  30.674  1.00  0.00     0.031 C 
ATOM     70  C   UNL A   1      41.192  29.881  32.370  1.00  0.00     0.034 A 
BRANCH  57  71
ATOM     71  C   UNL A   1      44.412  24.928  34.202  1.00  0.00     0.023 A 
ATOM     72  C   UNL A   1      43.910  23.697  33.733  1.00  0.00     0.012 A 
ATOM     73  C   UNL A   1      45.011  24.987  35.475  1.00  0.00     0.148 A 
ATOM     74  C   UNL A   1      43.963  22.555  34.533  1.00  0.00     0.002 A 
ATOM     75  C   UNL A   1      45.105  23.835  36.247  1.00  0.00     0.091 A 
ATOM     76  F   UNL A   1      45.463  26.170  35.917  1.00  0.00    -0.205 F 
ATOM     77  C   UNL A   1      44.568  22.622  35.784  1.00  0.00     0.022 A 
BRANCH  75  78
ATOM     78  S   UNL A   1      45.939  23.800  37.837  1.00  0.00     0.127 S 
ATOM     79  O   UNL A   1      45.123  24.727  38.620  1.00  0.00    -0.237 OA
ATOM     80  O   UNL A   1      45.807  22.395  38.225  1.00  0.00    -0.237 OA
ATOM     81  O   UNL A   1      47.307  24.231  37.580  1.00  0.00    -0.744 OA
ENDBRANCH  75  78
ENDBRANCH  57  71
BRANCH  58  82
ATOM     82  C   UNL A   1      44.081  32.559  27.764  1.00  0.00     0.023 A 
ATOM     83  C   UNL A   1      43.919  32.293  26.389  1.00  0.00     0.012 A 
ATOM     84  C   UNL A   1      44.150  33.895  28.201  1.00  0.00     0.148 A 
ATOM     85  C   UNL A   1      43.860  33.335  25.464  1.00  0.00     0.002 A 
ATOM     86  C   UNL A   1      44.033  34.930  27.281  1.00  0.00     0.091 A 
ATOM     87  F   UNL A   1      44.311  34.126  29.511  1.00  0.00    -0.205 F 
ATOM     88  C   UNL A   1      43.907  34.653  25.910  1.00  0.00     0.022 A 
BRANCH  86  89
ATOM     89  S   UNL A   1      43.952  36.655  27.774  1.00  0.00     0.127 S 
ATOM     90  O   UNL A   1      45.322  36.906  28.214  1.00  0.00    -0.237 OA
ATOM     91  O   UNL A   1      43.576  37.309  26.520  1.00  0.00    -0.237 OA
ATOM     92  O   UNL A   1      42.933  36.721  28.814  1.00  0.00    -0.744 OA
ENDBRANCH  86  89
ENDBRANCH  58  82
BRANCH  70  93
ATOM     93  C   UNL A   1      39.869  30.392  32.881  1.00  0.00     0.023 A 
ATOM     94  C   UNL A   1      38.686  30.119  32.165  1.00  0.00     0.012 A 
ATOM     95  C   UNL A   1      39.792  31.106  34.092  1.00  0.00     0.148 A 
ATOM     96  C   UNL A   1      37.456  30.594  32.618  1.00  0.00     0.002 A 
ATOM     97  C   UNL A   1      38.556  31.530  34.566  1.00  0.00     0.091 A 
ATOM     98  F   UNL A   1      40.927  31.373  34.754  1.00  0.00    -0.205 F 
ATOM     99  C   UNL A   1      37.389  31.289  33.822  1.00  0.00     0.022 A 
BRANCH  97 100
ATOM    100  S   UNL A   1      38.365  32.344  36.156  1.00  0.00     0.127 S 
ATOM    101  O   UNL A   1      38.604  31.242  37.086  1.00  0.00    -0.237 OA
ATOM    102  O   UNL A   1      39.427  33.351  36.120  1.00  0.00    -0.237 OA
ATOM    103  O   UNL A   1      37.016  32.893  36.164  1.00  0.00    -0.744 OA
ENDBRANCH  97 100
ENDBRANCH  70  93
ENDBRANCH  44  45
ENDBRANCH  36  39
ENDBRANCH  34  35
ENDBRANCH  33  34
ENDBRANCH  32  33
ENDBRANCH  31  32
ENDBRANCH   1  31
TORSDOF 22
ENDMDL
