MODEL 1
REMARK VINA RESULT:     -11.4      0.000      0.000
REMARK SMILES Cc1nc(CCC(F)(F)F)[nH]c(=O)c1CCC(=O)NCCCCCCNC(=O)c1ccc(-c2c3nc(c(-c4cccc(S(=O)(=O)[O-])c4F)c4ccc([nH]4)c(-c4cccc(S(=O)(=O)[O-])c4F)c4nc(c(-c5cccc(S(=O)(=O)[O-])c5F)c5ccc2[nH]5)C=C4)C=C3)cc1
REMARK SMILES IDX 21 1 20 2 19 3 17 4 18 5 16 7 15 8 14 9 1 10 2 11 3 12 4 13
REMARK SMILES IDX 12 14 11 15 13 16 5 18 6 19 7 20 8 21 9 22 10 23 22 24 23 25
REMARK SMILES IDX 24 26 25 27 26 28 27 29 28 31 29 32 30 33 91 34 31 35 90 36
REMARK SMILES IDX 32 37 33 38 34 39 84 40 35 41 89 42 83 43 85 44 36 45 88 46
REMARK SMILES IDX 82 47 81 48 37 50 69 51 49 52 68 53 50 54 53 55 67 56 86 57
REMARK SMILES IDX 51 58 52 59 66 61 87 62 54 63 38 64 39 65 47 66 40 67 42 68
REMARK SMILES IDX 48 69 41 70 43 71 44 72 45 73 46 74 70 75 71 76 79 77 72 78
REMARK SMILES IDX 74 79 80 80 73 81 75 82 76 83 77 84 78 85 55 86 56 87 64 88
REMARK SMILES IDX 57 89 59 90 65 91 58 92 60 93 61 94 62 95 63 96
REMARK H PARENT 19 6 11 17 26 30 85 49 53 60
REMARK Flexibility Score: inf
ROOT
ATOM      1  C   UNL A   1      34.045  25.672  25.700  1.00  0.00     0.021 C 
ENDROOT
BRANCH   1   2
ATOM      2  C   UNL A   1      34.495  25.241  24.292  1.00  0.00     0.116 C 
BRANCH   2   3
ATOM      3  N   UNL A   1      34.306  23.803  24.096  1.00  0.00    -0.356 N 
ATOM      4  C   UNL A   1      33.242  22.967  24.253  1.00  0.00     0.220 C 
ATOM      5  O   UNL A   1      33.420  21.764  24.037  1.00  0.00    -0.275 OA
ATOM      6  H   UNL A   1      35.119  23.342  23.786  1.00  0.00     0.163 HD
BRANCH   4   7
ATOM      7  C   UNL A   1      31.861  23.473  24.622  1.00  0.00     0.105 C 
BRANCH   7   8
ATOM      8  C   UNL A   1      31.020  23.873  23.393  1.00  0.00     0.053 C 
BRANCH   8   9
ATOM      9  C   UNL A   1      30.861  25.367  23.321  1.00  0.00     0.039 A 
ATOM     10  C   UNL A   1      29.588  25.718  25.448  1.00  0.00     0.067 C 
ATOM     11  C   UNL A   1      30.205  26.195  24.159  1.00  0.00     0.048 A 
ATOM     12  N   UNL A   1      29.950  27.523  23.872  1.00  0.00    -0.240 NA
ATOM     13  C   UNL A   1      30.249  27.951  22.690  1.00  0.00     0.109 A 
ATOM     14  C   UNL A   1      31.463  26.002  22.140  1.00  0.00     0.254 A 
ATOM     15  N   UNL A   1      30.919  27.188  21.788  1.00  0.00    -0.310 N 
ATOM     16  O   UNL A   1      32.372  25.482  21.496  1.00  0.00    -0.269 OA
ATOM     17  H   UNL A   1      31.010  27.505  20.861  1.00  0.00     0.171 HD
BRANCH  13  18
ATOM     18  C   UNL A   1      29.821  29.319  22.212  1.00  0.00     0.084 C 
BRANCH  18  19
ATOM     19  C   UNL A   1      29.268  30.271  23.275  1.00  0.00     0.123 C 
BRANCH  19  20
ATOM     20  C   UNL A   1      27.813  30.652  23.119  1.00  0.00     0.389 C 
ATOM     21  F   UNL A   1      27.372  31.340  24.200  1.00  0.00    -0.171 F 
ATOM     22  F   UNL A   1      27.610  31.427  22.037  1.00  0.00    -0.171 F 
ATOM     23  F   UNL A   1      27.025  29.565  23.008  1.00  0.00    -0.171 F 
ENDBRANCH  19  20
ENDBRANCH  18  19
ENDBRANCH  13  18
ENDBRANCH   8   9
ENDBRANCH   7   8
ENDBRANCH   4   7
ENDBRANCH   2   3
ENDBRANCH   1   2
BRANCH   1  24
ATOM     24  C   UNL A   1      33.547  27.107  25.914  1.00  0.00     0.002 C 
BRANCH  24  25
ATOM     25  C   UNL A   1      33.526  28.072  24.731  1.00  0.00     0.002 C 
BRANCH  25  26
ATOM     26  C   UNL A   1      32.819  29.417  24.898  1.00  0.00     0.021 C 
BRANCH  26  27
ATOM     27  C   UNL A   1      32.244  29.833  26.260  1.00  0.00     0.116 C 
BRANCH  27  28
ATOM     28  N   UNL A   1      32.073  31.247  26.520  1.00  0.00    -0.352 N 
ATOM     29  C   UNL A   1      32.923  32.089  27.207  1.00  0.00     0.251 C 
ATOM     30  H   UNL A   1      31.250  31.656  26.166  1.00  0.00     0.163 HD
ATOM     31  O   UNL A   1      32.625  33.271  27.359  1.00  0.00    -0.269 OA
BRANCH  29  32
ATOM     32  C   UNL A   1      34.185  31.571  27.792  1.00  0.00     0.039 A 
ATOM     33  C   UNL A   1      35.248  32.457  27.994  1.00  0.00     0.014 A 
ATOM     34  C   UNL A   1      34.340  30.221  28.115  1.00  0.00     0.014 A 
ATOM     35  C   UNL A   1      36.437  32.003  28.581  1.00  0.00     0.010 A 
ATOM     36  C   UNL A   1      35.515  29.776  28.738  1.00  0.00     0.010 A 
ATOM     37  C   UNL A   1      36.573  30.663  28.989  1.00  0.00    -0.014 A 
BRANCH  37  38
ATOM     38  C   UNL A   1      37.789  30.214  29.730  1.00  0.00     0.031 A 
ATOM     39  C   UNL A   1      38.090  30.701  31.124  1.00  0.00     0.074 A 
ATOM     40  C   UNL A   1      38.676  29.406  29.115  1.00  0.00     0.049 A 
ATOM     41  N   UNL A   1      39.095  30.388  31.904  1.00  0.00    -0.248 NA
ATOM     42  C   UNL A   1      37.157  31.674  31.709  1.00  0.00     0.031 C 
ATOM     43  C   UNL A   1      38.563  28.925  27.737  1.00  0.00     0.029 A 
ATOM     44  N   UNL A   1      39.858  28.862  29.560  1.00  0.00    -0.354 N 
ATOM     45  C   UNL A   1      38.931  31.140  33.063  1.00  0.00     0.074 A 
ATOM     46  C   UNL A   1      37.744  31.947  32.868  1.00  0.00     0.031 C 
ATOM     47  C   UNL A   1      39.627  28.159  27.450  1.00  0.00     0.029 A 
ATOM     48  C   UNL A   1      40.507  28.103  28.614  1.00  0.00     0.049 A 
ATOM     49  H   UNL A   1      40.206  29.002  30.469  1.00  0.00     0.167 HD
ATOM     50  C   UNL A   1      39.677  31.139  34.196  1.00  0.00     0.034 A 
ATOM     51  C   UNL A   1      41.676  27.431  28.671  1.00  0.00     0.034 A 
ATOM     52  C   UNL A   1      40.835  30.309  34.413  1.00  0.00     0.049 A 
ATOM     53  C   UNL A   1      42.459  27.404  29.955  1.00  0.00     0.074 A 
ATOM     54  C   UNL A   1      41.590  30.172  35.566  1.00  0.00     0.029 A 
ATOM     55  N   UNL A   1      41.413  29.485  33.461  1.00  0.00    -0.354 N 
ATOM     56  N   UNL A   1      42.181  27.975  31.100  1.00  0.00    -0.248 NA
ATOM     57  C   UNL A   1      43.695  26.606  29.966  1.00  0.00     0.031 C 
ATOM     58  C   UNL A   1      42.634  29.277  35.306  1.00  0.00     0.029 A 
ATOM     59  C   UNL A   1      42.521  28.845  33.995  1.00  0.00     0.049 A 
ATOM     60  H   UNL A   1      41.085  29.371  32.540  1.00  0.00     0.167 HD
ATOM     61  C   UNL A   1      43.188  27.582  31.977  1.00  0.00     0.074 A 
ATOM     62  C   UNL A   1      44.070  26.706  31.235  1.00  0.00     0.031 C 
ATOM     63  C   UNL A   1      43.370  27.931  33.274  1.00  0.00     0.034 A 
BRANCH  50  64
ATOM     64  C   UNL A   1      39.224  32.021  35.330  1.00  0.00     0.023 A 
ATOM     65  C   UNL A   1      38.329  31.503  36.290  1.00  0.00     0.012 A 
ATOM     66  C   UNL A   1      39.727  33.327  35.490  1.00  0.00     0.148 A 
ATOM     67  C   UNL A   1      37.916  32.282  37.370  1.00  0.00     0.002 A 
ATOM     68  C   UNL A   1      39.341  34.083  36.592  1.00  0.00     0.091 A 
ATOM     69  F   UNL A   1      40.561  33.812  34.559  1.00  0.00    -0.205 F 
ATOM     70  C   UNL A   1      38.428  33.567  37.527  1.00  0.00     0.022 A 
BRANCH  68  71
ATOM     71  S   UNL A   1      40.008  35.721  36.915  1.00  0.00     0.127 S 
ATOM     72  O   UNL A   1      39.337  36.071  38.166  1.00  0.00    -0.237 OA
ATOM     73  O   UNL A   1      41.441  35.455  37.046  1.00  0.00    -0.237 OA
ATOM     74  O   UNL A   1      39.650  36.528  35.758  1.00  0.00    -0.744 OA
ENDBRANCH  68  71
ENDBRANCH  50  64
BRANCH  51  75
ATOM     75  C   UNL A   1      42.131  26.654  27.484  1.00  0.00     0.023 A 
ATOM     76  C   UNL A   1      42.898  27.295  26.491  1.00  0.00     0.012 A 
ATOM     77  C   UNL A   1      41.853  25.279  27.358  1.00  0.00     0.148 A 
ATOM     78  C   UNL A   1      43.361  26.586  25.382  1.00  0.00     0.002 A 
ATOM     79  C   UNL A   1      42.366  24.566  26.280  1.00  0.00     0.091 A 
ATOM     80  F   UNL A   1      41.110  24.692  28.306  1.00  0.00    -0.205 F 
ATOM     81  C   UNL A   1      43.106  25.220  25.283  1.00  0.00     0.022 A 
BRANCH  79  82
ATOM     82  S   UNL A   1      42.207  22.781  26.147  1.00  0.00     0.127 S 
ATOM     83  O   UNL A   1      42.809  22.523  24.843  1.00  0.00    -0.237 OA
ATOM     84  O   UNL A   1      42.993  22.322  27.293  1.00  0.00    -0.237 OA
ATOM     85  O   UNL A   1      40.780  22.507  26.254  1.00  0.00    -0.744 OA
ENDBRANCH  79  82
ENDBRANCH  51  75
BRANCH  63  86
ATOM     86  C   UNL A   1      44.561  27.355  33.998  1.00  0.00     0.023 A 
ATOM     87  C   UNL A   1      45.791  28.041  33.970  1.00  0.00     0.012 A 
ATOM     88  C   UNL A   1      44.445  26.178  34.763  1.00  0.00     0.148 A 
ATOM     89  C   UNL A   1      46.894  27.551  34.669  1.00  0.00     0.002 A 
ATOM     90  C   UNL A   1      45.536  25.719  35.492  1.00  0.00     0.091 A 
ATOM     91  F   UNL A   1      43.273  25.526  34.761  1.00  0.00    -0.205 F 
ATOM     92  C   UNL A   1      46.764  26.397  35.439  1.00  0.00     0.022 A 
BRANCH  90  93
ATOM     93  S   UNL A   1      45.433  24.290  36.579  1.00  0.00     0.127 S 
ATOM     94  O   UNL A   1      44.996  23.244  35.656  1.00  0.00    -0.237 OA
ATOM     95  O   UNL A   1      46.812  24.153  37.047  1.00  0.00    -0.237 OA
ATOM     96  O   UNL A   1      44.478  24.650  37.619  1.00  0.00    -0.744 OA
ENDBRANCH  90  93
ENDBRANCH  63  86
ENDBRANCH  37  38
ENDBRANCH  29  32
ENDBRANCH  27  28
ENDBRANCH  26  27
ENDBRANCH  25  26
ENDBRANCH  24  25
ENDBRANCH   1  24
TORSDOF 21
ENDMDL
MODEL 2
REMARK VINA RESULT:     -10.5      1.524      2.005
REMARK SMILES Cc1nc(CCC(F)(F)F)[nH]c(=O)c1CCC(=O)NCCCCCCNC(=O)c1ccc(-c2c3nc(c(-c4cccc(S(=O)(=O)[O-])c4F)c4ccc([nH]4)c(-c4cccc(S(=O)(=O)[O-])c4F)c4nc(c(-c5cccc(S(=O)(=O)[O-])c5F)c5ccc2[nH]5)C=C4)C=C3)cc1
REMARK SMILES IDX 21 1 20 2 19 3 17 4 18 5 16 7 15 8 14 9 1 10 2 11 3 12 4 13
REMARK SMILES IDX 12 14 11 15 13 16 5 18 6 19 7 20 8 21 9 22 10 23 22 24 23 25
REMARK SMILES IDX 24 26 25 27 26 28 27 29 28 31 29 32 30 33 91 34 31 35 90 36
REMARK SMILES IDX 32 37 33 38 34 39 84 40 35 41 89 42 83 43 85 44 36 45 88 46
REMARK SMILES IDX 82 47 81 48 37 50 69 51 49 52 68 53 50 54 53 55 67 56 86 57
REMARK SMILES IDX 51 58 52 59 66 61 87 62 54 63 38 64 39 65 47 66 40 67 42 68
REMARK SMILES IDX 48 69 41 70 43 71 44 72 45 73 46 74 70 75 71 76 79 77 72 78
REMARK SMILES IDX 74 79 80 80 73 81 75 82 76 83 77 84 78 85 55 86 56 87 64 88
REMARK SMILES IDX 57 89 59 90 65 91 58 92 60 93 61 94 62 95 63 96
REMARK H PARENT 19 6 11 17 26 30 85 49 53 60
REMARK Flexibility Score: inf
ROOT
ATOM      1  C   UNL A   1      33.558  26.661  26.159  1.00  0.00     0.021 C 
ENDROOT
BRANCH   1   2
ATOM      2  C   UNL A   1      34.000  26.342  24.719  1.00  0.00     0.116 C 
BRANCH   2   3
ATOM      3  N   UNL A   1      33.887  24.910  24.438  1.00  0.00    -0.356 N 
ATOM      4  C   UNL A   1      32.858  24.021  24.505  1.00  0.00     0.220 C 
ATOM      5  O   UNL A   1      33.101  22.840  24.233  1.00  0.00    -0.275 OA
ATOM      6  H   UNL A   1      34.732  24.504  24.139  1.00  0.00     0.163 HD
BRANCH   4   7
ATOM      7  C   UNL A   1      31.441  24.443  24.842  1.00  0.00     0.105 C 
BRANCH   7   8
ATOM      8  C   UNL A   1      30.503  24.427  23.619  1.00  0.00     0.053 C 
BRANCH   8   9
ATOM      9  C   UNL A   1      30.269  25.823  23.110  1.00  0.00     0.039 A 
ATOM     10  C   UNL A   1      32.104  25.923  21.410  1.00  0.00     0.067 C 
ATOM     11  C   UNL A   1      30.968  26.526  22.197  1.00  0.00     0.048 A 
ATOM     12  N   UNL A   1      30.781  27.876  21.968  1.00  0.00    -0.240 NA
ATOM     13  C   UNL A   1      29.983  28.514  22.759  1.00  0.00     0.109 A 
ATOM     14  C   UNL A   1      29.148  26.536  23.741  1.00  0.00     0.254 A 
ATOM     15  N   UNL A   1      29.232  27.884  23.699  1.00  0.00    -0.310 N 
ATOM     16  O   UNL A   1      28.218  25.955  24.295  1.00  0.00    -0.269 OA
ATOM     17  H   UNL A   1      28.739  28.419  24.361  1.00  0.00     0.171 HD
BRANCH  13  18
ATOM     18  C   UNL A   1      29.873  30.021  22.724  1.00  0.00     0.084 C 
BRANCH  18  19
ATOM     19  C   UNL A   1      29.001  30.617  21.617  1.00  0.00     0.123 C 
BRANCH  19  20
ATOM     20  C   UNL A   1      28.352  31.944  21.940  1.00  0.00     0.389 C 
ATOM     21  F   UNL A   1      27.709  32.447  20.857  1.00  0.00    -0.171 F 
ATOM     22  F   UNL A   1      27.448  31.835  22.930  1.00  0.00    -0.171 F 
ATOM     23  F   UNL A   1      29.264  32.867  22.306  1.00  0.00    -0.171 F 
ENDBRANCH  19  20
ENDBRANCH  18  19
ENDBRANCH  13  18
ENDBRANCH   8   9
ENDBRANCH   7   8
ENDBRANCH   4   7
ENDBRANCH   2   3
ENDBRANCH   1   2
BRANCH   1  24
ATOM     24  C   UNL A   1      32.948  28.036  26.462  1.00  0.00     0.002 C 
BRANCH  24  25
ATOM     25  C   UNL A   1      32.577  28.958  25.302  1.00  0.00     0.002 C 
BRANCH  25  26
ATOM     26  C   UNL A   1      31.899  30.291  25.617  1.00  0.00     0.021 C 
BRANCH  26  27
ATOM     27  C   UNL A   1      32.070  30.948  26.994  1.00  0.00     0.116 C 
BRANCH  27  28
ATOM     28  N   UNL A   1      32.177  32.391  27.049  1.00  0.00    -0.352 N 
ATOM     29  C   UNL A   1      33.230  33.143  27.529  1.00  0.00     0.251 C 
ATOM     30  H   UNL A   1      31.406  32.896  26.703  1.00  0.00     0.163 HD
ATOM     31  O   UNL A   1      33.162  34.369  27.522  1.00  0.00    -0.269 OA
BRANCH  29  32
ATOM     32  C   UNL A   1      34.437  32.480  28.084  1.00  0.00     0.039 A 
ATOM     33  C   UNL A   1      35.627  33.208  28.168  1.00  0.00     0.014 A 
ATOM     34  C   UNL A   1      34.414  31.144  28.493  1.00  0.00     0.014 A 
ATOM     35  C   UNL A   1      36.771  32.619  28.724  1.00  0.00     0.010 A 
ATOM     36  C   UNL A   1      35.548  30.569  29.084  1.00  0.00     0.010 A 
ATOM     37  C   UNL A   1      36.737  31.302  29.218  1.00  0.00    -0.014 A 
BRANCH  37  38
ATOM     38  C   UNL A   1      37.917  30.725  29.925  1.00  0.00     0.031 A 
ATOM     39  C   UNL A   1      38.247  31.095  31.348  1.00  0.00     0.074 A 
ATOM     40  C   UNL A   1      38.750  29.902  29.256  1.00  0.00     0.049 A 
ATOM     41  N   UNL A   1      39.226  30.665  32.104  1.00  0.00    -0.248 NA
ATOM     42  C   UNL A   1      37.379  32.088  31.998  1.00  0.00     0.031 C 
ATOM     43  C   UNL A   1      38.610  29.523  27.849  1.00  0.00     0.029 A 
ATOM     44  N   UNL A   1      39.892  29.251  29.662  1.00  0.00    -0.354 N 
ATOM     45  C   UNL A   1      39.109  31.346  33.311  1.00  0.00     0.074 A 
ATOM     46  C   UNL A   1      37.979  32.242  33.172  1.00  0.00     0.031 C 
ATOM     47  C   UNL A   1      39.621  28.708  27.509  1.00  0.00     0.029 A 
ATOM     48  C   UNL A   1      40.492  28.516  28.666  1.00  0.00     0.049 A 
ATOM     49  H   UNL A   1      40.246  29.307  30.577  1.00  0.00     0.167 HD
ATOM     50  C   UNL A   1      39.850  31.219  34.440  1.00  0.00     0.034 A 
ATOM     51  C   UNL A   1      41.613  27.764  28.675  1.00  0.00     0.034 A 
ATOM     52  C   UNL A   1      40.949  30.301  34.599  1.00  0.00     0.049 A 
ATOM     53  C   UNL A   1      42.389  27.599  29.953  1.00  0.00     0.074 A 
ATOM     54  C   UNL A   1      41.690  30.037  35.739  1.00  0.00     0.029 A 
ATOM     55  N   UNL A   1      41.473  29.506  33.593  1.00  0.00    -0.354 N 
ATOM     56  N   UNL A   1      42.146  28.110  31.135  1.00  0.00    -0.248 NA
ATOM     57  C   UNL A   1      43.568  26.722  29.909  1.00  0.00     0.031 C 
ATOM     58  C   UNL A   1      42.672  29.093  35.418  1.00  0.00     0.029 A 
ATOM     59  C   UNL A   1      42.534  28.759  34.081  1.00  0.00     0.049 A 
ATOM     60  H   UNL A   1      41.142  29.476  32.667  1.00  0.00     0.167 HD
ATOM     61  C   UNL A   1      43.121  27.592  31.982  1.00  0.00     0.074 A 
ATOM     62  C   UNL A   1      43.946  26.711  31.181  1.00  0.00     0.031 C 
ATOM     63  C   UNL A   1      43.323  27.841  33.299  1.00  0.00     0.034 A 
BRANCH  50  64
ATOM     64  C   UNL A   1      39.453  32.052  35.631  1.00  0.00     0.023 A 
ATOM     65  C   UNL A   1      39.877  33.396  35.703  1.00  0.00     0.012 A 
ATOM     66  C   UNL A   1      38.613  31.539  36.638  1.00  0.00     0.148 A 
ATOM     67  C   UNL A   1      39.500  34.204  36.775  1.00  0.00     0.002 A 
ATOM     68  C   UNL A   1      38.208  32.364  37.683  1.00  0.00     0.091 A 
ATOM     69  F   UNL A   1      38.235  30.255  36.565  1.00  0.00    -0.205 F 
ATOM     70  C   UNL A   1      38.659  33.692  37.758  1.00  0.00     0.022 A 
BRANCH  68  71
ATOM     71  S   UNL A   1      37.066  31.812  38.956  1.00  0.00     0.127 S 
ATOM     72  O   UNL A   1      36.830  30.424  38.559  1.00  0.00    -0.237 OA
ATOM     73  O   UNL A   1      37.858  31.970  40.177  1.00  0.00    -0.237 OA
ATOM     74  O   UNL A   1      35.916  32.699  38.866  1.00  0.00    -0.744 OA
ENDBRANCH  68  71
ENDBRANCH  50  64
BRANCH  51  75
ATOM     75  C   UNL A   1      42.019  27.040  27.438  1.00  0.00     0.023 A 
ATOM     76  C   UNL A   1      42.628  27.754  26.387  1.00  0.00     0.012 A 
ATOM     77  C   UNL A   1      41.852  25.647  27.317  1.00  0.00     0.148 A 
ATOM     78  C   UNL A   1      43.043  27.097  25.228  1.00  0.00     0.002 A 
ATOM     79  C   UNL A   1      42.320  24.990  26.184  1.00  0.00     0.091 A 
ATOM     80  F   UNL A   1      41.257  24.989  28.322  1.00  0.00    -0.205 F 
ATOM     81  C   UNL A   1      42.900  25.715  25.132  1.00  0.00     0.022 A 
BRANCH  79  82
ATOM     82  S   UNL A   1      42.306  23.200  26.039  1.00  0.00     0.127 S 
ATOM     83  O   UNL A   1      43.144  22.802  27.166  1.00  0.00    -0.237 OA
ATOM     84  O   UNL A   1      40.883  22.895  26.188  1.00  0.00    -0.237 OA
ATOM     85  O   UNL A   1      42.843  22.912  24.715  1.00  0.00    -0.744 OA
ENDBRANCH  79  82
ENDBRANCH  51  75
BRANCH  63  86
ATOM     86  C   UNL A   1      44.470  27.139  33.981  1.00  0.00     0.023 A 
ATOM     87  C   UNL A   1      45.770  27.677  33.887  1.00  0.00     0.012 A 
ATOM     88  C   UNL A   1      44.253  25.993  34.771  1.00  0.00     0.148 A 
ATOM     89  C   UNL A   1      46.839  27.070  34.547  1.00  0.00     0.002 A 
ATOM     90  C   UNL A   1      45.316  25.419  35.461  1.00  0.00     0.091 A 
ATOM     91  F   UNL A   1      43.015  25.482  34.832  1.00  0.00    -0.205 F 
ATOM     92  C   UNL A   1      46.610  25.949  35.343  1.00  0.00     0.022 A 
BRANCH  90  93
ATOM     93  S   UNL A   1      45.097  24.026  36.577  1.00  0.00     0.127 S 
ATOM     94  O   UNL A   1      44.245  24.606  37.614  1.00  0.00    -0.237 OA
ATOM     95  O   UNL A   1      44.433  23.042  35.722  1.00  0.00    -0.237 OA
ATOM     96  O   UNL A   1      46.437  23.645  37.004  1.00  0.00    -0.744 OA
ENDBRANCH  90  93
ENDBRANCH  63  86
ENDBRANCH  37  38
ENDBRANCH  29  32
ENDBRANCH  27  28
ENDBRANCH  26  27
ENDBRANCH  25  26
ENDBRANCH  24  25
ENDBRANCH   1  24
TORSDOF 21
ENDMDL
MODEL 3
REMARK VINA RESULT:     -10.4      5.130     10.087
REMARK SMILES Cc1nc(CCC(F)(F)F)[nH]c(=O)c1CCC(=O)NCCCCCCNC(=O)c1ccc(-c2c3nc(c(-c4cccc(S(=O)(=O)[O-])c4F)c4ccc([nH]4)c(-c4cccc(S(=O)(=O)[O-])c4F)c4nc(c(-c5cccc(S(=O)(=O)[O-])c5F)c5ccc2[nH]5)C=C4)C=C3)cc1
REMARK SMILES IDX 21 1 20 2 19 3 17 4 18 5 16 7 15 8 14 9 1 10 2 11 3 12 4 13
REMARK SMILES IDX 12 14 11 15 13 16 5 18 6 19 7 20 8 21 9 22 10 23 22 24 23 25
REMARK SMILES IDX 24 26 25 27 26 28 27 29 28 31 29 32 30 33 91 34 31 35 90 36
REMARK SMILES IDX 32 37 33 38 34 39 84 40 35 41 89 42 83 43 85 44 36 45 88 46
REMARK SMILES IDX 82 47 81 48 37 50 69 51 49 52 68 53 50 54 53 55 67 56 86 57
REMARK SMILES IDX 51 58 52 59 66 61 87 62 54 63 38 64 39 65 47 66 40 67 42 68
REMARK SMILES IDX 48 69 41 70 43 71 44 72 45 73 46 74 70 75 71 76 79 77 72 78
REMARK SMILES IDX 74 79 80 80 73 81 75 82 76 83 77 84 78 85 55 86 56 87 64 88
REMARK SMILES IDX 57 89 59 90 65 91 58 92 60 93 61 94 62 95 63 96
REMARK H PARENT 19 6 11 17 26 30 85 49 53 60
REMARK Flexibility Score: inf
ROOT
ATOM      1  C   UNL A   1      33.537  25.454  22.642  1.00  0.00     0.021 C 
ENDROOT
BRANCH   1   2
ATOM      2  C   UNL A   1      33.855  26.871  22.132  1.00  0.00     0.116 C 
BRANCH   2   3
ATOM      3  N   UNL A   1      33.928  27.826  23.239  1.00  0.00    -0.356 N 
ATOM      4  C   UNL A   1      32.994  28.542  23.923  1.00  0.00     0.220 C 
ATOM      5  O   UNL A   1      33.392  29.313  24.803  1.00  0.00    -0.275 OA
ATOM      6  H   UNL A   1      34.847  27.984  23.556  1.00  0.00     0.163 HD
BRANCH   4   7
ATOM      7  C   UNL A   1      31.507  28.380  23.675  1.00  0.00     0.105 C 
BRANCH   7   8
ATOM      8  C   UNL A   1      30.744  27.873  24.916  1.00  0.00     0.053 C 
BRANCH   8   9
ATOM      9  C   UNL A   1      30.834  26.376  25.020  1.00  0.00     0.039 A 
ATOM     10  C   UNL A   1      32.661  26.219  26.724  1.00  0.00     0.067 C 
ATOM     11  C   UNL A   1      31.682  25.621  25.747  1.00  0.00     0.048 A 
ATOM     12  N   UNL A   1      31.805  24.252  25.597  1.00  0.00    -0.240 NA
ATOM     13  C   UNL A   1      31.163  23.695  24.624  1.00  0.00     0.109 A 
ATOM     14  C   UNL A   1      29.896  25.633  24.164  1.00  0.00     0.254 A 
ATOM     15  N   UNL A   1      30.280  24.377  23.849  1.00  0.00    -0.310 N 
ATOM     16  O   UNL A   1      28.854  26.126  23.738  1.00  0.00    -0.269 OA
ATOM     17  H   UNL A   1      29.914  23.949  23.042  1.00  0.00     0.171 HD
BRANCH  13  18
ATOM     18  C   UNL A   1      31.394  22.249  24.248  1.00  0.00     0.084 C 
BRANCH  18  19
ATOM     19  C   UNL A   1      31.851  21.317  25.373  1.00  0.00     0.123 C 
BRANCH  19  20
ATOM     20  C   UNL A   1      32.597  20.078  24.932  1.00  0.00     0.389 C 
ATOM     21  F   UNL A   1      31.882  19.381  24.016  1.00  0.00    -0.171 F 
ATOM     22  F   UNL A   1      33.784  20.379  24.372  1.00  0.00    -0.171 F 
ATOM     23  F   UNL A   1      32.822  19.240  25.963  1.00  0.00    -0.171 F 
ENDBRANCH  19  20
ENDBRANCH  18  19
ENDBRANCH  13  18
ENDBRANCH   8   9
ENDBRANCH   7   8
ENDBRANCH   4   7
ENDBRANCH   2   3
ENDBRANCH   1   2
BRANCH   1  24
ATOM     24  C   UNL A   1      34.591  24.708  23.471  1.00  0.00     0.002 C 
BRANCH  24  25
ATOM     25  C   UNL A   1      34.749  23.200  23.288  1.00  0.00     0.002 C 
BRANCH  25  26
ATOM     26  C   UNL A   1      36.107  22.566  23.593  1.00  0.00     0.021 C 
BRANCH  26  27
ATOM     27  C   UNL A   1      36.494  22.202  25.034  1.00  0.00     0.116 C 
BRANCH  27  28
ATOM     28  N   UNL A   1      37.425  21.112  25.231  1.00  0.00    -0.352 N 
ATOM     29  C   UNL A   1      38.686  21.167  25.789  1.00  0.00     0.251 C 
ATOM     30  H   UNL A   1      37.122  20.224  24.931  1.00  0.00     0.163 HD
ATOM     31  O   UNL A   1      39.366  20.148  25.871  1.00  0.00    -0.269 OA
BRANCH  29  32
ATOM     32  C   UNL A   1      39.243  22.459  26.262  1.00  0.00     0.039 A 
ATOM     33  C   UNL A   1      40.304  22.442  27.173  1.00  0.00     0.014 A 
ATOM     34  C   UNL A   1      38.713  23.681  25.842  1.00  0.00     0.014 A 
ATOM     35  C   UNL A   1      40.875  23.646  27.607  1.00  0.00     0.010 A 
ATOM     36  C   UNL A   1      39.310  24.884  26.246  1.00  0.00     0.010 A 
ATOM     37  C   UNL A   1      40.405  24.881  27.124  1.00  0.00    -0.014 A 
BRANCH  37  38
ATOM     38  C   UNL A   1      41.098  26.152  27.488  1.00  0.00     0.031 A 
ATOM     39  C   UNL A   1      42.518  26.427  27.067  1.00  0.00     0.074 A 
ATOM     40  C   UNL A   1      40.463  27.051  28.268  1.00  0.00     0.049 A 
ATOM     41  N   UNL A   1      43.251  27.491  27.289  1.00  0.00    -0.248 NA
ATOM     42  C   UNL A   1      43.212  25.368  26.320  1.00  0.00     0.031 C 
ATOM     43  C   UNL A   1      39.120  26.883  28.825  1.00  0.00     0.029 A 
ATOM     44  N   UNL A   1      40.869  28.275  28.746  1.00  0.00    -0.354 N 
ATOM     45  C   UNL A   1      44.496  27.225  26.731  1.00  0.00     0.074 A 
ATOM     46  C   UNL A   1      44.427  25.884  26.186  1.00  0.00     0.031 C 
ATOM     47  C   UNL A   1      38.812  27.960  29.564  1.00  0.00     0.029 A 
ATOM     48  C   UNL A   1      39.938  28.890  29.550  1.00  0.00     0.049 A 
ATOM     49  H   UNL A   1      41.744  28.672  28.533  1.00  0.00     0.167 HD
ATOM     50  C   UNL A   1      45.586  28.028  26.649  1.00  0.00     0.034 A 
ATOM     51  C   UNL A   1      39.976  30.071  30.201  1.00  0.00     0.034 A 
ATOM     52  C   UNL A   1      45.649  29.376  27.152  1.00  0.00     0.049 A 
ATOM     53  C   UNL A   1      41.176  30.966  30.054  1.00  0.00     0.074 A 
ATOM     54  C   UNL A   1      46.678  30.295  27.024  1.00  0.00     0.029 A 
ATOM     55  N   UNL A   1      44.652  29.999  27.885  1.00  0.00    -0.354 N 
ATOM     56  N   UNL A   1      42.270  30.768  29.360  1.00  0.00    -0.248 NA
ATOM     57  C   UNL A   1      41.129  32.265  30.743  1.00  0.00     0.031 C 
ATOM     58  C   UNL A   1      46.310  31.467  27.694  1.00  0.00     0.029 A 
ATOM     59  C   UNL A   1      45.044  31.284  28.226  1.00  0.00     0.049 A 
ATOM     60  H   UNL A   1      43.791  29.589  28.128  1.00  0.00     0.167 HD
ATOM     61  C   UNL A   1      43.027  31.926  29.504  1.00  0.00     0.074 A 
ATOM     62  C   UNL A   1      42.257  32.830  30.333  1.00  0.00     0.031 C 
ATOM     63  C   UNL A   1      44.257  32.205  29.006  1.00  0.00     0.034 A 
BRANCH  50  64
ATOM     64  C   UNL A   1      46.794  27.492  25.924  1.00  0.00     0.023 A 
ATOM     65  C   UNL A   1      46.917  27.713  24.536  1.00  0.00     0.012 A 
ATOM     66  C   UNL A   1      47.833  26.838  26.614  1.00  0.00     0.148 A 
ATOM     67  C   UNL A   1      48.038  27.260  23.842  1.00  0.00     0.002 A 
ATOM     68  C   UNL A   1      48.966  26.425  25.920  1.00  0.00     0.091 A 
ATOM     69  F   UNL A   1      47.692  26.619  27.929  1.00  0.00    -0.205 F 
ATOM     70  C   UNL A   1      49.065  26.625  24.533  1.00  0.00     0.022 A 
BRANCH  68  71
ATOM     71  S   UNL A   1      50.373  25.665  26.742  1.00  0.00     0.127 S 
ATOM     72  O   UNL A   1      51.293  25.461  25.625  1.00  0.00    -0.237 OA
ATOM     73  O   UNL A   1      50.782  26.707  27.686  1.00  0.00    -0.237 OA
ATOM     74  O   UNL A   1      49.858  24.456  27.367  1.00  0.00    -0.744 OA
ENDBRANCH  68  71
ENDBRANCH  50  64
BRANCH  51  75
ATOM     75  C   UNL A   1      38.790  30.510  30.990  1.00  0.00     0.023 A 
ATOM     76  C   UNL A   1      38.778  30.316  32.386  1.00  0.00     0.012 A 
ATOM     77  C   UNL A   1      37.702  31.161  30.377  1.00  0.00     0.148 A 
ATOM     78  C   UNL A   1      37.694  30.741  33.153  1.00  0.00     0.002 A 
ATOM     79  C   UNL A   1      36.651  31.633  31.155  1.00  0.00     0.091 A 
ATOM     80  F   UNL A   1      37.728  31.322  29.047  1.00  0.00    -0.205 F 
ATOM     81  C   UNL A   1      36.637  31.410  32.540  1.00  0.00     0.022 A 
BRANCH  79  82
ATOM     82  S   UNL A   1      35.322  32.628  30.469  1.00  0.00     0.127 S 
ATOM     83  O   UNL A   1      36.033  33.834  30.056  1.00  0.00    -0.237 OA
ATOM     84  O   UNL A   1      34.846  31.784  29.373  1.00  0.00    -0.237 OA
ATOM     85  O   UNL A   1      34.362  32.797  31.552  1.00  0.00    -0.744 OA
ENDBRANCH  79  82
ENDBRANCH  51  75
BRANCH  63  86
ATOM     86  C   UNL A   1      44.855  33.553  29.322  1.00  0.00     0.023 A 
ATOM     87  C   UNL A   1      45.689  33.698  30.448  1.00  0.00     0.012 A 
ATOM     88  C   UNL A   1      44.653  34.654  28.467  1.00  0.00     0.148 A 
ATOM     89  C   UNL A   1      46.290  34.924  30.734  1.00  0.00     0.002 A 
ATOM     90  C   UNL A   1      45.290  35.862  28.734  1.00  0.00     0.091 A 
ATOM     91  F   UNL A   1      43.839  34.505  27.411  1.00  0.00    -0.205 F 
ATOM     92  C   UNL A   1      46.100  36.002  29.871  1.00  0.00     0.022 A 
BRANCH  90  93
ATOM     93  S   UNL A   1      45.171  37.276  27.630  1.00  0.00     0.127 S 
ATOM     94  O   UNL A   1      46.075  38.231  28.270  1.00  0.00    -0.237 OA
ATOM     95  O   UNL A   1      45.660  36.727  26.365  1.00  0.00    -0.237 OA
ATOM     96  O   UNL A   1      43.764  37.654  27.619  1.00  0.00    -0.744 OA
ENDBRANCH  90  93
ENDBRANCH  63  86
ENDBRANCH  37  38
ENDBRANCH  29  32
ENDBRANCH  27  28
ENDBRANCH  26  27
ENDBRANCH  25  26
ENDBRANCH  24  25
ENDBRANCH   1  24
TORSDOF 21
ENDMDL
